REMARK  4 active torsions:
REMARK  status: ('A' for Active; 'I' for Inactive)
REMARK    1  A    between atoms: C_5  and  C_1 
REMARK    2  A    between atoms: N_4  and  C_2 
REMARK    3  A    between atoms: O_11  and  C_5 
REMARK    4  A    between atoms: C_15  and  O_11 
ROOT
ATOM      1  C   UNL d   1       0.421  -1.485   0.005  0.00  0.00     0.087 A 
ATOM      2  C   UNL d   1      -0.931  -1.922  -0.045  0.00  0.00     0.048 A 
ATOM      3  C   UNL d   1       0.731  -0.103   0.005  0.00  0.00     0.053 A 
ATOM      4  C   UNL d   1      -1.912  -0.901  -0.058  0.00  0.00     0.037 A 
ATOM      5  C   UNL d   1      -0.279   0.859  -0.048  0.00  0.00     0.031 A 
ATOM      6  C   UNL d   1      -1.611   0.469  -0.058  0.00  0.00    -0.058 A 
ATOM      7 CL   UNL d   1       2.341   0.529   0.163  0.00  0.00    -0.083 Cl
ATOM      8  C   UNL d   1      -2.718   1.481  -0.048  0.00  0.00     0.048 C 
ENDROOT
BRANCH   1   9
ATOM      9  C   UNL d   1       1.522  -2.425   0.309  0.00  0.00     0.297 C 
ATOM     10  O   UNL d   1       1.547  -3.119   1.317  0.00  0.00    -0.259 OA
BRANCH   9  11
ATOM     11  O   UNL d   1       2.516  -2.322  -0.612  0.00  0.00    -0.318 OA
BRANCH  11  12
ATOM     12  C   UNL d   1       3.808  -2.772  -0.163  0.00  0.00     0.174 C 
ATOM     13  C   UNL d   1       4.527  -3.478  -1.294  0.00  0.00     0.034 C 
ENDBRANCH  11  12
ENDBRANCH   9  11
ENDBRANCH   1   9
BRANCH   2  14
ATOM     14  N   UNL d   1      -1.346  -3.244  -0.064  0.00  0.00    -0.380 N 
ATOM     15  C   UNL d   1      -0.626  -4.318  -0.752  0.00  0.00     0.123 C 
ATOM     16  C   UNL d   1      -1.724  -5.324  -1.107  0.00  0.00     0.021 C 
ATOM     17  C   UNL d   1      -2.696  -5.181   0.051  0.00  0.00     0.021 C 
ATOM     18  C   UNL d   1      -2.708  -3.672   0.277  0.00  0.00     0.123 C 
ENDBRANCH   2  14
TORSDOF 4
