REMARK  2 active torsions:
REMARK  status: ('A' for Active; 'I' for Inactive)
REMARK    1  A    between atoms: N_3  and  C_1 
REMARK       I    between atoms: C_7  and  N_3 
REMARK       I    between atoms: N_9  and  C_7 
REMARK    2  A    between atoms: C_10  and  N_9 
ROOT
ATOM      1  N   UNL d   1       3.222  -3.636   0.029  0.00  0.00    -0.292 N 
ATOM      2  C   UNL d   1       2.062  -2.915  -0.337  0.00  0.00     0.326 C 
ATOM      3  N   UNL d   1       0.859  -3.472  -0.024  0.00  0.00    -0.308 N 
ATOM      4  O   UNL d   1       2.313  -1.796  -0.745  0.00  0.00    -0.247 OA
ATOM      5  H   UNL d   1       4.008  -2.997   0.077  0.00  0.00     0.172 HD
ATOM      6  H   UNL d   1       0.876  -4.327   0.505  0.00  0.00     0.170 HD
ENDROOT
BRANCH   1   7
ATOM      7  C   UNL d   1       3.503  -4.986   0.140  0.00  0.00     0.144 A 
ATOM      8  C   UNL d   1       2.860  -6.108  -0.337  0.00  0.00     0.073 A 
ATOM      9  C   UNL d   1       3.717  -7.189  -0.060  0.00  0.00     0.130 A 
ATOM     10 BR   UNL d   1       1.276  -6.344  -1.302  0.00  0.00    -0.045 Br
ATOM     11  N   UNL d   1       4.814  -6.805   0.593  0.00  0.00    -0.307 N 
ATOM     12  N   UNL d   1       4.662  -5.475   0.718  0.00  0.00    -0.280 N 
ATOM     13  HN  UNL d   1       5.587  -7.384   0.921  1.00  0.00     0.186 HD
ATOM     14  C   UNL d   1       5.656  -4.745   1.471  0.00  0.00     0.179 C 
ENDBRANCH   1   7
BRANCH   3  15
ATOM     15  C   UNL d   1      -0.395  -2.802  -0.153  0.00  0.00     0.047 A 
ATOM     16  C   UNL d   1      -1.525  -3.224   0.616  0.00  0.00     0.001 A 
ATOM     17  C   UNL d   1      -2.716  -2.446   0.546  0.00  0.00    -0.024 A 
ATOM     18  C   UNL d   1      -1.552  -4.350   1.480  0.00  0.00     0.014 A 
ATOM     19  C   UNL d   1      -3.835  -2.778   1.323  0.00  0.00     0.012 A 
ATOM     20  C   UNL d   1      -2.784  -1.327  -0.293  0.00  0.00     0.012 A 
ATOM     21  C   UNL d   1      -3.820  -3.883   2.168  0.00  0.00     0.001 A 
ATOM     22  C   UNL d   1      -2.683  -4.674   2.239  0.00  0.00     0.001 A 
ATOM     23  C   UNL d   1      -1.702  -0.964  -1.081  0.00  0.00     0.003 A 
ATOM     24  C   UNL d   1      -0.522  -1.697  -1.013  0.00  0.00     0.030 A 
ENDBRANCH   3  15
TORSDOF 2
