REMARK  4 active torsions:
REMARK  status: ('A' for Active; 'I' for Inactive)
REMARK       I    between atoms: C_2  and  N_9 
REMARK    1  A    between atoms: C_15  and  C_2 
REMARK    2  A    between atoms: N_8  and  C_4 
REMARK    3  A    between atoms: C_16  and  C_5 
REMARK    4  A    between atoms: N_9  and  N_6 
ROOT
ATOM      1  N   UNL d   1       0.168  -3.635  -0.063  0.00  0.00    -0.308 N 
ATOM      2  HN  UNL d   1       1.187  -3.621  -0.086  1.00  0.00     0.186 HD
ATOM      3  C   UNL d   1      -0.510  -2.531  -0.030  0.00  0.00     0.120 C 
ENDROOT
BRANCH   1   4
ATOM      4  N   UNL d   1      -0.513  -4.814  -0.065  0.00  0.00    -0.266 N 
ATOM      5  C   UNL d   1       0.236  -5.987  -0.050  0.00  0.00     0.270 C 
ATOM      6  O   UNL d   1       1.463  -6.029  -0.021  0.00  0.00    -0.266 OA
ATOM      7  H   UNL d   1      -1.521  -4.810   0.025  0.00  0.00     0.190 HD
BRANCH   5   8
ATOM      8  C   UNL d   1      -0.509  -7.274  -0.043  0.00  0.00     0.036 A 
ATOM      9  C   UNL d   1      -1.777  -7.421  -0.604  0.00  0.00     0.034 A 
ATOM     10  C   UNL d   1      -2.348  -8.684  -0.584  0.00  0.00     0.088 A 
ATOM     11  N   UNL d   1      -1.754  -9.773  -0.052  0.00  0.00    -0.375 N 
ATOM     12  C   UNL d   1      -0.521  -9.606   0.470  0.00  0.00     0.088 A 
ATOM     13  HN  UNL d   1      -2.216 -10.683  -0.046  1.00  0.00     0.164 HD
ATOM     14  C   UNL d   1       0.136  -8.391   0.495  0.00  0.00     0.034 A 
ENDBRANCH   5   8
ENDBRANCH   1   4
BRANCH   3  15
ATOM     15  C   UNL d   1       0.204  -1.229  -0.016  0.00  0.00     0.003 A 
ATOM     16  C   UNL d   1      -0.456  -0.001  -0.007  0.00  0.00     0.047 A 
ATOM     17  C   UNL d   1       0.283   1.198   0.001  0.00  0.00     0.054 A 
ATOM     18 CL   UNL d   1      -2.180   0.128  -0.017  0.00  0.00    -0.083 Cl
ATOM     19  C   UNL d   1       1.690   1.219   0.003  0.00  0.00     0.031 A 
ATOM     20  C   UNL d   1       2.323  -0.032  -0.001  0.00  0.00     0.030 A 
ATOM     21  C   UNL d   1       1.602  -1.234  -0.012  0.00  0.00     0.017 A 
BRANCH  19  22
ATOM     22  N   UNL d   1       2.407   2.402  -0.004  0.00  0.00    -0.390 N 
ATOM     23  C   UNL d   1       1.901   3.625   0.610  0.00  0.00     0.149 C 
ATOM     24  C   UNL d   1       3.756   2.494  -0.556  0.00  0.00     0.149 C 
ENDBRANCH  19  22
ENDBRANCH   3  15
TORSDOF 4
