REMARK  3 active torsions:
REMARK  status: ('A' for Active; 'I' for Inactive)
REMARK    1  A    between atoms: N_11  and  C_3 
REMARK    2  A    between atoms: N_14  and  C_6 
REMARK    3  A    between atoms: C_13  and  N_11 
ROOT
ATOM      1  N   UNL d   1      -3.189  -5.137   2.935  0.00  0.00    -0.191 NA
ATOM      2  C   UNL d   1      -3.342  -4.376   2.073  0.00  0.00     0.099 C 
ATOM      3  C   UNL d   1      -3.004  -1.285  -0.014  0.00  0.00     0.050 A 
ATOM      4  C   UNL d   1      -3.533  -3.435   1.010  0.00  0.00     0.046 A 
ATOM      5  C   UNL d   1      -2.819  -2.228   1.007  0.00  0.00     0.052 A 
ATOM      6  C   UNL d   1      -4.635  -2.790  -1.034  0.00  0.00     0.004 A 
ATOM      7  C   UNL d   1      -3.925  -1.587  -1.026  0.00  0.00     0.030 A 
ATOM      8  C   UNL d   1      -4.442  -3.715  -0.013  0.00  0.00     0.023 A 
ENDROOT
BRANCH   3   9
ATOM      9  N   UNL d   1      -2.351  -0.049   0.069  0.00  0.00    -0.192 N 
ATOM     10  H   UNL d   1      -1.477  -0.004   0.571  0.00  0.00     0.184 HD
BRANCH   9  11
ATOM     11  C   UNL d   1      -2.683   1.194  -0.470  0.00  0.00     0.685 A 
ATOM     12  N   UNL d   1      -3.882   1.386  -1.013  0.00  0.00    -0.166 N 
ATOM     13  C   UNL d   1      -4.137   2.596  -1.472  0.00  0.00     0.170 A 
ATOM     14  HN  UNL d   1      -4.570   0.635  -1.070  1.00  0.00     0.187 HD
ATOM     15  N   UNL d   1      -3.304   3.619  -1.411  0.00  0.00    -0.328 N 
ATOM     16  C   UNL d   1      -2.134   3.330  -0.853  0.00  0.00     0.200 A 
ATOM     17  HN  UNL d   1      -3.539   4.548  -1.761  1.00  0.00     0.169 HD
ATOM     18  N   UNL d   1      -1.768   2.151  -0.355  0.00  0.00    -0.188 N 
ATOM     19  HN  UNL d   1      -0.859   1.995   0.081  1.00  0.00     0.185 HD
BRANCH  13  20
ATOM     20  N   UNL d   1      -5.391   2.805  -2.012  0.00  0.00    -0.273 NA
ATOM     21  H   UNL d   1      -6.035   2.118  -1.644  0.00  0.00     0.127 HD
ATOM     22  H   UNL d   1      -5.654   3.776  -1.923  0.00  0.00     0.127 HD
ENDBRANCH  13  20
ENDBRANCH   9  11
ENDBRANCH   3   9
TORSDOF 3
