REMARK  6 active torsions:
REMARK  status: ('A' for Active; 'I' for Inactive)
REMARK    1  A    between atoms: C_2  and  C_1 
REMARK    2  A    between atoms: C_4  and  C_1 
REMARK    3  A    between atoms: C_5  and  C_2 
REMARK    4  A    between atoms: S_11  and  C_3 
REMARK    5  A    between atoms: S_12  and  C_3 
REMARK    6  A    between atoms: N_6  and  C_4 
ROOT
ATOM      1  C   UNL d   1       1.078  -0.029   0.056  0.00  0.00     0.100 C 
ATOM      2  C   UNL d   1       0.369   0.417  -1.009  0.00  0.00     0.059 C 
ENDROOT
BRANCH   1   3
ATOM      3  C   UNL d   1       0.442  -0.464   1.347  0.00  0.00     0.203 C 
ATOM      4  O   UNL d   1      -0.596  -1.121   1.358  0.00  0.00    -0.286 OA
BRANCH   3   5
ATOM      5  C   UNL d   1       1.132  -0.231   2.653  0.00  0.00     0.017 A 
ATOM      6  C   UNL d   1       1.998   0.844   2.893  0.00  0.00     0.039 A 
ATOM      7  C   UNL d   1       2.653   0.944   4.125  0.00  0.00     0.035 A 
ATOM      8 CL   UNL d   1       3.770   2.226   4.393  0.00  0.00    -0.084 Cl
ATOM      9  C   UNL d   1       2.420   0.016   5.137  0.00  0.00     0.024 A 
ATOM     10  C   UNL d   1       1.517  -1.023   4.925  0.00  0.00     0.003 A 
ATOM     11  C   UNL d   1       0.877  -1.144   3.690  0.00  0.00     0.015 A 
ENDBRANCH   3   5
ENDBRANCH   1   3
BRANCH   1  12
ATOM     12  C   UNL d   1       2.598  -0.029   0.056  0.00  0.00    -0.031 C 
BRANCH  12  13
ATOM     13  N   UNL d   1       3.859  -0.029   0.056  0.00  0.00    -0.365 N 
ATOM     14  HN2 UNL d   1       2.839  -0.029   0.056  1.00  0.00     0.165 HD
ATOM     15  HN1 UNL d   1       4.879  -0.029   0.056  1.00  0.00     0.165 HD
ENDBRANCH  12  13
ENDBRANCH   1  12
BRANCH   2  16
ATOM     16  S   UNL d   1       1.195   0.916  -2.484  0.00  0.00    -0.126 SA
ATOM     17  C   UNL d   1       0.324  -0.055  -3.736  0.00  0.00     0.096 C 
ENDBRANCH   2  16
BRANCH   2  18
ATOM     18  S   UNL d   1      -1.337   0.831  -0.900  0.00  0.00    -0.126 SA
ATOM     19  C   UNL d   1      -2.130  -0.740  -1.312  0.00  0.00     0.096 C 
ENDBRANCH   2  18
TORSDOF 6
