REMARK  7 active torsions:
REMARK  status: ('A' for Active; 'I' for Inactive)
REMARK    1  A    between atoms: N_4  and  S_1 
REMARK    2  A    between atoms: C_8  and  S_1 
REMARK    3  A    between atoms: C_6  and  C_2 
REMARK    4  A    between atoms: C_3  and  N_4 
REMARK    5  A    between atoms: O_16  and  C_6 
REMARK    6  A    between atoms: O_17  and  C_9 
REMARK    7  A    between atoms: O_18  and  C_10 
ROOT
ATOM      1  C   UNL d   1       2.136   2.651   1.458  0.00  0.00     0.062 A 
ATOM      2  C   UNL d   1       0.858   2.409   0.930  0.00  0.00     0.042 A 
ATOM      3  C   UNL d   1       2.256   3.473   2.586  0.00  0.00     0.059 A 
ATOM      4  C   UNL d   1      -0.272   2.998   1.530  0.00  0.00     0.065 A 
ATOM      5  C   UNL d   1       1.136   4.061   3.186  0.00  0.00     0.102 A 
ATOM      6  C   UNL d   1      -0.140   3.852   2.637  0.00  0.00     0.103 A 
ENDROOT
BRANCH   2   7
ATOM      7  N   UNL d   1       0.665   1.504  -0.196  0.00  0.00    -0.180 NA
ATOM      8  H   UNL d   1      -0.153   1.800  -0.745  0.00  0.00     0.146 HD
BRANCH   7   9
ATOM      9  S   UNL d   1       0.263  -0.108   0.304  0.00  0.00     0.245 S 
ATOM     10  O   UNL d   1      -1.182  -0.167   0.251  0.00  0.00    -0.206 OA
ATOM     11  O   UNL d   1       1.008  -0.429   1.497  0.00  0.00    -0.206 OA
BRANCH   9  12
ATOM     12  C   UNL d   1       0.922  -1.060  -1.044  0.00  0.00     0.074 A 
ATOM     13  C   UNL d   1       2.253  -1.479  -1.006  0.00  0.00     0.025 A 
ATOM     14  C   UNL d   1       2.762  -2.269  -2.039  0.00  0.00     0.008 A 
ATOM     15  C   UNL d   1       1.942  -2.656  -3.109  0.00  0.00    -0.062 A 
ATOM     16  C   UNL d   1       0.607  -2.234  -3.134  0.00  0.00     0.008 A 
ATOM     17  C   UNL d   1       2.501  -3.526  -4.200  0.00  0.00     0.048 C 
ATOM     18  C   UNL d   1       0.091  -1.442  -2.103  0.00  0.00     0.025 A 
ENDBRANCH   9  12
ENDBRANCH   7   9
ENDBRANCH   2   7
BRANCH   1  19
ATOM     19  C   UNL d   1       3.407   2.133   0.874  0.00  0.00     0.178 C 
ATOM     20  O   UNL d   1       4.482   2.215   1.448  0.00  0.00    -0.646 OA
BRANCH  19  21
ATOM     21  O   UNL d   1       3.301   1.631  -0.374  0.00  0.00    -0.773 OA
ATOM     22  H   UNL d   1       2.379   1.632  -0.707  0.00  0.00     0.167 HD
ENDBRANCH  19  21
ENDBRANCH   1  19
BRANCH   6  23
ATOM     23  O   UNL d   1      -1.185   4.522   3.212  0.00  0.00    -0.353 OA
ATOM     24  C   UNL d   1      -2.456   4.485   2.578  0.00  0.00     0.210 C 
ENDBRANCH   6  23
BRANCH   5  25
ATOM     25  O   UNL d   1       1.454   4.866   4.248  0.00  0.00    -0.353 OA
ATOM     26  C   UNL d   1       0.504   4.945   5.305  0.00  0.00     0.210 C 
ENDBRANCH   5  25
TORSDOF 7
