REMARK  7 active torsions:
REMARK  status: ('A' for Active; 'I' for Inactive)
REMARK    1  A    between atoms: C_7  and  C_1 
REMARK    2  A    between atoms: C_3  and  C_2 
REMARK    3  A    between atoms: S_11  and  C_6 
REMARK    4  A    between atoms: O_16  and  C_7 
REMARK    5  A    between atoms: C_17  and  S_11 
REMARK    6  A    between atoms: C_24  and  O_16 
REMARK    7  A    between atoms: C_18  and  C_17 
ROOT
ATOM      1  C   UNL d   1      -0.032  -1.461   0.055  0.00  0.00     0.086 A 
ATOM      2  C   UNL d   1       1.188  -0.812   0.038  0.00  0.00     0.136 A 
ATOM      3  N   UNL d   1       1.250   0.559   0.068  0.00  0.00    -0.332 N 
ATOM      4  HN  UNL d   1       2.154   1.031   0.081  1.00  0.00     0.168 HD
ATOM      5  C   UNL d   1       0.115   1.273   0.080  0.00  0.00     0.144 A 
ATOM      6  N   UNL d   1      -1.103   0.723   0.084  0.00  0.00    -0.346 N 
ATOM      7  HN  UNL d   1      -1.952   1.289   0.100  1.00  0.00     0.167 HD
ATOM      8  C   UNL d   1      -1.145  -0.633   0.065  0.00  0.00     0.110 A 
ENDROOT
BRANCH   5   9
ATOM      9  S   UNL d   1       0.314   3.024  -0.075  0.00  0.00    -0.089 SA
BRANCH   9  10
ATOM     10  C   UNL d   1      -1.121   3.628   0.862  0.00  0.00     0.121 C 
BRANCH  10  11
ATOM     11  C   UNL d   1      -1.064   5.135   1.008  0.00  0.00    -0.049 A 
ATOM     12  C   UNL d   1      -1.600   5.972   0.019  0.00  0.00     0.008 A 
ATOM     13  C   UNL d   1      -1.514   7.363   0.137  0.00  0.00     0.007 A 
ATOM     14  C   UNL d   1      -0.889   7.947   1.245  0.00  0.00    -0.062 A 
ATOM     15  C   UNL d   1      -0.347   7.116   2.230  0.00  0.00     0.007 A 
ATOM     16  C   UNL d   1      -0.802   9.441   1.356  0.00  0.00     0.048 C 
ATOM     17  C   UNL d   1      -0.430   5.724   2.112  0.00  0.00     0.008 A 
ENDBRANCH  10  11
ENDBRANCH   9  10
ENDBRANCH   5   9
BRANCH   2  18
ATOM     18  C   UNL d   1       2.534  -1.500  -0.080  0.00  0.00     0.433 C 
ATOM     19  F   UNL d   1       2.514  -2.828  -0.365  0.00  0.00    -0.165 F 
ATOM     20  F   UNL d   1       3.292  -0.958  -1.081  0.00  0.00    -0.165 F 
ATOM     21  F   UNL d   1       3.281  -1.372   1.054  0.00  0.00    -0.165 F 
ENDBRANCH   2  18
BRANCH   1  22
ATOM     22  C   UNL d   1      -0.282  -2.908  -0.004  0.00  0.00     0.296 C 
ATOM     23  O   UNL d   1      -1.218  -3.382  -0.630  0.00  0.00    -0.259 OA
BRANCH  22  24
ATOM     24  O   UNL d   1       0.580  -3.584   0.784  0.00  0.00    -0.318 OA
BRANCH  24  25
ATOM     25  C   UNL d   1       0.446  -5.019   0.778  0.00  0.00     0.174 C 
ATOM     26  C   UNL d   1       0.979  -5.634  -0.509  0.00  0.00     0.034 C 
ENDBRANCH  24  25
ENDBRANCH  22  24
ENDBRANCH   1  22
TORSDOF 7
