REMARK  4 active torsions:
REMARK  status: ('A' for Active; 'I' for Inactive)
REMARK    1  A    between atoms: C_5  and  S_1 
REMARK    2  A    between atoms: C_2  and  C_4 
REMARK    3  A    between atoms: O_9  and  C_2 
REMARK    4  A    between atoms: C_3  and  C_5 
ROOT
ATOM      1  C   UNL d   1       0.806   2.743   0.245  0.00  0.00    -0.028 A 
ATOM      2  C   UNL d   1       0.686   4.044  -0.315  0.00  0.00     0.046 A 
ATOM      3  C   UNL d   1       1.216   2.658   1.591  0.00  0.00     0.009 A 
ATOM      4  C   UNL d   1       0.916   5.184   0.485  0.00  0.00     0.018 A 
ATOM      5  C   UNL d   1       1.454   3.798   2.365  0.00  0.00     0.001 A 
ATOM      6  C   UNL d   1       1.293   5.061   1.817  0.00  0.00     0.001 A 
ENDROOT
BRANCH   1   7
ATOM      7  C   UNL d   1       0.471   1.523  -0.601  0.00  0.00     0.179 C 
BRANCH   7   8
ATOM      8  S   UNL d   1       0.682  -0.060   0.207  0.00  0.00     0.144 S 
ATOM      9  O   UNL d   1      -0.190  -0.129   1.369  0.00  0.00    -0.228 OA
ATOM     10  O   UNL d   1       2.100  -0.335   0.329  0.00  0.00    -0.228 OA
ATOM     11  C   UNL d   1       0.022  -1.205  -0.977  0.00  0.00     0.161 C 
ENDBRANCH   7   8
ENDBRANCH   1   7
BRANCH   2  12
ATOM     12  C   UNL d   1       0.297   4.261  -1.746  0.00  0.00     0.293 C 
ATOM     13  O   UNL d   1      -0.317   3.460  -2.433  0.00  0.00    -0.259 OA
BRANCH  12  14
ATOM     14  O   UNL d   1       0.759   5.469  -2.162  0.00  0.00    -0.323 OA
ATOM     15  C   UNL d   1       0.411   5.831  -3.498  0.00  0.00     0.213 C 
ENDBRANCH  12  14
ENDBRANCH   2  12
TORSDOF 4
