REMARK  4 active torsions:
REMARK  status: ('A' for Active; 'I' for Inactive)
REMARK       I    between atoms: N_2  and  C_1 
REMARK    1  A    between atoms: C_5  and  C_1 
REMARK    2  A    between atoms: C_4  and  N_3 
REMARK    3  A    between atoms: C_11  and  C_4 
REMARK    4  A    between atoms: C_12  and  C_4 
ROOT
ATOM      1  C   UNL d   1      -1.584   3.953  -1.673  0.00  0.00     0.289 C 
ENDROOT
BRANCH   1   2
ATOM      2  N   UNL d   1      -0.382   3.961  -0.780  0.00  0.00     0.105 N 
ATOM      3  C   UNL d   1      -0.645   3.234   0.490  0.00  0.00     0.293 C 
ATOM      4  C   UNL d   1      -0.821   1.710   0.323  0.00  0.00     0.156 C 
ATOM      5  N   UNL d   1       0.323   1.101  -0.369  0.00  0.00    -0.348 N 
ATOM      6  C   UNL d   1       0.913  -0.130  -0.119  0.00  0.00     0.227 C 
ATOM      7  C   UNL d   1       0.710   1.805  -1.601  0.00  0.00     0.156 C 
ATOM      8  O   UNL d   1       1.825  -0.533  -0.860  0.00  0.00    -0.273 OA
ATOM      9  C   UNL d   1       0.816   3.323  -1.387  0.00  0.00     0.293 C 
BRANCH   6  10
ATOM     10  C   UNL d   1       0.448  -1.025   1.054  0.00  0.00     0.030 C 
ATOM     11  C   UNL d   1      -1.014  -1.458   0.852  0.00  0.00     0.025 C 
ATOM     12  C   UNL d   1       1.292  -2.327   1.044  0.00  0.00     0.025 C 
ATOM     13  C   UNL d   1       0.693  -0.374   2.426  0.00  0.00     0.025 C 
ENDBRANCH   6  10
ENDBRANCH   1   2
BRANCH   1  14
ATOM     14  C   UNL d   1      -2.794   4.623  -1.009  0.00  0.00    -0.021 A 
ATOM     15  C   UNL d   1      -2.737   5.960  -0.582  0.00  0.00     0.010 A 
ATOM     16  C   UNL d   1      -3.846   6.568   0.007  0.00  0.00     0.001 A 
ATOM     17  C   UNL d   1      -5.024   5.847   0.188  0.00  0.00     0.000 A 
ATOM     18  C   UNL d   1      -5.091   4.513  -0.210  0.00  0.00     0.001 A 
ATOM     19  C   UNL d   1      -3.985   3.904  -0.807  0.00  0.00     0.010 A 
ENDBRANCH   1  14
BRANCH   1  20
ATOM     20  C   UNL d   1      -1.359   4.546  -3.071  0.00  0.00    -0.021 A 
ATOM     21  C   UNL d   1      -2.060   4.007  -4.166  0.00  0.00     0.010 A 
ATOM     22  C   UNL d   1      -1.853   4.495  -5.457  0.00  0.00     0.001 A 
ATOM     23  C   UNL d   1      -0.948   5.530  -5.673  0.00  0.00     0.000 A 
ATOM     24  C   UNL d   1      -0.273   6.100  -4.596  0.00  0.00     0.001 A 
ATOM     25  C   UNL d   1      -0.491   5.625  -3.302  0.00  0.00     0.010 A 
ENDBRANCH   1  20
TORSDOF 4
