REMARK  7 active torsions:
REMARK  status: ('A' for Active; 'I' for Inactive)
REMARK    1  A    between atoms: N_2  and  C_1 
REMARK    2  A    between atoms: C_3  and  C_1 
REMARK    3  A    between atoms: C_4  and  C_1 
REMARK    4  A    between atoms: N_6  and  C_1 
REMARK       I    between atoms: C_5  and  N_2 
REMARK    5  A    between atoms: C_7  and  C_5 
REMARK    6  A    between atoms: C_19  and  N_6 
REMARK    7  A    between atoms: C_9  and  C_10 
ROOT
ATOM      1  C   UNL d   1       0.851   0.034  -0.106  0.00  0.00     0.290 C 
ENDROOT
BRANCH   1   2
ATOM      2  N   UNL d   1       0.804   1.467  -0.431  0.00  0.00    -0.320 N 
ATOM      3  C   UNL d   1      -0.245   2.274  -0.073  0.00  0.00     0.254 C 
ATOM      4  O   UNL d   1      -1.251   1.765   0.416  0.00  0.00    -0.268 OA
ATOM      5  H   UNL d   1       1.658   1.826  -0.832  0.00  0.00     0.165 HD
BRANCH   3   6
ATOM      6  C   UNL d   1      -0.095   3.747  -0.283  0.00  0.00     0.037 A 
ATOM      7  C   UNL d   1      -0.803   4.692   0.490  0.00  0.00    -0.046 A 
ATOM      8  C   UNL d   1      -1.672   4.355   1.673  0.00  0.00     0.049 C 
ATOM      9  C   UNL d   1      -0.708   6.061   0.159  0.00  0.00     0.007 A 
ATOM     10  C   UNL d   1       0.133   6.500  -0.861  0.00  0.00     0.001 A 
ATOM     11  C   UNL d   1       0.887   5.579  -1.574  0.00  0.00     0.001 A 
ATOM     12  C   UNL d   1       0.761   4.211  -1.303  0.00  0.00     0.017 A 
ENDBRANCH   3   6
ENDBRANCH   1   2
BRANCH   1  13
ATOM     13  C   UNL d   1      -0.146  -0.849  -0.955  0.00  0.00     0.435 C 
ATOM     14  F   UNL d   1      -0.853  -0.122  -1.856  0.00  0.00    -0.167 F 
ATOM     15  F   UNL d   1       0.584  -1.736  -1.707  0.00  0.00    -0.167 F 
ATOM     16  F   UNL d   1      -1.016  -1.609  -0.268  0.00  0.00    -0.167 F 
ENDBRANCH   1  13
BRANCH   1  17
ATOM     17  C   UNL d   1       0.567  -0.348   1.393  0.00  0.00     0.435 C 
ATOM     18  F   UNL d   1       0.975   0.632   2.243  0.00  0.00    -0.167 F 
ATOM     19  F   UNL d   1      -0.724  -0.588   1.699  0.00  0.00    -0.167 F 
ATOM     20  F   UNL d   1       1.258  -1.467   1.739  0.00  0.00    -0.167 F 
ENDBRANCH   1  17
BRANCH   1  21
ATOM     21  N   UNL d   1       2.280  -0.270  -0.570  0.00  0.00    -0.251 NA
ATOM     22  H   UNL d   1       2.296  -1.211  -0.978  0.00  0.00     0.130 HD
BRANCH  21  23
ATOM     23  C   UNL d   1       3.388  -0.073   0.260  0.00  0.00     0.010 A 
ATOM     24  C   UNL d   1       4.465  -0.970   0.182  0.00  0.00     0.024 A 
ATOM     25  C   UNL d   1       5.611  -0.812   0.980  0.00  0.00     0.017 A 
ATOM     26  C   UNL d   1       5.706   0.275   1.847  0.00  0.00     0.009 A 
ATOM     27  C   UNL d   1       4.663   1.201   1.895  0.00  0.00     0.017 A 
ATOM     28  C   UNL d   1       3.531   1.036   1.096  0.00  0.00     0.024 A 
BRANCH  26  29
ATOM     29  C   UNL d   1       6.875   0.497   2.744  0.00  0.00     0.155 C 
ATOM     30  O   UNL d   1       6.758   1.230   3.724  0.00  0.00    -0.293 OA
ATOM     31  C   UNL d   1       8.181  -0.185   2.437  0.00  0.00     0.096 C 
ENDBRANCH  26  29
ENDBRANCH  21  23
ENDBRANCH   1  21
TORSDOF 7
