REMARK  4 active torsions:
REMARK  status: ('A' for Active; 'I' for Inactive)
REMARK    1  A    between atoms: N_5  and  C_1 
REMARK    2  A    between atoms: S_4  and  C_2 
REMARK    3  A    between atoms: N_3  and  C_6 
REMARK    4  A    between atoms: C_8  and  C_7 
ROOT
ATOM      1  C   UNL d   1      -3.016   0.035   2.562  0.00  0.00     0.140 C 
ATOM      2  C   UNL d   1      -3.313  -1.260   2.780  0.00  0.00     0.065 C 
ATOM      3  C   UNL d   1      -3.697   1.131   3.142  0.00  0.00     0.111 C 
ATOM      4  N   UNL d   1      -4.269   2.043   3.582  0.00  0.00    -0.191 NA
ENDROOT
BRANCH   1   5
ATOM      5  S   UNL d   1      -1.799   0.451   1.384  0.00  0.00     0.181 S 
ATOM      6  O   UNL d   1      -0.945   1.495   1.916  0.00  0.00    -0.222 OA
ATOM      7  O   UNL d   1      -1.202  -0.758   0.841  0.00  0.00    -0.222 OA
ATOM      8  C   UNL d   1      -2.760   1.175   0.067  0.00  0.00     0.168 C 
ENDBRANCH   1   5
BRANCH   2   9
ATOM      9  C   UNL d   1      -4.542  -1.641   3.395  0.00  0.00     0.041 A 
ATOM     10  N   UNL d   1      -4.690  -2.261   4.644  0.00  0.00    -0.320 N 
ATOM     11  C   UNL d   1      -6.046  -2.550   4.774  0.00  0.00     0.097 A 
ATOM     12  C   UNL d   1      -6.754  -2.010   3.734  0.00  0.00     0.020 A 
ATOM     13  C   UNL d   1      -5.814  -1.446   2.865  0.00  0.00     0.031 A 
BRANCH  10  14
ATOM     14  C   UNL d   1      -3.735  -2.729   5.609  0.00  0.00     0.072 C 
ATOM     15  C   UNL d   1      -4.082  -2.868   6.972  0.00  0.00     0.130 C 
ATOM     16  C   UNL d   1      -3.357  -3.694   7.843  0.00  0.00     0.045 C 
ATOM     17  C   UNL d   1      -2.240  -4.378   7.371  0.00  0.00    -0.059 C 
ATOM     18  C   UNL d   1      -1.804  -4.133   6.060  0.00  0.00     0.009 C 
ATOM     19  C   UNL d   1      -1.599  -5.441   8.215  0.00  0.00     0.048 C 
ATOM     20  C   UNL d   1      -2.533  -3.307   5.185  0.00  0.00     0.033 C 
BRANCH  15  21
ATOM     21  N   UNL d   1      -5.174  -2.110   7.574  0.00  0.00    -0.113 N 
ATOM     22  O   UNL d   1      -5.191  -0.889   7.379  0.00  0.00    -0.532 OA
ATOM     23  O   UNL d   1      -5.988  -2.744   8.259  0.00  0.00    -0.532 OA
ENDBRANCH  15  21
ENDBRANCH  10  14
ENDBRANCH   2   9
TORSDOF 4
