REMARK  4 active torsions:
REMARK  status: ('A' for Active; 'I' for Inactive)
REMARK    1  A    between atoms: N_2  and  C_1 
REMARK    2  A    between atoms: C_3  and  N_2 
REMARK    3  A    between atoms: N_8  and  C_3 
REMARK    4  A    between atoms: C_11  and  N_8 
ROOT
ATOM      1  C   UNL d   1      -1.517  -3.058  -0.217  0.00  0.00     0.177 C 
ATOM      2  S   UNL d   1      -1.324  -4.691  -0.567  0.00  0.00    -0.040 SA
ENDROOT
BRANCH   1   3
ATOM      3  N   UNL d   1      -0.379  -2.403   0.159  0.00  0.00    -0.318 N 
ATOM      4  H   UNL d   1       0.391  -3.041   0.343  0.00  0.00     0.170 HD
BRANCH   3   5
ATOM      5  C   UNL d   1      -0.086  -1.060   0.306  0.00  0.00     0.125 C 
ATOM      6  N   UNL d   1      -0.716   0.061  -0.190  0.00  0.00    -0.281 N 
ATOM      7  N   UNL d   1      -0.139   1.214   0.233  0.00  0.00    -0.308 N 
ATOM      8  C   UNL d   1      -1.732   0.187  -1.208  0.00  0.00     0.179 C 
ATOM      9  C   UNL d   1       0.952   0.811   0.882  0.00  0.00     0.111 C 
ATOM     10  HN  UNL d   1      -0.466   2.169   0.088  1.00  0.00     0.186 HD
ATOM     11  C   UNL d   1       1.045  -0.583   0.940  0.00  0.00     0.068 C 
ENDBRANCH   3   5
ENDBRANCH   1   3
BRANCH   1  12
ATOM     12  N   UNL d   1      -2.702  -2.375  -0.135  0.00  0.00    -0.333 N 
ATOM     13  H   UNL d   1      -2.759  -1.768   0.676  0.00  0.00     0.168 HD
BRANCH  12  14
ATOM     14  C   UNL d   1      -3.926  -2.700  -0.768  0.00  0.00     0.034 A 
ATOM     15  C   UNL d   1      -5.123  -2.355  -0.134  0.00  0.00     0.031 A 
ATOM     16  C   UNL d   1      -6.352  -2.670  -0.726  0.00  0.00     0.026 A 
ATOM     17  C   UNL d   1      -6.385  -3.300  -1.969  0.00  0.00     0.034 A 
ATOM     18  C   UNL d   1      -5.201  -3.603  -2.631  0.00  0.00     0.026 A 
ATOM     19 CL   UNL d   1      -7.894  -3.694  -2.693  0.00  0.00    -0.084 Cl
ATOM     20  C   UNL d   1      -3.975  -3.296  -2.034  0.00  0.00     0.031 A 
ENDBRANCH  12  14
ENDBRANCH   1  12
TORSDOF 4
