REMARK  6 active torsions:
REMARK  status: ('A' for Active; 'I' for Inactive)
REMARK    1  A    between atoms: C_8  and  N_1 
REMARK    2  A    between atoms: S_12  and  C_2 
REMARK    3  A    between atoms: O_16  and  C_3 
REMARK    4  A    between atoms: C_9  and  C_10 
REMARK    5  A    between atoms: C_21  and  S_12 
REMARK    6  A    between atoms: C_17  and  C_21 
ROOT
ATOM      1  N   UNL d   1      -0.183  -1.292  -0.004  0.00  0.00    -0.255 N 
ATOM      2  C   UNL d   1       1.060  -0.669   0.061  0.00  0.00     0.169 A 
ATOM      3  C   UNL d   1      -1.061  -0.217  -0.109  0.00  0.00     0.245 A 
ATOM      4  N   UNL d   1       0.924   0.636  -0.000  0.00  0.00    -0.276 N 
ATOM      5  HN  UNL d   1       1.680   1.319   0.036  1.00  0.00     0.189 HD
ATOM      6  N   UNL d   1      -0.410   0.919  -0.121  0.00  0.00    -0.263 N 
ATOM      7  HN  UNL d   1      -0.822   1.848  -0.206  1.00  0.00     0.190 HD
ENDROOT
BRANCH   1   8
ATOM      8  C   UNL d   1      -0.521  -2.678   0.005  0.00  0.00     0.046 A 
ATOM      9  C   UNL d   1       0.252  -3.607   0.717  0.00  0.00     0.046 A 
ATOM     10  C   UNL d   1      -0.046  -4.981   0.676  0.00  0.00     0.050 A 
ATOM     11  C   UNL d   1      -1.167  -5.412  -0.045  0.00  0.00     0.016 A 
ATOM     12  C   UNL d   1      -1.960  -4.494  -0.730  0.00  0.00     0.003 A 
ATOM     13  C   UNL d   1      -1.635  -3.136  -0.717  0.00  0.00     0.030 A 
BRANCH  10  14
ATOM     14  C   UNL d   1       0.839  -5.990   1.371  0.00  0.00     0.417 C 
ATOM     15  F   UNL d   1       1.885  -5.430   2.038  0.00  0.00    -0.166 F 
ATOM     16  F   UNL d   1       0.161  -6.729   2.292  0.00  0.00    -0.166 F 
ATOM     17  F   UNL d   1       1.385  -6.884   0.501  0.00  0.00    -0.166 F 
ENDBRANCH  10  14
ENDBRANCH   1   8
BRANCH   2  18
ATOM     18  S   UNL d   1       2.603  -1.470   0.015  0.00  0.00    -0.088 SA
BRANCH  18  19
ATOM     19  C   UNL d   1       3.730  -0.051   0.128  0.00  0.00     0.108 C 
BRANCH  19  20
ATOM     20  C   UNL d   1       5.147  -0.545   0.130  0.00  0.00    -0.026 C 
ATOM     21  C   UNL d   1       6.019  -0.351   1.130  0.00  0.00     0.007 C 
ENDBRANCH  19  20
ENDBRANCH  18  19
ENDBRANCH   2  18
BRANCH   3  22
ATOM     22  O   UNL d   1      -2.389  -0.264  -0.100  0.00  0.00    -0.331 OA
ATOM     23  H   UNL d   1      -2.667  -1.080   0.344  0.00  0.00     0.221 HD
ENDBRANCH   3  22
TORSDOF 6
