REMARK  2 active torsions:
REMARK  status: ('A' for Active; 'I' for Inactive)
REMARK    1  A    between atoms: C_2  and  O_1 
REMARK    2  A    between atoms: C_3  and  O_1 
ROOT
ATOM      1  O   UNL d   1       1.030   0.125  -0.086  0.00  0.00    -0.311 OA
ENDROOT
BRANCH   1   2
ATOM      2  C   UNL d   1       0.314   1.301  -0.080  0.00  0.00     0.076 A 
ATOM      3  C   UNL d   1      -0.938   1.254  -0.697  0.00  0.00     0.038 A 
ATOM      4  C   UNL d   1      -1.752   2.388  -0.726  0.00  0.00     0.009 A 
ATOM      5  C   UNL d   1      -1.324   3.582  -0.136  0.00  0.00    -0.062 A 
ATOM      6  C   UNL d   1      -0.081   3.617   0.506  0.00  0.00     0.009 A 
ATOM      7  C   UNL d   1      -2.202   4.799  -0.179  0.00  0.00     0.048 C 
ATOM      8  C   UNL d   1       0.724   2.475   0.552  0.00  0.00     0.038 A 
ENDBRANCH   1   2
BRANCH   1   9
ATOM      9  C   UNL d   1       2.404   0.158  -0.082  0.00  0.00     0.076 A 
ATOM     10  C   UNL d   1       3.042  -0.856   0.632  0.00  0.00     0.038 A 
ATOM     11  C   UNL d   1       4.437  -0.915   0.678  0.00  0.00     0.009 A 
ATOM     12  C   UNL d   1       5.209   0.040   0.004  0.00  0.00    -0.062 A 
ATOM     13  C   UNL d   1       4.563   1.036  -0.739  0.00  0.00     0.009 A 
ATOM     14  C   UNL d   1       6.706  -0.021   0.073  0.00  0.00     0.048 C 
ATOM     15  C   UNL d   1       3.168   1.081  -0.800  0.00  0.00     0.038 A 
ENDBRANCH   1   9
TORSDOF 2
