REMARK  3 active torsions:
REMARK  status: ('A' for Active; 'I' for Inactive)
REMARK    1  A    between atoms: C_8  and  C_4 
REMARK    2  A    between atoms: C_17  and  C_9 
REMARK    3  A    between atoms: N_11  and  C_10 
ROOT
ATOM      1  N   UNL d   1       2.953  -0.393   0.001  0.00  0.00    -0.349 N 
ATOM      2  HN  UNL d   1       3.682  -1.106  -0.007  1.00  0.00     0.166 HD
ATOM      3  C   UNL d   1       1.580  -0.665   0.021  0.00  0.00     0.061 A 
ATOM      4  C   UNL d   1       3.181   0.907  -0.006  0.00  0.00     0.075 A 
ATOM      5  S   UNL d   1       1.747   1.876   0.037  0.00  0.00    -0.070 SA
ATOM      6  C   UNL d   1       0.767   0.469   0.044  0.00  0.00     0.034 A 
ATOM      7  C   UNL d   1       0.946  -1.946   0.016  0.00  0.00     0.002 A 
ATOM      8  C   UNL d   1      -0.635   0.394   0.066  0.00  0.00     0.022 A 
ATOM      9  C   UNL d   1      -0.470  -2.034   0.033  0.00  0.00    -0.024 A 
ATOM     10  C   UNL d   1      -1.236  -0.866   0.059  0.00  0.00     0.014 A 
ATOM     11  C   UNL d   1       1.715  -3.126  -0.009  0.00  0.00     0.014 A 
ATOM     12  C   UNL d   1      -1.076  -3.299   0.023  0.00  0.00     0.012 A 
ATOM     13  C   UNL d   1       1.090  -4.375  -0.018  0.00  0.00     0.001 A 
ATOM     14  C   UNL d   1      -0.301  -4.461  -0.003  0.00  0.00     0.001 A 
ENDROOT
BRANCH   4  15
ATOM     15  C   UNL d   1       4.431   1.593  -0.051  0.00  0.00     0.038 C 
ATOM     16  C   UNL d   1       5.611   0.954  -0.011  0.00  0.00     0.014 C 
BRANCH  16  17
ATOM     17  C   UNL d   1       6.911   1.648  -0.084  0.00  0.00    -0.036 A 
ATOM     18  C   UNL d   1       7.114   2.939   0.410  0.00  0.00     0.013 A 
ATOM     19  C   UNL d   1       8.374   3.564   0.319  0.00  0.00     0.030 A 
ATOM     20  C   UNL d   1       9.484   2.926  -0.252  0.00  0.00     0.029 A 
ATOM     21  C   UNL d   1       9.267   1.612  -0.699  0.00  0.00     0.030 A 
ATOM     22  C   UNL d   1       8.011   0.984  -0.625  0.00  0.00     0.013 A 
BRANCH  20  23
ATOM     23  N   UNL d   1      10.753   3.511  -0.304  0.00  0.00    -0.390 N 
ATOM     24  C   UNL d   1      11.582   3.291  -1.492  0.00  0.00     0.149 C 
ATOM     25  C   UNL d   1      10.984   4.803   0.341  0.00  0.00     0.149 C 
ENDBRANCH  20  23
ENDBRANCH  16  17
ENDBRANCH   4  15
TORSDOF 3
