REMARK  7 active torsions:
REMARK  status: ('A' for Active; 'I' for Inactive)
REMARK    1  A    between atoms: N_3  and  C_1 
REMARK    2  A    between atoms: C_5  and  N_3 
REMARK    3  A    between atoms: N_14  and  C_5 
REMARK    4  A    between atoms: O_21  and  C_8 
REMARK    5  A    between atoms: C_9  and  C_17 
REMARK    6  A    between atoms: N_10  and  N_14 
REMARK    7  A    between atoms: O_25  and  C_19 
ROOT
ATOM      1  N   UNL d   1      -4.320  -2.434   0.815  0.00  0.00    -0.277 N 
ATOM      2  H   UNL d   1      -4.814  -3.311   0.956  0.00  0.00     0.189 HD
ENDROOT
BRANCH   1   3
ATOM      3  N   UNL d   1      -4.944  -1.244   1.035  0.00  0.00    -0.309 N 
ATOM      4  C   UNL d   1      -6.230  -1.236   0.888  0.00  0.00     0.121 C 
ATOM      5  HN  UNL d   1      -4.428  -0.406   1.302  1.00  0.00     0.186 HD
BRANCH   4   6
ATOM      6  C   UNL d   1      -6.996  -0.040   1.289  0.00  0.00     0.014 A 
ATOM      7  C   UNL d   1      -6.465   0.885   2.201  0.00  0.00     0.080 A 
ATOM      8  C   UNL d   1      -7.229   1.968   2.625  0.00  0.00     0.074 A 
ATOM      9  C   UNL d   1      -8.516   2.128   2.131  0.00  0.00     0.068 A 
ATOM     10  C   UNL d   1      -9.053   1.231   1.210  0.00  0.00     0.037 A 
ATOM     11  C   UNL d   1      -8.291   0.135   0.791  0.00  0.00     0.018 A 
BRANCH   7  12
ATOM     12  O   UNL d   1      -5.209   0.779   2.737  0.00  0.00    -0.360 OA
ATOM     13  H   UNL d   1      -4.762   0.011   2.318  0.00  0.00     0.217 HD
ENDBRANCH   7  12
BRANCH   9  14
ATOM     14  O   UNL d   1      -9.235   3.196   2.584  0.00  0.00    -0.361 OA
ATOM     15  H   UNL d   1     -10.123   3.173   2.193  0.00  0.00     0.217 HD
ENDBRANCH   9  14
ENDBRANCH   4   6
ENDBRANCH   1   3
BRANCH   1  16
ATOM     16  C   UNL d   1      -2.945  -2.467   0.624  0.00  0.00     0.187 C 
ATOM     17  S   UNL d   1      -2.146  -3.922   0.693  0.00  0.00    -0.040 SA
BRANCH  16  18
ATOM     18  N   UNL d   1      -2.457  -1.210   0.340  0.00  0.00    -0.356 N 
ATOM     19  H   UNL d   1      -3.264  -0.597   0.300  0.00  0.00     0.162 HD
BRANCH  18  20
ATOM     20  C   UNL d   1      -1.266  -0.773  -0.433  0.00  0.00     0.040 C 
ATOM     21  C   UNL d   1      -1.218   0.836  -0.558  0.00  0.00    -0.019 C 
ATOM     22  C   UNL d   1       0.120   1.175   0.183  0.00  0.00    -0.004 C 
ATOM     23  C   UNL d   1      -1.251   1.378  -2.001  0.00  0.00     0.018 C 
ATOM     24  C   UNL d   1      -2.366   1.583   0.175  0.00  0.00     0.018 C 
ATOM     25  C   UNL d   1       0.135   0.146   1.318  0.00  0.00     0.012 C 
ATOM     26  C   UNL d   1       1.360   0.728  -0.612  0.00  0.00     0.006 C 
ATOM     27  C   UNL d   1       0.058  -1.049   0.363  0.00  0.00     0.014 C 
ATOM     28  C   UNL d   1       1.315  -0.798  -0.495  0.00  0.00     0.007 C 
ATOM     29  C   UNL d   1      -1.320  -1.489  -1.797  0.00  0.00     0.039 C 
ENDBRANCH  18  20
ENDBRANCH  16  18
ENDBRANCH   1  16
TORSDOF 7
