REMARK  3 active torsions:
REMARK  status: ('A' for Active; 'I' for Inactive)
REMARK    1  A    between atoms: C_5  and  C_1 
REMARK    2  A    between atoms: C_8  and  C_5 
REMARK    3  A    between atoms: O_19  and  C_13 
ROOT
ATOM      1  C   UNL d   1      -2.323  -0.205  -0.054  0.00  0.00     0.127 A 
ATOM      2  O   UNL d   1      -1.522   0.905  -0.039  0.00  0.00    -0.306 OA
ATOM      3  C   UNL d   1      -1.537  -1.341  -0.117  0.00  0.00     0.055 A 
ATOM      4  C   UNL d   1      -0.233   0.477  -0.051  0.00  0.00     0.089 A 
ATOM      5  C   UNL d   1      -0.186  -0.909  -0.078  0.00  0.00     0.001 A 
ATOM      6  C   UNL d   1       0.889   1.300  -0.031  0.00  0.00     0.074 A 
ATOM      7  C   UNL d   1       1.073  -1.532  -0.060  0.00  0.00     0.017 A 
ATOM      8  C   UNL d   1       2.138   0.668  -0.020  0.00  0.00     0.070 A 
ATOM      9  C   UNL d   1       2.226  -0.728  -0.025  0.00  0.00     0.038 A 
ENDROOT
BRANCH   1  10
ATOM     10  C   UNL d   1      -3.761  -0.046  -0.030  0.00  0.00     0.215 C 
ATOM     11  O   UNL d   1      -4.537  -0.888  -0.480  0.00  0.00    -0.284 OA
BRANCH  10  12
ATOM     12  C   UNL d   1      -4.343   1.175   0.601  0.00  0.00     0.017 A 
ATOM     13  C   UNL d   1      -3.736   1.785   1.710  0.00  0.00     0.017 A 
ATOM     14  C   UNL d   1      -4.312   2.917   2.291  0.00  0.00     0.025 A 
ATOM     15  C   UNL d   1      -5.498   3.434   1.776  0.00  0.00     0.034 A 
ATOM     16  C   UNL d   1      -6.121   2.823   0.688  0.00  0.00     0.025 A 
ATOM     17 CL   UNL d   1      -6.200   4.830   2.493  0.00  0.00    -0.084 Cl
ATOM     18  C   UNL d   1      -5.548   1.689   0.103  0.00  0.00     0.017 A 
ENDBRANCH  10  12
ENDBRANCH   1  10
BRANCH   8  19
ATOM     19  O   UNL d   1       3.198   1.536   0.001  0.00  0.00    -0.356 OA
ATOM     20  C   UNL d   1       4.501   0.967  -0.029  0.00  0.00     0.210 C 
ENDBRANCH   8  19
TORSDOF 3
