REMARK  2 active torsions:
REMARK  status: ('A' for Active; 'I' for Inactive)
REMARK    1  A    between atoms: C_9  and  C_1 
REMARK    2  A    between atoms: N_3  and  C_8 
ROOT
ATOM      1  C   UNL d   1      -1.796  -1.304  -0.107  0.00  0.00     0.051 A 
ATOM      2  C   UNL d   1      -2.099   0.154  -0.079  0.00  0.00     0.299 A 
ATOM      3  C   UNL d   1      -0.533  -1.756  -0.055  0.00  0.00     0.032 A 
ATOM      4  O   UNL d   1      -1.010   1.020  -0.073  0.00  0.00    -0.274 OA
ATOM      5  C   UNL d   1       0.578  -0.822   0.003  0.00  0.00    -0.001 A 
ATOM      6  C   UNL d   1       0.314   0.543  -0.033  0.00  0.00     0.089 A 
ATOM      7  O   UNL d   1      -3.250   0.579  -0.070  0.00  0.00    -0.259 OA
ATOM      8  C   UNL d   1       1.906  -1.251   0.064  0.00  0.00     0.014 A 
ATOM      9  C   UNL d   1       1.338   1.488  -0.027  0.00  0.00     0.038 A 
ATOM     10  C   UNL d   1       2.944  -0.314   0.078  0.00  0.00     0.001 A 
ATOM     11  C   UNL d   1       2.661   1.052   0.028  0.00  0.00     0.003 A 
ENDROOT
BRANCH   1  12
ATOM     12  C   UNL d   1      -2.882  -2.291  -0.234  0.00  0.00    -0.020 A 
ATOM     13  C   UNL d   1      -3.477  -2.856   0.903  0.00  0.00     0.015 A 
ATOM     14  C   UNL d   1      -4.482  -3.820   0.768  0.00  0.00     0.037 A 
ATOM     15  C   UNL d   1      -4.892  -4.220  -0.511  0.00  0.00     0.102 A 
ATOM     16  C   UNL d   1      -4.307  -3.657  -1.653  0.00  0.00     0.037 A 
ATOM     17  C   UNL d   1      -3.305  -2.695  -1.510  0.00  0.00     0.015 A 
BRANCH  15  18
ATOM     18  N   UNL d   1      -5.934  -5.243  -0.658  0.00  0.00    -0.116 N 
ATOM     19  O   UNL d   1      -6.259  -5.575  -1.807  0.00  0.00    -0.532 OA
ATOM     20  O   UNL d   1      -6.420  -5.723   0.376  0.00  0.00    -0.532 OA
ENDBRANCH  15  18
ENDBRANCH   1  12
TORSDOF 2
