REMARK  6 active torsions:
REMARK  status: ('A' for Active; 'I' for Inactive)
REMARK    1  A    between atoms: C_9  and  N_1 
REMARK    2  A    between atoms: C_10  and  C_6 
REMARK    3  A    between atoms: C_17  and  N_7 
REMARK    4  A    between atoms: O_26  and  C_10 
REMARK    5  A    between atoms: C_12  and  C_14 
REMARK    6  A    between atoms: C_13  and  C_15 
ROOT
ATOM      1  N   UNL d   1       0.457  -1.000   0.257  0.00  0.00    -0.257 N 
ATOM      2  C   UNL d   1      -0.893  -0.811   0.494  0.00  0.00     0.160 C 
ATOM      3  C   UNL d   1       0.227   1.234  -0.440  0.00  0.00     0.082 C 
ATOM      4  C   UNL d   1       1.150   0.079  -0.277  0.00  0.00     0.271 C 
ATOM      5  S   UNL d   1      -1.236   0.905   0.379  0.00  0.00    -0.048 SA
ATOM      6  C   UNL d   1       0.536   2.319  -1.171  0.00  0.00     0.106 C 
ATOM      7  N   UNL d   1      -1.726  -1.758   0.780  0.00  0.00    -0.336 N 
ATOM      8  HN  UNL d   1      -1.367  -2.707   0.893  1.00  0.00     0.168 HD
ATOM      9  O   UNL d   1       2.315   0.113  -0.668  0.00  0.00    -0.266 OA
ENDROOT
BRANCH   1  10
ATOM     10  C   UNL d   1       1.096  -2.246   0.464  0.00  0.00     0.044 A 
ATOM     11  C   UNL d   1       2.245  -2.317   1.261  0.00  0.00     0.031 A 
ATOM     12  C   UNL d   1       2.861  -3.549   1.506  0.00  0.00     0.010 A 
ATOM     13  C   UNL d   1       2.388  -4.736   0.919  0.00  0.00    -0.051 A 
ATOM     14  C   UNL d   1       1.234  -4.640   0.121  0.00  0.00     0.010 A 
ATOM     15  C   UNL d   1       0.589  -3.418  -0.090  0.00  0.00     0.031 A 
BRANCH  13  16
ATOM     16  C   UNL d   1       3.138  -6.065   1.116  0.00  0.00    -0.024 C 
ATOM     17  C   UNL d   1       2.511  -7.234   0.322  0.00  0.00     0.019 C 
ATOM     18  C   UNL d   1       4.596  -5.907   0.631  0.00  0.00     0.019 C 
ATOM     19  C   UNL d   1       3.152  -6.477   2.603  0.00  0.00     0.019 C 
ENDBRANCH  13  16
ENDBRANCH   1  10
BRANCH   7  20
ATOM     20  C   UNL d   1      -3.104  -1.537   0.944  0.00  0.00     0.034 A 
ATOM     21  C   UNL d   1      -3.852  -0.771   0.048  0.00  0.00     0.030 A 
ATOM     22  C   UNL d   1      -5.209  -0.536   0.252  0.00  0.00     0.010 A 
ATOM     23  C   UNL d   1      -5.908  -1.164   1.291  0.00  0.00    -0.051 A 
ATOM     24  C   UNL d   1      -5.168  -1.999   2.147  0.00  0.00     0.010 A 
ATOM     25  C   UNL d   1      -3.784  -2.172   1.980  0.00  0.00     0.030 A 
BRANCH  23  26
ATOM     26  C   UNL d   1      -7.422  -0.940   1.415  0.00  0.00    -0.024 C 
ATOM     27  C   UNL d   1      -8.068  -1.791   2.526  0.00  0.00     0.019 C 
ATOM     28  C   UNL d   1      -7.708   0.546   1.721  0.00  0.00     0.019 C 
ATOM     29  C   UNL d   1      -8.117  -1.313   0.084  0.00  0.00     0.019 C 
ENDBRANCH  23  26
ENDBRANCH   7  20
BRANCH   6  30
ATOM     30  C   UNL d   1      -0.424   3.412  -1.433  0.00  0.00     0.283 C 
ATOM     31  O   UNL d   1      -1.640   3.304  -1.443  0.00  0.00    -0.260 OA
BRANCH  30  32
ATOM     32  O   UNL d   1       0.278   4.543  -1.677  0.00  0.00    -0.323 OA
ATOM     33  C   UNL d   1      -0.556   5.685  -1.890  0.00  0.00     0.213 C 
ENDBRANCH  30  32
ENDBRANCH   6  30
TORSDOF 6
