REMARK  2 active torsions:
REMARK  status: ('A' for Active; 'I' for Inactive)
REMARK    1  A    between atoms: C_7  and  N_1 
REMARK    2  A    between atoms: C_11  and  C_7 
ROOT
ATOM      1  N   UNL d   1      -1.144   0.584   0.047  0.00  0.00    -0.265 N 
ATOM      2  C   UNL d   1      -0.624   0.328   1.297  0.00  0.00     0.332 A 
ATOM      3  N   UNL d   1       0.527  -0.397   1.353  0.00  0.00    -0.278 N 
ATOM      4  C   UNL d   1      -0.514   0.246  -1.136  0.00  0.00     0.236 A 
ATOM      5  C   UNL d   1       1.246  -0.879   0.306  0.00  0.00     0.234 A 
ATOM      6  C   UNL d   1       0.717  -0.604  -1.056  0.00  0.00     0.206 A 
ATOM      7  O   UNL d   1      -1.114   0.736   2.350  0.00  0.00    -0.246 OA
ATOM      8  O   UNL d   1      -0.919   0.613  -2.242  0.00  0.00    -0.272 OA
ATOM      9  O   UNL d   1       2.282  -1.514   0.492  0.00  0.00    -0.273 OA
ATOM     10  H   UNL d   1       0.897  -0.574   2.277  0.00  0.00     0.173 HD
ENDROOT
BRANCH   1  11
ATOM     11  C   UNL d   1      -2.381   1.359  -0.027  0.00  0.00     0.175 C 
BRANCH  11  12
ATOM     12  C   UNL d   1      -3.618   0.492   0.083  0.00  0.00    -0.040 A 
ATOM     13  C   UNL d   1      -4.179   0.207   1.337  0.00  0.00     0.009 A 
ATOM     14  C   UNL d   1      -5.325  -0.582   1.443  0.00  0.00     0.001 A 
ATOM     15  C   UNL d   1      -5.925  -1.097   0.296  0.00  0.00     0.000 A 
ATOM     16  C   UNL d   1      -5.375  -0.827  -0.956  0.00  0.00     0.001 A 
ATOM     17  C   UNL d   1      -4.224  -0.042  -1.063  0.00  0.00     0.009 A 
ENDBRANCH  11  12
ENDBRANCH   1  11
TORSDOF 2
