REMARK  5 active torsions:
REMARK  status: ('A' for Active; 'I' for Inactive)
REMARK    1  A    between atoms: C_2  and  C_1 
REMARK    2  A    between atoms: C_3  and  N_5 
REMARK    3  A    between atoms: N_6  and  C_3 
REMARK    4  A    between atoms: N_5  and  C_4 
REMARK    5  A    between atoms: C_8  and  N_6 
ROOT
ATOM      1  C   UNL d   1       1.115  -4.294   2.012  0.00  0.00     0.074 A 
ATOM      2  C   UNL d   1       0.386  -3.865   0.887  0.00  0.00     0.049 A 
ATOM      3  C   UNL d   1       0.879  -5.586   2.536  0.00  0.00     0.018 A 
ATOM      4  C   UNL d   1      -0.593  -4.723   0.358  0.00  0.00     0.030 A 
ATOM      5  C   UNL d   1      -0.067  -6.438   1.971  0.00  0.00     0.001 A 
ATOM      6  C   UNL d   1      -0.809  -6.000   0.882  0.00  0.00     0.002 A 
ENDROOT
BRANCH   2   7
ATOM      7  N   UNL d   1       0.590  -2.572   0.319  0.00  0.00    -0.333 N 
ATOM      8  H   UNL d   1       1.102  -1.911   0.892  0.00  0.00     0.168 HD
BRANCH   7   9
ATOM      9  C   UNL d   1       0.621  -2.252  -1.011  0.00  0.00     0.172 C 
ATOM     10  S   UNL d   1       0.724  -3.305  -2.319  0.00  0.00    -0.041 SA
BRANCH   9  11
ATOM     11  N   UNL d   1       0.616  -0.938  -1.351  0.00  0.00    -0.359 N 
ATOM     12  H   UNL d   1       0.684  -0.854  -2.363  0.00  0.00     0.162 HD
BRANCH  11  13
ATOM     13  C   UNL d   1       0.553   0.356  -0.640  0.00  0.00     0.021 C 
ATOM     14  C   UNL d   1       1.846   0.636   0.137  0.00  0.00     0.037 C 
ATOM     15  C   UNL d   1       0.406   1.450  -1.724  0.00  0.00     0.037 C 
ATOM     16  C   UNL d   1      -0.663   0.449   0.291  0.00  0.00     0.037 C 
ENDBRANCH  11  13
ENDBRANCH   9  11
ENDBRANCH   7   9
ENDBRANCH   2   7
BRANCH   1  17
ATOM     17  C   UNL d   1       2.190  -3.475   2.676  0.00  0.00     0.419 C 
ATOM     18  F   UNL d   1       2.453  -2.285   2.065  0.00  0.00    -0.166 F 
ATOM     19  F   UNL d   1       3.385  -4.130   2.737  0.00  0.00    -0.166 F 
ATOM     20  F   UNL d   1       1.877  -3.160   3.963  0.00  0.00    -0.166 F 
ENDBRANCH   1  17
TORSDOF 5
