REMARK  5 active torsions:
REMARK  status: ('A' for Active; 'I' for Inactive)
REMARK    1  A    between atoms: C_2  and  C_1 
REMARK       I    between atoms: N_8  and  C_2 
REMARK    2  A    between atoms: C_15  and  C_5 
REMARK    3  A    between atoms: C_11  and  C_6 
REMARK    4  A    between atoms: C_7  and  N_8 
REMARK    5  A    between atoms: O_19  and  C_11 
ROOT
ATOM      1  C   UNL d   1       0.270  -2.608   0.216  0.00  0.00     0.261 C 
ATOM      2  N   UNL d   1      -0.626  -3.591  -0.170  0.00  0.00    -0.322 N 
ATOM      3  O   UNL d   1       1.411  -2.836   0.600  0.00  0.00    -0.267 OA
ATOM      4  H   UNL d   1      -1.303  -3.308  -0.881  0.00  0.00     0.169 HD
ENDROOT
BRANCH   1   5
ATOM      5  C   UNL d   1      -0.238  -1.255   0.068  0.00  0.00     0.093 A 
ATOM      6  C   UNL d   1       0.426  -0.052  -0.349  0.00  0.00     0.083 A 
ATOM      7  N   UNL d   1      -0.407   0.998  -0.221  0.00  0.00    -0.259 N 
ATOM      8  O   UNL d   1      -1.610   0.505   0.206  0.00  0.00    -0.241 OA
ATOM      9  HN  UNL d   1      -0.183   1.975  -0.406  1.00  0.00     0.195 HD
ATOM     10  C   UNL d   1      -1.526  -0.837   0.358  0.00  0.00     0.090 A 
ATOM     11  C   UNL d   1      -2.770  -1.497   0.800  0.00  0.00     0.080 C 
BRANCH   6  12
ATOM     12  C   UNL d   1       1.750   0.174  -0.943  0.00  0.00    -0.006 A 
ATOM     13  C   UNL d   1       2.389   1.416  -0.773  0.00  0.00     0.014 A 
ATOM     14  C   UNL d   1       3.572   1.720  -1.455  0.00  0.00     0.001 A 
ATOM     15  C   UNL d   1       4.135   0.783  -2.316  0.00  0.00     0.000 A 
ATOM     16  C   UNL d   1       3.525  -0.459  -2.483  0.00  0.00     0.001 A 
ATOM     17  C   UNL d   1       2.341  -0.764  -1.800  0.00  0.00     0.014 A 
ENDBRANCH   6  12
ENDBRANCH   1   5
BRANCH   2  18
ATOM     18  C   UNL d   1      -0.391  -4.986  -0.068  0.00  0.00     0.052 A 
ATOM     19  C   UNL d   1      -0.789  -5.847  -1.113  0.00  0.00     0.066 A 
ATOM     20  C   UNL d   1      -0.576  -7.231  -1.004  0.00  0.00     0.022 A 
ATOM     21  C   UNL d   1      -0.001  -7.764   0.150  0.00  0.00     0.025 A 
ATOM     22  C   UNL d   1       0.368  -6.916   1.191  0.00  0.00     0.036 A 
ATOM     23  C   UNL d   1       0.189  -5.533   1.085  0.00  0.00     0.054 A 
ATOM     24 CL   UNL d   1       1.027  -7.590   2.632  0.00  0.00    -0.084 Cl
BRANCH  19  25
ATOM     25  C   UNL d   1      -1.374  -5.275  -2.353  0.00  0.00     0.295 C 
ATOM     26  O   UNL d   1      -1.928  -4.188  -2.392  0.00  0.00    -0.259 OA
BRANCH  25  27
ATOM     27  O   UNL d   1      -1.127  -6.090  -3.410  0.00  0.00    -0.322 OA
ATOM     28  C   UNL d   1      -1.548  -5.563  -4.665  0.00  0.00     0.213 C 
ENDBRANCH  25  27
ENDBRANCH  19  25
ENDBRANCH   2  18
TORSDOF 5
