REMARK  6 active torsions:
REMARK  status: ('A' for Active; 'I' for Inactive)
REMARK    1  A    between atoms: C_9  and  C_1 
REMARK    2  A    between atoms: N_6  and  C_2 
REMARK    3  A    between atoms: C_12  and  C_4 
REMARK       I    between atoms: C_7  and  N_6 
REMARK    4  A    between atoms: C_8  and  C_7 
REMARK    5  A    between atoms: O_18  and  C_11 
REMARK    6  A    between atoms: O_19  and  C_13 
ROOT
ATOM      1  C   UNL d   1      -0.006   1.095  -0.387  0.00  0.00     0.077 C 
ATOM      2  C   UNL d   1       1.311   0.769  -0.102  0.00  0.00     0.057 C 
ATOM      3  S   UNL d   1      -1.033  -0.283  -0.266  0.00  0.00    -0.084 SA
ATOM      4  C   UNL d   1       0.274  -1.353  -0.017  0.00  0.00     0.018 C 
ATOM      5  C   UNL d   1       1.461  -0.652   0.047  0.00  0.00     0.051 C 
ENDROOT
BRANCH   2   6
ATOM      6  N   UNL d   1       2.438   1.583   0.007  0.00  0.00    -0.322 N 
ATOM      7  C   UNL d   1       2.486   2.949   0.210  0.00  0.00     0.256 C 
ATOM      8  O   UNL d   1       1.518   3.688   0.341  0.00  0.00    -0.267 OA
ATOM      9  H   UNL d   1       3.309   1.071   0.014  0.00  0.00     0.169 HD
BRANCH   7  10
ATOM     10  C   UNL d   1       3.864   3.538   0.210  0.00  0.00     0.035 A 
ATOM     11  C   UNL d   1       4.020   4.863  -0.228  0.00  0.00     0.056 A 
ATOM     12  C   UNL d   1       5.296   5.421  -0.415  0.00  0.00     0.102 A 
ATOM     13  C   UNL d   1       6.428   4.630  -0.149  0.00  0.00     0.101 A 
ATOM     14  C   UNL d   1       6.265   3.345   0.383  0.00  0.00     0.040 A 
ATOM     15  C   UNL d   1       4.995   2.800   0.571  0.00  0.00     0.020 A 
BRANCH  12  16
ATOM     16  O   UNL d   1       5.504   6.704  -0.843  0.00  0.00    -0.353 OA
ATOM     17  C   UNL d   1       4.373   7.526  -1.101  0.00  0.00     0.210 C 
ENDBRANCH  12  16
BRANCH  13  18
ATOM     18  O   UNL d   1       7.748   4.961  -0.324  0.00  0.00    -0.353 OA
ATOM     19  C   UNL d   1       8.056   5.981  -1.266  0.00  0.00     0.210 C 
ENDBRANCH  13  18
ENDBRANCH   7  10
ENDBRANCH   2   6
BRANCH   1  20
ATOM     20  C   UNL d   1      -0.649   2.318  -0.842  0.00  0.00     0.164 C 
ATOM     21  O   UNL d   1      -1.740   2.712  -0.420  0.00  0.00    -0.292 OA
ATOM     22  C   UNL d   1      -0.036   3.002  -2.044  0.00  0.00     0.097 C 
ENDBRANCH   1  20
BRANCH   4  23
ATOM     23  C   UNL d   1       0.057  -2.804   0.070  0.00  0.00    -0.019 A 
ATOM     24  C   UNL d   1       0.925  -3.682  -0.599  0.00  0.00     0.013 A 
ATOM     25  C   UNL d   1       0.730  -5.065  -0.542  0.00  0.00     0.001 A 
ATOM     26  C   UNL d   1      -0.333  -5.589   0.190  0.00  0.00     0.000 A 
ATOM     27  C   UNL d   1      -1.197  -4.732   0.868  0.00  0.00     0.001 A 
ATOM     28  C   UNL d   1      -1.002  -3.349   0.811  0.00  0.00     0.013 A 
ENDBRANCH   4  23
TORSDOF 6
