REMARK  3 active torsions:
REMARK  status: ('A' for Active; 'I' for Inactive)
REMARK    1  A    between atoms: C_10  and  C_3 
REMARK    2  A    between atoms: C_12  and  C_4 
REMARK    3  A    between atoms: C_6  and  C_9 
ROOT
ATOM      1  N   UNL d   1       6.872   4.845   0.174  0.00  0.00    -0.191 NA
ATOM      2  C   UNL d   1       5.942   4.154   0.124  0.00  0.00     0.099 C 
ATOM      3  C   UNL d   1       2.498   1.663  -0.036  0.00  0.00    -0.009 A 
ATOM      4  C   UNL d   1       2.480   2.950  -0.597  0.00  0.00     0.015 A 
ATOM      5  C   UNL d   1       3.684   1.205   0.555  0.00  0.00     0.015 A 
ATOM      6  C   UNL d   1       4.786   3.308   0.062  0.00  0.00     0.044 A 
ATOM      7  C   UNL d   1       3.614   3.768  -0.547  0.00  0.00     0.023 A 
ATOM      8  C   UNL d   1       4.819   2.023   0.609  0.00  0.00     0.023 A 
ENDROOT
BRANCH   3   9
ATOM      9  C   UNL d   1       1.317   0.805  -0.047  0.00  0.00     0.050 A 
ATOM     10  N   UNL d   1       1.422  -0.579  -0.019  0.00  0.00    -0.349 N 
ATOM     11  C   UNL d   1       0.224  -1.137   0.005  0.00  0.00     0.084 A 
ATOM     12  HN  UNL d   1       2.302  -1.095  -0.018  1.00  0.00     0.166 HD
ATOM     13  S   UNL d   1      -1.087  -0.015  -0.037  0.00  0.00    -0.081 SA
ATOM     14  C   UNL d   1       0.023   1.284  -0.045  0.00  0.00     0.082 A 
BRANCH  11  15
ATOM     15  C   UNL d   1      -0.026  -2.590   0.021  0.00  0.00    -0.002 A 
ATOM     16  C   UNL d   1      -1.176  -3.152   0.599  0.00  0.00     0.015 A 
ATOM     17  C   UNL d   1      -1.391  -4.534   0.586  0.00  0.00     0.017 A 
ATOM     18  C   UNL d   1      -0.458  -5.396  -0.003  0.00  0.00     0.048 A 
ATOM     19  C   UNL d   1       0.702  -4.845  -0.567  0.00  0.00     0.017 A 
ATOM     20  C   UNL d   1       0.915  -3.461  -0.550  0.00  0.00     0.015 A 
BRANCH  18  21
ATOM     21  C   UNL d   1      -0.685  -6.888  -0.032  0.00  0.00     0.417 C 
ATOM     22  F   UNL d   1      -1.855  -7.272   0.554  0.00  0.00    -0.166 F 
ATOM     23  F   UNL d   1      -0.725  -7.384  -1.300  0.00  0.00    -0.166 F 
ATOM     24  F   UNL d   1       0.296  -7.579   0.611  0.00  0.00    -0.166 F 
ENDBRANCH  18  21
ENDBRANCH  11  15
ENDBRANCH   3   9
TORSDOF 3
