REMARK  5 active torsions:
REMARK  status: ('A' for Active; 'I' for Inactive)
REMARK    1  A    between atoms: C_12  and  N_1 
REMARK    2  A    between atoms: C_9  and  C_2 
REMARK    3  A    between atoms: S_3  and  C_4 
REMARK    4  A    between atoms: C_8  and  C_5 
REMARK    5  A    between atoms: O_19  and  C_9 
ROOT
ATOM      1  C   UNL d   1      -1.944  -2.777  -0.669  0.00  0.00     0.139 C 
ATOM      2  C   UNL d   1      -0.765  -2.635  -0.025  0.00  0.00     0.047 C 
ATOM      3  C   UNL d   1      -2.290  -3.898  -1.465  0.00  0.00     0.111 C 
ATOM      4  N   UNL d   1      -2.513  -4.833  -2.115  0.00  0.00    -0.191 NA
ENDROOT
BRANCH   1   5
ATOM      5  S   UNL d   1      -3.145  -1.527  -0.535  0.00  0.00     0.181 S 
ATOM      6  O   UNL d   1      -4.465  -2.097  -0.703  0.00  0.00    -0.222 OA
ATOM      7  O   UNL d   1      -2.868  -0.700   0.628  0.00  0.00    -0.222 OA
ATOM      8  C   UNL d   1      -2.832  -0.516  -1.961  0.00  0.00     0.168 C 
ENDBRANCH   1   5
BRANCH   2   9
ATOM      9  C   UNL d   1       0.310  -3.585   0.015  0.00  0.00    -0.016 A 
ATOM     10  C   UNL d   1       0.174  -4.951  -0.019  0.00  0.00     0.109 A 
ATOM     11  N   UNL d   1       1.419  -5.555   0.010  0.00  0.00    -0.316 N 
ATOM     12  C   UNL d   1       2.377  -4.545   0.059  0.00  0.00     0.116 A 
ATOM     13  C   UNL d   1       1.693  -3.328   0.139  0.00  0.00     0.049 A 
BRANCH  11  14
ATOM     14  C   UNL d   1       1.598  -6.973   0.031  0.00  0.00     0.039 A 
ATOM     15  C   UNL d   1       2.662  -7.558   0.727  0.00  0.00     0.031 A 
ATOM     16  C   UNL d   1       2.820  -8.948   0.733  0.00  0.00     0.026 A 
ATOM     17  C   UNL d   1       1.911  -9.755   0.052  0.00  0.00     0.034 A 
ATOM     18  C   UNL d   1       0.837  -9.186  -0.626  0.00  0.00     0.026 A 
ATOM     19 CL   UNL d   1       2.118 -11.463   0.053  0.00  0.00    -0.084 Cl
ATOM     20  C   UNL d   1       0.673  -7.798  -0.631  0.00  0.00     0.031 A 
ENDBRANCH  11  14
BRANCH  12  21
ATOM     21  C   UNL d   1       3.803  -4.745  -0.070  0.00  0.00     0.310 C 
ATOM     22  O   UNL d   1       4.347  -5.641  -0.702  0.00  0.00    -0.258 OA
BRANCH  21  23
ATOM     23  O   UNL d   1       4.476  -3.793   0.637  0.00  0.00    -0.321 OA
ATOM     24  C   UNL d   1       5.891  -4.000   0.656  0.00  0.00     0.213 C 
ENDBRANCH  21  23
ENDBRANCH  12  21
ENDBRANCH   2   9
TORSDOF 5
