REMARK  5 active torsions:
REMARK  status: ('A' for Active; 'I' for Inactive)
REMARK    1  A    between atoms: C_3  and  C_1 
REMARK    2  A    between atoms: N_5  and  C_2 
REMARK       I    between atoms: N_12  and  C_3 
REMARK       I    between atoms: C_7  and  N_5 
REMARK    3  A    between atoms: C_13  and  C_7 
REMARK    4  A    between atoms: S_10  and  C_13 
REMARK    5  A    between atoms: C_14  and  S_10 
ROOT
ATOM      1  N   UNL d   1       2.105   3.255   1.742  0.00  0.00    -0.325 N 
ATOM      2  C   UNL d   1       2.937   2.767   0.755  0.00  0.00     0.231 C 
ATOM      3  O   UNL d   1       2.922   1.601   0.340  0.00  0.00    -0.272 OA
ATOM      4  H   UNL d   1       1.899   4.256   1.723  0.00  0.00     0.169 HD
ENDROOT
BRANCH   1   5
ATOM      5  C   UNL d   1       1.227   2.439   2.458  0.00  0.00     0.058 A 
ATOM      6  C   UNL d   1      -0.007   2.876   2.914  0.00  0.00     0.099 A 
ATOM      7  S   UNL d   1      -0.842   1.632   3.758  0.00  0.00    -0.094 SA
ATOM      8  C   UNL d   1       0.424   0.518   3.518  0.00  0.00     0.053 A 
ATOM      9  C   UNL d   1       1.466   1.074   2.813  0.00  0.00     0.038 A 
BRANCH   6  10
ATOM     10  C   UNL d   1      -0.619   4.175   2.689  0.00  0.00     0.258 C 
ATOM     11  O   UNL d   1      -0.032   5.124   2.170  0.00  0.00    -0.267 OA
ATOM     12  N   UNL d   1      -1.931   4.316   3.047  0.00  0.00    -0.365 N 
ATOM     13  H   UNL d   1      -2.470   3.530   3.385  0.00  0.00     0.159 HD
ATOM     14  H   UNL d   1      -2.405   5.171   2.795  0.00  0.00     0.159 HD
ENDBRANCH   6  10
ENDBRANCH   1   5
BRANCH   2  15
ATOM     15  C   UNL d   1       3.992   3.730   0.244  0.00  0.00     0.182 C 
BRANCH  15  16
ATOM     16  S   UNL d   1       3.380   5.424   0.009  0.00  0.00    -0.121 SA
BRANCH  16  17
ATOM     17  C   UNL d   1       4.832   6.296  -0.585  0.00  0.00     0.001 A 
ATOM     18  C   UNL d   1       6.090   5.718  -0.784  0.00  0.00     0.019 A 
ATOM     19  C   UNL d   1       7.167   6.483  -1.250  0.00  0.00     0.008 A 
ATOM     20  C   UNL d   1       7.008   7.843  -1.528  0.00  0.00    -0.062 A 
ATOM     21  C   UNL d   1       5.753   8.428  -1.334  0.00  0.00     0.008 A 
ATOM     22  C   UNL d   1       8.171   8.649  -2.025  0.00  0.00     0.048 C 
ATOM     23  C   UNL d   1       4.679   7.659  -0.867  0.00  0.00     0.019 A 
ENDBRANCH  16  17
ENDBRANCH  15  16
ENDBRANCH   2  15
TORSDOF 5
