REMARK  6 active torsions:
REMARK  status: ('A' for Active; 'I' for Inactive)
REMARK    1  A    between atoms: S_2  and  N_1 
REMARK    2  A    between atoms: C_8  and  S_2 
REMARK    3  A    between atoms: C_16  and  C_6 
REMARK    4  A    between atoms: C_21  and  C_7 
REMARK    5  A    between atoms: C_14  and  C_16 
REMARK    6  A    between atoms: C_22  and  C_21 
ROOT
ATOM      1  N   UNL d   1      -0.079  -1.014  -0.009  0.00  0.00    -0.141 N 
ATOM      2  N   UNL d   1      -1.477  -0.666   0.094  0.00  0.00    -0.289 N 
ATOM      3  HN  UNL d   1      -2.261  -1.313   0.176  1.00  0.00     0.187 HD
ATOM      4  C   UNL d   1       0.740   0.129  -0.094  0.00  0.00     0.262 A 
ATOM      5  C   UNL d   1      -0.188   1.326  -0.004  0.00  0.00     0.131 A 
ATOM      6  C   UNL d   1      -1.541   0.630   0.061  0.00  0.00     0.018 A 
ATOM      7  O   UNL d   1       1.955   0.166  -0.146  0.00  0.00    -0.270 OA
ENDROOT
BRANCH   1   8
ATOM      8  S   UNL d   1       0.443  -2.606   0.126  0.00  0.00     0.285 S 
ATOM      9  O   UNL d   1      -0.694  -3.484   0.333  0.00  0.00    -0.198 OA
ATOM     10  O   UNL d   1       1.409  -2.893  -0.915  0.00  0.00    -0.198 OA
BRANCH   8  11
ATOM     11  C   UNL d   1       1.321  -2.542   1.677  0.00  0.00     0.081 A 
ATOM     12  C   UNL d   1       0.635  -2.785   2.872  0.00  0.00     0.027 A 
ATOM     13  C   UNL d   1       1.328  -2.735   4.083  0.00  0.00     0.025 A 
ATOM     14  C   UNL d   1       2.695  -2.448   4.091  0.00  0.00     0.034 A 
ATOM     15  C   UNL d   1       3.379  -2.215   2.897  0.00  0.00     0.025 A 
ATOM     16 CL   UNL d   1       3.545  -2.385   5.585  0.00  0.00    -0.084 Cl
ATOM     17  C   UNL d   1       2.694  -2.271   1.683  0.00  0.00     0.027 A 
ENDBRANCH   8  11
ENDBRANCH   1   8
BRANCH   6  18
ATOM     18  C   UNL d   1      -2.856   1.371   0.040  0.00  0.00     0.054 C 
BRANCH  18  19
ATOM     19  C   UNL d   1      -4.046   0.416  -0.100  0.00  0.00     0.001 C 
ATOM     20  C   UNL d   1      -5.391   1.121  -0.118  0.00  0.00     0.005 C 
ENDBRANCH  18  19
ENDBRANCH   6  18
BRANCH   5  21
ATOM     21  C   UNL d   1       0.218   2.117   1.240  0.00  0.00     0.046 C 
BRANCH  21  22
ATOM     22  C   UNL d   1      -0.581   3.366   1.476  0.00  0.00    -0.036 C 
ATOM     23  C   UNL d   1      -1.232   3.622   2.618  0.00  0.00     0.007 C 
ENDBRANCH  21  22
ENDBRANCH   5  21
TORSDOF 6
