REMARK  3 active torsions:
REMARK  status: ('A' for Active; 'I' for Inactive)
REMARK    1  A    between atoms: C_7  and  C_3 
REMARK    2  A    between atoms: O_23  and  C_16 
REMARK    3  A    between atoms: O_24  and  C_21 
ROOT
ATOM      1  C   UNL d   1      -1.286  -0.609  -0.186  0.00  0.00     0.023 C 
ATOM      2  C   UNL d   1       1.251  -0.599  -0.289  0.00  0.00     0.023 C 
ATOM      3  C   UNL d   1      -0.023  -1.448  -0.425  0.00  0.00     0.099 C 
ATOM      4  C   UNL d   1      -1.232   0.736  -0.049  0.00  0.00     0.021 C 
ATOM      5  C   UNL d   1       1.210   0.737  -0.097  0.00  0.00     0.021 C 
ATOM      6  N   UNL d   1      -0.011   1.387  -0.055  0.00  0.00    -0.362 N 
ATOM      7  C   UNL d   1       2.576  -1.281  -0.307  0.00  0.00     0.159 C 
ATOM      8  C   UNL d   1      -2.615  -1.285  -0.108  0.00  0.00     0.159 C 
ATOM      9  C   UNL d   1      -2.459   1.612   0.121  0.00  0.00     0.067 C 
ATOM     10  C   UNL d   1       2.441   1.593   0.126  0.00  0.00     0.067 C 
ATOM     11  C   UNL d   1      -3.791   0.912  -0.226  0.00  0.00    -0.036 C 
ATOM     12  C   UNL d   1       3.785   0.897  -0.190  0.00  0.00    -0.036 C 
ATOM     13  C   UNL d   1      -3.781  -0.478   0.418  0.00  0.00     0.092 C 
ATOM     14  C   UNL d   1       3.735  -0.546   0.327  0.00  0.00     0.092 C 
ATOM     15  O   UNL d   1       2.720  -2.392  -0.809  0.00  0.00    -0.293 OA
ATOM     16  O   UNL d   1      -2.771  -2.452  -0.451  0.00  0.00    -0.293 OA
ATOM     17  C   UNL d   1      -3.973   0.792  -1.755  0.00  0.00     0.015 C 
ATOM     18  C   UNL d   1       4.057   0.907  -1.709  0.00  0.00     0.015 C 
ATOM     19  C   UNL d   1      -4.970   1.726   0.330  0.00  0.00     0.015 C 
ATOM     20  C   UNL d   1       4.931   1.647   0.509  0.00  0.00     0.015 C 
ATOM     21  H   UNL d   1      -0.008   2.392   0.097  0.00  0.00     0.165 HD
ENDROOT
BRANCH   3  22
ATOM     22  C   UNL d   1       0.039  -2.673   0.492  0.00  0.00    -0.009 A 
ATOM     23  C   UNL d   1      -0.066  -4.021   0.104  0.00  0.00     0.075 A 
ATOM     24  C   UNL d   1       0.060  -5.018   1.091  0.00  0.00     0.040 A 
ATOM     25  C   UNL d   1       0.317  -4.719   2.431  0.00  0.00     0.039 A 
ATOM     26  C   UNL d   1       0.438  -3.400   2.819  0.00  0.00     0.068 A 
ATOM     27  C   UNL d   1       0.257  -2.394   1.871  0.00  0.00     0.047 A 
BRANCH  23  28
ATOM     28  O   UNL d   1      -0.291  -4.617  -1.102  0.00  0.00    -0.355 OA
ATOM     29  C   UNL d   1      -0.344  -3.912  -2.322  0.00  0.00     0.210 C 
ENDBRANCH  23  28
BRANCH  26  30
ATOM     30  O   UNL d   1       0.717  -2.973   4.087  0.00  0.00    -0.356 OA
ATOM     31  C   UNL d   1       1.533  -3.864   4.841  0.00  0.00     0.210 C 
ENDBRANCH  26  30
ENDBRANCH   3  22
TORSDOF 3
