REMARK  7 active torsions:
REMARK  status: ('A' for Active; 'I' for Inactive)
REMARK    1  A    between atoms: C_4  and  C_1 
REMARK    2  A    between atoms: N_6  and  C_2 
REMARK    3  A    between atoms: O_15  and  C_4 
REMARK       I    between atoms: C_7  and  N_6 
REMARK    4  A    between atoms: C_12  and  C_7 
REMARK    5  A    between atoms: O_16  and  C_8 
REMARK    6  A    between atoms: O_17  and  C_9 
REMARK    7  A    between atoms: N_10  and  C_12 
ROOT
ATOM      1  C   UNL d   1       1.172  -0.664   1.089  0.00  0.00     0.069 A 
ATOM      2  C   UNL d   1       0.544  -1.702   0.381  0.00  0.00     0.053 A 
ATOM      3  C   UNL d   1       0.516   0.562   1.230  0.00  0.00     0.059 A 
ATOM      4  C   UNL d   1      -0.772  -1.514  -0.081  0.00  0.00     0.070 A 
ATOM      5  C   UNL d   1      -0.772   0.773   0.723  0.00  0.00     0.102 A 
ATOM      6  C   UNL d   1      -1.444  -0.288   0.095  0.00  0.00     0.103 A 
ENDROOT
BRANCH   2   7
ATOM      7  N   UNL d   1       1.274  -2.868   0.062  0.00  0.00    -0.325 N 
ATOM      8  C   UNL d   1       0.756  -4.128  -0.175  0.00  0.00     0.250 C 
ATOM      9  O   UNL d   1      -0.386  -4.463   0.131  0.00  0.00    -0.271 OA
ATOM     10  H   UNL d   1       2.284  -2.823   0.225  0.00  0.00     0.169 HD
BRANCH   8  11
ATOM     11  C   UNL d   1       1.776  -5.064  -0.838  0.00  0.00     0.375 C 
BRANCH  11  12
ATOM     12  N   UNL d   1       1.180  -5.969  -1.832  0.00  0.00     0.100 N 
ATOM     13  C   UNL d   1       0.454  -5.292  -2.911  0.00  0.00     0.302 C 
ATOM     14  C   UNL d   1      -1.079  -5.370  -2.832  0.00  0.00     0.299 C 
ATOM     15  N   UNL d   1      -1.520  -6.764  -2.835  0.00  0.00     0.086 N 
ATOM     16  C   UNL d   1      -0.969  -7.456  -1.664  0.00  0.00     0.299 C 
ATOM     17  H   UNL d   1      -2.537  -6.798  -2.789  0.00  0.00     0.315 HD
ATOM     18  C   UNL d   1       0.493  -7.130  -1.249  0.00  0.00     0.302 C 
ENDBRANCH  11  12
ENDBRANCH   8  11
ENDBRANCH   2   7
BRANCH   1  19
ATOM     19  C   UNL d   1       2.501  -0.887   1.724  0.00  0.00     0.295 C 
ATOM     20  O   UNL d   1       3.244  -1.814   1.434  0.00  0.00    -0.259 OA
BRANCH  19  21
ATOM     21  O   UNL d   1       2.701   0.025   2.704  0.00  0.00    -0.322 OA
ATOM     22  C   UNL d   1       3.878  -0.149   3.495  0.00  0.00     0.213 C 
ENDBRANCH  19  21
ENDBRANCH   1  19
BRANCH   6  23
ATOM     23  O   UNL d   1      -2.706  -0.064  -0.390  0.00  0.00    -0.353 OA
ATOM     24  C   UNL d   1      -3.558  -1.192  -0.553  0.00  0.00     0.210 C 
ENDBRANCH   6  23
BRANCH   5  25
ATOM     25  O   UNL d   1      -1.186   2.060   0.928  0.00  0.00    -0.353 OA
ATOM     26  C   UNL d   1      -2.512   2.433   0.586  0.00  0.00     0.210 C 
ENDBRANCH   5  25
TORSDOF 7
