REMARK  3 active torsions:
REMARK  status: ('A' for Active; 'I' for Inactive)
REMARK    1  A    between atoms: C_2  and  C_1 
REMARK       I    between atoms: N_8  and  C_2 
REMARK    2  A    between atoms: C_10  and  N_8 
REMARK    3  A    between atoms: C_11  and  C_10 
ROOT
ATOM      1  C   UNL d   1      -0.340   2.362   0.450  0.00  0.00     0.258 C 
ATOM      2  N   UNL d   1      -1.288   3.267  -0.060  0.00  0.00    -0.348 N 
ATOM      3  O   UNL d   1       0.677   2.759   1.019  0.00  0.00    -0.267 OA
ATOM      4  C   UNL d   1      -2.700   2.929  -0.190  0.00  0.00     0.153 C 
ENDROOT
BRANCH   1   5
ATOM      5  C   UNL d   1      -0.561   0.923   0.334  0.00  0.00     0.087 A 
ATOM      6  C   UNL d   1      -0.268  -0.001   1.321  0.00  0.00     0.090 A 
ATOM      7  O   UNL d   1      -0.529  -1.256   0.869  0.00  0.00    -0.242 OA
ATOM      8  C   UNL d   1       0.238   0.053   2.710  0.00  0.00     0.080 C 
ATOM      9  N   UNL d   1      -0.974  -1.194  -0.429  0.00  0.00    -0.265 N 
ATOM     10  C   UNL d   1      -0.968   0.102  -0.763  0.00  0.00     0.047 A 
ATOM     11  HN  UNL d   1      -1.252  -1.978  -1.019  1.00  0.00     0.194 HD
ATOM     12  C   UNL d   1      -1.312   0.461  -2.160  0.00  0.00     0.071 C 
ENDBRANCH   1   5
BRANCH   2  13
ATOM     13  C   UNL d   1      -1.015   4.700   0.132  0.00  0.00     0.164 C 
BRANCH  13  14
ATOM     14  C   UNL d   1      -0.706   5.532  -1.100  0.00  0.00    -0.040 A 
ATOM     15  C   UNL d   1      -1.139   6.873  -1.130  0.00  0.00     0.009 A 
ATOM     16  C   UNL d   1      -0.693   7.761  -2.112  0.00  0.00     0.001 A 
ATOM     17  C   UNL d   1       0.195   7.322  -3.090  0.00  0.00     0.000 A 
ATOM     18  C   UNL d   1       0.614   5.993  -3.095  0.00  0.00     0.001 A 
ATOM     19  C   UNL d   1       0.169   5.101  -2.107  0.00  0.00     0.009 A 
ENDBRANCH  13  14
ENDBRANCH   2  13
TORSDOF 3
