REMARK  0 active torsions:
REMARK  status: ('A' for Active; 'I' for Inactive)
ROOT
ATOM      1  C   UNL d   1       0.013   1.526   0.013  0.00  0.00     0.195 A 
ATOM      2  C   UNL d   1      -1.177   0.654   0.005  0.00  0.00     0.042 A 
ATOM      3  C   UNL d   1      -0.729  -0.664   0.006  0.00  0.00     0.057 A 
ATOM      4  C   UNL d   1       1.192   0.625   0.013  0.00  0.00     0.027 A 
ATOM      5  C   UNL d   1       0.713  -0.695   0.004  0.00  0.00     0.006 A 
ATOM      6  N   UNL d   1      -1.531  -1.741   0.003  0.00  0.00    -0.364 N 
ATOM      7  HN  UNL d   1      -1.174  -2.696   0.006  1.00  0.00     0.165 HD
ATOM      8  O   UNL d   1       0.020   2.737   0.015  0.00  0.00    -0.287 OA
ATOM      9  C   UNL d   1      -2.523   0.941  -0.007  0.00  0.00     0.019 A 
ATOM     10  C   UNL d   1       2.537   0.937   0.014  0.00  0.00     0.016 A 
ATOM     11  C   UNL d   1       1.602  -1.754  -0.012  0.00  0.00     0.014 A 
ATOM     12  C   UNL d   1      -2.857  -1.450  -0.006  0.00  0.00     0.088 A 
ATOM     13  C   UNL d   1      -3.389  -0.153  -0.014  0.00  0.00     0.018 A 
ATOM     14  C   UNL d   1       3.435  -0.132  -0.003  0.00  0.00     0.001 A 
ATOM     15  C   UNL d   1       2.972  -1.464  -0.018  0.00  0.00     0.001 A 
ENDROOT
TORSDOF 0
