REMARK  7 active torsions:
REMARK  status: ('A' for Active; 'I' for Inactive)
REMARK    1  A    between atoms: C_5  and  C_1 
REMARK    2  A    between atoms: C_8  and  C_2 
REMARK    3  A    between atoms: O_18  and  C_8 
REMARK    4  A    between atoms: C_13  and  O_23 
REMARK    5  A    between atoms: C_28  and  O_18 
REMARK    6  A    between atoms: O_23  and  C_29 
REMARK    7  A    between atoms: C_29  and  C_28 
ROOT
ATOM      1  C   UNL d   1      -1.111  -0.781   0.760  0.00  0.00     0.087 A 
ATOM      2  C   UNL d   1       0.026  -1.305   0.062  0.00  0.00     0.100 A 
ATOM      3  N   UNL d   1      -0.990   0.548   0.907  0.00  0.00    -0.259 N 
ATOM      4  HN  UNL d   1      -1.636   1.168   1.394  1.00  0.00     0.195 HD
ATOM      5  O   UNL d   1       0.174   0.910   0.272  0.00  0.00    -0.241 OA
ATOM      6  C   UNL d   1       0.789  -0.192  -0.228  0.00  0.00     0.091 A 
ATOM      7  C   UNL d   1       2.045   0.072  -0.959  0.00  0.00     0.080 C 
ENDROOT
BRANCH   2   8
ATOM      8  C   UNL d   1       0.308  -2.682  -0.266  0.00  0.00     0.298 C 
ATOM      9  O   UNL d   1      -0.569  -3.523  -0.415  0.00  0.00    -0.259 OA
BRANCH   8  10
ATOM     10  O   UNL d   1       1.647  -2.951  -0.334  0.00  0.00    -0.315 OA
BRANCH  10  11
ATOM     11  C   UNL d   1       1.992  -4.344  -0.422  0.00  0.00     0.205 C 
BRANCH  11  12
ATOM     12  C   UNL d   1       1.736  -4.898  -1.820  0.00  0.00     0.202 C 
BRANCH  12  13
ATOM     13  O   UNL d   1       1.888  -6.319  -1.799  0.00  0.00    -0.347 OA
BRANCH  13  14
ATOM     14  C   UNL d   1       1.444  -6.948  -2.936  0.00  0.00     0.090 A 
ATOM     15  C   UNL d   1       2.241  -7.954  -3.502  0.00  0.00     0.069 A 
ATOM     16  C   UNL d   1       1.812  -8.631  -4.651  0.00  0.00     0.050 A 
ATOM     17 CL   UNL d   1       3.764  -8.387  -2.819  0.00  0.00    -0.081 Cl
ATOM     18  C   UNL d   1       0.586  -8.305  -5.223  0.00  0.00     0.035 A 
ATOM     19  C   UNL d   1      -0.229  -7.334  -4.648  0.00  0.00     0.026 A 
ATOM     20 CL   UNL d   1       0.058  -9.121  -6.641  0.00  0.00    -0.084 Cl
ATOM     21  C   UNL d   1       0.192  -6.668  -3.495  0.00  0.00     0.040 A 
ENDBRANCH  13  14
ENDBRANCH  12  13
ENDBRANCH  11  12
ENDBRANCH  10  11
ENDBRANCH   8  10
ENDBRANCH   2   8
BRANCH   1  22
ATOM     22  C   UNL d   1      -2.276  -1.488   1.310  0.00  0.00     0.037 A 
ATOM     23  C   UNL d   1      -2.128  -2.572   2.199  0.00  0.00     0.048 A 
ATOM     24 CL   UNL d   1      -0.593  -3.076   2.834  0.00  0.00    -0.083 Cl
ATOM     25  C   UNL d   1      -3.244  -3.278   2.671  0.00  0.00     0.025 A 
ATOM     26  C   UNL d   1      -4.530  -2.880   2.321  0.00  0.00     0.003 A 
ATOM     27  C   UNL d   1      -4.702  -1.781   1.486  0.00  0.00     0.025 A 
ATOM     28  C   UNL d   1      -3.589  -1.100   0.968  0.00  0.00     0.048 A 
ATOM     29 CL   UNL d   1      -3.944   0.201  -0.122  0.00  0.00    -0.083 Cl
ENDBRANCH   1  22
TORSDOF 7
