REMARK  5 active torsions:
REMARK  status: ('A' for Active; 'I' for Inactive)
REMARK    1  A    between atoms: C_8  and  C_1 
REMARK    2  A    between atoms: C_7  and  C_8 
REMARK    3  A    between atoms: C_9  and  C_7 
REMARK    4  A    between atoms: O_13  and  C_9 
REMARK    5  A    between atoms: C_19  and  O_13 
ROOT
ATOM      1  C   UNL d   1      -2.478   3.239  -0.664  0.00  0.00     0.196 C 
ATOM      2  C   UNL d   1      -3.888   3.667  -0.743  0.00  0.00     0.074 C 
ATOM      3  N   UNL d   1      -4.992   4.030  -0.741  0.00  0.00    -0.196 NA
ENDROOT
BRANCH   1   4
ATOM      4  C   UNL d   1      -2.389   1.841  -0.012  0.00  0.00     0.069 C 
BRANCH   4   5
ATOM      5  C   UNL d   1      -1.074   1.047   0.115  0.00  0.00    -0.043 C 
ATOM      6  C   UNL d   1       0.188   1.647   0.362  0.00  0.00    -0.049 C 
ATOM      7  C   UNL d   1       1.382   0.878   0.249  0.00  0.00    -0.049 C 
ATOM      8  C   UNL d   1       0.326   3.083   0.807  0.00  0.00     0.049 C 
ATOM      9  C   UNL d   1       2.750   1.531   0.299  0.00  0.00     0.049 C 
ATOM     10  C   UNL d   1       1.316  -0.529   0.104  0.00  0.00    -0.049 C 
ATOM     11  C   UNL d   1       0.056  -1.168   0.055  0.00  0.00    -0.049 C 
ATOM     12  C   UNL d   1       2.605  -1.323   0.018  0.00  0.00     0.049 C 
ATOM     13  C   UNL d   1      -1.134  -0.385   0.047  0.00  0.00    -0.049 C 
ATOM     14  C   UNL d   1       0.007  -2.681   0.008  0.00  0.00     0.049 C 
ATOM     15  C   UNL d   1      -2.456  -1.129  -0.008  0.00  0.00     0.049 C 
ENDBRANCH   4   5
ENDBRANCH   1   4
BRANCH   1  16
ATOM     16  C   UNL d   1      -1.915   3.193  -2.066  0.00  0.00     0.277 C 
ATOM     17  O   UNL d   1      -2.294   2.443  -2.953  0.00  0.00    -0.264 OA
BRANCH  16  18
ATOM     18  O   UNL d   1      -0.893   4.088  -2.177  0.00  0.00    -0.321 OA
BRANCH  18  19
ATOM     19  C   UNL d   1      -0.104   3.989  -3.375  0.00  0.00     0.174 C 
ATOM     20  C   UNL d   1       1.066   3.059  -3.103  0.00  0.00     0.034 C 
ENDBRANCH  18  19
ENDBRANCH  16  18
ENDBRANCH   1  16
TORSDOF 5
