REMARK  6 active torsions:
REMARK  status: ('A' for Active; 'I' for Inactive)
REMARK    1  A    between atoms: N_7  and  S_1 
REMARK    2  A    between atoms: C_8  and  S_1 
REMARK    3  A    between atoms: C_2  and  N_7 
REMARK    4  A    between atoms: C_9  and  C_3 
REMARK    5  A    between atoms: C_12  and  C_6 
REMARK    6  A    between atoms: O_19  and  C_16 
ROOT
ATOM      1  C   UNL d   1       0.964  -2.538  -0.927  0.00  0.00     0.045 A 
ATOM      2  C   UNL d   1       2.196  -2.671  -1.548  0.00  0.00     0.073 A 
ATOM      3  S   UNL d   1       2.177  -3.907  -2.721  0.00  0.00    -0.084 SA
ATOM      4  C   UNL d   1      -0.001  -3.440  -1.489  0.00  0.00     0.045 A 
ATOM      5  C   UNL d   1       0.522  -4.266  -2.473  0.00  0.00     0.017 A 
ENDROOT
BRANCH   1   6
ATOM      6  N   UNL d   1       0.647  -1.587   0.089  0.00  0.00    -0.180 NA
ATOM      7  H   UNL d   1       1.411  -0.897   0.181  0.00  0.00     0.146 HD
BRANCH   6   8
ATOM      8  S   UNL d   1       0.457  -2.172   1.692  0.00  0.00     0.245 S 
ATOM      9  O   UNL d   1       1.674  -1.848   2.403  0.00  0.00    -0.206 OA
ATOM     10  O   UNL d   1      -0.058  -3.518   1.654  0.00  0.00    -0.206 OA
BRANCH   8  11
ATOM     11  C   UNL d   1      -0.838  -1.137   2.355  0.00  0.00     0.075 A 
ATOM     12  C   UNL d   1      -2.157  -1.600   2.376  0.00  0.00     0.027 A 
ATOM     13  C   UNL d   1      -3.154  -0.846   3.011  0.00  0.00     0.038 A 
ATOM     14  C   UNL d   1      -2.829   0.363   3.631  0.00  0.00     0.068 A 
ATOM     15  C   UNL d   1      -1.501   0.799   3.638  0.00  0.00     0.038 A 
ATOM     16  C   UNL d   1      -0.502   0.056   3.000  0.00  0.00     0.027 A 
BRANCH  14  17
ATOM     17  O   UNL d   1      -3.707   1.165   4.307  0.00  0.00    -0.356 OA
ATOM     18  C   UNL d   1      -5.053   1.137   3.845  0.00  0.00     0.210 C 
ENDBRANCH  14  17
ENDBRANCH   8  11
ENDBRANCH   6   8
ENDBRANCH   1   6
BRANCH   2  19
ATOM     19  C   UNL d   1       3.412  -1.914  -1.282  0.00  0.00     0.164 C 
ATOM     20  O   UNL d   1       3.488  -1.140  -0.323  0.00  0.00    -0.292 OA
ATOM     21  C   UNL d   1       4.603  -2.063  -2.206  0.00  0.00     0.097 C 
ENDBRANCH   2  19
BRANCH   5  22
ATOM     22  C   UNL d   1      -0.129  -5.307  -3.293  0.00  0.00    -0.019 A 
ATOM     23  C   UNL d   1      -1.477  -5.186  -3.662  0.00  0.00     0.013 A 
ATOM     24  C   UNL d   1      -2.092  -6.155  -4.465  0.00  0.00     0.001 A 
ATOM     25  C   UNL d   1      -1.370  -7.259  -4.913  0.00  0.00     0.000 A 
ATOM     26  C   UNL d   1      -0.034  -7.401  -4.554  0.00  0.00     0.001 A 
ATOM     27  C   UNL d   1       0.577  -6.436  -3.748  0.00  0.00     0.013 A 
ENDBRANCH   5  22
TORSDOF 6
