REMARK  7 active torsions:
REMARK  status: ('A' for Active; 'I' for Inactive)
REMARK    1  A    between atoms: C_3  and  C_1 
REMARK    2  A    between atoms: C_4  and  C_1 
REMARK    3  A    between atoms: N_9  and  C_2 
REMARK    4  A    between atoms: O_15  and  C_3 
REMARK    5  A    between atoms: N_5  and  C_4 
REMARK    6  A    between atoms: C_8  and  N_9 
REMARK    7  A    between atoms: C_19  and  O_15 
ROOT
ATOM      1  C   UNL d   1       0.941  -0.081   0.003  0.00  0.00     0.117 C 
ATOM      2  C   UNL d   1       0.266  -1.236  -0.119  0.00  0.00     0.116 C 
ENDROOT
BRANCH   2   3
ATOM      3  N   UNL d   1       0.768  -2.518  -0.193  0.00  0.00    -0.363 N 
ATOM      4  H   UNL d   1       1.768  -2.649  -0.029  0.00  0.00     0.165 HD
BRANCH   3   5
ATOM      5  C   UNL d   1       0.089  -3.712  -0.513  0.00  0.00     0.055 A 
ATOM      6  C   UNL d   1      -1.171  -3.709  -1.128  0.00  0.00     0.055 A 
ATOM      7  C   UNL d   1      -1.837  -4.910  -1.395  0.00  0.00     0.036 A 
ATOM      8 CL   UNL d   1      -3.369  -4.873  -2.177  0.00  0.00    -0.084 Cl
ATOM      9  C   UNL d   1      -1.272  -6.131  -1.039  0.00  0.00     0.026 A 
ATOM     10  C   UNL d   1      -0.026  -6.157  -0.416  0.00  0.00     0.028 A 
ATOM     11  C   UNL d   1       0.645  -4.960  -0.155  0.00  0.00     0.060 A 
ATOM     12 CL   UNL d   1       2.187  -5.047   0.631  0.00  0.00    -0.082 Cl
ENDBRANCH   3   5
ENDBRANCH   2   3
BRANCH   1  13
ATOM     13  C   UNL d   1       0.210   1.199   0.071  0.00  0.00     0.304 C 
ATOM     14  O   UNL d   1      -1.004   1.305  -0.006  0.00  0.00    -0.258 OA
BRANCH  13  15
ATOM     15  O   UNL d   1       1.097   2.221   0.144  0.00  0.00    -0.317 OA
BRANCH  15  16
ATOM     16  C   UNL d   1       0.587   3.512  -0.208  0.00  0.00     0.174 C 
ATOM     17  C   UNL d   1       0.707   3.663  -1.714  0.00  0.00     0.034 C 
ENDBRANCH  15  16
ENDBRANCH  13  15
ENDBRANCH   1  13
BRANCH   1  18
ATOM     18  C   UNL d   1       2.461  -0.081   0.003  0.00  0.00    -0.029 C 
BRANCH  18  19
ATOM     19  N   UNL d   1       3.722  -0.081   0.003  0.00  0.00    -0.365 N 
ATOM     20  HN2 UNL d   1       2.702  -0.081   0.003  1.00  0.00     0.165 HD
ATOM     21  HN1 UNL d   1       4.742  -0.081   0.003  1.00  0.00     0.165 HD
ENDBRANCH  18  19
ENDBRANCH   1  18
TORSDOF 7
