REMARK  4 active torsions:
REMARK  status: ('A' for Active; 'I' for Inactive)
REMARK    1  A    between atoms: C_9  and  N_1 
REMARK    2  A    between atoms: S_11  and  C_8 
REMARK    3  A    between atoms: C_17  and  C_9 
REMARK    4  A    between atoms: C_15  and  S_11 
ROOT
ATOM      1  N   UNL d   1       2.289  -0.094   0.201  0.00  0.00    -0.276 N 
ATOM      2  C   UNL d   1       1.658   1.144   0.118  0.00  0.00     0.261 A 
ATOM      3  C   UNL d   1       1.618  -1.311   0.276  0.00  0.00     0.261 A 
ATOM      4  C   UNL d   1       0.178   1.145   0.006  0.00  0.00     0.044 A 
ATOM      5  C   UNL d   1      -0.527  -0.063  -0.038  0.00  0.00     0.007 A 
ATOM      6  C   UNL d   1       0.150  -1.286   0.073  0.00  0.00     0.044 A 
ATOM      7  C   UNL d   1      -1.945  -0.048  -0.173  0.00  0.00    -0.007 A 
ATOM      8  C   UNL d   1      -2.624   1.204  -0.180  0.00  0.00     0.016 A 
ATOM      9  C   UNL d   1      -0.501   2.369  -0.046  0.00  0.00     0.019 A 
ATOM     10  O   UNL d   1       2.169  -2.384   0.518  0.00  0.00    -0.267 OA
ATOM     11  O   UNL d   1       2.250   2.220   0.156  0.00  0.00    -0.267 OA
ATOM     12  C   UNL d   1      -1.891   2.397  -0.118  0.00  0.00     0.021 A 
ATOM     13  C   UNL d   1      -0.546  -2.500   0.017  0.00  0.00     0.018 A 
ATOM     14  C   UNL d   1      -2.607  -1.295  -0.276  0.00  0.00     0.014 A 
ATOM     15  C   UNL d   1      -1.918  -2.503  -0.183  0.00  0.00     0.002 A 
ENDROOT
BRANCH   1  16
ATOM     16  C   UNL d   1       3.747  -0.112   0.307  0.00  0.00     0.174 C 
BRANCH  16  17
ATOM     17  C   UNL d   1       4.423  -0.120  -1.050  0.00  0.00    -0.040 A 
ATOM     18  C   UNL d   1       4.784   1.085  -1.673  0.00  0.00     0.009 A 
ATOM     19  C   UNL d   1       5.372   1.086  -2.939  0.00  0.00     0.001 A 
ATOM     20  C   UNL d   1       5.611  -0.118  -3.599  0.00  0.00     0.000 A 
ATOM     21  C   UNL d   1       5.268  -1.323  -2.986  0.00  0.00     0.001 A 
ATOM     22  C   UNL d   1       4.678  -1.326  -1.721  0.00  0.00     0.009 A 
ENDBRANCH  16  17
ENDBRANCH   1  16
BRANCH   8  23
ATOM     23  S   UNL d   1      -4.412   1.336  -0.072  0.00  0.00    -0.090 SA
BRANCH  23  24
ATOM     24  C   UNL d   1      -4.984   1.663  -1.729  0.00  0.00     0.005 A 
ATOM     25  C   UNL d   1      -4.187   1.569  -2.874  0.00  0.00     0.019 A 
ATOM     26  C   UNL d   1      -4.721   1.843  -4.137  0.00  0.00     0.001 A 
ATOM     27  C   UNL d   1      -6.060   2.202  -4.272  0.00  0.00     0.000 A 
ATOM     28  C   UNL d   1      -6.870   2.284  -3.144  0.00  0.00     0.001 A 
ATOM     29  C   UNL d   1      -6.332   2.013  -1.882  0.00  0.00     0.019 A 
ENDBRANCH  23  24
ENDBRANCH   8  23
TORSDOF 4
