REMARK  4 active torsions:
REMARK  status: ('A' for Active; 'I' for Inactive)
REMARK    1  A    between atoms: C_17  and  C_6 
REMARK    2  A    between atoms: C_11  and  C_8 
REMARK    3  A    between atoms: C_19  and  C_17 
REMARK    4  A    between atoms: C_20  and  C_19 
ROOT
ATOM      1  N   UNL d   1      -0.330  -0.577   0.088  0.00  0.00    -0.203 N 
ATOM      2  C   UNL d   1      -0.347   0.791  -0.061  0.00  0.00     0.133 A 
ATOM      3  N   UNL d   1      -1.589  -1.094   0.186  0.00  0.00    -0.287 N 
ATOM      4  HN  UNL d   1      -1.863  -2.065   0.336  1.00  0.00     0.188 HD
ATOM      5  C   UNL d   1       0.843  -1.347   0.149  0.00  0.00     0.276 A 
ATOM      6  C   UNL d   1       2.129  -0.558  -0.009  0.00  0.00     0.034 A 
ATOM      7  C   UNL d   1      -1.653   1.177  -0.125  0.00  0.00     0.084 A 
ATOM      8  C   UNL d   1      -2.381  -0.022   0.040  0.00  0.00     0.086 A 
ATOM      9  N   UNL d   1       0.824   1.451  -0.103  0.00  0.00    -0.344 N 
ATOM     10  C   UNL d   1       2.047   0.799  -0.067  0.00  0.00     0.018 A 
ATOM     11  O   UNL d   1       0.792  -2.556   0.340  0.00  0.00    -0.266 OA
ATOM     12  C   UNL d   1       3.229   1.740  -0.073  0.00  0.00     0.069 C 
ATOM     13  H   UNL d   1       0.851   2.470  -0.167  0.00  0.00     0.167 HD
ENDROOT
BRANCH   8  14
ATOM     14  C   UNL d   1      -3.870  -0.078   0.061  0.00  0.00     0.103 A 
ATOM     15  O   UNL d   1      -4.671   1.006  -0.181  0.00  0.00    -0.320 OA
ATOM     16  C   UNL d   1      -5.957   0.589  -0.078  0.00  0.00     0.142 A 
ATOM     17  C   UNL d   1      -6.005  -0.745   0.248  0.00  0.00     0.027 A 
ATOM     18  C   UNL d   1      -4.659  -1.180   0.328  0.00  0.00     0.041 A 
ENDBRANCH   8  14
BRANCH   6  19
ATOM     19  C   UNL d   1       3.393  -1.391  -0.012  0.00  0.00     0.046 C 
BRANCH  19  20
ATOM     20  C   UNL d   1       3.500  -2.462  -1.113  0.00  0.00     0.004 C 
BRANCH  20  21
ATOM     21  C   UNL d   1       3.486  -1.919  -2.543  0.00  0.00    -0.004 C 
ATOM     22  C   UNL d   1       3.544  -3.065  -3.546  0.00  0.00     0.005 C 
ENDBRANCH  20  21
ENDBRANCH  19  20
ENDBRANCH   6  19
TORSDOF 4
