REMARK  1 active torsions:
REMARK  status: ('A' for Active; 'I' for Inactive)
REMARK    1  A    between atoms: N_5  and  N_1 
REMARK       I    between atoms: C_3  and  N_5 
REMARK       I    between atoms: N_9  and  C_3 
ROOT
ATOM      1  N   UNL d   1       1.579  -2.220   0.030  0.00  0.00    -0.300 N 
ATOM      2  HN  UNL d   1       0.788  -2.865   0.001  1.00  0.00     0.186 HD
ATOM      3  C   UNL d   1       1.370  -0.936   0.028  0.00  0.00     0.036 C 
ATOM      4  C   UNL d   1      -0.051  -0.463   0.008  0.00  0.00    -0.006 A 
ATOM      5  C   UNL d   1      -0.352   0.904   0.090  0.00  0.00    -0.046 A 
ATOM      6  C   UNL d   1       2.464   0.120   0.085  0.00  0.00     0.060 C 
ATOM      7  C   UNL d   1       2.008   1.468  -0.455  0.00  0.00     0.011 C 
ATOM      8  C   UNL d   1      -1.086  -1.405  -0.095  0.00  0.00     0.014 A 
ATOM      9  C   UNL d   1       0.735   1.933   0.235  0.00  0.00     0.040 C 
ATOM     10  C   UNL d   1      -1.696   1.308   0.080  0.00  0.00     0.008 A 
ATOM     11  C   UNL d   1      -2.417  -0.990  -0.116  0.00  0.00     0.001 A 
ATOM     12  C   UNL d   1      -2.720   0.366  -0.031  0.00  0.00     0.001 A 
ENDROOT
BRANCH   1  13
ATOM     13  N   UNL d   1       2.849  -2.706   0.071  0.00  0.00    -0.252 N 
ATOM     14  C   UNL d   1       3.092  -4.058   0.031  0.00  0.00     0.332 C 
ATOM     15  O   UNL d   1       4.214  -4.543   0.092  0.00  0.00    -0.246 OA
ATOM     16  N   UNL d   1       1.972  -4.817  -0.086  0.00  0.00    -0.351 N 
ATOM     17  H   UNL d   1       1.113  -4.338   0.145  0.00  0.00     0.160 HD
ATOM     18  H   UNL d   1       2.055  -5.813   0.050  0.00  0.00     0.160 HD
ATOM     19  H   UNL d   1       3.657  -2.103   0.155  0.00  0.00     0.191 HD
ENDBRANCH   1  13
TORSDOF 1
