REMARK  3 active torsions:
REMARK  status: ('A' for Active; 'I' for Inactive)
REMARK    1  A    between atoms: C_3  and  C_4 
REMARK    2  A    between atoms: C_11  and  C_6 
REMARK    3  A    between atoms: C_10  and  C_12 
ROOT
ATOM      1  C   UNL d   1      -1.288   0.404  -0.057  0.00  0.00     0.060 C 
ATOM      2  C   UNL d   1       1.259   0.293  -0.014  0.00  0.00     0.060 C 
ATOM      3  C   UNL d   1       0.022   1.161  -0.274  0.00  0.00     0.134 C 
ATOM      4  N   UNL d   1      -0.102  -1.650  -0.063  0.00  0.00    -0.361 N 
ATOM      5  C   UNL d   1      -1.296  -0.948  -0.003  0.00  0.00     0.023 C 
ATOM      6  C   UNL d   1       1.147  -1.057   0.026  0.00  0.00     0.023 C 
ATOM      7  C   UNL d   1      -2.491   1.166   0.053  0.00  0.00     0.098 C 
ATOM      8  C   UNL d   1       2.522   0.942   0.123  0.00  0.00     0.098 C 
ATOM      9  N   UNL d   1       3.563   1.442   0.248  0.00  0.00    -0.192 NA
ATOM     10  N   UNL d   1      -3.477   1.767   0.159  0.00  0.00    -0.192 NA
ATOM     11  C   UNL d   1       2.340  -1.973   0.142  0.00  0.00     0.069 C 
ATOM     12  C   UNL d   1      -2.564  -1.756   0.109  0.00  0.00     0.069 C 
ATOM     13  H   UNL d   1      -0.147  -2.661   0.049  0.00  0.00     0.165 HD
ENDROOT
BRANCH   3  14
ATOM     14  C   UNL d   1       0.076   1.734  -1.667  0.00  0.00     0.068 A 
ATOM     15  O   UNL d   1      -0.048   3.084  -1.797  0.00  0.00    -0.313 OA
ATOM     16  C   UNL d   1       0.130   3.377  -3.117  0.00  0.00     0.086 A 
ATOM     17  C   UNL d   1       0.286   2.207  -3.836  0.00  0.00     0.040 A 
ATOM     18  C   UNL d   1       0.241   1.149  -2.905  0.00  0.00     0.036 A 
BRANCH  16  19
ATOM     19  C   UNL d   1       0.038   4.781  -3.502  0.00  0.00     0.013 A 
ATOM     20  C   UNL d   1       0.526   5.859  -2.738  0.00  0.00     0.060 A 
ATOM     21  C   UNL d   1       0.303   7.176  -3.209  0.00  0.00     0.017 A 
ATOM     22  C   UNL d   1      -0.342   7.425  -4.419  0.00  0.00     0.001 A 
ATOM     23  C   UNL d   1      -0.778   6.361  -5.191  0.00  0.00     0.001 A 
ATOM     24  C   UNL d   1      -0.593   5.057  -4.735  0.00  0.00     0.015 A 
BRANCH  20  25
ATOM     25  C   UNL d   1       1.301   5.747  -1.442  0.00  0.00     0.418 C 
ATOM     26  F   UNL d   1       1.756   4.519  -1.089  0.00  0.00    -0.166 F 
ATOM     27  F   UNL d   1       2.425   6.529  -1.474  0.00  0.00    -0.166 F 
ATOM     28  F   UNL d   1       0.583   6.207  -0.377  0.00  0.00    -0.166 F 
ENDBRANCH  20  25
ENDBRANCH  16  19
ENDBRANCH   3  14
TORSDOF 3
