REMARK  5 active torsions:
REMARK  status: ('A' for Active; 'I' for Inactive)
REMARK    1  A    between atoms: C_13  and  C_7 
REMARK    2  A    between atoms: C_15  and  N_8 
REMARK    3  A    between atoms: O_17  and  C_9 
REMARK    4  A    between atoms: O_21  and  C_10 
REMARK    5  A    between atoms: C_12  and  C_13 
ROOT
ATOM      1  C   UNL d   1       0.663  -0.756   0.545  0.00  0.00     0.245 A 
ATOM      2  O   UNL d   1       0.191   0.444   1.018  0.00  0.00    -0.263 OA
ATOM      3  N   UNL d   1       0.569  -0.833  -0.767  0.00  0.00    -0.263 N 
ATOM      4  HN  UNL d   1       0.852  -1.623  -1.347  1.00  0.00     0.190 HD
ATOM      5  N   UNL d   1       0.021   0.346  -1.213  0.00  0.00    -0.280 N 
ATOM      6  HN  UNL d   1      -0.179   0.603  -2.179  1.00  0.00     0.189 HD
ATOM      7  C   UNL d   1      -0.194   1.073  -0.139  0.00  0.00     0.146 A 
ATOM      8  N   UNL d   1       1.137  -1.608   1.473  0.00  0.00    -0.321 N 
ATOM      9  H   UNL d   1       1.095  -1.304   2.436  0.00  0.00     0.169 HD
ENDROOT
BRANCH   7  10
ATOM     10  C   UNL d   1      -0.731   2.451  -0.041  0.00  0.00     0.124 C 
BRANCH  10  11
ATOM     11  C   UNL d   1      -2.240   2.496   0.036  0.00  0.00    -0.048 A 
ATOM     12  C   UNL d   1      -2.887   2.491   1.283  0.00  0.00     0.047 A 
ATOM     13  C   UNL d   1      -4.288   2.495   1.383  0.00  0.00     0.102 A 
ATOM     14  C   UNL d   1      -5.051   2.531   0.203  0.00  0.00     0.101 A 
ATOM     15  C   UNL d   1      -4.405   2.517  -1.040  0.00  0.00     0.040 A 
ATOM     16  C   UNL d   1      -3.014   2.499  -1.127  0.00  0.00     0.010 A 
BRANCH  13  17
ATOM     17  O   UNL d   1      -4.954   2.437   2.578  0.00  0.00    -0.353 OA
ATOM     18  C   UNL d   1      -4.186   2.333   3.770  0.00  0.00     0.210 C 
ENDBRANCH  13  17
BRANCH  14  19
ATOM     19  O   UNL d   1      -6.419   2.523   0.095  0.00  0.00    -0.353 OA
ATOM     20  C   UNL d   1      -7.153   3.146   1.142  0.00  0.00     0.210 C 
ENDBRANCH  14  19
ENDBRANCH  10  11
ENDBRANCH   7  10
BRANCH   8  21
ATOM     21  C   UNL d   1       1.705  -2.880   1.269  0.00  0.00     0.035 A 
ATOM     22  C   UNL d   1       1.862  -3.464   0.007  0.00  0.00     0.030 A 
ATOM     23  C   UNL d   1       2.427  -4.735  -0.145  0.00  0.00     0.009 A 
ATOM     24  C   UNL d   1       2.854  -5.462   0.966  0.00  0.00    -0.062 A 
ATOM     25  C   UNL d   1       2.708  -4.894   2.233  0.00  0.00     0.009 A 
ATOM     26  C   UNL d   1       3.446  -6.826   0.777  0.00  0.00     0.048 C 
ATOM     27  C   UNL d   1       2.141  -3.620   2.381  0.00  0.00     0.030 A 
ENDBRANCH   8  21
TORSDOF 5
