REMARK  4 active torsions:
REMARK  status: ('A' for Active; 'I' for Inactive)
REMARK    1  A    between atoms: C_4  and  C_1 
REMARK    2  A    between atoms: C_2  and  N_5 
REMARK    3  A    between atoms: N_12  and  C_3 
REMARK    4  A    between atoms: N_5  and  C_4 
ROOT
ATOM      1  C   UNL d   1      -1.549   4.066  -1.041  0.00  0.00     0.122 C 
ATOM      2  C   UNL d   1      -1.711   3.760  -2.349  0.00  0.00     0.119 C 
ATOM      3  C   UNL d   1      -1.677   5.416  -0.561  0.00  0.00     0.114 C 
ATOM      4  C   UNL d   1      -1.987   4.761  -3.336  0.00  0.00     0.114 C 
ATOM      5  N   UNL d   1      -1.762   6.491  -0.136  0.00  0.00    -0.190 NA
ATOM      6  N   UNL d   1      -2.237   5.543  -4.158  0.00  0.00    -0.190 NA
ENDROOT
BRANCH   1   7
ATOM      7  N   UNL d   1      -1.292   3.113  -0.043  0.00  0.00    -0.278 NA
ATOM      8  H   UNL d   1      -1.483   3.478   0.894  0.00  0.00     0.128 HD
BRANCH   7   9
ATOM      9  C   UNL d   1      -0.052   2.328  -0.024  0.00  0.00     0.136 C 
BRANCH   9  10
ATOM     10  C   UNL d   1      -0.353   0.856   0.023  0.00  0.00     0.015 A 
ATOM     11  C   UNL d   1      -1.078   0.254   1.062  0.00  0.00     0.044 A 
ATOM     12 CL   UNL d   1      -1.680   1.162   2.405  0.00  0.00    -0.084 Cl
ATOM     13  C   UNL d   1      -1.328  -1.124   1.058  0.00  0.00     0.024 A 
ATOM     14  C   UNL d   1      -0.848  -1.926   0.024  0.00  0.00     0.005 A 
ATOM     15  C   UNL d   1      -0.115  -1.349  -1.007  0.00  0.00     0.043 A 
ATOM     16  C   UNL d   1       0.127   0.024  -0.997  0.00  0.00     0.125 A 
ATOM     17  F   UNL d   1       0.846   0.543  -2.003  0.00  0.00    -0.205 F 
ENDBRANCH   9  10
ENDBRANCH   7   9
ENDBRANCH   1   7
BRANCH   2  18
ATOM     18  N   UNL d   1      -1.678   2.456  -2.843  0.00  0.00    -0.292 NA
ATOM     19  H   UNL d   1      -1.906   1.787  -2.107  0.00  0.00     0.125 HD
ATOM     20  H   UNL d   1      -2.248   2.320  -3.676  0.00  0.00     0.125 HD
ENDBRANCH   2  18
TORSDOF 4
