REMARK  2 active torsions:
REMARK  status: ('A' for Active; 'I' for Inactive)
REMARK    1  A    between atoms: O_14  and  C_8 
REMARK    2  A    between atoms: C_18  and  C_9 
ROOT
ATOM      1  C   UNL d   1       0.039   0.751   0.027  0.00  0.00     0.134 C 
ATOM      2  C   UNL d   1       0.007  -0.605   0.030  0.00  0.00     0.111 C 
ATOM      3  N   UNL d   1       1.295   1.389   0.088  0.00  0.00    -0.288 N 
ATOM      4  N   UNL d   1       2.452  -0.673  -0.010  0.00  0.00    -0.270 N 
ATOM      5  N   UNL d   1      -1.210   1.422  -0.031  0.00  0.00    -0.303 N 
ATOM      6  C   UNL d   1       2.515   0.700  -0.012  0.00  0.00     0.332 C 
ATOM      7  C   UNL d   1       1.281  -1.372   0.060  0.00  0.00     0.268 C 
ATOM      8  C   UNL d   1      -1.256  -1.340  -0.003  0.00  0.00     0.097 C 
ATOM      9  C   UNL d   1      -2.438  -0.722   0.042  0.00  0.00     0.044 C 
ATOM     10  C   UNL d   1      -2.445   0.758   0.096  0.00  0.00     0.257 C 
ATOM     11  O   UNL d   1       3.597   1.289  -0.083  0.00  0.00    -0.246 OA
ATOM     12  O   UNL d   1       1.251  -2.606   0.122  0.00  0.00    -0.267 OA
ATOM     13  O   UNL d   1      -3.523   1.348   0.200  0.00  0.00    -0.267 OA
ATOM     14  C   UNL d   1       1.490   2.820   0.272  0.00  0.00     0.163 C 
ATOM     15  C   UNL d   1       3.683  -1.444  -0.020  0.00  0.00     0.164 C 
ATOM     16  C   UNL d   1      -1.381   2.852  -0.238  0.00  0.00     0.161 C 
ENDROOT
BRANCH   8  17
ATOM     17  O   UNL d   1      -1.232  -2.726  -0.074  0.00  0.00    -0.359 OA
ATOM     18  H   UNL d   1      -0.307  -3.050  -0.007  0.00  0.00     0.217 HD
ENDBRANCH   8  17
BRANCH   9  19
ATOM     19  C   UNL d   1      -3.765  -1.433  -0.042  0.00  0.00     0.043 C 
ATOM     20  C   UNL d   1      -4.325  -1.795   1.327  0.00  0.00     0.010 C 
ENDBRANCH   9  19
TORSDOF 2
