REMARK  7 active torsions:
REMARK  status: ('A' for Active; 'I' for Inactive)
REMARK    1  A    between atoms: C_8  and  N_1 
REMARK    2  A    between atoms: C_12  and  C_5 
REMARK    3  A    between atoms: C_11  and  C_8 
REMARK    4  A    between atoms: C_9  and  C_14 
REMARK    5  A    between atoms: C_10  and  C_13 
REMARK       I    between atoms: N_16  and  C_11 
REMARK       I    between atoms: C_15  and  N_20 
REMARK       I    between atoms: N_21  and  C_15 
REMARK    6  A    between atoms: N_20  and  N_16 
REMARK    7  A    between atoms: C_24  and  N_21 
ROOT
ATOM      1  N   UNL d   1       0.034  -1.159  -0.007  0.00  0.00    -0.203 N 
ATOM      2  N   UNL d   1       0.810  -0.717  -1.023  0.00  0.00    -0.268 N 
ATOM      3  HN  UNL d   1       1.179  -1.223  -1.828  1.00  0.00     0.190 HD
ATOM      4  N   UNL d   1      -0.266  -0.235   0.922  0.00  0.00    -0.002 NA
ATOM      5  C   UNL d   1       0.961   0.575  -0.678  0.00  0.00     0.144 A 
ATOM      6  N   UNL d   1       0.312   0.877   0.496  0.00  0.00    -0.266 N 
ATOM      7  HN  UNL d   1       0.281   1.788   0.954  1.00  0.00     0.186 HD
ENDROOT
BRANCH   1   8
ATOM      8  C   UNL d   1      -0.315  -2.558   0.127  0.00  0.00     0.214 C 
ATOM      9  C   UNL d   1       0.923  -3.393   0.436  0.00  0.00     0.046 C 
BRANCH   8  10
ATOM     10  C   UNL d   1      -1.042  -3.073  -1.112  0.00  0.00     0.262 C 
ATOM     11  N   UNL d   1      -0.673  -2.530  -2.335  0.00  0.00    -0.264 N 
ATOM     12  H   UNL d   1       0.178  -1.971  -2.412  0.00  0.00     0.190 HD
ATOM     13  O   UNL d   1      -1.869  -3.985  -1.034  0.00  0.00    -0.269 OA
BRANCH  11  14
ATOM     14  N   UNL d   1      -1.241  -3.062  -3.490  0.00  0.00    -0.249 N 
ATOM     15  C   UNL d   1      -1.116  -2.563  -4.763  0.00  0.00     0.335 C 
ATOM     16  N   UNL d   1      -0.429  -1.389  -4.879  0.00  0.00    -0.334 N 
ATOM     17  O   UNL d   1      -1.616  -3.184  -5.697  0.00  0.00    -0.246 OA
ATOM     18  H   UNL d   1      -0.202  -0.930  -4.015  0.00  0.00     0.165 HD
ATOM     19  H   UNL d   1      -1.830  -3.888  -3.379  0.00  0.00     0.192 HD
BRANCH  16  20
ATOM     20  C   UNL d   1      -0.125  -0.646  -6.123  0.00  0.00     0.023 C 
ATOM     21  C   UNL d   1      -0.930  -1.081  -7.360  0.00  0.00     0.037 C 
ATOM     22  C   UNL d   1      -0.417   0.843  -5.857  0.00  0.00     0.037 C 
ATOM     23  C   UNL d   1       1.365  -0.810  -6.447  0.00  0.00     0.037 C 
ENDBRANCH  16  20
ENDBRANCH  11  14
ENDBRANCH   8  10
ENDBRANCH   1   8
BRANCH   5  24
ATOM     24  C   UNL d   1       1.734   1.517  -1.465  0.00  0.00     0.012 A 
ATOM     25  C   UNL d   1       2.373   1.082  -2.645  0.00  0.00     0.031 A 
ATOM     26  C   UNL d   1       3.149   1.956  -3.415  0.00  0.00     0.049 A 
ATOM     27  C   UNL d   1       3.258   3.291  -3.014  0.00  0.00     0.032 A 
ATOM     28  C   UNL d   1       2.627   3.753  -1.840  0.00  0.00     0.049 A 
ATOM     29  C   UNL d   1       1.868   2.850  -1.076  0.00  0.00     0.031 A 
BRANCH  26  30
ATOM     30  C   UNL d   1       3.840   1.474  -4.669  0.00  0.00     0.417 C 
ATOM     31  F   UNL d   1       4.005   0.127  -4.703  0.00  0.00    -0.166 F 
ATOM     32  F   UNL d   1       3.148   1.802  -5.794  0.00  0.00    -0.166 F 
ATOM     33  F   UNL d   1       5.085   2.001  -4.822  0.00  0.00    -0.166 F 
ENDBRANCH  26  30
BRANCH  28  34
ATOM     34  C   UNL d   1       2.789   5.195  -1.429  0.00  0.00     0.417 C 
ATOM     35  F   UNL d   1       2.135   5.511  -0.277  0.00  0.00    -0.166 F 
ATOM     36  F   UNL d   1       4.092   5.529  -1.227  0.00  0.00    -0.166 F 
ATOM     37  F   UNL d   1       2.322   6.056  -2.376  0.00  0.00    -0.166 F 
ENDBRANCH  28  34
ENDBRANCH   5  24
TORSDOF 7
