REMARK  0 active torsions:
REMARK  status: ('A' for Active; 'I' for Inactive)
ROOT
ATOM      1  C   UNL d   1      -1.398  -0.068  -0.044  0.00  0.00     0.057 A 
ATOM      2  C   UNL d   1      -0.760   1.177  -0.046  0.00  0.00     0.043 A 
ATOM      3  C   UNL d   1      -0.639  -1.244  -0.028  0.00  0.00     0.055 A 
ATOM      4  C   UNL d   1       0.758  -1.170  -0.012  0.00  0.00     0.027 A 
ATOM      5  C   UNL d   1       0.634   1.241  -0.032  0.00  0.00     0.008 A 
ATOM      6 CL   UNL d   1      -3.126  -0.083  -0.064  0.00  0.00    -0.083 Cl
ATOM      7 CL   UNL d   1      -1.360  -2.814  -0.029  0.00  0.00    -0.083 Cl
ATOM      8  C   UNL d   1       1.396   0.073  -0.014  0.00  0.00     0.020 A 
ATOM      9  I   UNL d   1       1.582   3.090  -0.040  0.00  0.00    -0.045 I 
ENDROOT
TORSDOF 0
