REMARK  5 active torsions:
REMARK  status: ('A' for Active; 'I' for Inactive)
REMARK    1  A    between atoms: C_4  and  C_1 
REMARK    2  A    between atoms: C_2  and  C_3 
REMARK    3  A    between atoms: N_17  and  C_10 
REMARK    4  A    between atoms: C_19  and  N_17 
REMARK    5  A    between atoms: C_18  and  C_19 
ROOT
ATOM      1  N   UNL d   1      -1.848   6.416  -5.338  0.00  0.00    -0.197 NA
ATOM      2  C   UNL d   1      -1.686   5.462  -4.696  0.00  0.00     0.060 C 
ATOM      3  C   UNL d   1      -1.481   4.266  -3.878  0.00  0.00     0.143 C 
ENDROOT
BRANCH   3   4
ATOM      4  C   UNL d   1      -2.459   4.249  -2.702  0.00  0.00     0.134 C 
BRANCH   4   5
ATOM      5  N   UNL d   1      -2.270   3.072  -1.844  0.00  0.00    -0.389 N 
ATOM      6  H   UNL d   1      -2.633   2.215  -2.256  0.00  0.00     0.159 HD
BRANCH   5   7
ATOM      7  C   UNL d   1      -1.064   2.897  -1.163  0.00  0.00     0.029 A 
ATOM      8  C   UNL d   1      -0.302   3.968  -0.686  0.00  0.00     0.045 A 
ATOM      9  C   UNL d   1       0.917   3.769  -0.018  0.00  0.00     0.050 A 
ATOM     10  C   UNL d   1       1.362   2.461   0.209  0.00  0.00     0.032 A 
ATOM     11  C   UNL d   1       0.590   1.365  -0.203  0.00  0.00     0.050 A 
ATOM     12  C   UNL d   1      -0.623   1.600  -0.874  0.00  0.00     0.045 A 
BRANCH   9  13
ATOM     13  C   UNL d   1       1.718   4.969   0.426  0.00  0.00     0.417 C 
ATOM     14  F   UNL d   1       2.863   4.645   1.087  0.00  0.00    -0.166 F 
ATOM     15  F   UNL d   1       2.099   5.747  -0.625  0.00  0.00    -0.166 F 
ATOM     16  F   UNL d   1       1.018   5.784   1.261  0.00  0.00    -0.166 F 
ENDBRANCH   9  13
BRANCH  11  17
ATOM     17  C   UNL d   1       1.045  -0.052   0.050  0.00  0.00     0.417 C 
ATOM     18  F   UNL d   1       2.212  -0.132   0.747  0.00  0.00    -0.166 F 
ATOM     19  F   UNL d   1       1.253  -0.741  -1.106  0.00  0.00    -0.166 F 
ATOM     20  F   UNL d   1       0.134  -0.774   0.758  0.00  0.00    -0.166 F 
ENDBRANCH  11  17
ENDBRANCH   5   7
ENDBRANCH   4   5
ENDBRANCH   3   4
TORSDOF 5
