REMARK  6 active torsions:
REMARK  status: ('A' for Active; 'I' for Inactive)
REMARK    1  A    between atoms: C_2  and  S_1 
REMARK    2  A    between atoms: N_6  and  S_1 
REMARK    3  A    between atoms: C_5  and  C_15 
REMARK    4  A    between atoms: C_16  and  N_6 
REMARK    5  A    between atoms: O_24  and  C_14 
REMARK    6  A    between atoms: O_25  and  C_20 
ROOT
ATOM      1  N   UNL d   1       0.173  -1.750   0.448  0.00  0.00    -0.281 N 
ATOM      2  H   UNL d   1      -0.498  -1.826   1.209  0.00  0.00     0.179 HD
ENDROOT
BRANCH   1   3
ATOM      3  S   UNL d   1       0.802  -0.229   0.158  0.00  0.00     0.266 S 
ATOM      4  O   UNL d   1       0.068   0.700   0.991  0.00  0.00    -0.200 OA
ATOM      5  O   UNL d   1       2.244  -0.330   0.276  0.00  0.00    -0.200 OA
BRANCH   3   6
ATOM      6  C   UNL d   1       0.410   0.137  -1.537  0.00  0.00     0.115 A 
ATOM      7  C   UNL d   1       1.479   0.483  -2.385  0.00  0.00     0.065 A 
ATOM      8  C   UNL d   1       1.246   0.772  -3.725  0.00  0.00     0.069 A 
ATOM      9  C   UNL d   1      -0.061   0.743  -4.206  0.00  0.00     0.039 A 
ATOM     10  C   UNL d   1      -1.127   0.416  -3.364  0.00  0.00     0.041 A 
ATOM     11  C   UNL d   1      -0.904   0.087  -2.022  0.00  0.00     0.091 A 
BRANCH   8  12
ATOM     12  O   UNL d   1       2.190   1.095  -4.657  0.00  0.00    -0.356 OA
ATOM     13  C   UNL d   1       3.543   1.131  -4.218  0.00  0.00     0.210 C 
ENDBRANCH   8  12
BRANCH  11  14
ATOM     14  O   UNL d   1      -1.909  -0.279  -1.167  0.00  0.00    -0.354 OA
ATOM     15  C   UNL d   1      -3.119  -0.735  -1.769  0.00  0.00     0.210 C 
ENDBRANCH  11  14
ENDBRANCH   3   6
ENDBRANCH   1   3
BRANCH   1  16
ATOM     16  C   UNL d   1       0.652  -2.901  -0.212  0.00  0.00     0.042 A 
ATOM     17  C   UNL d   1       1.753  -3.599   0.277  0.00  0.00     0.031 A 
ATOM     18  C   UNL d   1       2.140  -4.803  -0.328  0.00  0.00     0.017 A 
ATOM     19  C   UNL d   1       1.428  -5.315  -1.426  0.00  0.00     0.010 A 
ATOM     20  C   UNL d   1       0.332  -4.589  -1.911  0.00  0.00     0.017 A 
ATOM     21  C   UNL d   1      -0.058  -3.397  -1.300  0.00  0.00     0.031 A 
BRANCH  19  22
ATOM     22  C   UNL d   1       1.786  -6.585  -2.049  0.00  0.00     0.137 A 
ATOM     23  N   UNL d   1       1.091  -7.091  -3.129  0.00  0.00    -0.329 N 
ATOM     24  C   UNL d   1       1.702  -8.224  -3.346  0.00  0.00     0.261 A 
ATOM     25  HN  UNL d   1       0.301  -6.684  -3.630  1.00  0.00     0.168 HD
ATOM     26  O   UNL d   1       2.724  -8.473  -2.491  0.00  0.00    -0.231 OA
ATOM     27  N   UNL d   1       2.785  -7.381  -1.627  0.00  0.00    -0.243 N 
ATOM     28  HN  UNL d   1       3.435  -7.223  -0.857  1.00  0.00     0.196 HD
ENDBRANCH  19  22
ENDBRANCH   1  16
TORSDOF 6
