REMARK  10 active torsions:
REMARK  status: ('A' for Active; 'I' for Inactive)
REMARK    1  A    between atoms: N_9  and  S_1 
REMARK    2  A    between atoms: C_12  and  S_1 
REMARK    3  A    between atoms: C_15  and  C_4 
REMARK    4  A    between atoms: C_7  and  C_11 
REMARK    5  A    between atoms: C_8  and  C_16 
REMARK    6  A    between atoms: C_11  and  N_9 
REMARK    7  A    between atoms: C_29  and  C_28 
REMARK    8  A    between atoms: C_30  and  C_29 
REMARK    9  A    between atoms: C_32  and  C_30 
REMARK   10  A    between atoms: C_31  and  C_32 
ROOT
ATOM      1  N   UNL d   1      -1.949  -0.207  -3.731  0.00  0.00    -0.322 N 
ATOM      2  HN  UNL d   1      -1.807  -1.211  -3.616  1.00  0.00     0.169 HD
ATOM      3  C   UNL d   1      -2.468   0.476  -4.817  0.00  0.00     0.137 A 
ATOM      4  N   UNL d   1      -2.516   1.808  -4.644  0.00  0.00    -0.242 N 
ATOM      5  HN  UNL d   1      -2.856   2.514  -5.297  1.00  0.00     0.196 HD
ATOM      6  C   UNL d   1      -1.685   0.765  -2.885  0.00  0.00     0.162 A 
ATOM      7  O   UNL d   1      -1.994   2.001  -3.370  0.00  0.00    -0.221 OA
ENDROOT
BRANCH   6   8
ATOM      8  C   UNL d   1      -1.157   0.709  -1.494  0.00  0.00     0.191 C 
BRANCH   8   9
ATOM      9  N   UNL d   1       0.182   0.089  -1.492  0.00  0.00    -0.208 NA
ATOM     10  H   UNL d   1       0.209  -0.817  -1.963  0.00  0.00     0.140 HD
BRANCH   9  11
ATOM     11  S   UNL d   1       0.976   0.075  -0.006  0.00  0.00     0.241 S 
ATOM     12  O   UNL d   1       0.469   1.167   0.794  0.00  0.00    -0.206 OA
ATOM     13  O   UNL d   1       2.384  -0.078  -0.286  0.00  0.00    -0.206 OA
BRANCH  11  14
ATOM     14  C   UNL d   1       0.422  -1.448   0.735  0.00  0.00     0.074 A 
ATOM     15  C   UNL d   1       1.188  -2.604   0.568  0.00  0.00     0.025 A 
ATOM     16  C   UNL d   1       0.829  -3.776   1.236  0.00  0.00     0.009 A 
ATOM     17  C   UNL d   1      -0.292  -3.801   2.078  0.00  0.00    -0.058 A 
ATOM     18  C   UNL d   1      -1.047  -2.629   2.243  0.00  0.00     0.009 A 
ATOM     19  C   UNL d   1      -0.692  -1.452   1.577  0.00  0.00     0.025 A 
BRANCH  17  20
ATOM     20  C   UNL d   1      -0.665  -5.073   2.806  0.00  0.00     0.038 C 
BRANCH  20  21
ATOM     21  C   UNL d   1      -2.056  -5.610   2.450  0.00  0.00     0.005 C 
BRANCH  21  22
ATOM     22  C   UNL d   1      -2.196  -5.954   0.964  0.00  0.00    -0.000 C 
BRANCH  22  23
ATOM     23  C   UNL d   1      -3.603  -6.451   0.636  0.00  0.00    -0.005 C 
ATOM     24  C   UNL d   1      -3.746  -6.752  -0.847  0.00  0.00     0.005 C 
ENDBRANCH  22  23
ENDBRANCH  21  22
ENDBRANCH  20  21
ENDBRANCH  17  20
ENDBRANCH  11  14
ENDBRANCH   9  11
ENDBRANCH   8   9
ENDBRANCH   6   8
BRANCH   3  25
ATOM     25  C   UNL d   1      -2.925  -0.200  -6.028  0.00  0.00     0.010 A 
ATOM     26  C   UNL d   1      -2.815  -1.593  -6.146  0.00  0.00     0.016 A 
ATOM     27  C   UNL d   1      -3.224  -2.247  -7.313  0.00  0.00     0.017 A 
ATOM     28  C   UNL d   1      -3.753  -1.522  -8.390  0.00  0.00     0.048 A 
ATOM     29  C   UNL d   1      -3.886  -0.131  -8.266  0.00  0.00     0.017 A 
ATOM     30  C   UNL d   1      -3.475   0.522  -7.098  0.00  0.00     0.016 A 
BRANCH  28  31
ATOM     31  C   UNL d   1      -4.168  -2.208  -9.670  0.00  0.00     0.417 C 
ATOM     32  F   UNL d   1      -3.918  -3.547  -9.675  0.00  0.00    -0.166 F 
ATOM     33  F   UNL d   1      -5.498  -2.075  -9.927  0.00  0.00    -0.166 F 
ATOM     34  F   UNL d   1      -3.524  -1.706 -10.760  0.00  0.00    -0.166 F 
ENDBRANCH  28  31
ENDBRANCH   3  25
TORSDOF 10
