REMARK  6 active torsions:
REMARK  status: ('A' for Active; 'I' for Inactive)
REMARK    1  A    between atoms: C_3  and  C_1 
REMARK    2  A    between atoms: N_2  and  C_10 
REMARK    3  A    between atoms: C_4  and  C_7 
REMARK    4  A    between atoms: C_17  and  C_9 
REMARK    5  A    between atoms: N_23  and  N_11 
REMARK    6  A    between atoms: C_26  and  N_23 
ROOT
ATOM      1  C   UNL d   1      -0.065   1.052  -0.003  0.00  0.00     0.088 A 
ATOM      2  O   UNL d   1      -0.919  -0.025  -0.030  0.00  0.00    -0.308 OA
ATOM      3  C   UNL d   1       1.240   0.598  -0.012  0.00  0.00     0.041 A 
ATOM      4  C   UNL d   1      -0.148  -1.157  -0.015  0.00  0.00     0.093 A 
ATOM      5  C   UNL d   1       1.186  -0.811   0.004  0.00  0.00     0.041 A 
ENDROOT
BRANCH   4   6
ATOM      6  C   UNL d   1      -0.772  -2.453  -0.010  0.00  0.00     0.144 C 
ATOM      7  N   UNL d   1      -0.015  -3.505   0.012  0.00  0.00    -0.309 N 
ATOM      8  HN  UNL d   1       1.002  -3.424   0.015  1.00  0.00     0.186 HD
BRANCH   7   9
ATOM      9  N   UNL d   1      -0.624  -4.719   0.030  0.00  0.00    -0.301 N 
ATOM     10  H   UNL d   1      -1.526  -4.840  -0.431  0.00  0.00     0.187 HD
BRANCH   9  11
ATOM     11  C   UNL d   1       0.214  -5.856  -0.028  0.00  0.00     0.048 A 
ATOM     12  C   UNL d   1       1.606  -5.761   0.147  0.00  0.00     0.033 A 
ATOM     13  C   UNL d   1       2.422  -6.896   0.165  0.00  0.00     0.038 A 
ATOM     14  C   UNL d   1       1.840  -8.158   0.032  0.00  0.00     0.103 A 
ATOM     15  C   UNL d   1       0.452  -8.284  -0.116  0.00  0.00     0.038 A 
ATOM     16  C   UNL d   1      -0.350  -7.136  -0.136  0.00  0.00     0.033 A 
BRANCH  14  17
ATOM     17  N   UNL d   1       2.688  -9.357   0.062  0.00  0.00    -0.116 N 
ATOM     18  O   UNL d   1       3.908  -9.198   0.193  0.00  0.00    -0.532 OA
ATOM     19  O   UNL d   1       2.129 -10.459  -0.048  0.00  0.00    -0.532 OA
ENDBRANCH  14  17
ENDBRANCH   9  11
ENDBRANCH   7   9
ENDBRANCH   4   6
BRANCH   1  20
ATOM     20  C   UNL d   1      -0.681   2.382   0.028  0.00  0.00     0.020 A 
ATOM     21  C   UNL d   1      -1.890   2.598  -0.667  0.00  0.00     0.032 A 
ATOM     22  C   UNL d   1      -2.515   3.861  -0.696  0.00  0.00     0.048 A 
ATOM     23  C   UNL d   1      -1.915   4.928  -0.018  0.00  0.00     0.018 A 
ATOM     24  C   UNL d   1      -0.724   4.738   0.678  0.00  0.00     0.026 A 
ATOM     25  C   UNL d   1      -0.112   3.478   0.708  0.00  0.00     0.047 A 
ATOM     26 CL   UNL d   1       1.330   3.366   1.662  0.00  0.00    -0.083 Cl
BRANCH  22  27
ATOM     27  C   UNL d   1      -3.815   4.084  -1.430  0.00  0.00     0.417 C 
ATOM     28  F   UNL d   1      -4.271   2.983  -2.086  0.00  0.00    -0.166 F 
ATOM     29  F   UNL d   1      -4.820   4.466  -0.594  0.00  0.00    -0.166 F 
ATOM     30  F   UNL d   1      -3.718   5.067  -2.368  0.00  0.00    -0.166 F 
ENDBRANCH  22  27
ENDBRANCH   1  20
TORSDOF 6
