REMARK  1 active torsions:
REMARK  status: ('A' for Active; 'I' for Inactive)
REMARK    1  A    between atoms: N_7  and  C_3 
ROOT
ATOM      1  C   UNL d   1       0.481  -0.658  -0.046  0.00  0.00     0.044 A 
ATOM      2  C   UNL d   1       1.139   0.562   0.022  0.00  0.00     0.089 A 
ATOM      3  C   UNL d   1       1.310  -1.809  -0.072  0.00  0.00     0.097 A 
ATOM      4  S   UNL d   1       0.075   1.897   0.064  0.00  0.00    -0.075 SA
ATOM      5  C   UNL d   1      -0.957  -0.458  -0.025  0.00  0.00    -0.029 A 
ATOM      6  C   UNL d   1      -1.290   0.882   0.052  0.00  0.00    -0.008 A 
ATOM      7  N   UNL d   1       2.468   0.757   0.069  0.00  0.00    -0.346 N 
ATOM      8  HN  UNL d   1       2.908   1.677   0.101  1.00  0.00     0.167 HD
ATOM      9  N   UNL d   1       2.649  -1.638   0.007  0.00  0.00    -0.342 N 
ATOM     10  HN  UNL d   1       3.274  -2.444   0.021  1.00  0.00     0.167 HD
ATOM     11  C   UNL d   1       3.143  -0.394   0.067  0.00  0.00     0.182 A 
ATOM     12  C   UNL d   1      -2.014  -1.524  -0.010  0.00  0.00     0.041 C 
ATOM     13  C   UNL d   1      -2.686   1.420   0.110  0.00  0.00     0.047 C 
ATOM     14  C   UNL d   1      -3.437  -0.977  -0.178  0.00  0.00     0.005 C 
ATOM     15  C   UNL d   1      -3.653   0.328   0.589  0.00  0.00     0.005 C 
ENDROOT
BRANCH   3  16
ATOM     16  N   UNL d   1       0.763  -3.086  -0.098  0.00  0.00    -0.265 NA
ATOM     17  C   UNL d   1       1.520  -4.138   0.595  0.00  0.00     0.127 C 
ATOM     18  C   UNL d   1       0.568  -5.348   0.794  0.00  0.00     0.286 C 
ATOM     19  N   UNL d   1      -0.068  -5.846  -0.456  0.00  0.00     0.086 N 
ATOM     20  C   UNL d   1      -0.615  -4.728  -1.259  0.00  0.00     0.286 C 
ATOM     21  C   UNL d   1      -1.148  -6.778  -0.123  0.00  0.00     0.310 C 
ATOM     22  C   UNL d   1       0.374  -3.546  -1.440  0.00  0.00     0.127 C 
ENDBRANCH   3  16
TORSDOF 1
