REMARK  2 active torsions:
REMARK  status: ('A' for Active; 'I' for Inactive)
REMARK    1  A    between atoms: C_9  and  C_6 
REMARK    2  A    between atoms: O_11  and  C_7 
ROOT
ATOM      1  C   UNL d   1      -0.051  -0.529  -0.236  0.00  0.00     0.076 A 
ATOM      2  C   UNL d   1      -1.526  -0.697  -0.396  0.00  0.00     0.167 C 
ATOM      3  C   UNL d   1       0.408   0.798  -0.144  0.00  0.00     0.086 A 
ATOM      4  O   UNL d   1      -0.401   1.906  -0.065  0.00  0.00    -0.340 OA
ATOM      5  C   UNL d   1      -2.357   0.556  -0.421  0.00  0.00     0.121 C 
ATOM      6  C   UNL d   1      -1.722   1.642   0.427  0.00  0.00     0.169 C 
ATOM      7  C   UNL d   1       0.899  -1.566  -0.257  0.00  0.00     0.084 A 
ATOM      8  O   UNL d   1      -2.065  -1.776  -0.589  0.00  0.00    -0.292 OA
ATOM      9  C   UNL d   1       1.772   1.101  -0.110  0.00  0.00     0.038 A 
ATOM     10  C   UNL d   1       2.705   0.079  -0.114  0.00  0.00     0.005 A 
ATOM     11  C   UNL d   1       2.268  -1.243  -0.185  0.00  0.00     0.038 A 
ENDROOT
BRANCH   6  12
ATOM     12  C   UNL d   1      -1.792   1.454   1.944  0.00  0.00    -0.029 A 
ATOM     13  C   UNL d   1      -0.663   1.599   2.769  0.00  0.00     0.010 A 
ATOM     14  C   UNL d   1      -0.752   1.448   4.154  0.00  0.00     0.001 A 
ATOM     15  C   UNL d   1      -1.979   1.179   4.746  0.00  0.00     0.000 A 
ATOM     16  C   UNL d   1      -3.117   1.061   3.954  0.00  0.00     0.001 A 
ATOM     17  C   UNL d   1      -3.026   1.199   2.565  0.00  0.00     0.010 A 
ENDBRANCH   6  12
BRANCH   7  18
ATOM     18  O   UNL d   1       0.705  -2.901  -0.490  0.00  0.00    -0.355 OA
ATOM     19  C   UNL d   1      -0.257  -3.586   0.303  0.00  0.00     0.210 C 
ENDBRANCH   7  18
TORSDOF 2
