REMARK  4 active torsions:
REMARK  status: ('A' for Active; 'I' for Inactive)
REMARK    1  A    between atoms: C_2  and  C_1 
REMARK    2  A    between atoms: S_3  and  C_10 
REMARK    3  A    between atoms: C_16  and  S_3 
REMARK    4  A    between atoms: C_10  and  C_6 
ROOT
ATOM      1  C   UNL d   1      -0.360   0.899   0.343  0.00  0.00     0.147 A 
ATOM      2  N   UNL d   1       0.142  -0.232   0.943  0.00  0.00    -0.321 N 
ATOM      3  HN  UNL d   1       0.135  -0.485   1.932  1.00  0.00     0.169 HD
ATOM      4  C   UNL d   1       0.634  -0.907  -0.072  0.00  0.00     0.162 A 
ATOM      5  N   UNL d   1      -0.171   0.935  -0.985  0.00  0.00    -0.242 N 
ATOM      6  HN  UNL d   1      -0.444   1.668  -1.639  1.00  0.00     0.196 HD
ATOM      7  O   UNL d   1       0.485  -0.263  -1.263  0.00  0.00    -0.222 OA
ENDROOT
BRANCH   4   8
ATOM      8  C   UNL d   1       1.185  -2.266  -0.102  0.00  0.00     0.232 C 
BRANCH   8   9
ATOM      9  S   UNL d   1       2.952  -2.185  -0.052  0.00  0.00     0.182 S 
ATOM     10  O   UNL d   1       3.442  -3.549   0.026  0.00  0.00    -0.222 OA
ATOM     11  O   UNL d   1       3.424  -1.308  -1.107  0.00  0.00    -0.222 OA
BRANCH   9  12
ATOM     12  C   UNL d   1       3.347  -1.418   1.505  0.00  0.00     0.059 A 
ATOM     13  C   UNL d   1       3.464  -2.209   2.653  0.00  0.00     0.025 A 
ATOM     14  C   UNL d   1       3.771  -1.605   3.874  0.00  0.00     0.025 A 
ATOM     15  C   UNL d   1       3.971  -0.225   3.936  0.00  0.00     0.034 A 
ATOM     16  C   UNL d   1       3.888   0.556   2.783  0.00  0.00     0.025 A 
ATOM     17 CL   UNL d   1       4.322   0.518   5.447  0.00  0.00    -0.084 Cl
ATOM     18  C   UNL d   1       3.585  -0.041   1.558  0.00  0.00     0.025 A 
ENDBRANCH   9  12
ENDBRANCH   8   9
ENDBRANCH   4   8
BRANCH   1  19
ATOM     19  C   UNL d   1      -1.090   1.956   1.089  0.00  0.00     0.088 A 
ATOM     20  C   UNL d   1      -1.293   2.056   2.458  0.00  0.00     0.041 A 
ATOM     21  N   UNL d   1      -2.074   3.150   2.838  0.00  0.00    -0.296 N 
ATOM     22  C   UNL d   1      -0.804   1.187   3.559  0.00  0.00     0.071 C 
ATOM     23  N   UNL d   1      -2.447   3.881   1.805  0.00  0.00    -0.061 NA
ATOM     24  HN  UNL d   1      -2.326   3.359   3.804  1.00  0.00     0.183 HD
ATOM     25  S   UNL d   1      -1.869   3.292   0.354  0.00  0.00     0.005 SA
ENDBRANCH   1  19
TORSDOF 4
