REMARK  1 active torsions:
REMARK  status: ('A' for Active; 'I' for Inactive)
REMARK       I    between atoms: N_2  and  C_1 
REMARK    1  A    between atoms: C_4  and  N_2 
ROOT
ATOM      1  C   UNL d   1       2.778  -3.440  -2.394  0.00  0.00    -0.054 A 
ATOM      2  C   UNL d   1       1.047  -1.811  -1.826  0.00  0.00     0.035 A 
ATOM      3  C   UNL d   1       2.131  -2.612  -1.462  0.00  0.00     0.037 A 
ATOM      4  C   UNL d   1       2.330  -3.462  -3.728  0.00  0.00    -0.056 A 
ATOM      5  C   UNL d   1       1.210  -2.693  -4.080  0.00  0.00     0.009 A 
ATOM      6  C   UNL d   1       0.570  -1.885  -3.137  0.00  0.00     0.030 A 
ATOM      7  C   UNL d   1       3.952  -4.266  -1.942  0.00  0.00     0.049 C 
ATOM      8  C   UNL d   1       3.032  -4.278  -4.777  0.00  0.00     0.049 C 
ENDROOT
BRANCH   2   9
ATOM      9  N   UNL d   1       0.403  -0.926  -0.934  0.00  0.00    -0.328 N 
ATOM     10  C   UNL d   1       0.879  -0.513   0.297  0.00  0.00     0.218 C 
ATOM     11  O   UNL d   1       1.965  -0.792   0.796  0.00  0.00    -0.274 OA
ATOM     12  C   UNL d   1      -0.070   0.401   1.028  0.00  0.00     0.117 C 
ATOM     13  H   UNL d   1      -0.428  -0.469  -1.287  0.00  0.00     0.169 HD
ENDBRANCH   2   9
TORSDOF 1
