REMARK  7 active torsions:
REMARK  status: ('A' for Active; 'I' for Inactive)
REMARK    1  A    between atoms: N_4  and  N_1 
REMARK       I    between atoms: C_3  and  N_4 
REMARK    2  A    between atoms: C_7  and  C_3 
REMARK    3  A    between atoms: C_10  and  C_6 
REMARK    4  A    between atoms: C_15  and  C_7 
REMARK    5  A    between atoms: O_8  and  C_9 
REMARK    6  A    between atoms: C_13  and  O_8 
REMARK    7  A    between atoms: C_12  and  C_13 
ROOT
ATOM      1  C   UNL d   1       4.401  -1.967   3.138  0.00  0.00     0.069 A 
ATOM      2  C   UNL d   1       2.964  -0.588   1.196  0.00  0.00    -0.019 A 
ATOM      3  C   UNL d   1       3.296  -2.567   2.534  0.00  0.00     0.037 A 
ATOM      4  C   UNL d   1       4.756  -0.656   2.802  0.00  0.00     0.037 A 
ATOM      5  C   UNL d   1       4.045   0.033   1.821  0.00  0.00     0.015 A 
ATOM      6  C   UNL d   1       2.578  -1.881   1.556  0.00  0.00     0.015 A 
ENDROOT
BRANCH   2   7
ATOM      7  C   UNL d   1       2.197   0.098   0.141  0.00  0.00     0.118 C 
ATOM      8  N   UNL d   1       2.482   1.300  -0.250  0.00  0.00    -0.308 N 
ATOM      9  HN  UNL d   1       3.258   1.806   0.175  1.00  0.00     0.186 HD
BRANCH   8  10
ATOM     10  N   UNL d   1       1.737   1.886  -1.234  0.00  0.00    -0.270 N 
ATOM     11  C   UNL d   1       0.692   1.339  -1.975  0.00  0.00     0.240 C 
ATOM     12  O   UNL d   1       0.230   0.204  -1.881  0.00  0.00    -0.272 OA
ATOM     13  H   UNL d   1       2.007   2.848  -1.413  0.00  0.00     0.190 HD
BRANCH  11  14
ATOM     14  C   UNL d   1       0.119   2.314  -2.984  0.00  0.00     0.143 C 
BRANCH  14  15
ATOM     15  C   UNL d   1      -1.019   3.140  -2.437  0.00  0.00    -0.049 A 
ATOM     16  C   UNL d   1      -1.004   4.535  -2.569  0.00  0.00     0.007 A 
ATOM     17  C   UNL d   1      -2.090   5.297  -2.139  0.00  0.00     0.001 A 
ATOM     18  C   UNL d   1      -3.201   4.675  -1.571  0.00  0.00     0.000 A 
ATOM     19  C   UNL d   1      -3.222   3.291  -1.421  0.00  0.00     0.001 A 
ATOM     20  C   UNL d   1      -2.138   2.526  -1.854  0.00  0.00     0.007 A 
ENDBRANCH  14  15
ENDBRANCH  11  14
ENDBRANCH   8  10
ENDBRANCH   2   7
BRANCH   1  21
ATOM     21  O   UNL d   1       5.067  -2.748   4.044  0.00  0.00    -0.347 OA
BRANCH  21  22
ATOM     22  C   UNL d   1       6.433  -2.386   4.245  0.00  0.00     0.214 C 
BRANCH  22  23
ATOM     23  C   UNL d   1       7.219  -3.526   4.850  0.00  0.00    -0.034 A 
ATOM     24  C   UNL d   1       6.859  -4.866   4.644  0.00  0.00     0.012 A 
ATOM     25  C   UNL d   1       7.649  -5.894   5.161  0.00  0.00     0.043 A 
ATOM     26  C   UNL d   1       8.801  -5.581   5.872  0.00  0.00     0.116 A 
ATOM     27  C   UNL d   1       9.183  -4.263   6.074  0.00  0.00     0.043 A 
ATOM     28  F   UNL d   1       9.562  -6.569   6.361  0.00  0.00    -0.206 F 
ATOM     29  C   UNL d   1       8.395  -3.235   5.561  0.00  0.00     0.012 A 
ENDBRANCH  22  23
ENDBRANCH  21  22
ENDBRANCH   1  21
TORSDOF 7
