REMARK  4 active torsions:
REMARK  status: ('A' for Active; 'I' for Inactive)
REMARK    1  A    between atoms: C_2  and  C_1 
REMARK       I    between atoms: N_5  and  C_1 
REMARK    2  A    between atoms: C_4  and  C_3 
REMARK    3  A    between atoms: O_9  and  C_4 
REMARK    4  A    between atoms: C_8  and  N_5 
ROOT
ATOM      1  C   UNL d   1       1.096   0.093   0.012  0.00  0.00     0.245 C 
ATOM      2  N   UNL d   1       0.281  -0.908   0.498  0.00  0.00    -0.324 N 
ATOM      3  O   UNL d   1       2.320   0.114  -0.012  0.00  0.00    -0.268 OA
ATOM      4  H   UNL d   1      -0.719  -0.771   0.434  0.00  0.00     0.169 HD
ENDROOT
BRANCH   1   5
ATOM      5  C   UNL d   1       0.314   1.240  -0.517  0.00  0.00     0.080 C 
ATOM      6  C   UNL d   1       0.956   2.336  -0.948  0.00  0.00     0.088 C 
BRANCH   6   7
ATOM      7  C   UNL d   1       0.164   3.465  -1.461  0.00  0.00     0.282 C 
ATOM      8  O   UNL d   1      -1.053   3.478  -1.542  0.00  0.00    -0.260 OA
BRANCH   7   9
ATOM      9  O   UNL d   1       1.009   4.463  -1.815  0.00  0.00    -0.323 OA
ATOM     10  C   UNL d   1       0.344   5.617  -2.332  0.00  0.00     0.213 C 
ENDBRANCH   7   9
ENDBRANCH   6   7
ENDBRANCH   1   5
BRANCH   2  11
ATOM     11  C   UNL d   1       0.686  -2.127   1.087  0.00  0.00     0.035 A 
ATOM     12  C   UNL d   1       2.019  -2.502   1.261  0.00  0.00     0.029 A 
ATOM     13  C   UNL d   1       2.342  -3.732   1.843  0.00  0.00     0.002 A 
ATOM     14  C   UNL d   1       1.335  -4.598   2.260  0.00  0.00     0.000 A 
ATOM     15  C   UNL d   1       0.001  -4.231   2.101  0.00  0.00     0.002 A 
ATOM     16  C   UNL d   1      -0.322  -3.002   1.517  0.00  0.00     0.029 A 
ENDBRANCH   2  11
TORSDOF 4
