REMARK  3 active torsions:
REMARK  status: ('A' for Active; 'I' for Inactive)
REMARK    1  A    between atoms: N_8  and  C_4 
REMARK    2  A    between atoms: C_13  and  N_8 
REMARK    3  A    between atoms: C_16  and  C_12 
ROOT
ATOM      1  C   UNL d   1      -2.410  -0.544  -0.255  0.00  0.00     0.103 A 
ATOM      2  C   UNL d   1      -1.820   0.811  -0.411  0.00  0.00     0.200 A 
ATOM      3  C   UNL d   1      -1.310  -1.513  -0.021  0.00  0.00     0.200 A 
ATOM      4  C   UNL d   1      -3.696  -0.928  -0.300  0.00  0.00     0.132 C 
ATOM      5  C   UNL d   1      -0.368   0.611  -0.293  0.00  0.00     0.029 A 
ATOM      6  C   UNL d   1      -0.079  -0.730  -0.068  0.00  0.00     0.029 A 
ATOM      7  C   UNL d   1      -4.725   0.065  -0.431  0.00  0.00     0.118 C 
ATOM      8  N   UNL d   1      -5.569   0.858  -0.536  0.00  0.00    -0.190 NA
ATOM      9  O   UNL d   1      -1.404  -2.706   0.190  0.00  0.00    -0.286 OA
ATOM     10  O   UNL d   1      -2.378   1.865  -0.609  0.00  0.00    -0.286 OA
ATOM     11  C   UNL d   1       0.634   1.558  -0.388  0.00  0.00     0.016 A 
ATOM     12  C   UNL d   1       1.216  -1.190   0.078  0.00  0.00     0.016 A 
ATOM     13  C   UNL d   1       1.953   1.113  -0.247  0.00  0.00     0.001 A 
ATOM     14  C   UNL d   1       2.241  -0.248  -0.016  0.00  0.00     0.001 A 
ENDROOT
BRANCH   4  15
ATOM     15  N   UNL d   1      -4.083  -2.258  -0.150  0.00  0.00    -0.347 N 
ATOM     16  H   UNL d   1      -3.320  -2.890   0.113  0.00  0.00     0.167 HD
BRANCH  15  17
ATOM     17  C   UNL d   1      -5.338  -2.881  -0.183  0.00  0.00     0.033 C 
ATOM     18  C   UNL d   1      -6.417  -2.416  -0.926  0.00  0.00     0.030 C 
ATOM     19  C   UNL d   1      -7.693  -2.963  -0.761  0.00  0.00     0.010 C 
ATOM     20  C   UNL d   1      -7.940  -3.976   0.174  0.00  0.00    -0.054 C 
ATOM     21  C   UNL d   1      -6.826  -4.533   0.815  0.00  0.00     0.010 C 
ATOM     22  C   UNL d   1      -5.549  -3.984   0.651  0.00  0.00     0.030 C 
BRANCH  20  23
ATOM     23  C   UNL d   1      -9.366  -4.449   0.469  0.00  0.00     0.018 C 
ATOM     24  C   UNL d   1     -10.439  -3.343   0.326  0.00  0.00     0.009 C 
ATOM     25  C   UNL d   1     -10.292  -2.249   1.386  0.00  0.00     0.001 C 
ATOM     26  C   UNL d   1     -10.294  -2.807   2.807  0.00  0.00     0.000 C 
ATOM     27  C   UNL d   1      -9.397  -4.029   2.993  0.00  0.00     0.001 C 
ATOM     28  C   UNL d   1      -9.563  -5.062   1.875  0.00  0.00     0.009 C 
ENDBRANCH  20  23
ENDBRANCH  15  17
ENDBRANCH   4  15
TORSDOF 3
