REMARK  9 active torsions:
REMARK  status: ('A' for Active; 'I' for Inactive)
REMARK    1  A    between atoms: N_2  and  C_1 
REMARK    2  A    between atoms: N_3  and  C_1 
REMARK    3  A    between atoms: C_4  and  C_1 
REMARK    4  A    between atoms: C_5  and  C_1 
REMARK       I    between atoms: C_7  and  N_2 
REMARK    5  A    between atoms: C_6  and  N_3 
REMARK    6  A    between atoms: O_19  and  C_7 
REMARK    7  A    between atoms: C_23  and  O_19 
REMARK    8  A    between atoms: C_24  and  C_23 
REMARK    9  A    between atoms: C_25  and  C_24 
ROOT
ATOM      1  C   UNL d   1       1.069  -0.054   0.076  0.00  0.00     0.321 C 
ENDROOT
BRANCH   1   2
ATOM      2  N   UNL d   1       0.616  -0.901   1.182  0.00  0.00    -0.294 N 
ATOM      3  C   UNL d   1       0.899  -2.217   1.242  0.00  0.00     0.362 C 
ATOM      4  O   UNL d   1       1.559  -2.800   0.408  0.00  0.00    -0.238 OA
ATOM      5  H   UNL d   1       0.165  -0.466   1.978  0.00  0.00     0.168 HD
BRANCH   3   6
ATOM      6  O   UNL d   1       0.268  -2.759   2.308  0.00  0.00    -0.304 OA
BRANCH   6   7
ATOM      7  C   UNL d   1       0.124  -4.182   2.275  0.00  0.00     0.180 C 
BRANCH   7   8
ATOM      8  C   UNL d   1       0.976  -4.837   3.352  0.00  0.00     0.026 C 
BRANCH   8   9
ATOM      9  C   UNL d   1       0.812  -6.355   3.285  0.00  0.00    -0.002 C 
ATOM     10  C   UNL d   1       1.616  -7.073   4.352  0.00  0.00     0.005 C 
ENDBRANCH   8   9
ENDBRANCH   7   8
ENDBRANCH   6   7
ENDBRANCH   3   6
ENDBRANCH   1   2
BRANCH   1  11
ATOM     11  N   UNL d   1       0.294   1.200   0.325  0.00  0.00    -0.181 N 
ATOM     12  H   UNL d   1       0.076   1.757  -0.499  0.00  0.00     0.181 HD
BRANCH  11  13
ATOM     13  C   UNL d   1       0.556   2.044   1.370  0.00  0.00     0.680 A 
ATOM     14  N   UNL d   1       1.291   1.626   2.401  0.00  0.00    -0.202 N 
ATOM     15  C   UNL d   1       1.382   2.458   3.460  0.00  0.00     0.107 A 
ATOM     16  HN  UNL d   1       1.762   0.721   2.390  1.00  0.00     0.183 HD
ATOM     17  C   UNL d   1       0.730   3.662   3.535  0.00  0.00     0.035 A 
ATOM     18  C   UNL d   1       0.007   4.001   2.420  0.00  0.00     0.107 A 
ATOM     19  N   UNL d   1      -0.074   3.223   1.325  0.00  0.00    -0.202 N 
ATOM     20  HN  UNL d   1      -0.593   3.519   0.498  1.00  0.00     0.183 HD
ENDBRANCH  11  13
ENDBRANCH   1  11
BRANCH   1  21
ATOM     21  C   UNL d   1       0.618  -0.598  -1.330  0.00  0.00     0.441 C 
ATOM     22  F   UNL d   1      -0.523  -1.345  -1.215  0.00  0.00    -0.166 F 
ATOM     23  F   UNL d   1       0.281   0.442  -2.145  0.00  0.00    -0.166 F 
ATOM     24  F   UNL d   1       1.495  -1.352  -2.013  0.00  0.00    -0.166 F 
ENDBRANCH   1  21
BRANCH   1  25
ATOM     25  C   UNL d   1       2.622   0.161   0.001  0.00  0.00     0.441 C 
ATOM     26  F   UNL d   1       3.232  -0.180   1.169  0.00  0.00    -0.166 F 
ATOM     27  F   UNL d   1       3.257  -0.539  -0.963  0.00  0.00    -0.166 F 
ATOM     28  F   UNL d   1       2.937   1.464  -0.227  0.00  0.00    -0.166 F 
ENDBRANCH   1  25
TORSDOF 9
