REMARK  5 active torsions:
REMARK  status: ('A' for Active; 'I' for Inactive)
REMARK    1  A    between atoms: C_2  and  C_1 
REMARK    2  A    between atoms: C_10  and  C_2 
REMARK    3  A    between atoms: C_13  and  N_3 
REMARK    4  A    between atoms: C_12  and  C_10 
REMARK    5  A    between atoms: N_16  and  C_11 
ROOT
ATOM      1  C   UNL d   1      -1.763  -3.539  -0.312  0.00  0.00     0.160 A 
ATOM      2  N   UNL d   1      -2.628  -3.519  -1.407  0.00  0.00    -0.222 N 
ATOM      3  N   UNL d   1      -3.804  -4.073  -0.995  0.00  0.00    -0.219 N 
ATOM      4  HN  UNL d   1      -4.670  -4.129  -1.530  1.00  0.00     0.210 HD
ATOM      5  N   UNL d   1      -3.605  -4.524   0.229  0.00  0.00    -0.226 N 
ATOM      6  HN  UNL d   1      -4.296  -5.037   0.777  1.00  0.00     0.210 HD
ATOM      7  N   UNL d   1      -2.354  -4.213   0.661  0.00  0.00    -0.267 N 
ATOM      8  HN  UNL d   1      -1.947  -4.455   1.564  1.00  0.00     0.190 HD
ENDROOT
BRANCH   1   9
ATOM      9  C   UNL d   1      -0.529  -2.862  -0.262  0.00  0.00     0.077 C 
ATOM     10  C   UNL d   1       0.656  -3.495  -0.384  0.00  0.00     0.104 C 
BRANCH   9  11
ATOM     11  C   UNL d   1      -0.439  -1.370  -0.026  0.00  0.00     0.198 C 
ATOM     12  O   UNL d   1       0.581  -0.757  -0.337  0.00  0.00    -0.286 OA
BRANCH  11  13
ATOM     13  C   UNL d   1      -1.572  -0.604   0.570  0.00  0.00     0.021 A 
ATOM     14  C   UNL d   1      -1.860   0.711   0.138  0.00  0.00    -0.048 A 
ATOM     15  C   UNL d   1      -1.088   1.408  -0.952  0.00  0.00     0.049 C 
ATOM     16  C   UNL d   1      -2.867   1.441   0.795  0.00  0.00     0.007 A 
ATOM     17  C   UNL d   1      -3.597   0.876   1.839  0.00  0.00     0.001 A 
ATOM     18  C   UNL d   1      -3.314  -0.417   2.261  0.00  0.00     0.001 A 
ATOM     19  C   UNL d   1      -2.293  -1.145   1.647  0.00  0.00     0.016 A 
ENDBRANCH  11  13
ENDBRANCH   9  11
BRANCH  10  20
ATOM     20  N   UNL d   1       1.060  -4.803  -0.649  0.00  0.00    -0.398 N 
ATOM     21  C   UNL d   1       2.490  -5.143  -0.621  0.00  0.00     0.148 C 
ATOM     22  C   UNL d   1       0.161  -5.939  -0.841  0.00  0.00     0.148 C 
ENDBRANCH  10  20
ENDBRANCH   1   9
BRANCH   2  23
ATOM     23  C   UNL d   1      -2.489  -3.131  -2.772  0.00  0.00     0.060 A 
ATOM     24  C   UNL d   1      -1.252  -2.828  -3.351  0.00  0.00     0.033 A 
ATOM     25  C   UNL d   1      -1.162  -2.559  -4.724  0.00  0.00     0.026 A 
ATOM     26  C   UNL d   1      -2.303  -2.584  -5.522  0.00  0.00     0.034 A 
ATOM     27  C   UNL d   1      -3.543  -2.857  -4.958  0.00  0.00     0.026 A 
ATOM     28 CL   UNL d   1      -2.174  -2.299  -7.213  0.00  0.00    -0.084 Cl
ATOM     29  C   UNL d   1      -3.636  -3.131  -3.591  0.00  0.00     0.033 A 
ENDBRANCH   2  23
TORSDOF 5
