REMARK  3 active torsions:
REMARK  status: ('A' for Active; 'I' for Inactive)
REMARK    1  A    between atoms: N_7  and  C_1 
REMARK    2  A    between atoms: C_8  and  C_2 
REMARK    3  A    between atoms: C_9  and  C_5 
ROOT
ATOM      1  C   UNL d   1       1.543  -0.794  -0.108  0.00  0.00     0.152 A 
ATOM      2  C   UNL d   1       1.489   0.624  -0.089  0.00  0.00     0.068 A 
ATOM      3  N   UNL d   1       0.211   1.017  -0.082  0.00  0.00    -0.300 N 
ATOM      4  HN  UNL d   1      -0.137   1.975  -0.127  1.00  0.00     0.187 HD
ATOM      5  C   UNL d   1       0.223  -1.269  -0.070  0.00  0.00     0.070 A 
ATOM      6  N   UNL d   1      -0.520  -0.102  -0.003  0.00  0.00    -0.297 N 
ATOM      7  C   UNL d   1      -1.946   0.099   0.140  0.00  0.00     0.177 C 
ENDROOT
BRANCH   2   8
ATOM      8  C   UNL d   1       2.574   1.698  -0.124  0.00  0.00    -0.005 C 
ATOM      9  C   UNL d   1       2.885   2.063  -1.588  0.00  0.00     0.021 C 
ATOM     10  C   UNL d   1       2.094   2.982   0.605  0.00  0.00     0.021 C 
ATOM     11  C   UNL d   1       3.883   1.274   0.568  0.00  0.00     0.021 C 
ENDBRANCH   2   8
BRANCH   1  12
ATOM     12  N   UNL d   1       2.729  -1.579  -0.136  0.00  0.00    -0.111 N 
ATOM     13  O   UNL d   1       3.215  -1.892   0.955  0.00  0.00    -0.532 OA
ATOM     14  O   UNL d   1       3.173  -1.874  -1.255  0.00  0.00    -0.532 OA
ENDBRANCH   1  12
BRANCH   5  15
ATOM     15  C   UNL d   1      -0.355  -2.695  -0.010  0.00  0.00    -0.005 C 
ATOM     16  C   UNL d   1      -0.618  -3.062   1.463  0.00  0.00     0.021 C 
ATOM     17  C   UNL d   1      -1.653  -2.859  -0.831  0.00  0.00     0.021 C 
ATOM     18  C   UNL d   1       0.613  -3.755  -0.591  0.00  0.00     0.021 C 
ENDBRANCH   5  15
TORSDOF 3
