REMARK  4 active torsions:
REMARK  status: ('A' for Active; 'I' for Inactive)
REMARK    1  A    between atoms: C_6  and  N_1 
REMARK    2  A    between atoms: C_2  and  C_8 
REMARK    3  A    between atoms: C_15  and  C_3 
REMARK    4  A    between atoms: C_18  and  C_10 
ROOT
ATOM      1  C   UNL d   1      -3.235  -4.843   4.067  0.00  0.00     0.055 C 
ATOM      2  C   UNL d   1      -3.284  -3.730   3.305  0.00  0.00     0.034 C 
ATOM      3  C   UNL d   1      -3.691  -6.101   3.549  0.00  0.00     0.100 C 
ATOM      4  N   UNL d   1      -4.031  -7.141   3.157  0.00  0.00    -0.191 NA
ENDROOT
BRANCH   1   5
ATOM      5  C   UNL d   1      -2.687  -4.788   5.454  0.00  0.00    -0.015 A 
ATOM      6  C   UNL d   1      -2.852  -3.650   6.269  0.00  0.00     0.015 A 
ATOM      7  C   UNL d   1      -2.365  -3.615   7.583  0.00  0.00     0.037 A 
ATOM      8  C   UNL d   1      -1.716  -4.736   8.108  0.00  0.00     0.102 A 
ATOM      9  C   UNL d   1      -1.545  -5.883   7.328  0.00  0.00     0.037 A 
ATOM     10  C   UNL d   1      -2.028  -5.902   6.011  0.00  0.00     0.015 A 
BRANCH   8  11
ATOM     11  N   UNL d   1      -1.222  -4.711   9.492  0.00  0.00    -0.116 N 
ATOM     12  O   UNL d   1      -0.672  -5.732   9.927  0.00  0.00    -0.532 OA
ATOM     13  O   UNL d   1      -1.386  -3.669  10.143  0.00  0.00    -0.532 OA
ENDBRANCH   8  11
ENDBRANCH   1   5
BRANCH   2  14
ATOM     14  C   UNL d   1      -3.835  -3.651   1.946  0.00  0.00    -0.035 A 
ATOM     15  C   UNL d   1      -5.190  -3.366   1.757  0.00  0.00     0.012 A 
ATOM     16  C   UNL d   1      -5.711  -3.243   0.465  0.00  0.00     0.008 A 
ATOM     17  C   UNL d   1      -4.888  -3.406  -0.660  0.00  0.00    -0.055 A 
ATOM     18  C   UNL d   1      -3.533  -3.707  -0.458  0.00  0.00     0.008 A 
ATOM     19  C   UNL d   1      -3.010  -3.828   0.834  0.00  0.00     0.012 A 
BRANCH  17  20
ATOM     20  C   UNL d   1      -5.430  -3.251  -2.071  0.00  0.00     0.010 C 
ATOM     21  C   UNL d   1      -6.528  -4.274  -2.375  0.00  0.00     0.015 C 
ATOM     22  C   UNL d   1      -5.931  -1.826  -2.326  0.00  0.00     0.015 C 
ENDBRANCH  17  20
ENDBRANCH   2  14
TORSDOF 4
