REMARK  2 active torsions:
REMARK  status: ('A' for Active; 'I' for Inactive)
REMARK    1  A    between atoms: C_7  and  C_3 
REMARK    2  A    between atoms: O_15  and  C_12 
ROOT
ATOM      1  C   UNL d   1       1.260   0.361   0.129  0.00  0.00     0.058 C 
ATOM      2  C   UNL d   1      -1.306   0.378   0.080  0.00  0.00     0.058 C 
ATOM      3  C   UNL d   1      -0.008   1.173  -0.139  0.00  0.00     0.113 C 
ATOM      4  N   UNL d   1      -0.045  -1.604   0.412  0.00  0.00    -0.361 N 
ATOM      5  C   UNL d   1      -1.264  -0.956   0.309  0.00  0.00     0.023 C 
ATOM      6  C   UNL d   1       1.185  -0.971   0.365  0.00  0.00     0.023 C 
ATOM      7  C   UNL d   1      -2.546   1.081   0.018  0.00  0.00     0.098 C 
ATOM      8  C   UNL d   1       2.511   1.052   0.142  0.00  0.00     0.098 C 
ATOM      9  N   UNL d   1       3.531   1.596   0.183  0.00  0.00    -0.192 NA
ATOM     10  N   UNL d   1      -3.554   1.655  -0.015  0.00  0.00    -0.192 NA
ATOM     11  C   UNL d   1      -2.502  -1.811   0.419  0.00  0.00     0.069 C 
ATOM     12  C   UNL d   1       2.404  -1.835   0.563  0.00  0.00     0.069 C 
ATOM     13  H   UNL d   1      -0.056  -2.596   0.643  0.00  0.00     0.165 HD
ENDROOT
BRANCH   3  14
ATOM     14  C   UNL d   1       0.023   1.758  -1.554  0.00  0.00    -0.010 A 
ATOM     15  C   UNL d   1       0.189   3.119  -1.860  0.00  0.00     0.075 A 
ATOM     16  C   UNL d   1       0.260   3.522  -3.204  0.00  0.00     0.037 A 
ATOM     17  C   UNL d   1       0.173   2.599  -4.247  0.00  0.00     0.003 A 
ATOM     18  C   UNL d   1       0.028   1.251  -3.960  0.00  0.00     0.001 A 
ATOM     19  C   UNL d   1      -0.051   0.838  -2.632  0.00  0.00     0.011 A 
BRANCH  15  20
ATOM     20  O   UNL d   1       0.477   4.120  -0.974  0.00  0.00    -0.355 OA
ATOM     21  C   UNL d   1      -0.428   4.340   0.098  0.00  0.00     0.210 C 
ENDBRANCH  15  20
ENDBRANCH   3  14
TORSDOF 2
