REMARK  3 active torsions:
REMARK  status: ('A' for Active; 'I' for Inactive)
REMARK       I    between atoms: N_2  and  C_1 
REMARK    1  A    between atoms: C_4  and  C_1 
REMARK       I    between atoms: C_5  and  N_2 
REMARK       I    between atoms: N_8  and  C_5 
REMARK    2  A    between atoms: C_6  and  N_7 
REMARK    3  A    between atoms: N_7  and  N_8 
ROOT
ATOM      1  C   UNL d   1       4.665   0.815  -0.926  0.00  0.00     0.089 A 
ATOM      2  C   UNL d   1       4.127   1.344   0.277  0.00  0.00     0.052 A 
ATOM      3  C   UNL d   1       4.026  -0.282  -1.614  0.00  0.00     0.103 C 
ATOM      4  N   UNL d   1       3.550  -1.181  -2.170  0.00  0.00    -0.191 NA
ATOM      5  C   UNL d   1       5.845   1.371  -1.469  0.00  0.00     0.056 A 
ATOM      6 CL   UNL d   1       6.612   0.734  -2.886  0.00  0.00    -0.083 Cl
ATOM      7  C   UNL d   1       4.763   2.470   0.842  0.00  0.00     0.027 A 
ATOM      8  C   UNL d   1       5.922   3.015   0.291  0.00  0.00     0.004 A 
ATOM      9  C   UNL d   1       6.474   2.455  -0.851  0.00  0.00     0.025 A 
ENDROOT
BRANCH   2  10
ATOM     10  N   UNL d   1       3.020   0.714   0.930  0.00  0.00    -0.196 NA
ATOM     11  C   UNL d   1       3.416  -0.541   1.592  0.00  0.00     0.143 C 
BRANCH  10  12
ATOM     12  N   UNL d   1       2.239   1.567   1.765  0.00  0.00    -0.266 N 
ATOM     13  C   UNL d   1       0.920   1.262   2.026  0.00  0.00     0.337 C 
ATOM     14  N   UNL d   1       0.239   2.162   2.831  0.00  0.00    -0.274 N 
ATOM     15  O   UNL d   1       0.327   0.265   1.619  0.00  0.00    -0.246 OA
ATOM     16  C   UNL d   1       0.710   3.286   3.498  0.00  0.00     0.263 C 
ATOM     17  H   UNL d   1      -0.730   1.893   2.934  0.00  0.00     0.173 HD
ATOM     18  O   UNL d   1       1.809   3.754   3.214  0.00  0.00    -0.267 OA
ATOM     19  H   UNL d   1       2.713   2.168   2.433  0.00  0.00     0.186 HD
BRANCH  16  20
ATOM     20  C   UNL d   1      -0.143   3.888   4.599  0.00  0.00     0.075 A 
ATOM     21  C   UNL d   1       0.465   4.696   5.592  0.00  0.00     0.051 A 
ATOM     22 CL   UNL d   1       2.131   5.183   5.593  0.00  0.00    -0.083 Cl
ATOM     23  C   UNL d   1      -0.261   5.161   6.705  0.00  0.00     0.025 A 
ATOM     24  C   UNL d   1      -1.607   4.861   6.851  0.00  0.00     0.003 A 
ATOM     25  C   UNL d   1      -2.239   4.120   5.865  0.00  0.00     0.025 A 
ATOM     26  C   UNL d   1      -1.526   3.641   4.748  0.00  0.00     0.051 A 
ATOM     27 CL   UNL d   1      -2.491   2.779   3.597  0.00  0.00    -0.083 Cl
ENDBRANCH  16  20
ENDBRANCH  10  12
ENDBRANCH   2  10
TORSDOF 3
