REMARK  3 active torsions:
REMARK  status: ('A' for Active; 'I' for Inactive)
REMARK    1  A    between atoms: N_4  and  C_10 
REMARK    2  A    between atoms: C_9  and  C_5 
REMARK    3  A    between atoms: C_13  and  C_11 
ROOT
ATOM      1  C   UNL d   1      -4.444   2.988  -1.631  0.00  0.00     0.088 A 
ATOM      2  O   UNL d   1      -4.273   1.826  -0.950  0.00  0.00    -0.310 OA
ATOM      3  C   UNL d   1      -3.016   1.333  -1.204  0.00  0.00     0.077 A 
ATOM      4  C   UNL d   1      -3.287   3.286  -2.317  0.00  0.00     0.041 A 
ATOM      5  C   UNL d   1      -2.377   2.237  -2.040  0.00  0.00     0.040 A 
ENDROOT
BRANCH   3   6
ATOM      6  C   UNL d   1      -2.519   0.134  -0.629  0.00  0.00     0.061 C 
ATOM      7  C   UNL d   1      -3.297  -0.925  -0.339  0.00  0.00     0.117 C 
ATOM      8  C   UNL d   1      -2.678  -2.007   0.436  0.00  0.00     0.302 C 
ATOM      9  C   UNL d   1      -4.705  -1.066  -0.727  0.00  0.00     0.302 C 
ATOM     10  O   UNL d   1      -3.545  -2.751   1.156  0.00  0.00    -0.280 OA
ATOM     11  O   UNL d   1      -1.474  -2.222   0.448  0.00  0.00    -0.259 OA
ATOM     12  C   UNL d   1      -4.872  -2.250   1.346  0.00  0.00     0.175 C 
ATOM     13  O   UNL d   1      -5.466  -1.756   0.146  0.00  0.00    -0.280 OA
ATOM     14  C   UNL d   1      -4.897  -1.187   2.448  0.00  0.00     0.080 C 
ATOM     15  C   UNL d   1      -5.727  -3.443   1.774  0.00  0.00     0.080 C 
ATOM     16  O   UNL d   1      -5.159  -0.671  -1.794  0.00  0.00    -0.259 OA
ENDBRANCH   3   6
BRANCH   1  17
ATOM     17  C   UNL d   1      -5.769   3.594  -1.551  0.00  0.00     0.031 A 
ATOM     18  C   UNL d   1      -6.644   3.475  -0.458  0.00  0.00     0.115 A 
ATOM     19  C   UNL d   1      -7.932   4.039  -0.467  0.00  0.00     0.037 A 
ATOM     20  C   UNL d   1      -8.365   4.742  -1.588  0.00  0.00     0.002 A 
ATOM     21  C   UNL d   1      -7.517   4.883  -2.684  0.00  0.00     0.001 A 
ATOM     22  C   UNL d   1      -6.237   4.317  -2.664  0.00  0.00     0.017 A 
BRANCH  18  23
ATOM     23  N   UNL d   1      -6.238   2.803   0.763  0.00  0.00    -0.115 N 
ATOM     24  O   UNL d   1      -5.308   3.308   1.409  0.00  0.00    -0.532 OA
ATOM     25  O   UNL d   1      -6.903   1.818   1.117  0.00  0.00    -0.532 OA
ENDBRANCH  18  23
ENDBRANCH   1  17
TORSDOF 3
