REMARK  2 active torsions:
REMARK  status: ('A' for Active; 'I' for Inactive)
REMARK    1  A    between atoms: N_3  and  S_1 
REMARK    2  A    between atoms: C_9  and  S_1 
ROOT
ATOM      1  C   UNL d   1       0.634   2.894  -2.471  0.00  0.00    -0.009 A 
ATOM      2  N   UNL d   1       0.663   0.668  -1.351  0.00  0.00    -0.202 NA
ATOM      3  C   UNL d   1       0.941   2.297  -3.674  0.00  0.00     0.019 A 
ATOM      4  N   UNL d   1       1.075   3.258  -4.630  0.00  0.00    -0.358 N 
ATOM      5  C   UNL d   1       0.583   4.297  -2.708  0.00  0.00     0.003 A 
ATOM      6  C   UNL d   1       0.482   2.154  -1.180  0.00  0.00     0.149 C 
ATOM      7  C   UNL d   1       0.880   4.501  -4.061  0.00  0.00     0.043 A 
ATOM      8  C   UNL d   1       1.135   0.839  -3.840  0.00  0.00     0.073 C 
ATOM      9  C   UNL d   1       1.582   0.261  -2.482  0.00  0.00     0.114 C 
ATOM     10  C   UNL d   1       0.339   5.416  -1.889  0.00  0.00     0.056 A 
ATOM     11  C   UNL d   1       0.956   5.779  -4.632  0.00  0.00     0.033 A 
ATOM     12  C   UNL d   1       0.409   6.687  -2.455  0.00  0.00     0.117 A 
ATOM     13  C   UNL d   1       0.715   6.874  -3.797  0.00  0.00     0.044 A 
ATOM     14  F   UNL d   1       0.182   7.756  -1.680  0.00  0.00    -0.206 F 
ATOM     15  H   UNL d   1       1.314   3.102  -5.600  0.00  0.00     0.166 HD
ENDROOT
BRANCH   2  16
ATOM     16  S   UNL d   1       1.092  -0.112   0.116  0.00  0.00     0.243 S 
ATOM     17  O   UNL d   1       2.168   0.643   0.723  0.00  0.00    -0.206 OA
ATOM     18  O   UNL d   1       1.240  -1.528  -0.150  0.00  0.00    -0.206 OA
BRANCH  16  19
ATOM     19  C   UNL d   1      -0.356   0.061   1.130  0.00  0.00     0.074 A 
ATOM     20  C   UNL d   1      -1.547  -0.543   0.710  0.00  0.00     0.028 A 
ATOM     21  C   UNL d   1      -2.668  -0.498   1.539  0.00  0.00     0.044 A 
ATOM     22  C   UNL d   1      -2.586   0.141   2.773  0.00  0.00     0.116 A 
ATOM     23  C   UNL d   1      -1.404   0.745   3.193  0.00  0.00     0.044 A 
ATOM     24  F   UNL d   1      -3.658   0.165   3.574  0.00  0.00    -0.206 F 
ATOM     25  C   UNL d   1      -0.277   0.708   2.369  0.00  0.00     0.028 A 
ENDBRANCH  16  19
ENDBRANCH   2  16
TORSDOF 2
