REMARK  2 active torsions:
REMARK  status: ('A' for Active; 'I' for Inactive)
REMARK    1  A    between atoms: N_11  and  N_6 
REMARK    2  A    between atoms: N_15  and  C_13 
ROOT
ATOM      1  C   UNL d   1       0.742   0.408   0.012  0.00  0.00     0.075 A 
ATOM      2  C   UNL d   1       1.282  -0.860  -0.019  0.00  0.00     0.091 A 
ATOM      3  C   UNL d   1       1.649   1.545   0.060  0.00  0.00     0.281 A 
ATOM      4  N   UNL d   1       2.599  -1.180  -0.026  0.00  0.00    -0.344 N 
ATOM      5  HN  UNL d   1       2.936  -2.142  -0.054  1.00  0.00     0.167 HD
ATOM      6  N   UNL d   1       3.012   1.181   0.047  0.00  0.00    -0.214 N 
ATOM      7  S   UNL d   1       0.075  -2.067  -0.046  0.00  0.00    -0.075 SA
ATOM      8  C   UNL d   1      -0.690   0.391  -0.005  0.00  0.00    -0.026 A 
ATOM      9  C   UNL d   1      -1.169  -0.906  -0.011  0.00  0.00    -0.008 A 
ATOM     10  C   UNL d   1       3.393  -0.153   0.006  0.00  0.00     0.211 A 
ATOM     11  O   UNL d   1       1.228   2.700   0.111  0.00  0.00    -0.265 OA
ATOM     12  C   UNL d   1      -1.609   1.578   0.019  0.00  0.00     0.041 C 
ATOM     13  C   UNL d   1      -2.616  -1.291  -0.025  0.00  0.00     0.047 C 
ATOM     14  C   UNL d   1      -3.046   1.187  -0.360  0.00  0.00     0.005 C 
ATOM     15  C   UNL d   1      -3.488  -0.088   0.372  0.00  0.00     0.005 C 
ENDROOT
BRANCH   6  16
ATOM     16  N   UNL d   1       3.893   2.248   0.086  0.00  0.00    -0.286 N 
ATOM     17  C   UNL d   1       5.174   2.110   0.081  0.00  0.00     0.195 C 
ATOM     18  HN  UNL d   1       3.509   3.192   0.121  1.00  0.00     0.188 HD
BRANCH  17  19
ATOM     19  N   UNL d   1       6.076   3.148   0.120  0.00  0.00    -0.385 N 
ATOM     20  C   UNL d   1       5.639   4.537   0.169  0.00  0.00     0.149 C 
ATOM     21  C   UNL d   1       7.512   2.933   0.114  0.00  0.00     0.149 C 
ENDBRANCH  17  19
ENDBRANCH   6  16
TORSDOF 2
