REMARK  2 active torsions:
REMARK  status: ('A' for Active; 'I' for Inactive)
REMARK    1  A    between atoms: C_15  and  N_3 
REMARK    2  A    between atoms: C_17  and  N_6 
ROOT
ATOM      1  C   UNL d   1      -1.026  -0.938   0.012  0.00  0.00     0.140 A 
ATOM      2  C   UNL d   1      -0.465   0.300   0.068  0.00  0.00     0.114 A 
ATOM      3  N   UNL d   1      -2.442  -1.026   0.013  0.00  0.00    -0.247 N 
ATOM      4  C   UNL d   1       1.800  -0.677   0.097  0.00  0.00     0.138 A 
ATOM      5  C   UNL d   1      -3.281   0.123  -0.022  0.00  0.00     0.342 A 
ATOM      6  N   UNL d   1      -2.652   1.369  -0.017  0.00  0.00    -0.229 N 
ATOM      7  N   UNL d   1      -0.146  -2.083  -0.089  0.00  0.00    -0.301 N 
ATOM      8  C   UNL d   1       0.949   0.402   0.075  0.00  0.00     0.129 A 
ATOM      9  C   UNL d   1      -1.282   1.539   0.077  0.00  0.00     0.273 A 
ATOM     10  C   UNL d   1       1.269  -2.012   0.060  0.00  0.00     0.278 C 
ATOM     11  N   UNL d   1       3.115  -0.290   0.094  0.00  0.00    -0.334 N 
ATOM     12  HN  UNL d   1       3.949  -0.877   0.112  1.00  0.00     0.168 HD
ATOM     13  O   UNL d   1       1.761   1.514   0.053  0.00  0.00    -0.294 OA
ATOM     14  C   UNL d   1       3.038   1.020   0.061  0.00  0.00     0.121 A 
ATOM     15  O   UNL d   1      -4.515   0.030   0.025  0.00  0.00    -0.245 OA
ATOM     16  O   UNL d   1      -0.725   2.636   0.110  0.00  0.00    -0.266 OA
ATOM     17  O   UNL d   1       1.999  -3.005   0.114  0.00  0.00    -0.265 OA
ATOM     18  C   UNL d   1      -0.560  -3.434  -0.442  0.00  0.00     0.161 C 
ATOM     19  C   UNL d   1       4.147   1.995   0.020  0.00  0.00     0.098 C 
ENDROOT
BRANCH   3  20
ATOM     20  C   UNL d   1      -3.179  -2.257   0.141  0.00  0.00     0.045 A 
ATOM     21  C   UNL d   1      -4.109  -2.614  -0.852  0.00  0.00     0.030 A 
ATOM     22  C   UNL d   1      -4.735  -3.860  -0.824  0.00  0.00     0.002 A 
ATOM     23  C   UNL d   1      -4.447  -4.757   0.201  0.00  0.00     0.000 A 
ATOM     24  C   UNL d   1      -3.578  -4.388   1.227  0.00  0.00     0.002 A 
ATOM     25  C   UNL d   1      -2.962  -3.132   1.213  0.00  0.00     0.030 A 
ENDBRANCH   3  20
BRANCH   6  26
ATOM     26  C   UNL d   1      -3.487   2.543  -0.017  0.00  0.00     0.047 A 
ATOM     27  C   UNL d   1      -3.317   3.548   0.949  0.00  0.00     0.030 A 
ATOM     28  C   UNL d   1      -4.154   4.668   0.968  0.00  0.00     0.002 A 
ATOM     29  C   UNL d   1      -5.149   4.814   0.005  0.00  0.00     0.000 A 
ATOM     30  C   UNL d   1      -5.318   3.834  -0.971  0.00  0.00     0.002 A 
ATOM     31  C   UNL d   1      -4.502   2.699  -0.974  0.00  0.00     0.030 A 
ENDBRANCH   6  26
TORSDOF 2
