REMARK  2 active torsions:
REMARK  status: ('A' for Active; 'I' for Inactive)
REMARK    1  A    between atoms: C_2  and  C_6 
REMARK    2  A    between atoms: C_12  and  C_7 
ROOT
ATOM      1  C   UNL d   1      -3.441  -4.213   0.110  0.00  0.00     0.053 A 
ATOM      2  C   UNL d   1      -2.509  -4.391   1.156  0.00  0.00    -0.046 A 
ATOM      3  C   UNL d   1      -3.096  -3.374  -0.970  0.00  0.00     0.017 A 
ATOM      4  C   UNL d   1      -0.958  -2.870   0.031  0.00  0.00    -0.033 A 
ATOM      5  C   UNL d   1      -1.275  -3.713   1.101  0.00  0.00     0.019 A 
ATOM      6  C   UNL d   1      -1.870  -2.709  -1.010  0.00  0.00     0.012 A 
ATOM      7  C   UNL d   1      -2.790  -5.266   2.347  0.00  0.00     0.049 C 
ENDROOT
BRANCH   4   8
ATOM      8  C   UNL d   1       0.298  -2.120   0.033  0.00  0.00     0.047 C 
ATOM      9  C   UNL d   1       0.398  -0.900   0.572  0.00  0.00     0.110 A 
ATOM     10  C   UNL d   1       1.673  -0.137   0.576  0.00  0.00     0.315 A 
ATOM     11  N   UNL d   1      -0.591  -0.174   1.183  0.00  0.00    -0.342 N 
ATOM     12  O   UNL d   1       1.329   1.018   1.209  0.00  0.00    -0.269 OA
ATOM     13  O   UNL d   1       2.761  -0.444   0.132  0.00  0.00    -0.257 OA
ATOM     14  C   UNL d   1       0.021   0.906   1.518  0.00  0.00     0.238 A 
ATOM     15  HN  UNL d   1      -1.567  -0.428   1.335  1.00  0.00     0.167 HD
ENDBRANCH   4   8
BRANCH   1  16
ATOM     16  C   UNL d   1      -4.813  -4.854   0.074  0.00  0.00     0.418 C 
ATOM     17  F   UNL d   1      -5.119  -5.645   1.139  0.00  0.00    -0.166 F 
ATOM     18  F   UNL d   1      -5.811  -3.925   0.014  0.00  0.00    -0.166 F 
ATOM     19  F   UNL d   1      -4.982  -5.643  -1.026  0.00  0.00    -0.166 F 
ENDBRANCH   1  16
TORSDOF 2
