REMARK  6 active torsions:
REMARK  status: ('A' for Active; 'I' for Inactive)
REMARK    1  A    between atoms: C_9  and  N_1 
REMARK    2  A    between atoms: N_5  and  C_2 
REMARK    3  A    between atoms: N_8  and  C_3 
REMARK       I    between atoms: C_6  and  N_7 
REMARK    4  A    between atoms: C_13  and  C_6 
REMARK    5  A    between atoms: C_10  and  O_19 
REMARK    6  A    between atoms: O_19  and  C_31 
ROOT
ATOM      1  C   UNL d   1      -4.089  -5.888  -6.005  0.00  0.00     0.253 C 
ATOM      2  N   UNL d   1      -3.402  -4.945  -5.244  0.00  0.00    -0.345 N 
ATOM      3  N   UNL d   1      -1.952  -3.143  -3.537  0.00  0.00    -0.376 N 
ATOM      4  C   UNL d   1      -2.989  -5.358  -3.892  0.00  0.00     0.146 C 
ATOM      5  C   UNL d   1      -2.708  -3.761  -5.781  0.00  0.00     0.146 C 
ATOM      6  C   UNL d   1      -2.536  -2.614  -4.773  0.00  0.00     0.143 C 
ATOM      7  C   UNL d   1      -2.825  -4.174  -2.918  0.00  0.00     0.143 C 
ATOM      8  O   UNL d   1      -4.474  -6.965  -5.545  0.00  0.00    -0.267 OA
ENDROOT
BRANCH   3   9
ATOM      9  C   UNL d   1      -1.204  -2.328  -2.690  0.00  0.00     0.058 A 
ATOM     10  C   UNL d   1      -1.388  -0.931  -2.695  0.00  0.00     0.034 A 
ATOM     11  C   UNL d   1      -0.698  -0.084  -1.819  0.00  0.00     0.038 A 
ATOM     12  C   UNL d   1       0.185  -0.632  -0.888  0.00  0.00     0.105 A 
ATOM     13  C   UNL d   1       0.410  -2.012  -0.846  0.00  0.00     0.068 A 
ATOM     14  C   UNL d   1      -0.249  -2.849  -1.774  0.00  0.00     0.067 A 
BRANCH  12  15
ATOM     15  N   UNL d   1       0.911   0.252   0.030  0.00  0.00    -0.116 N 
ATOM     16  O   UNL d   1       1.625  -0.279   0.897  0.00  0.00    -0.532 OA
ATOM     17  O   UNL d   1       0.768   1.475  -0.110  0.00  0.00    -0.532 OA
ENDBRANCH  12  15
BRANCH  14  18
ATOM     18  N   UNL d   1       0.155  -4.216  -1.812  0.00  0.00    -0.331 N 
ATOM     19  C   UNL d   1       0.485  -5.002  -0.724  0.00  0.00     0.097 A 
ATOM     20  C   UNL d   1       0.718  -6.290  -1.159  0.00  0.00     0.019 A 
ATOM     21  C   UNL d   1       0.614  -6.285  -2.566  0.00  0.00     0.019 A 
ATOM     22  C   UNL d   1       0.312  -4.995  -2.941  0.00  0.00     0.097 A 
ENDBRANCH  14  18
ENDBRANCH   3   9
BRANCH   1  23
ATOM     23  C   UNL d   1      -4.466  -5.589  -7.409  0.00  0.00     0.032 A 
ATOM     24  C   UNL d   1      -3.562  -5.122  -8.369  0.00  0.00     0.020 A 
ATOM     25  C   UNL d   1      -4.007  -4.772  -9.650  0.00  0.00     0.038 A 
ATOM     26  C   UNL d   1      -5.335  -4.992 -10.014  0.00  0.00     0.078 A 
ATOM     27  C   UNL d   1      -6.224  -5.510  -9.066  0.00  0.00     0.038 A 
ATOM     28  C   UNL d   1      -5.797  -5.808  -7.772  0.00  0.00     0.020 A 
BRANCH  26  29
ATOM     29  O   UNL d   1      -5.899  -4.769 -11.233  0.00  0.00    -0.255 OA
BRANCH  29  30
ATOM     30  C   UNL d   1      -5.074  -4.513 -12.356  0.00  0.00     0.530 C 
ATOM     31  F   UNL d   1      -3.884  -5.148 -12.300  0.00  0.00    -0.144 F 
ATOM     32  F   UNL d   1      -5.717  -4.951 -13.462  0.00  0.00    -0.144 F 
ATOM     33  F   UNL d   1      -4.866  -3.186 -12.484  0.00  0.00    -0.144 F 
ENDBRANCH  29  30
ENDBRANCH  26  29
ENDBRANCH   1  23
TORSDOF 6
