REMARK  5 active torsions:
REMARK  status: ('A' for Active; 'I' for Inactive)
REMARK    1  A    between atoms: C_4  and  C_1 
REMARK    2  A    between atoms: C_15  and  C_6 
REMARK    3  A    between atoms: C_14  and  C_7 
REMARK    4  A    between atoms: C_13  and  O_16 
REMARK    5  A    between atoms: O_16  and  C_22 
ROOT
ATOM      1  N   UNL d   1      -3.962  -0.943  -0.229  0.00  0.00    -0.318 N 
ATOM      2  HN  UNL d   1      -4.205   0.043  -0.331  1.00  0.00     0.169 HD
ATOM      3  C   UNL d   1      -2.780  -1.474   0.002  0.00  0.00     0.184 A 
ATOM      4  C   UNL d   1      -4.790  -2.039  -0.300  0.00  0.00     0.138 A 
ATOM      5  N   UNL d   1      -4.173  -3.204  -0.046  0.00  0.00    -0.242 N 
ATOM      6  HN  UNL d   1      -4.581  -4.137  -0.002  1.00  0.00     0.196 HD
ATOM      7  O   UNL d   1      -2.843  -2.835   0.141  0.00  0.00    -0.217 OA
ENDROOT
BRANCH   4   8
ATOM      8  C   UNL d   1      -6.181  -1.920  -0.718  0.00  0.00     0.010 A 
ATOM      9  C   UNL d   1      -6.716  -0.664  -1.050  0.00  0.00     0.018 A 
ATOM     10  C   UNL d   1      -8.014  -0.547  -1.559  0.00  0.00     0.038 A 
ATOM     11  C   UNL d   1      -8.786  -1.683  -1.772  0.00  0.00     0.078 A 
ATOM     12  C   UNL d   1      -8.287  -2.929  -1.378  0.00  0.00     0.038 A 
ATOM     13  C   UNL d   1      -6.995  -3.049  -0.859  0.00  0.00     0.018 A 
BRANCH  11  14
ATOM     14  O   UNL d   1     -10.039  -1.716  -2.302  0.00  0.00    -0.255 OA
BRANCH  14  15
ATOM     15  C   UNL d   1     -10.394  -0.764  -3.296  0.00  0.00     0.530 C 
ATOM     16  F   UNL d   1      -9.361  -0.035  -3.765  0.00  0.00    -0.144 F 
ATOM     17  F   UNL d   1     -10.941  -1.424  -4.344  0.00  0.00    -0.144 F 
ATOM     18  F   UNL d   1     -11.328   0.074  -2.796  0.00  0.00    -0.144 F 
ENDBRANCH  14  15
ENDBRANCH  11  14
ENDBRANCH   4   8
BRANCH   3  19
ATOM     19  C   UNL d   1      -1.513  -0.706   0.042  0.00  0.00     0.049 A 
ATOM     20  C   UNL d   1      -0.205  -1.244   0.113  0.00  0.00     0.051 A 
ATOM     21  C   UNL d   1       0.665  -0.174   0.051  0.00  0.00     0.061 A 
ATOM     22  O   UNL d   1      -0.050   0.990  -0.015  0.00  0.00    -0.318 OA
ATOM     23  C   UNL d   1      -1.376   0.664  -0.018  0.00  0.00     0.064 A 
ATOM     24  C   UNL d   1      -2.308   1.809  -0.077  0.00  0.00     0.077 C 
BRANCH  21  25
ATOM     25  C   UNL d   1       2.166  -0.040   0.029  0.00  0.00    -0.002 C 
ATOM     26  C   UNL d   1       2.840  -1.420   0.141  0.00  0.00     0.021 C 
ATOM     27  C   UNL d   1       2.609   0.612  -1.294  0.00  0.00     0.021 C 
ATOM     28  C   UNL d   1       2.628   0.831   1.210  0.00  0.00     0.021 C 
ENDBRANCH  21  25
ENDBRANCH   3  19
TORSDOF 5
