REMARK  5 active torsions:
REMARK  status: ('A' for Active; 'I' for Inactive)
REMARK    1  A    between atoms: C_2  and  C_1 
REMARK    2  A    between atoms: O_7  and  C_2 
REMARK    3  A    between atoms: C_3  and  C_8 
REMARK    4  A    between atoms: C_14  and  C_4 
REMARK    5  A    between atoms: C_10  and  O_7 
ROOT
ATOM      1  C   UNL d   1       0.966  -0.068  -0.063  0.00  0.00     0.120 C 
ATOM      2  C   UNL d   1       0.203   0.254  -1.128  0.00  0.00     0.040 C 
ATOM      3  C   UNL d   1       0.406  -0.394   1.205  0.00  0.00     0.105 C 
ATOM      4  N   UNL d   1      -0.087  -0.651   2.224  0.00  0.00    -0.191 NA
ENDROOT
BRANCH   1   5
ATOM      5  C   UNL d   1       2.438  -0.037  -0.254  0.00  0.00     0.304 C 
ATOM      6  O   UNL d   1       2.975   0.346  -1.282  0.00  0.00    -0.258 OA
BRANCH   5   7
ATOM      7  O   UNL d   1       3.088  -0.474   0.857  0.00  0.00    -0.307 OA
BRANCH   7   8
ATOM      8  C   UNL d   1       4.543  -0.456   0.922  0.00  0.00     0.060 C 
ATOM      9  C   UNL d   1       5.085   0.973   0.784  0.00  0.00     0.046 C 
ATOM     10  C   UNL d   1       4.893  -0.979   2.325  0.00  0.00     0.046 C 
ATOM     11  C   UNL d   1       5.166  -1.398  -0.115  0.00  0.00     0.046 C 
ENDBRANCH   7   8
ENDBRANCH   5   7
ENDBRANCH   1   5
BRANCH   2  12
ATOM     12  C   UNL d   1      -1.260   0.321  -1.100  0.00  0.00    -0.035 A 
ATOM     13  C   UNL d   1      -1.895   1.541  -0.857  0.00  0.00     0.012 A 
ATOM     14  C   UNL d   1      -3.288   1.605  -0.771  0.00  0.00     0.017 A 
ATOM     15  C   UNL d   1      -4.069   0.449  -0.932  0.00  0.00     0.048 A 
ATOM     16  C   UNL d   1      -3.424  -0.770  -1.187  0.00  0.00     0.017 A 
ATOM     17  C   UNL d   1      -2.030  -0.835  -1.273  0.00  0.00     0.012 A 
BRANCH  15  18
ATOM     18  C   UNL d   1      -5.572   0.535  -0.822  0.00  0.00     0.417 C 
ATOM     19  F   UNL d   1      -6.203  -0.657  -1.015  0.00  0.00    -0.166 F 
ATOM     20  F   UNL d   1      -5.982   0.981   0.398  0.00  0.00    -0.166 F 
ATOM     21  F   UNL d   1      -6.111   1.393  -1.732  0.00  0.00    -0.166 F 
ENDBRANCH  15  18
ENDBRANCH   2  12
TORSDOF 5
