REMARK  4 active torsions:
REMARK  status: ('A' for Active; 'I' for Inactive)
REMARK    1  A    between atoms: C_8  and  C_1 
REMARK    2  A    between atoms: N_6  and  C_2 
REMARK    3  A    between atoms: C_10  and  C_4 
REMARK       I    between atoms: C_7  and  N_6 
REMARK    4  A    between atoms: C_9  and  C_7 
ROOT
ATOM      1  C   UNL d   1       0.056   1.313  -0.213  0.00  0.00     0.077 A 
ATOM      2  C   UNL d   1       1.377   0.888  -0.155  0.00  0.00     0.057 A 
ATOM      3  S   UNL d   1      -1.020  -0.032  -0.220  0.00  0.00    -0.084 SA
ATOM      4  C   UNL d   1       0.239  -1.184  -0.143  0.00  0.00     0.018 A 
ATOM      5  C   UNL d   1       1.465  -0.546  -0.178  0.00  0.00     0.051 A 
ENDROOT
BRANCH   2   6
ATOM      6  N   UNL d   1       2.478   1.736  -0.034  0.00  0.00    -0.322 N 
ATOM      7  C   UNL d   1       3.750   1.421  -0.478  0.00  0.00     0.256 C 
ATOM      8  O   UNL d   1       4.077   0.444  -1.140  0.00  0.00    -0.267 OA
ATOM      9  H   UNL d   1       2.322   2.677   0.300  0.00  0.00     0.169 HD
BRANCH   7  10
ATOM     10  C   UNL d   1       4.766   2.455  -0.172  0.00  0.00     0.032 A 
ATOM     11  C   UNL d   1       4.938   2.904   1.141  0.00  0.00     0.017 A 
ATOM     12  C   UNL d   1       5.905   3.870   1.417  0.00  0.00     0.007 A 
ATOM     13  C   UNL d   1       6.696   4.401   0.387  0.00  0.00    -0.062 A 
ATOM     14  C   UNL d   1       6.514   3.941  -0.925  0.00  0.00     0.007 A 
ATOM     15  C   UNL d   1       7.742   5.429   0.706  0.00  0.00     0.048 C 
ATOM     16  C   UNL d   1       5.556   2.964  -1.202  0.00  0.00     0.017 A 
ENDBRANCH   7  10
ENDBRANCH   2   6
BRANCH   1  17
ATOM     17  C   UNL d   1      -0.572   2.630  -0.315  0.00  0.00     0.164 C 
ATOM     18  O   UNL d   1      -1.754   2.840  -0.023  0.00  0.00    -0.292 OA
ATOM     19  C   UNL d   1       0.230   3.807  -0.817  0.00  0.00     0.097 C 
ENDBRANCH   1  17
BRANCH   4  20
ATOM     20  C   UNL d   1      -0.060  -2.628  -0.065  0.00  0.00    -0.019 A 
ATOM     21  C   UNL d   1       0.813  -3.567  -0.637  0.00  0.00     0.013 A 
ATOM     22  C   UNL d   1       0.547  -4.939  -0.559  0.00  0.00     0.001 A 
ATOM     23  C   UNL d   1      -0.595  -5.395   0.094  0.00  0.00     0.000 A 
ATOM     24  C   UNL d   1      -1.468  -4.482   0.674  0.00  0.00     0.001 A 
ATOM     25  C   UNL d   1      -1.201  -3.111   0.599  0.00  0.00     0.013 A 
ENDBRANCH   4  20
TORSDOF 4
