REMARK  9 active torsions:
REMARK  status: ('A' for Active; 'I' for Inactive)
REMARK    1  A    between atoms: N_3  and  C_1 
REMARK    2  A    between atoms: N_4  and  C_1 
REMARK    3  A    between atoms: C_2  and  N_5 
REMARK    4  A    between atoms: N_8  and  C_2 
REMARK    5  A    between atoms: N_5  and  N_3 
REMARK    6  A    between atoms: N_9  and  N_4 
REMARK    7  A    between atoms: C_13  and  N_8 
REMARK    8  A    between atoms: C_14  and  N_9 
REMARK    9  A    between atoms: C_12  and  C_13 
ROOT
ATOM      1  N   UNL d   1       0.486   0.477   1.098  0.00  0.00    -0.273 N 
ATOM      2  H   UNL d   1      -0.400   0.021   1.328  0.00  0.00     0.189 HD
ENDROOT
BRANCH   1   3
ATOM      3  C   UNL d   1       0.761   0.573  -0.254  0.00  0.00     0.201 C 
ATOM      4  S   UNL d   1       1.616   1.801  -1.000  0.00  0.00    -0.038 SA
BRANCH   3   5
ATOM      5  N   UNL d   1       0.315  -0.492  -1.004  0.00  0.00    -0.292 N 
ATOM      6  H   UNL d   1       0.446  -0.476  -2.013  0.00  0.00     0.183 HD
BRANCH   5   7
ATOM      7  N   UNL d   1       0.135  -1.755  -0.396  0.00  0.00    -0.204 NA
ATOM      8  H   UNL d   1       0.676  -1.809   0.476  0.00  0.00     0.153 HD
BRANCH   7   9
ATOM      9  C   UNL d   1       0.568  -2.854  -1.198  0.00  0.00     0.027 A 
ATOM     10  C   UNL d   1       1.624  -2.789  -2.113  0.00  0.00     0.025 A 
ATOM     11  C   UNL d   1       2.044  -3.932  -2.805  0.00  0.00     0.002 A 
ATOM     12  C   UNL d   1       1.435  -5.161  -2.561  0.00  0.00     0.000 A 
ATOM     13  C   UNL d   1       0.416  -5.251  -1.619  0.00  0.00     0.002 A 
ATOM     14  C   UNL d   1      -0.000  -4.109  -0.933  0.00  0.00     0.025 A 
ENDBRANCH   7   9
ENDBRANCH   5   7
ENDBRANCH   3   5
ENDBRANCH   1   3
BRANCH   1  15
ATOM     15  N   UNL d   1       0.856   1.527   1.956  0.00  0.00    -0.274 N 
ATOM     16  H   UNL d   1       1.849   1.749   1.949  0.00  0.00     0.189 HD
BRANCH  15  17
ATOM     17  C   UNL d   1       0.104   1.895   3.060  0.00  0.00     0.186 C 
ATOM     18  S   UNL d   1      -1.356   1.200   3.479  0.00  0.00    -0.040 SA
BRANCH  17  19
ATOM     19  N   UNL d   1       0.743   2.902   3.750  0.00  0.00    -0.362 N 
ATOM     20  H   UNL d   1       1.418   3.436   3.220  0.00  0.00     0.162 HD
BRANCH  19  21
ATOM     21  C   UNL d   1       0.433   3.430   5.068  0.00  0.00     0.162 C 
BRANCH  21  22
ATOM     22  C   UNL d   1       1.699   3.521   5.871  0.00  0.00    -0.025 A 
ATOM     23  C   UNL d   1       2.410   4.711   5.981  0.00  0.00     0.096 A 
ATOM     24  N   UNL d   1       3.581   4.837   6.644  0.00  0.00    -0.375 N 
ATOM     25  C   UNL d   1       4.073   3.724   7.229  0.00  0.00     0.087 A 
ATOM     26  HN  UNL d   1       4.070   5.730   6.700  1.00  0.00     0.164 HD
ATOM     27  C   UNL d   1       3.449   2.489   7.177  0.00  0.00     0.018 A 
ATOM     28  C   UNL d   1       2.247   2.389   6.484  0.00  0.00     0.011 A 
ENDBRANCH  21  22
ENDBRANCH  19  21
ENDBRANCH  17  19
ENDBRANCH  15  17
ENDBRANCH   1  15
TORSDOF 9
