REMARK  6 active torsions:
REMARK  status: ('A' for Active; 'I' for Inactive)
REMARK    1  A    between atoms: N_6  and  S_1 
REMARK    2  A    between atoms: C_10  and  S_1 
REMARK    3  A    between atoms: C_2  and  C_5 
REMARK       I    between atoms: C_5  and  N_13 
REMARK    4  A    between atoms: N_13  and  N_6 
REMARK    5  A    between atoms: C_8  and  C_16 
REMARK    6  A    between atoms: C_9  and  C_15 
ROOT
ATOM      1  S   UNL d   1       1.038   0.209   0.070  0.00  0.00     0.276 S 
ATOM      2  O   UNL d   1       0.391   1.501   0.152  0.00  0.00    -0.199 OA
ATOM      3  O   UNL d   1       2.482   0.119   0.030  0.00  0.00    -0.199 OA
ENDROOT
BRANCH   1   4
ATOM      4  N   UNL d   1       0.458  -0.537  -1.325  0.00  0.00    -0.220 N 
ATOM      5  H   UNL d   1      -0.148  -1.363  -1.309  0.00  0.00     0.200 HD
BRANCH   4   6
ATOM      6  N   UNL d   1       0.786   0.116  -2.579  0.00  0.00    -0.256 N 
ATOM      7  C   UNL d   1       0.327  -0.342  -3.805  0.00  0.00     0.280 C 
ATOM      8  O   UNL d   1      -0.357  -1.360  -3.884  0.00  0.00    -0.265 OA
ATOM      9  H   UNL d   1       1.359   0.957  -2.513  0.00  0.00     0.191 HD
BRANCH   7  10
ATOM     10  C   UNL d   1       0.719   0.470  -4.943  0.00  0.00     0.115 A 
ATOM     11  C   UNL d   1       0.501   0.318  -6.309  0.00  0.00     0.046 A 
ATOM     12  N   UNL d   1       1.054   1.324  -7.101  0.00  0.00    -0.298 N 
ATOM     13  C   UNL d   1      -0.223  -0.756  -7.031  0.00  0.00     0.071 C 
ATOM     14  N   UNL d   1       1.672   2.242  -6.385  0.00  0.00    -0.269 N 
ATOM     15  HN  UNL d   1       0.988   1.347  -8.119  1.00  0.00     0.187 HD
ATOM     16  S   UNL d   1       1.613   1.933  -4.755  0.00  0.00     0.009 SA
ATOM     17  HN  UNL d   1       2.137   3.055  -6.789  1.00  0.00     0.195 HD
ENDBRANCH   7  10
ENDBRANCH   4   6
ENDBRANCH   1   4
BRANCH   1  18
ATOM     18  C   UNL d   1       0.464  -0.786   1.423  0.00  0.00     0.082 A 
ATOM     19  C   UNL d   1       1.266  -1.831   1.898  0.00  0.00     0.041 A 
ATOM     20  C   UNL d   1       0.936  -2.485   3.097  0.00  0.00     0.050 A 
ATOM     21  C   UNL d   1      -0.204  -2.066   3.809  0.00  0.00     0.032 A 
ATOM     22  C   UNL d   1      -0.998  -0.998   3.353  0.00  0.00     0.050 A 
ATOM     23  C   UNL d   1      -0.662  -0.371   2.143  0.00  0.00     0.041 A 
BRANCH  20  24
ATOM     24  C   UNL d   1       1.813  -3.583   3.663  0.00  0.00     0.417 C 
ATOM     25  F   UNL d   1       2.926  -3.824   2.920  0.00  0.00    -0.166 F 
ATOM     26  F   UNL d   1       2.251  -3.296   4.918  0.00  0.00    -0.166 F 
ATOM     27  F   UNL d   1       1.156  -4.771   3.755  0.00  0.00    -0.166 F 
ENDBRANCH  20  24
BRANCH  22  28
ATOM     28  C   UNL d   1      -2.145  -0.491   4.201  0.00  0.00     0.417 C 
ATOM     29  F   UNL d   1      -2.767   0.599   3.674  0.00  0.00    -0.166 F 
ATOM     30  F   UNL d   1      -3.113  -1.429   4.380  0.00  0.00    -0.166 F 
ATOM     31  F   UNL d   1      -1.738  -0.124   5.447  0.00  0.00    -0.166 F 
ENDBRANCH  22  28
ENDBRANCH   1  18
TORSDOF 6
