REMARK  4 active torsions:
REMARK  status: ('A' for Active; 'I' for Inactive)
REMARK    1  A    between atoms: C_2  and  C_1 
REMARK       I    between atoms: N_3  and  C_1 
REMARK    2  A    between atoms: C_4  and  N_3 
REMARK    3  A    between atoms: O_9  and  C_5 
REMARK    4  A    between atoms: N_8  and  C_7 
ROOT
ATOM      1  C   UNL d   1       0.906   0.081   0.176  0.00  0.00     0.259 C 
ATOM      2  N   UNL d   1       0.234   0.805  -0.786  0.00  0.00    -0.321 N 
ATOM      3  O   UNL d   1       2.124  -0.092   0.227  0.00  0.00    -0.267 OA
ATOM      4  H   UNL d   1      -0.691   1.132  -0.538  0.00  0.00     0.169 HD
ENDROOT
BRANCH   2   5
ATOM      5  C   UNL d   1       0.763   1.338  -1.994  0.00  0.00     0.056 A 
ATOM      6  C   UNL d   1       1.924   0.880  -2.661  0.00  0.00     0.033 A 
ATOM      7  C   UNL d   1       2.269   1.462  -3.894  0.00  0.00     0.025 A 
ATOM      8  C   UNL d   1       1.544   2.525  -4.428  0.00  0.00     0.002 A 
ATOM      9  C   UNL d   1       0.423   2.995  -3.759  0.00  0.00     0.002 A 
ATOM     10  C   UNL d   1       0.027   2.395  -2.561  0.00  0.00     0.031 A 
BRANCH   6  11
ATOM     11  N   UNL d   1       2.601  -0.307  -2.314  0.00  0.00    -0.301 NA
ATOM     12  H   UNL d   1       2.581  -0.448  -1.299  0.00  0.00     0.124 HD
ATOM     13  H   UNL d   1       3.563  -0.323  -2.635  0.00  0.00     0.124 HD
ENDBRANCH   6  11
ENDBRANCH   2   5
BRANCH   1  14
ATOM     14  C   UNL d   1       0.099  -0.473   1.299  0.00  0.00     0.065 A 
ATOM     15  C   UNL d   1       0.719  -0.720   2.535  0.00  0.00     0.081 A 
ATOM     16  C   UNL d   1       0.002  -1.260   3.599  0.00  0.00     0.037 A 
ATOM     17  C   UNL d   1      -1.343  -1.584   3.433  0.00  0.00     0.003 A 
ATOM     18  C   UNL d   1      -1.968  -1.367   2.205  0.00  0.00     0.001 A 
ATOM     19  C   UNL d   1      -1.252  -0.814   1.137  0.00  0.00     0.020 A 
BRANCH  15  20
ATOM     20  O   UNL d   1       2.044  -0.462   2.775  0.00  0.00    -0.360 OA
ATOM     21  H   UNL d   1       2.472  -0.271   1.910  0.00  0.00     0.217 HD
ENDBRANCH  15  20
ENDBRANCH   1  14
TORSDOF 4
