REMARK  3 active torsions:
REMARK  status: ('A' for Active; 'I' for Inactive)
REMARK    1  A    between atoms: C_2  and  C_1 
REMARK    2  A    between atoms: O_8  and  C_2 
REMARK    3  A    between atoms: C_10  and  O_8 
ROOT
ATOM      1  C   UNL d   1       0.036   2.396  -0.119  0.00  0.00     0.303 C 
ATOM      2  O   UNL d   1       1.109   2.984  -0.137  0.00  0.00    -0.259 OA
ENDROOT
BRANCH   1   3
ATOM      3  C   UNL d   1      -0.079   0.949  -0.135  0.00  0.00     0.095 A 
ATOM      4  C   UNL d   1      -1.238   0.196  -0.092  0.00  0.00     0.090 A 
ATOM      5  O   UNL d   1      -0.924  -1.125  -0.129  0.00  0.00    -0.242 OA
ATOM      6  C   UNL d   1      -2.680   0.502  -0.006  0.00  0.00     0.080 C 
ATOM      7  N   UNL d   1       0.441  -1.276  -0.184  0.00  0.00    -0.265 N 
ATOM      8  C   UNL d   1       0.951  -0.037  -0.175  0.00  0.00     0.047 A 
ATOM      9  HN  UNL d   1       0.961  -2.153  -0.225  1.00  0.00     0.194 HD
ATOM     10  C   UNL d   1       2.424   0.129  -0.208  0.00  0.00     0.071 C 
ENDBRANCH   1   3
BRANCH   1  11
ATOM     11  O   UNL d   1      -1.219   3.016  -0.059  0.00  0.00    -0.275 OA
BRANCH  11  12
ATOM     12  C   UNL d   1      -1.430   4.407   0.055  0.00  0.00     0.079 A 
ATOM     13  C   UNL d   1      -0.613   5.366  -0.536  0.00  0.00     0.037 A 
ATOM     14  C   UNL d   1      -0.926   6.719  -0.374  0.00  0.00     0.003 A 
ATOM     15  C   UNL d   1      -2.052   7.100   0.357  0.00  0.00     0.000 A 
ATOM     16  C   UNL d   1      -2.883   6.131   0.921  0.00  0.00     0.003 A 
ATOM     17  C   UNL d   1      -2.576   4.780   0.762  0.00  0.00     0.037 A 
ENDBRANCH  11  12
ENDBRANCH   1  11
TORSDOF 3
