REMARK  4 active torsions:
REMARK  status: ('A' for Active; 'I' for Inactive)
REMARK       I    between atoms: N_2  and  C_1 
REMARK    1  A    between atoms: C_4  and  C_1 
REMARK    2  A    between atoms: C_6  and  N_2 
REMARK    3  A    between atoms: C_3  and  C_6 
REMARK    4  A    between atoms: C_5  and  C_3 
ROOT
ATOM      1  C   UNL d   1      -0.100  -0.222  -1.070  0.00  0.00     0.252 C 
ATOM      2  N   UNL d   1       0.285  -1.170  -0.149  0.00  0.00    -0.350 N 
ATOM      3  O   UNL d   1       0.089  -0.334  -2.276  0.00  0.00    -0.268 OA
ATOM      4  H   UNL d   1      -0.138  -1.153   0.770  0.00  0.00     0.163 HD
ENDROOT
BRANCH   2   5
ATOM      5  C   UNL d   1       0.916  -2.405  -0.570  0.00  0.00     0.206 C 
BRANCH   5   6
ATOM      6  C   UNL d   1      -0.064  -3.558  -0.805  0.00  0.00     0.177 C 
ATOM      7  O   UNL d   1      -1.268  -3.466  -0.587  0.00  0.00    -0.291 OA
BRANCH   6   8
ATOM      8  C   UNL d   1       0.517  -4.875  -1.236  0.00  0.00     0.011 A 
ATOM      9  C   UNL d   1       1.901  -5.055  -1.391  0.00  0.00     0.016 A 
ATOM     10  C   UNL d   1       2.421  -6.310  -1.720  0.00  0.00     0.020 A 
ATOM     11  C   UNL d   1       1.561  -7.389  -1.905  0.00  0.00     0.011 A 
ATOM     12  C   UNL d   1       0.184  -7.222  -1.778  0.00  0.00     0.020 A 
ATOM     13 BR   UNL d   1       2.275  -9.091  -2.314  0.00  0.00    -0.051 Br
ATOM     14  C   UNL d   1      -0.338  -5.966  -1.446  0.00  0.00     0.016 A 
ENDBRANCH   6   8
ENDBRANCH   5   6
ENDBRANCH   2   5
BRANCH   1  15
ATOM     15  C   UNL d   1      -0.782   0.984  -0.525  0.00  0.00     0.032 A 
ATOM     16  C   UNL d   1      -0.476   1.490   0.747  0.00  0.00     0.018 A 
ATOM     17  C   UNL d   1      -1.124   2.638   1.216  0.00  0.00     0.025 A 
ATOM     18  C   UNL d   1      -2.068   3.279   0.415  0.00  0.00     0.034 A 
ATOM     19  C   UNL d   1      -2.364   2.792  -0.857  0.00  0.00     0.025 A 
ATOM     20 CL   UNL d   1      -2.865   4.688   0.998  0.00  0.00    -0.084 Cl
ATOM     21  C   UNL d   1      -1.716   1.647  -1.330  0.00  0.00     0.018 A 
ENDBRANCH   1  15
TORSDOF 4
