REMARK  8 active torsions:
REMARK  status: ('A' for Active; 'I' for Inactive)
REMARK    1  A    between atoms: C_13  and  N_1 
REMARK    2  A    between atoms: C_8  and  C_2 
REMARK    3  A    between atoms: C_6  and  C_3 
REMARK    4  A    between atoms: O_14  and  C_8 
REMARK    5  A    between atoms: C_22  and  C_13 
REMARK    6  A    between atoms: C_26  and  C_22 
REMARK    7  A    between atoms: C_23  and  C_25 
REMARK    8  A    between atoms: C_25  and  C_26 
ROOT
ATOM      1  N   UNL d   1      -2.111  -0.187  -0.102  0.00  0.00    -0.338 N 
ATOM      2  C   UNL d   1      -0.409  -1.983   0.217  0.00  0.00     0.145 C 
ATOM      3  C   UNL d   1      -1.672  -1.518  -0.562  0.00  0.00     0.144 C 
ATOM      4  C   UNL d   1      -1.201   0.806   0.252  0.00  0.00     0.255 C 
ATOM      5  C   UNL d   1       0.657  -0.908   0.282  0.00  0.00    -0.026 A 
ATOM      6  C   UNL d   1       0.247   0.441   0.268  0.00  0.00     0.039 A 
ATOM      7  O   UNL d   1      -1.537   1.940   0.579  0.00  0.00    -0.267 OA
ATOM      8  C   UNL d   1       2.029  -1.196   0.373  0.00  0.00     0.009 A 
ATOM      9  C   UNL d   1       1.200   1.467   0.231  0.00  0.00     0.017 A 
ATOM     10  C   UNL d   1       2.972  -0.168   0.306  0.00  0.00     0.001 A 
ATOM     11  C   UNL d   1       2.559   1.159   0.218  0.00  0.00     0.001 A 
ENDROOT
BRANCH   3  12
ATOM     12  C   UNL d   1      -1.614  -1.603  -2.097  0.00  0.00     0.026 A 
ATOM     13  C   UNL d   1      -2.534  -2.376  -2.835  0.00  0.00     0.045 A 
ATOM     14 CL   UNL d   1      -3.848  -3.227  -2.099  0.00  0.00    -0.084 Cl
ATOM     15  C   UNL d   1      -2.424  -2.511  -4.232  0.00  0.00     0.024 A 
ATOM     16  C   UNL d   1      -1.406  -1.874  -4.933  0.00  0.00     0.005 A 
ATOM     17  C   UNL d   1      -0.508  -1.085  -4.239  0.00  0.00     0.043 A 
ATOM     18  C   UNL d   1      -0.623  -0.954  -2.854  0.00  0.00     0.126 A 
ATOM     19  F   UNL d   1       0.321  -0.216  -2.273  0.00  0.00    -0.205 F 
ENDBRANCH   3  12
BRANCH   2  20
ATOM     20  C   UNL d   1      -0.012  -3.356  -0.284  0.00  0.00     0.150 C 
ATOM     21  O   UNL d   1      -0.500  -4.383   0.160  0.00  0.00    -0.649 OA
BRANCH  20  22
ATOM     22  O   UNL d   1       0.868  -3.391  -1.312  0.00  0.00    -0.776 OA
ATOM     23  H   UNL d   1       1.178  -2.516  -1.626  0.00  0.00     0.167 HD
ENDBRANCH  20  22
ENDBRANCH   2  20
BRANCH   1  24
ATOM     24  C   UNL d   1      -3.546   0.057   0.097  0.00  0.00     0.127 C 
BRANCH  24  25
ATOM     25  C   UNL d   1      -3.990  -0.346   1.509  0.00  0.00     0.020 C 
BRANCH  25  26
ATOM     26  C   UNL d   1      -5.488  -0.124   1.748  0.00  0.00     0.002 C 
BRANCH  26  27
ATOM     27  C   UNL d   1      -5.877  -0.533   3.174  0.00  0.00    -0.000 C 
BRANCH  27  28
ATOM     28  C   UNL d   1      -7.367  -0.332   3.456  0.00  0.00    -0.005 C 
ATOM     29  C   UNL d   1      -7.719  -0.748   4.878  0.00  0.00     0.005 C 
ENDBRANCH  27  28
ENDBRANCH  26  27
ENDBRANCH  25  26
ENDBRANCH  24  25
ENDBRANCH   1  24
TORSDOF 8
