REMARK  3 active torsions:
REMARK  status: ('A' for Active; 'I' for Inactive)
REMARK    1  A    between atoms: C_4  and  N_1 
REMARK    2  A    between atoms: C_3  and  C_2 
REMARK       I    between atoms: N_5  and  C_3 
REMARK    3  A    between atoms: C_6  and  N_5 
ROOT
ATOM      1  C   UNL d   1       1.653   1.535  -2.075  0.00  0.00     0.258 C 
ATOM      2  N   UNL d   1       2.058   2.209  -3.215  0.00  0.00    -0.322 N 
ATOM      3  O   UNL d   1       0.799   1.965  -1.307  0.00  0.00    -0.267 OA
ATOM      4  H   UNL d   1       2.518   1.701  -3.951  0.00  0.00     0.169 HD
ENDROOT
BRANCH   1   5
ATOM      5  C   UNL d   1       2.224   0.172  -1.819  0.00  0.00     0.065 A 
ATOM      6  C   UNL d   1       1.994  -0.487  -0.599  0.00  0.00     0.118 A 
ATOM      7  C   UNL d   1       2.455  -1.791  -0.351  0.00  0.00     0.037 A 
ATOM      8  C   UNL d   1       3.186  -2.454  -1.330  0.00  0.00     0.002 A 
ATOM      9  C   UNL d   1       3.455  -1.816  -2.538  0.00  0.00     0.001 A 
ATOM     10  C   UNL d   1       2.977  -0.520  -2.785  0.00  0.00     0.020 A 
BRANCH   6  11
ATOM     11  N   UNL d   1       1.339   0.172   0.515  0.00  0.00    -0.115 N 
ATOM     12  O   UNL d   1       1.995   1.040   1.109  0.00  0.00    -0.532 OA
ATOM     13  O   UNL d   1       0.243  -0.285   0.867  0.00  0.00    -0.532 OA
ENDBRANCH   6  11
ENDBRANCH   1   5
BRANCH   2  14
ATOM     14  C   UNL d   1       1.726   3.552  -3.514  0.00  0.00     0.041 A 
ATOM     15  C   UNL d   1       1.621   3.973  -4.854  0.00  0.00    -0.034 A 
ATOM     16  C   UNL d   1       1.382   5.336  -5.122  0.00  0.00     0.032 A 
ATOM     17  C   UNL d   1       1.637   3.041  -6.035  0.00  0.00     0.050 C 
ATOM     18  C   UNL d   1       1.247   6.257  -4.085  0.00  0.00     0.034 A 
ATOM     19  C   UNL d   1       1.334   5.838  -2.764  0.00  0.00     0.026 A 
ATOM     20 CL   UNL d   1       0.963   7.915  -4.443  0.00  0.00    -0.084 Cl
ATOM     21  C   UNL d   1       1.569   4.491  -2.482  0.00  0.00     0.032 A 
ENDBRANCH   2  14
TORSDOF 3
