REMARK  3 active torsions:
REMARK  status: ('A' for Active; 'I' for Inactive)
REMARK    1  A    between atoms: C_11  and  C_6 
REMARK    2  A    between atoms: C_22  and  C_14 
REMARK    3  A    between atoms: O_23  and  C_20 
ROOT
ATOM      1  N   UNL d   1      -1.668   1.496  -0.181  0.00  0.00    -0.305 N 
ATOM      2  HN  UNL d   1      -1.356   2.388  -0.567  1.00  0.00     0.186 HD
ATOM      3  C   UNL d   1      -0.944   0.461   0.113  0.00  0.00     0.043 C 
ATOM      4  N   UNL d   1      -2.934   1.127   0.142  0.00  0.00    -0.322 N 
ATOM      5  C   UNL d   1      -1.698  -0.706   0.693  0.00  0.00     0.067 C 
ATOM      6  C   UNL d   1      -3.123  -0.337   0.257  0.00  0.00     0.144 C 
ATOM      7  C   UNL d   1       0.509   0.367  -0.001  0.00  0.00    -0.005 A 
ATOM      8  C   UNL d   1       1.053  -0.906  -0.214  0.00  0.00    -0.043 A 
ATOM      9  C   UNL d   1      -1.111  -2.082   0.396  0.00  0.00     0.018 C 
ATOM     10  C   UNL d   1       1.318   1.487   0.159  0.00  0.00     0.017 A 
ATOM     11  C   UNL d   1       0.130  -2.064  -0.503  0.00  0.00     0.040 C 
ATOM     12  C   UNL d   1       2.449  -1.046  -0.243  0.00  0.00     0.044 A 
ATOM     13  C   UNL d   1      -4.069   1.913  -0.302  0.00  0.00     0.171 C 
ATOM     14  C   UNL d   1       3.275   0.065  -0.050  0.00  0.00     0.068 A 
ATOM     15  C   UNL d   1       2.705   1.329   0.142  0.00  0.00     0.037 A 
ENDROOT
BRANCH   6  16
ATOM     16  C   UNL d   1      -3.700  -0.991  -0.989  0.00  0.00    -0.033 A 
ATOM     17  C   UNL d   1      -3.071  -0.959  -2.239  0.00  0.00     0.010 A 
ATOM     18  C   UNL d   1      -3.717  -1.444  -3.384  0.00  0.00     0.008 A 
ATOM     19  C   UNL d   1      -5.021  -1.958  -3.315  0.00  0.00    -0.055 A 
ATOM     20  C   UNL d   1      -5.630  -2.044  -2.056  0.00  0.00     0.008 A 
ATOM     21  C   UNL d   1      -4.979  -1.573  -0.915  0.00  0.00     0.010 A 
BRANCH  19  22
ATOM     22  C   UNL d   1      -5.807  -2.337  -4.559  0.00  0.00     0.010 C 
ATOM     23  C   UNL d   1      -5.919  -1.156  -5.529  0.00  0.00     0.015 C 
ATOM     24  C   UNL d   1      -5.231  -3.568  -5.261  0.00  0.00     0.015 C 
ENDBRANCH  19  22
ENDBRANCH   6  16
BRANCH  14  25
ATOM     25  O   UNL d   1       4.644   0.053  -0.026  0.00  0.00    -0.356 OA
ATOM     26  C   UNL d   1       5.282  -1.210  -0.164  0.00  0.00     0.210 C 
ENDBRANCH  14  25
TORSDOF 3
