REMARK  4 active torsions:
REMARK  status: ('A' for Active; 'I' for Inactive)
REMARK    1  A    between atoms: N_3  and  C_1 
REMARK       I    between atoms: C_2  and  N_3 
REMARK       I    between atoms: N_5  and  C_2 
REMARK    2  A    between atoms: C_8  and  C_4 
REMARK    3  A    between atoms: C_9  and  N_5 
REMARK    4  A    between atoms: C_13  and  C_7 
ROOT
ATOM      1  C   UNL d   1       3.186  -0.098   2.454  0.00  0.00     0.325 C 
ATOM      2  N   UNL d   1       3.062  -0.653   1.205  0.00  0.00    -0.308 N 
ATOM      3  N   UNL d   1       3.700  -0.822   3.475  0.00  0.00    -0.309 N 
ATOM      4  O   UNL d   1       2.780   1.016   2.781  0.00  0.00    -0.247 OA
ATOM      5  H   UNL d   1       3.157  -1.649   1.225  0.00  0.00     0.170 HD
ATOM      6  H   UNL d   1       3.553  -0.257   4.311  0.00  0.00     0.170 HD
ENDROOT
BRANCH   2   7
ATOM      7  C   UNL d   1       2.048  -0.184   0.297  0.00  0.00     0.049 C 
ATOM      8  C   UNL d   1       1.191  -1.181  -0.208  0.00  0.00    -0.027 C 
ATOM      9  C   UNL d   1      -0.193  -0.929  -0.179  0.00  0.00     0.010 C 
ATOM     10  C   UNL d   1      -0.680   0.335   0.128  0.00  0.00     0.001 C 
ATOM     11  C   UNL d   1       0.218   1.387   0.240  0.00  0.00     0.009 C 
ATOM     12  C   UNL d   1       1.605   1.151   0.265  0.00  0.00    -0.031 C 
BRANCH   8  13
ATOM     13  C   UNL d   1       1.662  -2.466  -0.873  0.00  0.00     0.013 C 
ATOM     14  C   UNL d   1       3.061  -2.393  -1.502  0.00  0.00     0.015 C 
ATOM     15  C   UNL d   1       1.519  -3.688   0.025  0.00  0.00     0.015 C 
ENDBRANCH   8  13
BRANCH  12  16
ATOM     16  C   UNL d   1       2.483   2.361  -0.005  0.00  0.00     0.036 C 
ATOM     17  C   UNL d   1       3.991   2.268   0.156  0.00  0.00     0.010 C 
ENDBRANCH  12  16
ENDBRANCH   2   7
BRANCH   3  18
ATOM     18  C   UNL d   1       4.294  -2.067   3.736  0.00  0.00     0.036 A 
ATOM     19  C   UNL d   1       4.727  -3.000   2.800  0.00  0.00     0.029 A 
ATOM     20  C   UNL d   1       5.320  -4.200   3.229  0.00  0.00     0.002 A 
ATOM     21  C   UNL d   1       5.494  -4.474   4.589  0.00  0.00     0.000 A 
ATOM     22  C   UNL d   1       5.072  -3.546   5.530  0.00  0.00     0.002 A 
ATOM     23  C   UNL d   1       4.480  -2.357   5.104  0.00  0.00     0.029 A 
ENDBRANCH   3  18
TORSDOF 4
