REMARK  2 active torsions:
REMARK  status: ('A' for Active; 'I' for Inactive)
REMARK    1  A    between atoms: C_3  and  N_1 
REMARK    2  A    between atoms: C_7  and  C_5 
ROOT
ATOM      1  C   UNL d   1       0.088  -1.192   0.310  0.00  0.00     0.043 C 
ATOM      2  C   UNL d   1      -0.905  -1.360  -0.690  0.00  0.00     0.001 A 
ATOM      3  C   UNL d   1      -1.676  -2.550  -0.716  0.00  0.00    -0.024 A 
ATOM      4  C   UNL d   1      -0.543  -3.337   1.277  0.00  0.00     0.003 C 
ATOM      5  C   UNL d   1       0.184  -2.148   1.334  0.00  0.00     0.030 C 
ATOM      6  C   UNL d   1      -1.187  -0.373  -1.662  0.00  0.00     0.014 A 
ATOM      7  C   UNL d   1      -1.449  -3.545   0.245  0.00  0.00     0.012 C 
ATOM      8  C   UNL d   1      -2.675  -2.721  -1.689  0.00  0.00     0.012 A 
ATOM      9  C   UNL d   1      -2.204  -0.545  -2.605  0.00  0.00     0.001 A 
ATOM     10  C   UNL d   1      -2.946  -1.719  -2.619  0.00  0.00     0.001 A 
ENDROOT
BRANCH   1  11
ATOM     11  N   UNL d   1       0.918  -0.046   0.285  0.00  0.00    -0.364 N 
ATOM     12  C   UNL d   1       2.200  -0.057   0.512  0.00  0.00     0.099 C 
ATOM     13  HN  UNL d   1       0.482   0.851   0.074  1.00  0.00     0.165 HD
BRANCH  12  14
ATOM     14  C   UNL d   1       3.101  -1.183   0.846  0.00  0.00    -0.021 A 
ATOM     15  C   UNL d   1       3.024  -2.423   0.208  0.00  0.00     0.013 A 
ATOM     16  C   UNL d   1       3.768  -3.498   0.697  0.00  0.00     0.001 A 
ATOM     17  C   UNL d   1       4.624  -3.321   1.785  0.00  0.00     0.000 A 
ATOM     18  C   UNL d   1       4.760  -2.060   2.369  0.00  0.00     0.001 A 
ATOM     19  C   UNL d   1       4.002  -0.987   1.897  0.00  0.00     0.013 A 
ENDBRANCH  12  14
ENDBRANCH   1  11
TORSDOF 2
