REMARK  2 active torsions:
REMARK  status: ('A' for Active; 'I' for Inactive)
REMARK    1  A    between atoms: C_12  and  C_4 
REMARK    2  A    between atoms: N_7  and  C_11 
ROOT
ATOM      1  N   UNL d   1      -0.470   0.528   0.985  0.00  0.00    -0.318 N 
ATOM      2  HN  UNL d   1      -0.936   0.983   1.770  1.00  0.00     0.169 HD
ATOM      3  C   UNL d   1      -0.472  -0.750   0.659  0.00  0.00     0.189 A 
ATOM      4  C   UNL d   1       0.314   1.099   0.007  0.00  0.00     0.138 A 
ATOM      5  N   UNL d   1       0.785   0.223  -0.892  0.00  0.00    -0.242 N 
ATOM      6  HN  UNL d   1       1.380   0.408  -1.700  1.00  0.00     0.196 HD
ATOM      7  O   UNL d   1       0.271  -0.996  -0.466  0.00  0.00    -0.217 OA
ATOM      8  C   UNL d   1      -1.176  -1.763   1.390  0.00  0.00     0.058 A 
ATOM      9  S   UNL d   1      -1.090  -3.415   0.939  0.00  0.00    -0.098 SA
ATOM     10  C   UNL d   1      -1.984  -1.587   2.498  0.00  0.00     0.024 A 
ATOM     11  C   UNL d   1      -2.128  -3.888   2.212  0.00  0.00     0.050 A 
ATOM     12  C   UNL d   1      -2.537  -2.814   2.970  0.00  0.00     0.009 A 
ENDROOT
BRANCH   4  13
ATOM     13  C   UNL d   1       0.593   2.531  -0.039  0.00  0.00     0.010 A 
ATOM     14  C   UNL d   1       0.102   3.385   0.963  0.00  0.00     0.018 A 
ATOM     15  C   UNL d   1       0.358   4.761   0.918  0.00  0.00     0.037 A 
ATOM     16  C   UNL d   1       1.109   5.290  -0.139  0.00  0.00     0.102 A 
ATOM     17  C   UNL d   1       1.610   4.453  -1.143  0.00  0.00     0.037 A 
ATOM     18  C   UNL d   1       1.351   3.080  -1.087  0.00  0.00     0.018 A 
BRANCH  16  19
ATOM     19  N   UNL d   1       1.372   6.733  -0.199  0.00  0.00    -0.116 N 
ATOM     20  O   UNL d   1       0.914   7.440   0.710  0.00  0.00    -0.532 OA
ATOM     21  O   UNL d   1       2.035   7.159  -1.155  0.00  0.00    -0.532 OA
ENDBRANCH  16  19
ENDBRANCH   4  13
TORSDOF 2
