REMARK  5 active torsions:
REMARK  status: ('A' for Active; 'I' for Inactive)
REMARK    1  A    between atoms: N_4  and  C_1 
REMARK       I    between atoms: C_5  and  N_4 
REMARK       I    between atoms: N_10  and  C_5 
REMARK    2  A    between atoms: O_20  and  C_8 
REMARK    3  A    between atoms: C_16  and  N_10 
REMARK    4  A    between atoms: C_24  and  C_15 
REMARK    5  A    between atoms: O_23  and  C_24 
ROOT
ATOM      1  N   UNL d   1       1.767  -2.371   0.448  0.00  0.00    -0.166 N 
ATOM      2  C   UNL d   1       3.118  -2.250   0.554  0.00  0.00     0.170 C 
ATOM      3  N   UNL d   1       3.715  -2.995   1.530  0.00  0.00    -0.230 NA
ATOM      4  N   UNL d   1       3.913  -1.584  -0.221  0.00  0.00    -0.375 N 
ATOM      5  HN  UNL d   1       4.929  -1.545  -0.151  1.00  0.00     0.158 HD
ATOM      6  H   UNL d   1       1.402  -3.292   0.643  0.00  0.00     0.187 HD
ATOM      7  H   UNL d   1       4.725  -2.933   1.395  0.00  0.00     0.136 HD
ATOM      8  H   UNL d   1       3.333  -1.100  -0.922  0.00  0.00     0.158 HD
ENDROOT
BRANCH   1   9
ATOM      9  C   UNL d   1       1.040  -1.803  -0.594  0.00  0.00     0.686 A 
ATOM     10  N   UNL d   1       1.349  -0.571  -1.023  0.00  0.00    -0.170 N 
ATOM     11  C   UNL d   1       0.647  -0.118  -2.061  0.00  0.00     0.157 A 
ATOM     12  HN  UNL d   1       2.079  -0.013  -0.580  1.00  0.00     0.186 HD
ATOM     13  C   UNL d   1      -0.305  -0.825  -2.742  0.00  0.00     0.084 A 
ATOM     14  C   UNL d   1      -0.531  -2.099  -2.267  0.00  0.00     0.054 A 
ATOM     15  N   UNL d   1       0.096  -2.568  -1.158  0.00  0.00    -0.193 N 
ATOM     16  HN  UNL d   1      -0.146  -3.478  -0.765  1.00  0.00     0.184 HD
BRANCH  11  17
ATOM     17  O   UNL d   1       0.994   1.130  -2.460  0.00  0.00    -0.346 OA
ATOM     18  H   UNL d   1       1.689   1.343  -1.813  0.00  0.00     0.219 HD
ENDBRANCH  11  17
BRANCH  14  19
ATOM     19  C   UNL d   1      -1.401  -3.048  -3.071  0.00  0.00     0.224 C 
BRANCH  19  20
ATOM     20  O   UNL d   1      -1.417  -4.360  -2.509  0.00  0.00    -0.390 OA
ATOM     21  C   UNL d   1      -2.671  -4.722  -1.956  0.00  0.00     0.201 C 
ENDBRANCH  19  20
ENDBRANCH  14  19
ENDBRANCH   1   9
BRANCH   3  22
ATOM     22  C   UNL d   1       3.435  -2.977   2.916  0.00  0.00     0.016 A 
ATOM     23  C   UNL d   1       2.420  -2.210   3.507  0.00  0.00     0.049 A 
ATOM     24  C   UNL d   1       2.220  -2.236   4.895  0.00  0.00     0.057 A 
ATOM     25 CL   UNL d   1       0.968  -1.235   5.546  0.00  0.00    -0.082 Cl
ATOM     26  C   UNL d   1       3.022  -3.043   5.707  0.00  0.00     0.055 A 
ATOM     27  C   UNL d   1       4.010  -3.838   5.125  0.00  0.00     0.027 A 
ATOM     28 CL   UNL d   1       2.856  -3.099   7.426  0.00  0.00    -0.083 Cl
ATOM     29  C   UNL d   1       4.204  -3.808   3.743  0.00  0.00     0.026 A 
ENDBRANCH   3  22
TORSDOF 5
