REMARK  4 active torsions:
REMARK  status: ('A' for Active; 'I' for Inactive)
REMARK    1  A    between atoms: C_7  and  N_1 
REMARK    2  A    between atoms: C_11  and  C_4 
REMARK    3  A    between atoms: C_14  and  C_6 
REMARK    4  A    between atoms: C_8  and  C_10 
ROOT
ATOM      1  N   UNL d   1       0.948  -0.728  -0.154  0.00  0.00    -0.258 N 
ATOM      2  N   UNL d   1       0.956   0.617   0.063  0.00  0.00    -0.297 N 
ATOM      3  HN  UNL d   1       1.766   1.200   0.273  1.00  0.00     0.187 HD
ATOM      4  C   UNL d   1      -0.360  -1.237  -0.120  0.00  0.00     0.044 C 
ATOM      5  C   UNL d   1      -1.162  -0.099  -0.177  0.00  0.00     0.055 C 
ATOM      6  C   UNL d   1      -0.311   1.016  -0.056  0.00  0.00     0.036 C 
ENDROOT
BRANCH   1   7
ATOM      7  C   UNL d   1       2.203  -1.375  -0.241  0.00  0.00     0.078 C 
ATOM      8  C   UNL d   1       2.501  -2.347  -1.196  0.00  0.00     0.063 C 
ATOM      9  C   UNL d   1       3.667  -3.111  -1.069  0.00  0.00     0.042 C 
ATOM     10 CL   UNL d   1       1.583  -2.559  -2.643  0.00  0.00    -0.082 Cl
ATOM     11  C   UNL d   1       4.602  -2.833  -0.055  0.00  0.00     0.049 C 
ATOM     12  C   UNL d   1       4.389  -1.722   0.765  0.00  0.00     0.018 C 
ATOM     13  C   UNL d   1       3.201  -0.996   0.677  0.00  0.00     0.034 C 
BRANCH  11  14
ATOM     14  C   UNL d   1       5.826  -3.693   0.123  0.00  0.00     0.417 C 
ATOM     15  F   UNL d   1       5.771  -4.870  -0.568  0.00  0.00    -0.166 F 
ATOM     16  F   UNL d   1       6.965  -3.070  -0.288  0.00  0.00    -0.166 F 
ATOM     17  F   UNL d   1       6.034  -4.039   1.422  0.00  0.00    -0.166 F 
ENDBRANCH  11  14
ENDBRANCH   1   7
BRANCH   4  18
ATOM     18  C   UNL d   1      -0.879  -2.675   0.049  0.00  0.00    -0.007 C 
ATOM     19  C   UNL d   1       0.154  -3.763   0.382  0.00  0.00     0.021 C 
ATOM     20  C   UNL d   1      -1.873  -2.704   1.246  0.00  0.00     0.021 C 
ATOM     21  C   UNL d   1      -1.671  -3.087  -1.211  0.00  0.00     0.021 C 
ENDBRANCH   4  18
BRANCH   6  22
ATOM     22  C   UNL d   1      -0.704   2.486  -0.005  0.00  0.00    -0.007 C 
ATOM     23  C   UNL d   1       0.519   3.417   0.147  0.00  0.00     0.021 C 
ATOM     24  C   UNL d   1      -1.434   2.874  -1.309  0.00  0.00     0.021 C 
ATOM     25  C   UNL d   1      -1.648   2.752   1.186  0.00  0.00     0.021 C 
ENDBRANCH   6  22
TORSDOF 4
