REMARK  4 active torsions:
REMARK  status: ('A' for Active; 'I' for Inactive)
REMARK    1  A    between atoms: C_3  and  C_1 
REMARK       I    between atoms: N_7  and  C_3 
REMARK    2  A    between atoms: C_11  and  C_5 
REMARK    3  A    between atoms: C_12  and  N_7 
REMARK    4  A    between atoms: C_9  and  C_10 
ROOT
ATOM      1  C   UNL d   1       0.148  -2.559  -0.103  0.00  0.00     0.258 C 
ATOM      2  N   UNL d   1      -0.862  -3.491   0.071  0.00  0.00    -0.323 N 
ATOM      3  O   UNL d   1      -0.029  -1.397  -0.449  0.00  0.00    -0.267 OA
ATOM      4  H   UNL d   1      -0.611  -4.379   0.475  0.00  0.00     0.169 HD
ENDROOT
BRANCH   1   5
ATOM      5  C   UNL d   1       1.497  -3.059   0.168  0.00  0.00     0.064 A 
ATOM      6  C   UNL d   1       1.946  -4.359   0.562  0.00  0.00     0.057 A 
ATOM      7  C   UNL d   1       3.319  -4.303   0.698  0.00  0.00     0.087 A 
ATOM      8  O   UNL d   1       3.750  -3.054   0.374  0.00  0.00    -0.314 OA
ATOM      9  C   UNL d   1       2.659  -2.306   0.048  0.00  0.00     0.065 A 
ATOM     10  C   UNL d   1       2.963  -0.913  -0.353  0.00  0.00     0.077 C 
BRANCH   7  11
ATOM     11  C   UNL d   1       4.344  -5.261   1.103  0.00  0.00    -0.002 A 
ATOM     12  C   UNL d   1       5.703  -5.026   0.853  0.00  0.00     0.014 A 
ATOM     13  C   UNL d   1       6.675  -5.955   1.240  0.00  0.00     0.001 A 
ATOM     14  C   UNL d   1       6.299  -7.129   1.887  0.00  0.00     0.000 A 
ATOM     15  C   UNL d   1       4.954  -7.375   2.151  0.00  0.00     0.001 A 
ATOM     16  C   UNL d   1       3.984  -6.447   1.761  0.00  0.00     0.014 A 
ENDBRANCH   7  11
ENDBRANCH   1   5
BRANCH   2  17
ATOM     17  C   UNL d   1      -2.218  -3.342  -0.298  0.00  0.00     0.035 A 
ATOM     18  C   UNL d   1      -2.718  -2.238  -0.981  0.00  0.00     0.030 A 
ATOM     19  C   UNL d   1      -4.051  -2.201  -1.405  0.00  0.00     0.010 A 
ATOM     20  C   UNL d   1      -4.933  -3.266  -1.163  0.00  0.00    -0.051 A 
ATOM     21  C   UNL d   1      -4.432  -4.351  -0.427  0.00  0.00     0.010 A 
ATOM     22  C   UNL d   1      -3.093  -4.392  -0.006  0.00  0.00     0.030 A 
BRANCH  20  23
ATOM     23  C   UNL d   1      -6.358  -3.223  -1.739  0.00  0.00    -0.024 C 
ATOM     24  C   UNL d   1      -7.199  -4.474  -1.407  0.00  0.00     0.019 C 
ATOM     25  C   UNL d   1      -7.119  -1.995  -1.194  0.00  0.00     0.019 C 
ATOM     26  C   UNL d   1      -6.278  -3.121  -3.279  0.00  0.00     0.019 C 
ENDBRANCH  20  23
ENDBRANCH   2  17
TORSDOF 4
