REMARK  4 active torsions:
REMARK  status: ('A' for Active; 'I' for Inactive)
REMARK    1  A    between atoms: C_4  and  N_1 
REMARK    2  A    between atoms: O_15  and  C_5 
REMARK    3  A    between atoms: O_16  and  C_8 
REMARK    4  A    between atoms: O_17  and  C_9 
ROOT
ATOM      1  N   UNL d   1       2.601  -0.009   0.165  0.00  0.00    -0.252 N 
ATOM      2  C   UNL d   1       1.963   1.030  -0.506  0.00  0.00     0.232 C 
ATOM      3  C   UNL d   1       1.898  -1.192   0.342  0.00  0.00     0.232 C 
ATOM      4  C   UNL d   1       0.512  -0.979   0.916  0.00  0.00     0.113 C 
ATOM      5  C   UNL d   1       0.583   1.343   0.013  0.00  0.00     0.113 C 
ATOM      6  C   UNL d   1      -0.286   0.103   0.181  0.00  0.00    -0.024 C 
ATOM      7  O   UNL d   1       2.468   1.726  -1.387  0.00  0.00    -0.273 OA
ATOM      8  O   UNL d   1       2.312  -2.332   0.135  0.00  0.00    -0.273 OA
ATOM      9  C   UNL d   1      -0.810  -0.414  -1.178  0.00  0.00     0.010 C 
ATOM     10  C   UNL d   1      -1.561   0.458   0.991  0.00  0.00     0.010 C 
ATOM     11  C   UNL d   1      -2.248  -0.832  -0.902  0.00  0.00     0.001 C 
ATOM     12  C   UNL d   1      -2.736   0.245   0.047  0.00  0.00     0.001 C 
ENDROOT
BRANCH   1  13
ATOM     13  C   UNL d   1       3.990   0.120   0.509  0.00  0.00     0.050 A 
ATOM     14  C   UNL d   1       4.511   1.408   0.709  0.00  0.00     0.070 A 
ATOM     15  C   UNL d   1       5.768   1.641   1.287  0.00  0.00     0.106 A 
ATOM     16  C   UNL d   1       6.586   0.544   1.623  0.00  0.00     0.135 A 
ATOM     17  C   UNL d   1       6.088  -0.758   1.397  0.00  0.00     0.106 A 
ATOM     18  C   UNL d   1       4.806  -0.956   0.851  0.00  0.00     0.070 A 
BRANCH  15  19
ATOM     19  O   UNL d   1       6.202   2.911   1.573  0.00  0.00    -0.353 OA
ATOM     20  C   UNL d   1       5.348   4.013   1.282  0.00  0.00     0.210 C 
ENDBRANCH  15  19
BRANCH  16  21
ATOM     21  O   UNL d   1       7.849   0.612   2.149  0.00  0.00    -0.351 OA
ATOM     22  C   UNL d   1       8.456   1.869   2.402  0.00  0.00     0.210 C 
ENDBRANCH  16  21
BRANCH  17  23
ATOM     23  O   UNL d   1       6.743  -1.947   1.624  0.00  0.00    -0.353 OA
ATOM     24  C   UNL d   1       7.646  -1.999   2.721  0.00  0.00     0.210 C 
ENDBRANCH  17  23
ENDBRANCH   1  13
TORSDOF 4
