REMARK  7 active torsions:
REMARK  status: ('A' for Active; 'I' for Inactive)
REMARK    1  A    between atoms: C_13  and  C_1 
REMARK    2  A    between atoms: C_2  and  N_12 
REMARK    3  A    between atoms: N_10  and  C_2 
REMARK    4  A    between atoms: O_17  and  C_4 
REMARK    5  A    between atoms: N_12  and  N_6 
REMARK    6  A    between atoms: C_16  and  N_10 
REMARK    7  A    between atoms: C_14  and  C_16 
ROOT
ATOM      1  N   UNL d   1      -2.299  -4.245   0.032  0.00  0.00    -0.309 N 
ATOM      2  HN  UNL d   1      -3.137  -3.664   0.030  1.00  0.00     0.186 HD
ATOM      3  C   UNL d   1      -1.115  -3.722   0.022  0.00  0.00     0.121 C 
ENDROOT
BRANCH   1   4
ATOM      4  N   UNL d   1      -2.375  -5.600   0.045  0.00  0.00    -0.277 N 
ATOM      5  H   UNL d   1      -1.514  -6.130   0.043  0.00  0.00     0.189 HD
BRANCH   4   6
ATOM      6  C   UNL d   1      -3.592  -6.245   0.048  0.00  0.00     0.186 C 
ATOM      7  S   UNL d   1      -5.099  -5.516   0.042  0.00  0.00    -0.040 SA
BRANCH   6   8
ATOM      8  N   UNL d   1      -3.550  -7.613   0.058  0.00  0.00    -0.365 N 
ATOM      9  H   UNL d   1      -4.467  -8.048   0.055  0.00  0.00     0.161 HD
BRANCH   8  10
ATOM     10  C   UNL d   1      -2.365  -8.446   0.079  0.00  0.00     0.130 C 
BRANCH  10  11
ATOM     11  C   UNL d   1      -2.626  -9.966   0.125  0.00  0.00    -0.035 C 
ATOM     12  C   UNL d   1      -3.377 -10.437  -1.131  0.00  0.00     0.016 C 
ATOM     13  C   UNL d   1      -1.255 -10.668   0.175  0.00  0.00     0.016 C 
ATOM     14  C   UNL d   1      -3.423 -10.354   1.380  0.00  0.00     0.016 C 
ENDBRANCH  10  11
ENDBRANCH   8  10
ENDBRANCH   6   8
ENDBRANCH   4   6
ENDBRANCH   1   4
BRANCH   3  15
ATOM     15  C   UNL d   1      -0.969  -2.251   0.009  0.00  0.00     0.017 A 
ATOM     16  C   UNL d   1       0.287  -1.645  -0.003  0.00  0.00     0.094 A 
ATOM     17  C   UNL d   1       0.374  -0.246  -0.012  0.00  0.00     0.046 A 
ATOM     18 BR   UNL d   1       2.061   0.621  -0.028  0.00  0.00    -0.048 Br
ATOM     19  C   UNL d   1      -0.780   0.541  -0.011  0.00  0.00     0.046 A 
ATOM     20  C   UNL d   1      -2.027  -0.075  -0.001  0.00  0.00     0.036 A 
ATOM     21  C   UNL d   1      -2.129  -1.462   0.008  0.00  0.00     0.039 A 
ATOM     22 CL   UNL d   1      -3.456   0.882   0.000  0.00  0.00    -0.084 Cl
BRANCH  16  23
ATOM     23  O   UNL d   1       1.416  -2.422  -0.004  0.00  0.00    -0.358 OA
ATOM     24  H   UNL d   1       2.189  -1.826  -0.018  0.00  0.00     0.217 HD
ENDBRANCH  16  23
ENDBRANCH   3  15
TORSDOF 7
