REMARK  4 active torsions:
REMARK  status: ('A' for Active; 'I' for Inactive)
REMARK    1  A    between atoms: C_2  and  S_1 
REMARK    2  A    between atoms: N_8  and  S_1 
REMARK    3  A    between atoms: C_7  and  C_3 
REMARK    4  A    between atoms: O_12  and  C_7 
ROOT
ATOM      1  C   UNL d   1       0.398  -1.501  -0.775  0.00  0.00     0.186 A 
ATOM      2  C   UNL d   1      -0.667  -3.161  -1.922  0.00  0.00     0.070 A 
ATOM      3  C   UNL d   1      -0.588  -1.752  -1.722  0.00  0.00     0.072 A 
ATOM      4  O   UNL d   1       0.934  -2.712  -0.398  0.00  0.00    -0.301 OA
ATOM      5  C   UNL d   1       0.296  -3.695  -1.086  0.00  0.00     0.067 A 
ATOM      6  C   UNL d   1       0.734  -5.080  -0.794  0.00  0.00     0.078 C 
ENDROOT
BRANCH   1   7
ATOM      7  S   UNL d   1       1.004   0.053  -0.098  0.00  0.00     0.265 S 
ATOM      8  O   UNL d   1       0.832  -0.073   1.332  0.00  0.00    -0.204 OA
ATOM      9  O   UNL d   1       0.300   1.062  -0.865  0.00  0.00    -0.204 OA
BRANCH   7  10
ATOM     10  N   UNL d   1       2.664   0.157  -0.460  0.00  0.00    -0.213 NA
ATOM     11  C   UNL d   1       3.537  -0.781   0.269  0.00  0.00     0.129 C 
ATOM     12  C   UNL d   1       2.995   0.263  -1.891  0.00  0.00     0.129 C 
ENDBRANCH   7  10
ENDBRANCH   1   7
BRANCH   2  13
ATOM     13  C   UNL d   1      -1.522  -3.933  -2.806  0.00  0.00     0.178 C 
ATOM     14  O   UNL d   1      -1.261  -5.066  -3.182  0.00  0.00    -0.646 OA
BRANCH  13  15
ATOM     15  O   UNL d   1      -2.660  -3.300  -3.188  0.00  0.00    -0.773 OA
ATOM     16  H   UNL d   1      -2.812  -2.459  -2.720  0.00  0.00     0.167 HD
ENDBRANCH  13  15
ENDBRANCH   2  13
TORSDOF 4
