REMARK  6 active torsions:
REMARK  status: ('A' for Active; 'I' for Inactive)
REMARK    1  A    between atoms: C_4  and  C_1 
REMARK    2  A    between atoms: N_8  and  C_4 
REMARK    3  A    between atoms: C_6  and  C_12 
REMARK       I    between atoms: C_10  and  N_8 
REMARK    4  A    between atoms: C_14  and  C_9 
REMARK    5  A    between atoms: C_16  and  C_10 
REMARK    6  A    between atoms: O_23  and  C_19 
ROOT
ATOM      1  C   UNL d   1      -3.733   0.224   0.439  0.00  0.00     0.080 C 
ATOM      2  C   UNL d   1      -4.342  -0.923   0.081  0.00  0.00     0.047 C 
ENDROOT
BRANCH   1   3
ATOM      3  C   UNL d   1      -4.483   1.389   0.762  0.00  0.00     0.133 C 
ATOM      4  N   UNL d   1      -4.875   1.851   1.935  0.00  0.00    -0.339 N 
ATOM      5  C   UNL d   1      -5.147   3.182   1.721  0.00  0.00     0.060 A 
ATOM      6  HN  UNL d   1      -4.957   1.334   2.810  1.00  0.00     0.167 HD
ATOM      7  C   UNL d   1      -5.431   4.197   2.646  0.00  0.00     0.032 A 
ATOM      8  C   UNL d   1      -5.049   3.503   0.373  0.00  0.00     0.061 A 
ATOM      9  C   UNL d   1      -5.578   5.511   2.178  0.00  0.00     0.018 A 
ATOM     10  C   UNL d   1      -5.469   5.819   0.809  0.00  0.00     0.050 A 
ATOM     11  C   UNL d   1      -5.207   4.799  -0.126  0.00  0.00     0.048 A 
ATOM     12  N   UNL d   1      -4.712   2.316  -0.229  0.00  0.00    -0.339 N 
ATOM     13  H   UNL d   1      -4.463   2.198  -1.198  0.00  0.00     0.167 HD
BRANCH  10  14
ATOM     14  C   UNL d   1      -5.620   7.253   0.355  0.00  0.00     0.417 C 
ATOM     15  F   UNL d   1      -5.481   7.419  -0.990  0.00  0.00    -0.166 F 
ATOM     16  F   UNL d   1      -6.842   7.769   0.667  0.00  0.00    -0.166 F 
ATOM     17  F   UNL d   1      -4.707   8.086   0.928  0.00  0.00    -0.166 F 
ENDBRANCH  10  14
ENDBRANCH   1   3
BRANCH   1  18
ATOM     18  N   UNL d   1      -2.347   0.264   0.503  0.00  0.00    -0.320 N 
ATOM     19  C   UNL d   1      -1.565   1.399   0.676  0.00  0.00     0.256 C 
ATOM     20  O   UNL d   1      -1.979   2.553   0.729  0.00  0.00    -0.267 OA
ATOM     21  H   UNL d   1      -1.866  -0.604   0.312  0.00  0.00     0.169 HD
BRANCH  19  22
ATOM     22  C   UNL d   1      -0.089   1.216   0.691  0.00  0.00     0.032 A 
ATOM     23  C   UNL d   1       0.694   2.329   0.342  0.00  0.00     0.017 A 
ATOM     24  C   UNL d   1       2.085   2.251   0.350  0.00  0.00     0.001 A 
ATOM     25  C   UNL d   1       2.704   1.058   0.708  0.00  0.00     0.000 A 
ATOM     26  C   UNL d   1       1.935  -0.052   1.061  0.00  0.00     0.001 A 
ATOM     27  C   UNL d   1       0.538   0.022   1.059  0.00  0.00     0.017 A 
ENDBRANCH  19  22
ENDBRANCH   1  18
BRANCH   2  28
ATOM     28  C   UNL d   1      -5.778  -1.105  -0.173  0.00  0.00    -0.001 A 
ATOM     29  C   UNL d   1      -6.348  -1.019  -1.458  0.00  0.00     0.078 A 
ATOM     30  C   UNL d   1      -7.737  -1.143  -1.607  0.00  0.00     0.037 A 
ATOM     31  C   UNL d   1      -8.558  -1.376  -0.502  0.00  0.00     0.003 A 
ATOM     32  C   UNL d   1      -7.996  -1.474   0.766  0.00  0.00     0.001 A 
ATOM     33  C   UNL d   1      -6.616  -1.338   0.931  0.00  0.00     0.014 A 
BRANCH  29  34
ATOM     34  O   UNL d   1      -5.695  -0.727  -2.627  0.00  0.00    -0.355 OA
ATOM     35  C   UNL d   1      -4.458  -1.392  -2.852  0.00  0.00     0.210 C 
ENDBRANCH  29  34
ENDBRANCH   2  28
TORSDOF 6
