REMARK  2 active torsions:
REMARK  status: ('A' for Active; 'I' for Inactive)
REMARK    1  A    between atoms: C_15  and  C_2 
REMARK    2  A    between atoms: O_16  and  N_4 
ROOT
ATOM      1  C   UNL d   1       0.930   0.543   0.062  0.00  0.00     0.040 A 
ATOM      2  C   UNL d   1       1.923   1.545   0.049  0.00  0.00     0.049 A 
ATOM      3  C   UNL d   1       1.471  -0.728  -0.009  0.00  0.00     0.076 A 
ATOM      4  N   UNL d   1       2.832  -0.519  -0.080  0.00  0.00    -0.226 N 
ATOM      5  C   UNL d   1       3.128   0.827  -0.022  0.00  0.00     0.052 A 
ATOM      6  C   UNL d   1      -0.494   0.633   0.131  0.00  0.00     0.099 A 
ATOM      7  C   UNL d   1       0.709  -1.925  -0.036  0.00  0.00     0.035 A 
ATOM      8  C   UNL d   1      -1.247  -0.568   0.087  0.00  0.00     0.086 A 
ATOM      9  N   UNL d   1      -1.240   1.713   0.231  0.00  0.00    -0.239 N 
ATOM     10  HN  UNL d   1      -0.945   2.687   0.301  1.00  0.00     0.197 HD
ATOM     11  O   UNL d   1      -2.541   1.194   0.216  0.00  0.00    -0.156 OA
ATOM     12  N   UNL d   1      -2.538  -0.197   0.132  0.00  0.00    -0.240 N 
ATOM     13  HN  UNL d   1      -3.353  -0.810   0.109  1.00  0.00     0.197 HD
ATOM     14  C   UNL d   1      -0.696  -1.861   0.004  0.00  0.00     0.036 A 
ATOM     15  C   UNL d   1       4.535   1.319  -0.078  0.00  0.00     0.072 C 
ENDROOT
BRANCH   2  16
ATOM     16  C   UNL d   1       1.845   3.007   0.086  0.00  0.00     0.158 C 
ATOM     17  O   UNL d   1       2.695   3.666   0.690  0.00  0.00    -0.293 OA
ATOM     18  C   UNL d   1       0.759   3.735  -0.662  0.00  0.00     0.097 C 
ENDBRANCH   2  16
BRANCH   4  19
ATOM     19  O   UNL d   1       3.732  -1.538  -0.427  0.00  0.00    -0.278 OA
ATOM     20  C   UNL d   1       4.685  -1.760   0.609  0.00  0.00     0.238 C 
ENDBRANCH   4  19
TORSDOF 2
