REMARK  2 active torsions:
REMARK  status: ('A' for Active; 'I' for Inactive)
REMARK    1  A    between atoms: C_5  and  N_1 
REMARK    2  A    between atoms: C_9  and  C_8 
ROOT
ATOM      1  C   UNL d   1       0.200  -2.433  -0.035  0.00  0.00     0.044 A 
ATOM      2  C   UNL d   1      -0.090  -5.244  -0.019  0.00  0.00     0.009 A 
ATOM      3  C   UNL d   1       0.840  -3.213   0.937  0.00  0.00     0.031 A 
ATOM      4  C   UNL d   1      -0.560  -3.071  -1.020  0.00  0.00     0.031 A 
ATOM      5  C   UNL d   1      -0.696  -4.463  -1.015  0.00  0.00     0.017 A 
ATOM      6  C   UNL d   1       0.683  -4.606   0.956  0.00  0.00     0.017 A 
ENDROOT
BRANCH   1   7
ATOM      7  N   UNL d   1       0.342  -1.017  -0.028  0.00  0.00    -0.266 N 
ATOM      8  C   UNL d   1      -0.729  -0.141   0.021  0.00  0.00     0.148 A 
ATOM      9  S   UNL d   1      -0.159   1.519  -0.053  0.00  0.00    -0.090 SA
ATOM     10  S   UNL d   1      -2.357  -0.468   0.230  0.00  0.00    -0.052 SA
ATOM     11  C   UNL d   1       1.573   1.046  -0.074  0.00  0.00     0.185 A 
ATOM     12  C   UNL d   1       1.612  -0.457  -0.032  0.00  0.00     0.239 A 
ATOM     13  O   UNL d   1       2.682  -1.068  -0.030  0.00  0.00    -0.272 OA
ENDBRANCH   1   7
BRANCH   2  14
ATOM     14  C   UNL d   1      -0.309  -6.724  -0.069  0.00  0.00     0.155 C 
ATOM     15  O   UNL d   1      -0.954  -7.201  -1.004  0.00  0.00    -0.293 OA
ATOM     16  C   UNL d   1       0.249  -7.635   0.995  0.00  0.00     0.096 C 
ENDBRANCH   2  14
TORSDOF 2
