REMARK  5 active torsions:
REMARK  status: ('A' for Active; 'I' for Inactive)
REMARK    1  A    between atoms: C_9  and  C_1 
REMARK    2  A    between atoms: C_11  and  C_2 
REMARK    3  A    between atoms: C_3  and  C_15 
REMARK       I    between atoms: N_13  and  C_9 
REMARK    4  A    between atoms: O_18  and  C_11 
REMARK    5  A    between atoms: C_15  and  N_13 
ROOT
ATOM      1  C   UNL d   1       0.433   2.109  -1.347  0.00  0.00     0.223 C 
ATOM      2  N   UNL d   1       1.563   2.882  -1.536  0.00  0.00    -0.356 N 
ATOM      3  O   UNL d   1      -0.462   2.023  -2.176  0.00  0.00    -0.273 OA
ATOM      4  H   UNL d   1       2.322   2.846  -0.866  0.00  0.00     0.162 HD
ENDROOT
BRANCH   1   5
ATOM      5  C   UNL d   1       0.391   1.417   0.018  0.00  0.00     0.096 C 
ATOM      6  C   UNL d   1       1.483   0.344   0.121  0.00  0.00     0.101 C 
ATOM      7  C   UNL d   1       1.065  -1.123  -0.030  0.00  0.00     0.050 C 
ATOM      8  C   UNL d   1      -0.400  -1.450   0.096  0.00  0.00    -0.081 C 
ATOM      9  C   UNL d   1      -1.346  -0.506   0.262  0.00  0.00    -0.081 C 
ATOM     10  C   UNL d   1      -0.700  -2.928  -0.009  0.00  0.00     0.043 C 
ATOM     11  C   UNL d   1      -1.023   0.959   0.402  0.00  0.00     0.049 C 
ATOM     12  C   UNL d   1      -2.821  -0.831   0.308  0.00  0.00     0.043 C 
BRANCH   6  13
ATOM     13  C   UNL d   1       2.275   0.615   1.381  0.00  0.00     0.144 C 
ATOM     14  O   UNL d   1       3.247   1.360   1.390  0.00  0.00    -0.650 OA
BRANCH  13  15
ATOM     15  O   UNL d   1       1.769   0.082   2.510  0.00  0.00    -0.776 OA
ATOM     16  H   UNL d   1       0.950  -0.437   2.391  0.00  0.00     0.167 HD
ENDBRANCH  13  15
ENDBRANCH   6  13
ENDBRANCH   1   5
BRANCH   2  17
ATOM     17  C   UNL d   1       1.753   3.687  -2.722  0.00  0.00     0.162 C 
BRANCH  17  18
ATOM     18  C   UNL d   1       2.528   2.906  -3.736  0.00  0.00    -0.022 A 
ATOM     19  C   UNL d   1       1.941   2.238  -4.794  0.00  0.00     0.060 A 
ATOM     20  S   UNL d   1       3.070   1.450  -5.792  0.00  0.00    -0.101 SA
ATOM     21  C   UNL d   1       4.396   1.970  -4.828  0.00  0.00     0.015 A 
ATOM     22  C   UNL d   1       3.970   2.761  -3.755  0.00  0.00    -0.011 A 
ATOM     23  C   UNL d   1       5.757   1.673  -5.037  0.00  0.00     0.019 A 
ATOM     24  C   UNL d   1       4.965   3.275  -2.883  0.00  0.00     0.013 A 
ATOM     25  C   UNL d   1       6.317   2.980  -3.085  0.00  0.00     0.001 A 
ATOM     26  C   UNL d   1       6.707   2.183  -4.150  0.00  0.00     0.001 A 
ENDBRANCH  17  18
ENDBRANCH   2  17
TORSDOF 5
