REMARK  9 active torsions:
REMARK  status: ('A' for Active; 'I' for Inactive)
REMARK    1  A    between atoms: C_4  and  N_1 
REMARK    2  A    between atoms: N_2  and  C_9 
REMARK    3  A    between atoms: C_12  and  N_2 
REMARK    4  A    between atoms: S_3  and  C_13 
REMARK    5  A    between atoms: C_10  and  S_3 
REMARK    6  A    between atoms: C_16  and  C_4 
REMARK    7  A    between atoms: C_11  and  C_12 
REMARK    8  A    between atoms: C_13  and  C_11 
REMARK    9  A    between atoms: O_21  and  C_11 
ROOT
ATOM      1  N   UNL d   1      -1.702   0.228  -1.573  0.00  0.00     0.090 N 
ATOM      2  H   UNL d   1      -0.786   0.245  -2.012  0.00  0.00     0.316 HD
ENDROOT
BRANCH   1   3
ATOM      3  C   UNL d   1      -1.538   0.156  -0.108  0.00  0.00     0.224 C 
ATOM      4  C   UNL d   1      -0.835  -1.109   0.402  0.00  0.00     0.066 C 
ATOM      5  C   UNL d   1       0.613  -1.189  -0.081  0.00  0.00     0.275 C 
ATOM      6  N   UNL d   1       1.400  -0.008   0.306  0.00  0.00     0.092 N 
ATOM      7  C   UNL d   1       0.761   1.255  -0.105  0.00  0.00     0.275 C 
ATOM      8  C   UNL d   1      -0.699   1.355   0.355  0.00  0.00     0.066 C 
BRANCH   6   9
ATOM      9  C   UNL d   1       2.764  -0.133  -0.250  0.00  0.00     0.311 C 
BRANCH   9  10
ATOM     10  C   UNL d   1       3.710   0.972   0.167  0.00  0.00    -0.030 A 
ATOM     11  C   UNL d   1       3.993   1.196   1.521  0.00  0.00     0.009 A 
ATOM     12  C   UNL d   1       4.856   2.224   1.903  0.00  0.00     0.001 A 
ATOM     13  C   UNL d   1       5.447   3.033   0.935  0.00  0.00     0.000 A 
ATOM     14  C   UNL d   1       5.181   2.817  -0.414  0.00  0.00     0.001 A 
ATOM     15  C   UNL d   1       4.317   1.788  -0.799  0.00  0.00     0.009 A 
ENDBRANCH   9  10
ENDBRANCH   6   9
ENDBRANCH   1   3
BRANCH   1  16
ATOM     16  C   UNL d   1      -2.527  -0.837  -2.140  0.00  0.00     0.302 C 
BRANCH  16  17
ATOM     17  C   UNL d   1      -2.676  -0.763  -3.682  0.00  0.00     0.155 C 
BRANCH  17  18
ATOM     18  C   UNL d   1      -1.319  -0.872  -4.409  0.00  0.00     0.113 C 
BRANCH  18  19
ATOM     19  S   UNL d   1      -1.499  -0.664  -6.221  0.00  0.00    -0.127 SA
BRANCH  19  20
ATOM     20  C   UNL d   1       0.156  -0.985  -6.819  0.00  0.00     0.000 A 
ATOM     21  C   UNL d   1       0.280  -1.590  -8.079  0.00  0.00     0.021 A 
ATOM     22  C   UNL d   1       1.539  -1.840  -8.632  0.00  0.00     0.043 A 
ATOM     23  C   UNL d   1       2.678  -1.478  -7.926  0.00  0.00     0.116 A 
ATOM     24  C   UNL d   1       2.580  -0.868  -6.683  0.00  0.00     0.043 A 
ATOM     25  F   UNL d   1       3.887  -1.711  -8.454  0.00  0.00    -0.206 F 
ATOM     26  C   UNL d   1       1.318  -0.616  -6.130  0.00  0.00     0.021 A 
ENDBRANCH  19  20
ENDBRANCH  18  19
ENDBRANCH  17  18
BRANCH  17  27
ATOM     27  O   UNL d   1      -3.551  -1.829  -4.083  0.00  0.00    -0.393 OA
ATOM     28  H   UNL d   1      -3.103  -2.674  -3.913  0.00  0.00     0.210 HD
ENDBRANCH  17  27
ENDBRANCH  16  17
ENDBRANCH   1  16
TORSDOF 9
