REMARK  5 active torsions:
REMARK  status: ('A' for Active; 'I' for Inactive)
REMARK    1  A    between atoms: C_12  and  C_3 
REMARK    2  A    between atoms: N_9  and  C_4 
REMARK    3  A    between atoms: C_16  and  N_9 
REMARK    4  A    between atoms: C_14  and  C_15 
REMARK    5  A    between atoms: O_23  and  C_22 
ROOT
ATOM      1  C   UNL d   1      -0.011  -0.493   0.070  0.00  0.00     0.076 A 
ATOM      2  S   UNL d   1       1.676  -0.790   0.100  0.00  0.00    -0.084 SA
ATOM      3  C   UNL d   1       2.072   0.880   0.012  0.00  0.00     0.018 A 
ATOM      4  C   UNL d   1      -1.081  -1.394   0.103  0.00  0.00     0.126 A 
ATOM      5  C   UNL d   1       0.922   1.644  -0.054  0.00  0.00     0.050 A 
ATOM      6  C   UNL d   1      -0.272   0.868  -0.029  0.00  0.00     0.055 A 
ATOM      7  N   UNL d   1      -2.330  -0.875   0.015  0.00  0.00    -0.337 N 
ATOM      8  HN  UNL d   1      -3.144  -1.490   0.009  1.00  0.00     0.168 HD
ATOM      9  N   UNL d   1      -1.525   1.376  -0.090  0.00  0.00    -0.351 N 
ATOM     10  HN  UNL d   1      -1.717   2.376  -0.152  1.00  0.00     0.166 HD
ATOM     11  C   UNL d   1      -2.485   0.452  -0.062  0.00  0.00     0.182 A 
ENDROOT
BRANCH   3  12
ATOM     12  C   UNL d   1       3.478   1.324  -0.001  0.00  0.00    -0.019 A 
ATOM     13  C   UNL d   1       3.845   2.514  -0.645  0.00  0.00     0.013 A 
ATOM     14  C   UNL d   1       5.181   2.942  -0.665  0.00  0.00     0.009 A 
ATOM     15  C   UNL d   1       6.201   2.194  -0.051  0.00  0.00    -0.051 A 
ATOM     16  C   UNL d   1       5.818   1.016   0.603  0.00  0.00     0.009 A 
ATOM     17  C   UNL d   1       4.486   0.592   0.630  0.00  0.00     0.013 A 
BRANCH  15  18
ATOM     18  C   UNL d   1       7.665   2.656  -0.123  0.00  0.00    -0.024 C 
ATOM     19  C   UNL d   1       8.647   1.690   0.582  0.00  0.00     0.019 C 
ATOM     20  C   UNL d   1       8.103   2.752  -1.601  0.00  0.00     0.019 C 
ATOM     21  C   UNL d   1       7.826   4.037   0.543  0.00  0.00     0.019 C 
ENDBRANCH  15  18
ENDBRANCH   3  12
BRANCH   4  22
ATOM     22  N   UNL d   1      -0.906  -2.777   0.252  0.00  0.00    -0.341 N 
ATOM     23  H   UNL d   1       0.034  -3.069   0.488  0.00  0.00     0.167 HD
BRANCH  22  24
ATOM     24  C   UNL d   1      -1.722  -3.798  -0.268  0.00  0.00     0.036 A 
ATOM     25  C   UNL d   1      -2.480  -3.613  -1.434  0.00  0.00     0.066 A 
ATOM     26  C   UNL d   1      -3.316  -4.617  -1.924  0.00  0.00     0.070 A 
ATOM     27  C   UNL d   1      -3.420  -5.816  -1.219  0.00  0.00     0.037 A 
ATOM     28  C   UNL d   1      -2.678  -6.017  -0.054  0.00  0.00     0.005 A 
ATOM     29  C   UNL d   1      -1.823  -5.017   0.411  0.00  0.00     0.029 A 
BRANCH  26  30
ATOM     30  O   UNL d   1      -4.072  -4.542  -3.062  0.00  0.00    -0.356 OA
ATOM     31  C   UNL d   1      -3.950  -3.348  -3.828  0.00  0.00     0.210 C 
ENDBRANCH  26  30
ENDBRANCH  22  24
ENDBRANCH   4  22
TORSDOF 5
