REMARK  3 active torsions:
REMARK  status: ('A' for Active; 'I' for Inactive)
REMARK    1  A    between atoms: N_3  and  C_1 
REMARK    2  A    between atoms: N_10  and  C_1 
REMARK    3  A    between atoms: C_2  and  N_3 
ROOT
ATOM      1  C   UNL d   1       1.024  -2.185   1.349  0.00  0.00     0.037 A 
ATOM      2  C   UNL d   1       0.584  -3.478   1.055  0.00  0.00     0.053 A 
ATOM      3  C   UNL d   1       2.011  -2.008   2.323  0.00  0.00     0.053 A 
ATOM      4  C   UNL d   1       2.524  -3.111   3.010  0.00  0.00     0.037 A 
ATOM      5  C   UNL d   1       1.092  -4.571   1.762  0.00  0.00     0.037 A 
ATOM      6  C   UNL d   1       2.063  -4.395   2.742  0.00  0.00     0.048 A 
ATOM      7 CL   UNL d   1       3.760  -2.882   4.187  0.00  0.00    -0.084 Cl
ATOM      8 CL   UNL d   1       0.508  -6.154   1.416  0.00  0.00    -0.084 Cl
ENDROOT
BRANCH   1   9
ATOM      9  N   UNL d   1       0.500  -1.117   0.585  0.00  0.00    -0.333 N 
ATOM     10  H   UNL d   1      -0.032  -1.387  -0.232  0.00  0.00     0.168 HD
BRANCH   9  11
ATOM     11  C   UNL d   1       0.298   0.190   0.950  0.00  0.00     0.171 C 
ATOM     12  S   UNL d   1       0.170   0.812   2.496  0.00  0.00    -0.041 SA
BRANCH  11  13
ATOM     13  N   UNL d   1       0.119   1.069  -0.081  0.00  0.00    -0.371 N 
ATOM     14  C   UNL d   1       0.472   0.912  -1.477  0.00  0.00     0.148 C 
ATOM     15  H   UNL d   1      -0.012   2.025   0.239  0.00  0.00     0.161 HD
ENDBRANCH  11  13
ENDBRANCH   9  11
ENDBRANCH   1   9
TORSDOF 3
