REMARK  3 active torsions:
REMARK  status: ('A' for Active; 'I' for Inactive)
REMARK    1  A    between atoms: C_8  and  N_6 
REMARK    2  A    between atoms: O_15  and  C_11 
REMARK    3  A    between atoms: O_16  and  C_12 
ROOT
ATOM      1  C   UNL d   1      -0.743  -1.267   0.283  0.00  0.00     0.146 C 
ATOM      2  S   UNL d   1       0.812  -1.664   1.035  0.00  0.00    -0.057 SA
ATOM      3  N   UNL d   1      -1.090   0.023   0.594  0.00  0.00    -0.357 N 
ATOM      4  C   UNL d   1       0.937  -0.083   1.765  0.00  0.00     0.004 C 
ATOM      5  C   UNL d   1      -0.039   0.891   1.118  0.00  0.00     0.058 C 
ATOM      6  N   UNL d   1      -1.480  -2.018  -0.469  0.00  0.00    -0.337 N 
ATOM      7  HN  UNL d   1      -2.364  -1.647  -0.819  1.00  0.00     0.168 HD
ATOM      8  C   UNL d   1       1.740   0.118   2.819  0.00  0.00     0.029 C 
ATOM      9  C   UNL d   1      -0.659   1.898   2.089  0.00  0.00     0.044 C 
ATOM     10  C   UNL d   1       0.638   1.622  -0.050  0.00  0.00     0.044 C 
ATOM     11  H   UNL d   1      -1.804   0.424   0.001  0.00  0.00     0.162 HD
ENDROOT
BRANCH   6  12
ATOM     12  C   UNL d   1      -1.109  -3.328  -0.823  0.00  0.00     0.039 C 
ATOM     13  C   UNL d   1      -0.738  -4.289   0.123  0.00  0.00     0.066 C 
ATOM     14  C   UNL d   1      -0.257  -5.535  -0.275  0.00  0.00     0.073 C 
ATOM     15  C   UNL d   1      -0.304  -5.889  -1.623  0.00  0.00     0.073 C 
ATOM     16  C   UNL d   1      -0.803  -4.991  -2.566  0.00  0.00     0.073 C 
ATOM     17  C   UNL d   1      -1.162  -3.703  -2.167  0.00  0.00     0.066 C 
BRANCH  14  18
ATOM     18  O   UNL d   1       0.270  -6.477   0.568  0.00  0.00    -0.356 OA
ATOM     19  C   UNL d   1       0.727  -5.985   1.825  0.00  0.00     0.210 C 
ENDBRANCH  14  18
BRANCH  16  20
ATOM     20  O   UNL d   1      -0.944  -5.265  -3.902  0.00  0.00    -0.356 OA
ATOM     21  C   UNL d   1      -1.161  -6.639  -4.212  0.00  0.00     0.210 C 
ENDBRANCH  16  20
ENDBRANCH   6  12
TORSDOF 3
