REMARK  4 active torsions:
REMARK  status: ('A' for Active; 'I' for Inactive)
REMARK    1  A    between atoms: C_12  and  N_4 
REMARK    2  A    between atoms: C_7  and  C_6 
REMARK    3  A    between atoms: C_18  and  C_12 
REMARK    4  A    between atoms: O_17  and  C_18 
ROOT
ATOM      1  N   UNL d   1      -1.738   1.472  -0.235  0.00  0.00    -0.305 N 
ATOM      2  HN  UNL d   1      -1.450   2.373  -0.618  1.00  0.00     0.186 HD
ATOM      3  C   UNL d   1      -0.984   0.464   0.061  0.00  0.00     0.043 C 
ATOM      4  N   UNL d   1      -2.998   1.069   0.075  0.00  0.00    -0.316 N 
ATOM      5  C   UNL d   1      -1.704  -0.724   0.645  0.00  0.00     0.067 C 
ATOM      6  C   UNL d   1      -3.147  -0.398   0.222  0.00  0.00     0.146 C 
ATOM      7  C   UNL d   1       0.474   0.409  -0.041  0.00  0.00    -0.005 A 
ATOM      8  C   UNL d   1      -1.076  -2.082   0.360  0.00  0.00     0.018 C 
ATOM      9  C   UNL d   1       1.055  -0.849  -0.244  0.00  0.00    -0.046 A 
ATOM     10  C   UNL d   1       0.168  -2.034  -0.534  0.00  0.00     0.040 C 
ATOM     11  C   UNL d   1       1.251   1.557   0.129  0.00  0.00     0.014 A 
ATOM     12  C   UNL d   1       2.448  -0.948  -0.262  0.00  0.00     0.008 A 
ATOM     13  C   UNL d   1       2.640   1.440   0.126  0.00  0.00     0.001 A 
ATOM     14  C   UNL d   1       3.237   0.191  -0.063  0.00  0.00     0.001 A 
ENDROOT
BRANCH   6  15
ATOM     15  C   UNL d   1      -3.723  -1.103  -1.001  0.00  0.00    -0.011 A 
ATOM     16  C   UNL d   1      -4.886  -1.898  -0.916  0.00  0.00     0.042 A 
ATOM     17 CL   UNL d   1      -5.648  -2.287   0.590  0.00  0.00    -0.084 Cl
ATOM     18  C   UNL d   1      -5.490  -2.423  -2.066  0.00  0.00     0.024 A 
ATOM     19  C   UNL d   1      -4.926  -2.204  -3.318  0.00  0.00     0.002 A 
ATOM     20  C   UNL d   1      -3.746  -1.475  -3.421  0.00  0.00     0.001 A 
ATOM     21  C   UNL d   1      -3.154  -0.927  -2.278  0.00  0.00     0.011 A 
ENDBRANCH   6  15
BRANCH   4  22
ATOM     22  C   UNL d   1      -4.151   1.878  -0.304  0.00  0.00     0.169 C 
BRANCH  22  23
ATOM     23  C   UNL d   1      -5.394   1.624   0.557  0.00  0.00     0.185 C 
BRANCH  23  24
ATOM     24  O   UNL d   1      -6.420   2.565   0.249  0.00  0.00    -0.399 OA
ATOM     25  H   UNL d   1      -7.182   2.336   0.809  0.00  0.00     0.209 HD
ENDBRANCH  23  24
ENDBRANCH  22  23
ENDBRANCH   4  22
TORSDOF 4
