REMARK  4 active torsions:
REMARK  status: ('A' for Active; 'I' for Inactive)
REMARK    1  A    between atoms: C_4  and  C_2 
REMARK    2  A    between atoms: C_8  and  C_3 
REMARK       I    between atoms: N_7  and  C_4 
REMARK    3  A    between atoms: C_12  and  N_7 
REMARK    4  A    between atoms: C_9  and  C_10 
ROOT
ATOM      1  C   UNL d   1      -0.110   2.578   0.084  0.00  0.00     0.263 C 
ATOM      2  N   UNL d   1      -1.416   3.004  -0.122  0.00  0.00    -0.323 N 
ATOM      3  O   UNL d   1       0.188   1.480   0.548  0.00  0.00    -0.267 OA
ATOM      4  H   UNL d   1      -1.521   3.912  -0.556  0.00  0.00     0.169 HD
ENDROOT
BRANCH   2   5
ATOM      5  C   UNL d   1      -2.601   2.320   0.237  0.00  0.00     0.035 A 
ATOM      6  C   UNL d   1      -2.618   1.098   0.905  0.00  0.00     0.030 A 
ATOM      7  C   UNL d   1      -3.826   0.496   1.278  0.00  0.00     0.010 A 
ATOM      8  C   UNL d   1      -5.067   1.090   0.998  0.00  0.00    -0.051 A 
ATOM      9  C   UNL d   1      -5.042   2.307   0.300  0.00  0.00     0.010 A 
ATOM     10  C   UNL d   1      -3.828   2.914  -0.072  0.00  0.00     0.030 A 
BRANCH   8  11
ATOM     11  C   UNL d   1      -6.361   0.413   1.482  0.00  0.00    -0.024 C 
ATOM     12  C   UNL d   1      -7.647   1.177   1.102  0.00  0.00     0.019 C 
ATOM     13  C   UNL d   1      -6.475  -1.006   0.881  0.00  0.00     0.019 C 
ATOM     14  C   UNL d   1      -6.331   0.305   3.024  0.00  0.00     0.019 C 
ENDBRANCH   8  11
ENDBRANCH   2   5
BRANCH   1  15
ATOM     15  C   UNL d   1       0.946   3.517  -0.295  0.00  0.00     0.073 A 
ATOM     16  S   UNL d   1       0.664   5.061  -0.969  0.00  0.00    -0.088 SA
ATOM     17  C   UNL d   1       2.352   5.405  -1.128  0.00  0.00    -0.009 A 
ATOM     18  C   UNL d   1       3.099   4.363  -0.608  0.00  0.00     0.017 A 
ATOM     19  C   UNL d   1       2.299   3.285  -0.146  0.00  0.00     0.025 A 
BRANCH  17  20
ATOM     20  C   UNL d   1       2.856   6.713  -1.757  0.00  0.00    -0.018 C 
ATOM     21  C   UNL d   1       2.616   7.893  -0.798  0.00  0.00     0.020 C 
ATOM     22  C   UNL d   1       4.375   6.636  -2.041  0.00  0.00     0.020 C 
ATOM     23  C   UNL d   1       2.156   6.988  -3.102  0.00  0.00     0.020 C 
ENDBRANCH  17  20
ENDBRANCH   1  15
TORSDOF 4
