REMARK  3 active torsions:
REMARK  status: ('A' for Active; 'I' for Inactive)
REMARK    1  A    between atoms: C_11  and  C_3 
REMARK    2  A    between atoms: C_4  and  C_10 
REMARK    3  A    between atoms: C_12  and  C_5 
ROOT
ATOM      1  N   UNL d   1      -0.045  -3.683  -2.233  0.00  0.00    -0.197 NA
ATOM      2  C   UNL d   1      -0.503  -2.625  -2.075  0.00  0.00     0.065 C 
ATOM      3  C   UNL d   1      -1.112  -1.303  -1.873  0.00  0.00     0.188 C 
ENDROOT
BRANCH   3   4
ATOM      4  C   UNL d   1      -0.321  -0.529  -0.865  0.00  0.00     0.064 A 
ATOM      5  N   UNL d   1       0.692   0.265  -1.157  0.00  0.00    -0.352 N 
ATOM      6  C   UNL d   1       1.239   0.796   0.005  0.00  0.00     0.049 A 
ATOM      7  HN  UNL d   1       1.025   0.461  -2.100  1.00  0.00     0.166 HD
ATOM      8  C   UNL d   1       0.613   0.394   1.169  0.00  0.00     0.081 A 
ATOM      9  S   UNL d   1      -0.707  -0.637   0.809  0.00  0.00    -0.085 SA
BRANCH   6  10
ATOM     10  C   UNL d   1       2.396   1.688  -0.033  0.00  0.00    -0.009 A 
ATOM     11  C   UNL d   1       2.614   2.651   0.964  0.00  0.00     0.014 A 
ATOM     12  C   UNL d   1       3.720   3.507   0.905  0.00  0.00     0.017 A 
ATOM     13  C   UNL d   1       4.635   3.421  -0.152  0.00  0.00     0.048 A 
ATOM     14  C   UNL d   1       4.422   2.457  -1.149  0.00  0.00     0.017 A 
ATOM     15  C   UNL d   1       3.313   1.603  -1.090  0.00  0.00     0.014 A 
BRANCH  13  16
ATOM     16  C   UNL d   1       5.824   4.349  -0.232  0.00  0.00     0.417 C 
ATOM     17  F   UNL d   1       5.892   5.235   0.802  0.00  0.00    -0.166 F 
ATOM     18  F   UNL d   1       7.010   3.681  -0.228  0.00  0.00    -0.166 F 
ATOM     19  F   UNL d   1       5.822   5.103  -1.366  0.00  0.00    -0.166 F 
ENDBRANCH  13  16
ENDBRANCH   6  10
ENDBRANCH   3   4
TORSDOF 3
