REMARK  7 active torsions:
REMARK  status: ('A' for Active; 'I' for Inactive)
REMARK    1  A    between atoms: C_3  and  C_1 
REMARK       I    between atoms: N_11  and  C_1 
REMARK    2  A    between atoms: C_6  and  N_2 
REMARK    3  A    between atoms: S_5  and  C_13 
REMARK    4  A    between atoms: C_14  and  S_5 
REMARK    5  A    between atoms: C_12  and  C_6 
REMARK    6  A    between atoms: C_13  and  C_12 
REMARK    7  A    between atoms: O_15  and  C_12 
ROOT
ATOM      1  C   UNL d   1      -2.191   2.715  -1.994  0.00  0.00     0.304 C 
ENDROOT
BRANCH   1   2
ATOM      2  N   UNL d   1      -1.630   2.179  -0.726  0.00  0.00     0.091 N 
ATOM      3  C   UNL d   1      -0.263   2.664  -0.482  0.00  0.00     0.273 C 
ATOM      4  C   UNL d   1       0.214   2.226   0.901  0.00  0.00     0.044 C 
ATOM      5  C   UNL d   1       0.243   0.707   1.016  0.00  0.00     0.081 C 
ATOM      6  C   UNL d   1      -1.126   0.137   0.623  0.00  0.00     0.044 C 
ATOM      7  C   UNL d   1      -1.661   0.707  -0.703  0.00  0.00     0.273 C 
BRANCH   5   8
ATOM      8  C   UNL d   1       1.374   0.107   0.189  0.00  0.00     0.219 C 
ATOM      9  O   UNL d   1       1.224  -0.750  -0.675  0.00  0.00    -0.273 OA
ATOM     10  N   UNL d   1       2.628   0.567   0.487  0.00  0.00    -0.370 N 
ATOM     11  H   UNL d   1       2.823   1.198   1.249  0.00  0.00     0.159 HD
ATOM     12  H   UNL d   1       3.407   0.172  -0.026  0.00  0.00     0.159 HD
ENDBRANCH   5   8
ENDBRANCH   1   2
BRANCH   1  13
ATOM     13  C   UNL d   1      -2.264   4.270  -2.033  0.00  0.00     0.156 C 
BRANCH  13  14
ATOM     14  C   UNL d   1      -2.889   4.823  -3.330  0.00  0.00     0.113 C 
BRANCH  14  15
ATOM     15  S   UNL d   1      -2.651   6.652  -3.323  0.00  0.00    -0.127 SA
BRANCH  15  16
ATOM     16  C   UNL d   1      -3.344   7.207  -4.865  0.00  0.00     0.000 A 
ATOM     17  C   UNL d   1      -4.000   8.445  -4.861  0.00  0.00     0.018 A 
ATOM     18  C   UNL d   1      -4.455   9.019  -6.049  0.00  0.00     0.001 A 
ATOM     19  C   UNL d   1      -4.247   8.362  -7.260  0.00  0.00     0.000 A 
ATOM     20  C   UNL d   1      -3.604   7.128  -7.274  0.00  0.00     0.001 A 
ATOM     21  C   UNL d   1      -3.146   6.548  -6.081  0.00  0.00     0.018 A 
ENDBRANCH  15  16
ENDBRANCH  14  15
ENDBRANCH  13  14
BRANCH  13  22
ATOM     22  O   UNL d   1      -2.999   4.756  -0.899  0.00  0.00    -0.393 OA
ATOM     23  H   UNL d   1      -3.661   4.084  -0.663  0.00  0.00     0.210 HD
ENDBRANCH  13  22
ENDBRANCH   1  13
TORSDOF 7
