REMARK  6 active torsions:
REMARK  status: ('A' for Active; 'I' for Inactive)
REMARK    1  A    between atoms: C_2  and  S_1 
REMARK    2  A    between atoms: N_13  and  S_1 
REMARK    3  A    between atoms: S_3  and  C_4 
REMARK    4  A    between atoms: C_6  and  S_3 
REMARK    5  A    between atoms: C_7  and  C_5 
REMARK    6  A    between atoms: O_17  and  C_7 
ROOT
ATOM      1  C   UNL d   1       0.608   0.106  -1.636  0.00  0.00     0.100 A 
ATOM      2  C   UNL d   1       0.483   1.419  -2.109  0.00  0.00     0.059 A 
ATOM      3  C   UNL d   1       0.211  -0.986  -2.433  0.00  0.00     0.045 A 
ATOM      4  C   UNL d   1      -0.127   1.612  -3.364  0.00  0.00     0.024 A 
ATOM      5  C   UNL d   1      -0.322  -0.765  -3.697  0.00  0.00     0.012 A 
ATOM      6  C   UNL d   1      -0.502   0.530  -4.165  0.00  0.00     0.020 A 
ATOM      7 BR   UNL d   1      -0.834  -2.231  -4.774  0.00  0.00    -0.051 Br
ENDROOT
BRANCH   2   8
ATOM      8  S   UNL d   1       1.012   2.872  -1.147  0.00  0.00     0.087 S 
ATOM      9  O   UNL d   1       0.217   4.026  -1.685  0.00  0.00    -0.247 OA
BRANCH   8  10
ATOM     10  C   UNL d   1       2.651   3.102  -1.929  0.00  0.00     0.053 A 
ATOM     11  C   UNL d   1       3.827   3.241  -1.169  0.00  0.00     0.057 A 
ATOM     12  C   UNL d   1       5.074   3.349  -1.818  0.00  0.00     0.020 A 
ATOM     13  C   UNL d   1       5.159   3.365  -3.208  0.00  0.00     0.001 A 
ATOM     14  C   UNL d   1       3.998   3.306  -3.965  0.00  0.00     0.002 A 
ATOM     15  C   UNL d   1       2.759   3.198  -3.329  0.00  0.00     0.022 A 
BRANCH  11  16
ATOM     16  C   UNL d   1       3.889   3.228   0.313  0.00  0.00     0.177 C 
ATOM     17  O   UNL d   1       4.767   2.625   0.912  0.00  0.00    -0.646 OA
BRANCH  16  18
ATOM     18  O   UNL d   1       2.954   3.958   0.945  0.00  0.00    -0.773 OA
ATOM     19  H   UNL d   1       2.384   4.528   0.392  0.00  0.00     0.167 HD
ENDBRANCH  16  18
ENDBRANCH  11  16
ENDBRANCH   8  10
ENDBRANCH   2   8
BRANCH   1  20
ATOM     20  S   UNL d   1       1.164  -0.255   0.011  0.00  0.00     0.259 S 
ATOM     21  O   UNL d   1       1.256  -1.687   0.166  0.00  0.00    -0.201 OA
ATOM     22  O   UNL d   1       0.379   0.557   0.915  0.00  0.00    -0.201 OA
BRANCH  20  23
ATOM     23  N   UNL d   1       2.724   0.355   0.032  0.00  0.00    -0.320 N 
ATOM     24  C   UNL d   1       3.763  -0.361  -0.706  0.00  0.00     0.159 C 
ATOM     25  H   UNL d   1       2.987   0.681   0.969  0.00  0.00     0.171 HD
ENDBRANCH  20  23
ENDBRANCH   1  20
TORSDOF 6
