REMARK  1 active torsions:
REMARK  status: ('A' for Active; 'I' for Inactive)
REMARK    1  A    between atoms: C_10  and  C_1 
ROOT
ATOM      1  C   UNL d   1      -0.747   1.227   0.030  0.00  0.00     0.033 A 
ATOM      2  N   UNL d   1      -0.622  -1.181   0.043  0.00  0.00    -0.361 N 
ATOM      3  HN  UNL d   1      -1.095  -2.085   0.062  1.00  0.00     0.165 HD
ATOM      4  C   UNL d   1       1.415   0.082   0.012  0.00  0.00     0.067 A 
ATOM      5  C   UNL d   1      -1.357  -0.028   0.035  0.00  0.00     0.019 A 
ATOM      6  C   UNL d   1       0.659   1.260   0.016  0.00  0.00     0.041 A 
ATOM      7  C   UNL d   1       0.736  -1.126   0.025  0.00  0.00     0.026 A 
ATOM      8  N   UNL d   1       4.000   0.227  -0.017  0.00  0.00    -0.191 NA
ATOM      9  C   UNL d   1       2.844   0.163  -0.007  0.00  0.00     0.101 C 
ATOM     10  C   UNL d   1      -2.832  -0.275  -0.018  0.00  0.00     0.069 C 
ATOM     11  C   UNL d   1       1.421  -2.465   0.007  0.00  0.00     0.070 C 
ENDROOT
BRANCH   1  12
ATOM     12  C   UNL d   1      -1.409   2.564  -0.041  0.00  0.00     0.157 C 
ATOM     13  O   UNL d   1      -0.804   3.476  -0.609  0.00  0.00    -0.293 OA
ATOM     14  C   UNL d   1      -2.731   2.857   0.611  0.00  0.00     0.097 C 
ENDBRANCH   1  12
TORSDOF 1
