REMARK  0 active torsions:
REMARK  status: ('A' for Active; 'I' for Inactive)
ROOT
ATOM      1  C   UNL d   1       0.649   1.183  -0.153  0.00  0.00     0.138 C 
ATOM      2  C   UNL d   1       1.374  -0.064   0.156  0.00  0.00     0.304 C 
ATOM      3  C   UNL d   1      -0.785   1.203   0.190  0.00  0.00     0.304 C 
ATOM      4  O   UNL d   1       0.643  -1.181  -0.057  0.00  0.00    -0.279 OA
ATOM      5  O   UNL d   1      -1.409   0.030  -0.051  0.00  0.00    -0.279 OA
ATOM      6  C   UNL d   1       1.239   2.214  -0.805  0.00  0.00     0.059 C 
ATOM      7  C   UNL d   1      -0.717  -1.142   0.360  0.00  0.00     0.175 C 
ATOM      8  S   UNL d   1       0.379   3.674  -1.272  0.00  0.00    -0.122 SA
ATOM      9  S   UNL d   1       2.934   2.218  -1.264  0.00  0.00    -0.122 SA
ATOM     10  O   UNL d   1      -1.403   2.170   0.606  0.00  0.00    -0.259 OA
ATOM     11  O   UNL d   1       2.537  -0.139   0.518  0.00  0.00    -0.259 OA
ATOM     12  C   UNL d   1      -1.421  -2.328  -0.297  0.00  0.00     0.080 C 
ATOM     13  C   UNL d   1      -0.794  -1.285   1.885  0.00  0.00     0.080 C 
ATOM     14  C   UNL d   1       2.038   3.591  -3.506  0.00  0.00     0.021 C 
ATOM     15  C   UNL d   1       2.779   2.335  -3.066  0.00  0.00     0.081 C 
ATOM     16  C   UNL d   1       0.576   3.604  -3.074  0.00  0.00     0.081 C 
ENDROOT
TORSDOF 0
