REMARK  6 active torsions:
REMARK  status: ('A' for Active; 'I' for Inactive)
REMARK    1  A    between atoms: C_21  and  N_9 
REMARK       I    between atoms: C_13  and  N_14 
REMARK    2  A    between atoms: N_14  and  C_15 
REMARK    3  A    between atoms: C_20  and  O_23 
REMARK    4  A    between atoms: C_22  and  C_21 
REMARK    5  A    between atoms: C_27  and  C_22 
REMARK    6  A    between atoms: O_23  and  C_27 
ROOT
ATOM      1  C   UNL d   1       0.170  -0.063  -1.267  0.00  0.00     0.101 A 
ATOM      2  C   UNL d   1      -0.862  -0.187  -2.118  0.00  0.00     0.077 A 
ATOM      3  N   UNL d   1       1.379  -0.662  -1.574  0.00  0.00    -0.293 N 
ATOM      4  N   UNL d   1       0.549  -1.422  -3.652  0.00  0.00    -0.270 N 
ATOM      5  C   UNL d   1       1.610  -1.353  -2.766  0.00  0.00     0.332 A 
ATOM      6  C   UNL d   1      -0.697  -0.891  -3.401  0.00  0.00     0.262 A 
ATOM      7  N   UNL d   1      -0.025   0.669  -0.097  0.00  0.00    -0.252 NA
ATOM      8  C   UNL d   1      -2.240   0.338  -1.820  0.00  0.00     0.321 C 
ATOM      9  N   UNL d   1      -2.474   0.621  -0.390  0.00  0.00     0.105 N 
ATOM     10  C   UNL d   1      -1.308   1.319   0.132  0.00  0.00     0.368 C 
ATOM     11  O   UNL d   1       2.705  -1.866  -3.014  0.00  0.00    -0.246 OA
ATOM     12  O   UNL d   1      -1.639  -0.966  -4.189  0.00  0.00    -0.267 OA
ATOM     13  C   UNL d   1       2.523  -0.560  -0.680  0.00  0.00     0.162 C 
ATOM     14  C   UNL d   1       0.730  -2.084  -4.928  0.00  0.00     0.164 C 
ATOM     15  H   UNL d   1       0.267   0.129   0.712  0.00  0.00     0.130 HD
ENDROOT
BRANCH   9  16
ATOM     16  C   UNL d   1      -3.719   1.362  -0.156  0.00  0.00     0.276 C 
BRANCH  16  17
ATOM     17  C   UNL d   1      -4.983   0.608  -0.597  0.00  0.00     0.057 C 
BRANCH  17  18
ATOM     18  C   UNL d   1      -5.105  -0.745   0.092  0.00  0.00     0.177 C 
BRANCH  18  19
ATOM     19  O   UNL d   1      -6.290  -1.414  -0.358  0.00  0.00    -0.351 OA
BRANCH  19  20
ATOM     20  C   UNL d   1      -6.490  -2.662   0.180  0.00  0.00     0.070 A 
ATOM     21  C   UNL d   1      -5.655  -3.267   1.125  0.00  0.00     0.066 A 
ATOM     22  C   UNL d   1      -5.932  -4.536   1.636  0.00  0.00     0.037 A 
ATOM     23  C   UNL d   1      -7.071  -5.209   1.182  0.00  0.00     0.029 A 
ATOM     24  C   UNL d   1      -7.911  -4.616   0.233  0.00  0.00     0.005 A 
ATOM     25  C   UNL d   1      -7.619  -3.346  -0.267  0.00  0.00     0.037 A 
BRANCH  22  26
ATOM     26  N   UNL d   1      -5.111  -5.174   2.595  0.00  0.00    -0.327 N 
ATOM     27  C   UNL d   1      -3.953  -4.666   3.170  0.00  0.00     0.218 C 
ATOM     28  O   UNL d   1      -3.438  -3.573   2.964  0.00  0.00    -0.274 OA
ATOM     29  C   UNL d   1      -3.314  -5.612   4.155  0.00  0.00     0.117 C 
ATOM     30  H   UNL d   1      -5.409  -6.095   2.886  0.00  0.00     0.169 HD
ENDBRANCH  22  26
ENDBRANCH  19  20
ENDBRANCH  18  19
ENDBRANCH  17  18
ENDBRANCH  16  17
ENDBRANCH   9  16
TORSDOF 6
