REMARK  6 active torsions:
REMARK  status: ('A' for Active; 'I' for Inactive)
REMARK    1  A    between atoms: C_6  and  C_1 
REMARK    2  A    between atoms: N_2  and  C_8 
REMARK    3  A    between atoms: O_15  and  N_9 
REMARK    4  A    between atoms: C_11  and  O_15 
REMARK       I    between atoms: N_19  and  C_11 
REMARK    5  A    between atoms: C_21  and  N_19 
REMARK    6  A    between atoms: C_22  and  C_21 
ROOT
ATOM      1  C   UNL d   1      -4.664   1.078  -0.120  0.00  0.00     0.101 A 
ATOM      2  O   UNL d   1      -4.041   2.295  -0.061  0.00  0.00    -0.308 OA
ATOM      3  C   UNL d   1      -6.036   1.262  -0.145  0.00  0.00     0.053 A 
ATOM      4  C   UNL d   1      -6.272   2.654  -0.102  0.00  0.00     0.003 A 
ATOM      5  C   UNL d   1      -5.016   3.248  -0.052  0.00  0.00     0.086 A 
ATOM      6  C   UNL d   1      -7.238   4.861  -0.050  0.00  0.00     0.103 A 
ATOM      7  C   UNL d   1      -7.418   3.467  -0.100  0.00  0.00     0.050 A 
ATOM      8  C   UNL d   1      -4.809   4.625  -0.002  0.00  0.00     0.040 A 
ATOM      9  C   UNL d   1      -5.955   5.433  -0.002  0.00  0.00     0.039 A 
ENDROOT
BRANCH   1  10
ATOM     10  C   UNL d   1      -3.898  -0.148  -0.144  0.00  0.00     0.062 C 
ATOM     11  N   UNL d   1      -4.593  -1.243  -0.238  0.00  0.00    -0.258 N 
ATOM     12  HN  UNL d   1      -5.610  -1.260  -0.317  1.00  0.00     0.194 HD
ATOM     13  C   UNL d   1      -2.395  -0.110  -0.047  0.00  0.00     0.073 C 
BRANCH  11  14
ATOM     14  O   UNL d   1      -3.790  -2.409  -0.218  0.00  0.00    -0.181 OA
BRANCH  14  15
ATOM     15  C   UNL d   1      -4.580  -3.547  -0.145  0.00  0.00     0.382 C 
ATOM     16  O   UNL d   1      -4.102  -4.661   0.025  0.00  0.00    -0.236 OA
ATOM     17  N   UNL d   1      -5.922  -3.285  -0.259  0.00  0.00    -0.335 N 
ATOM     18  H   UNL d   1      -6.111  -2.291  -0.316  0.00  0.00     0.164 HD
BRANCH  17  19
ATOM     19  C   UNL d   1      -6.965  -4.210   0.103  0.00  0.00     0.124 C 
BRANCH  19  20
ATOM     20  C   UNL d   1      -7.309  -4.129   1.590  0.00  0.00     0.015 C 
ATOM     21  C   UNL d   1      -7.849  -2.765   2.002  0.00  0.00     0.006 C 
ENDBRANCH  19  20
ENDBRANCH  17  19
ENDBRANCH  14  15
ENDBRANCH  11  14
ENDBRANCH   1  10
BRANCH   6  22
ATOM     22  N   UNL d   1      -8.424   5.730  -0.047  0.00  0.00    -0.116 N 
ATOM     23  O   UNL d   1      -9.536   5.188  -0.097  0.00  0.00    -0.532 OA
ATOM     24  O   UNL d   1      -8.239   6.954   0.005  0.00  0.00    -0.532 OA
ENDBRANCH   6  22
TORSDOF 6
