REMARK  1 active torsions:
REMARK  status: ('A' for Active; 'I' for Inactive)
REMARK    1  A    between atoms: C_11  and  C_6 
ROOT
ATOM      1  N   UNL d   1      -0.283  -0.597   0.096  0.00  0.00    -0.203 N 
ATOM      2  C   UNL d   1      -0.222   0.780   0.008  0.00  0.00     0.133 A 
ATOM      3  N   UNL d   1      -1.566  -1.050   0.138  0.00  0.00    -0.288 N 
ATOM      4  HN  UNL d   1      -1.889  -2.013   0.229  1.00  0.00     0.188 HD
ATOM      5  C   UNL d   1      -1.510   1.233  -0.048  0.00  0.00     0.083 A 
ATOM      6  C   UNL d   1      -2.308   0.064   0.032  0.00  0.00     0.069 A 
ATOM      7  C   UNL d   1       0.848  -1.431   0.133  0.00  0.00     0.270 A 
ATOM      8  C   UNL d   1       2.146  -0.695   0.083  0.00  0.00     0.101 A 
ATOM      9  N   UNL d   1       0.985   1.385  -0.015  0.00  0.00    -0.345 N 
ATOM     10  C   UNL d   1       2.159   0.651   0.021  0.00  0.00     0.012 A 
ATOM     11  O   UNL d   1       0.766  -2.652   0.198  0.00  0.00    -0.266 OA
ATOM     12  C   UNL d   1       3.446   1.428  -0.015  0.00  0.00     0.068 C 
ATOM     13  H   UNL d   1       1.076   2.398  -0.071  0.00  0.00     0.167 HD
ENDROOT
BRANCH   6  14
ATOM     14  C   UNL d   1      -3.809   0.037   0.002  0.00  0.00     0.033 A 
ATOM     15  S   UNL d   1      -4.782   1.423  -0.254  0.00  0.00    -0.100 SA
ATOM     16  C   UNL d   1      -6.224   0.512  -0.157  0.00  0.00     0.050 A 
ATOM     17  C   UNL d   1      -5.975  -0.821   0.085  0.00  0.00     0.008 A 
ATOM     18  C   UNL d   1      -4.577  -1.097   0.170  0.00  0.00     0.021 A 
ENDBRANCH   6  14
TORSDOF 1
