REMARK  7 active torsions:
REMARK  status: ('A' for Active; 'I' for Inactive)
REMARK    1  A    between atoms: C_5  and  C_1 
REMARK       I    between atoms: N_10  and  C_5 
REMARK    2  A    between atoms: C_23  and  N_10 
REMARK    3  A    between atoms: O_21  and  C_11 
REMARK    4  A    between atoms: C_14  and  C_22 
REMARK    5  A    between atoms: S_16  and  C_24 
REMARK    6  A    between atoms: C_22  and  S_16 
REMARK    7  A    between atoms: C_24  and  C_23 
ROOT
ATOM      1  C   UNL d   1      -3.868  -0.129  -0.123  0.00  0.00     0.268 C 
ATOM      2  O   UNL d   1      -4.413  -1.227  -0.167  0.00  0.00    -0.266 OA
ATOM      3  N   UNL d   1      -4.571   1.050  -0.163  0.00  0.00    -0.355 N 
ATOM      4  H   UNL d   1      -4.071   1.926  -0.206  0.00  0.00     0.162 HD
ENDROOT
BRANCH   1   5
ATOM      5  C   UNL d   1      -2.433   0.025  -0.022  0.00  0.00     0.102 A 
ATOM      6  N   UNL d   1      -1.581  -1.059   0.035  0.00  0.00    -0.351 N 
ATOM      7  C   UNL d   1      -0.274  -0.654   0.182  0.00  0.00     0.043 A 
ATOM      8  H   UNL d   1      -1.896  -2.020  -0.002  0.00  0.00     0.166 HD
ATOM      9  C   UNL d   1       0.906  -1.395   0.310  0.00  0.00     0.033 A 
ATOM     10  C   UNL d   1      -0.282   0.738   0.194  0.00  0.00    -0.004 A 
ATOM     11  C   UNL d   1       2.108  -0.684   0.466  0.00  0.00     0.039 A 
ATOM     12  C   UNL d   1       2.127   0.711   0.486  0.00  0.00     0.069 A 
ATOM     13  C   UNL d   1       0.933   1.426   0.342  0.00  0.00     0.050 A 
ATOM     14  C   UNL d   1      -1.632   1.152   0.052  0.00  0.00     0.049 A 
BRANCH  12  15
ATOM     15  O   UNL d   1       3.233   1.503   0.638  0.00  0.00    -0.356 OA
ATOM     16  C   UNL d   1       4.480   0.848   0.819  0.00  0.00     0.210 C 
ENDBRANCH  12  15
ENDBRANCH   1   5
BRANCH   3  17
ATOM     17  C   UNL d   1      -6.015   1.087  -0.261  0.00  0.00     0.133 C 
BRANCH  17  18
ATOM     18  C   UNL d   1      -6.557   2.510  -0.415  0.00  0.00     0.093 C 
BRANCH  18  19
ATOM     19  S   UNL d   1      -5.833   3.431  -1.823  0.00  0.00    -0.163 SA
BRANCH  19  20
ATOM     20  C   UNL d   1      -6.373   2.368  -3.200  0.00  0.00     0.112 C 
BRANCH  20  21
ATOM     21  C   UNL d   1      -5.878   2.889  -4.526  0.00  0.00    -0.049 A 
ATOM     22  C   UNL d   1      -4.634   2.472  -5.030  0.00  0.00     0.011 A 
ATOM     23  C   UNL d   1      -4.168   2.956  -6.253  0.00  0.00     0.043 A 
ATOM     24  C   UNL d   1      -4.941   3.861  -6.970  0.00  0.00     0.116 A 
ATOM     25  C   UNL d   1      -6.171   4.292  -6.487  0.00  0.00     0.043 A 
ATOM     26  F   UNL d   1      -4.493   4.327  -8.143  0.00  0.00    -0.206 F 
ATOM     27  C   UNL d   1      -6.640   3.809  -5.264  0.00  0.00     0.011 A 
ENDBRANCH  20  21
ENDBRANCH  19  20
ENDBRANCH  18  19
ENDBRANCH  17  18
ENDBRANCH   3  17
TORSDOF 7
