REMARK  3 active torsions:
REMARK  status: ('A' for Active; 'I' for Inactive)
REMARK    1  A    between atoms: C_5  and  C_1 
REMARK    2  A    between atoms: N_8  and  C_2 
REMARK    3  A    between atoms: O_9  and  C_5 
ROOT
ATOM      1  C   UNL d   1       1.077  -0.732  -0.004  0.00  0.00     0.106 A 
ATOM      2  C   UNL d   1       0.989   0.652  -0.001  0.00  0.00     0.055 A 
ATOM      3  S   UNL d   1      -0.486  -1.438  -0.003  0.00  0.00    -0.093 SA
ATOM      4  C   UNL d   1      -0.358   1.140   0.001  0.00  0.00    -0.028 A 
ATOM      5  C   UNL d   1      -1.252   0.085  -0.001  0.00  0.00     0.059 A 
ATOM      6  C   UNL d   1      -0.792   2.569   0.004  0.00  0.00     0.051 C 
ENDROOT
BRANCH   1   7
ATOM      7  C   UNL d   1       2.287  -1.540  -0.008  0.00  0.00     0.302 C 
ATOM      8  O   UNL d   1       3.432  -1.093  -0.007  0.00  0.00    -0.259 OA
BRANCH   7   9
ATOM      9  O   UNL d   1       2.005  -2.879  -0.013  0.00  0.00    -0.322 OA
ATOM     10  C   UNL d   1       3.159  -3.718  -0.020  0.00  0.00     0.213 C 
ENDBRANCH   7   9
ENDBRANCH   1   7
BRANCH   2  11
ATOM     11  N   UNL d   1       2.071   1.457   0.000  0.00  0.00    -0.397 N 
ATOM     12  H   UNL d   1       3.019   1.076   0.002  0.00  0.00     0.156 HD
ATOM     13  H   UNL d   1       2.032   2.469   0.007  0.00  0.00     0.156 HD
ENDBRANCH   2  11
TORSDOF 3
