REMARK  8 active torsions:
REMARK  status: ('A' for Active; 'I' for Inactive)
REMARK    1  A    between atoms: C_14  and  N_1 
REMARK    2  A    between atoms: C_8  and  C_2 
REMARK    3  A    between atoms: C_7  and  C_3 
REMARK    4  A    between atoms: O_18  and  C_8 
REMARK    5  A    between atoms: O_19  and  C_9 
REMARK    6  A    between atoms: O_20  and  C_10 
REMARK    7  A    between atoms: O_21  and  C_11 
REMARK    8  A    between atoms: C_17  and  C_14 
ROOT
ATOM      1  N   UNL d   1      -2.144  -0.286   0.137  0.00  0.00    -0.334 N 
ATOM      2  C   UNL d   1      -0.420  -2.062   0.278  0.00  0.00     0.145 C 
ATOM      3  C   UNL d   1      -1.718  -1.581  -0.414  0.00  0.00     0.139 C 
ATOM      4  C   UNL d   1      -1.225   0.710   0.451  0.00  0.00     0.255 C 
ATOM      5  C   UNL d   1       0.642  -0.981   0.261  0.00  0.00    -0.026 A 
ATOM      6  C   UNL d   1       0.223   0.362   0.318  0.00  0.00     0.039 A 
ATOM      7  O   UNL d   1      -1.544   1.846   0.790  0.00  0.00    -0.267 OA
ATOM      8  C   UNL d   1       2.017  -1.257   0.256  0.00  0.00     0.009 A 
ATOM      9  C   UNL d   1       1.160   1.398   0.230  0.00  0.00     0.017 A 
ATOM     10  C   UNL d   1       2.946  -0.220   0.158  0.00  0.00     0.001 A 
ATOM     11  C   UNL d   1       2.518   1.104   0.120  0.00  0.00     0.001 A 
ENDROOT
BRANCH   3  12
ATOM     12  C   UNL d   1      -1.657  -1.536  -1.948  0.00  0.00    -0.029 A 
ATOM     13  C   UNL d   1      -2.026  -2.667  -2.691  0.00  0.00     0.049 A 
ATOM     14  C   UNL d   1      -2.019  -2.665  -4.096  0.00  0.00     0.104 A 
ATOM     15  C   UNL d   1      -1.577  -1.522  -4.788  0.00  0.00     0.135 A 
ATOM     16  C   UNL d   1      -1.175  -0.390  -4.052  0.00  0.00     0.104 A 
ATOM     17  C   UNL d   1      -1.243  -0.401  -2.655  0.00  0.00     0.049 A 
BRANCH  14  18
ATOM     18  O   UNL d   1      -2.413  -3.765  -4.814  0.00  0.00    -0.353 OA
ATOM     19  C   UNL d   1      -3.386  -4.608  -4.203  0.00  0.00     0.210 C 
ENDBRANCH  14  18
BRANCH  15  20
ATOM     20  O   UNL d   1      -1.564  -1.351  -6.152  0.00  0.00    -0.351 OA
ATOM     21  C   UNL d   1      -1.349  -2.493  -6.968  0.00  0.00     0.210 C 
ENDBRANCH  15  20
BRANCH  16  22
ATOM     22  O   UNL d   1      -0.754   0.711  -4.763  0.00  0.00    -0.353 OA
ATOM     23  C   UNL d   1       0.107   1.618  -4.078  0.00  0.00     0.210 C 
ENDBRANCH  16  22
ENDBRANCH   3  12
BRANCH   2  24
ATOM     24  C   UNL d   1      -0.045  -3.425  -0.268  0.00  0.00     0.150 C 
ATOM     25  O   UNL d   1      -0.516  -4.462   0.188  0.00  0.00    -0.649 OA
BRANCH  24  26
ATOM     26  O   UNL d   1       0.759  -3.443  -1.348  0.00  0.00    -0.776 OA
ATOM     27  H   UNL d   1       0.988  -2.567  -1.721  0.00  0.00     0.167 HD
ENDBRANCH  24  26
ENDBRANCH   2  24
BRANCH   1  28
ATOM     28  C   UNL d   1      -3.573   0.009   0.201  0.00  0.00     0.165 C 
BRANCH  28  29
ATOM     29  C   UNL d   1      -4.154  -0.373   1.542  0.00  0.00    -0.040 A 
ATOM     30  C   UNL d   1      -4.191   0.568   2.583  0.00  0.00     0.012 A 
ATOM     31  C   UNL d   1      -4.679   0.214   3.841  0.00  0.00     0.043 A 
ATOM     32  C   UNL d   1      -5.123  -1.084   4.062  0.00  0.00     0.116 A 
ATOM     33  C   UNL d   1      -5.098  -2.031   3.045  0.00  0.00     0.043 A 
ATOM     34  F   UNL d   1      -5.578  -1.429   5.273  0.00  0.00    -0.206 F 
ATOM     35  C   UNL d   1      -4.617  -1.676   1.785  0.00  0.00     0.012 A 
ENDBRANCH  28  29
ENDBRANCH   1  28
TORSDOF 8
