REMARK  4 active torsions:
REMARK  status: ('A' for Active; 'I' for Inactive)
REMARK    1  A    between atoms: C_18  and  C_10 
REMARK    2  A    between atoms: C_24  and  C_11 
REMARK    3  A    between atoms: C_16  and  C_19 
REMARK    4  A    between atoms: C_17  and  C_20 
ROOT
ATOM      1  C   UNL d   1      -0.019  -0.949   0.029  0.00  0.00     0.029 A 
ATOM      2  C   UNL d   1      -2.337  -0.842  -0.000  0.00  0.00     0.066 A 
ATOM      3  C   UNL d   1      -3.724  -1.231  -0.066  0.00  0.00     0.189 A 
ATOM      4  C   UNL d   1      -0.200   0.401   0.028  0.00  0.00     0.024 A 
ATOM      5  N   UNL d   1      -4.104  -2.428  -0.454  0.00  0.00    -0.318 N 
ATOM      6  HN  UNL d   1      -3.518  -3.199  -0.773  1.00  0.00     0.169 HD
ATOM      7  C   UNL d   1      -1.242  -1.691   0.026  0.00  0.00    -0.022 A 
ATOM      8  S   UNL d   1      -1.894   0.821   0.045  0.00  0.00    -0.084 SA
ATOM      9  S   UNL d   1       1.665  -1.378   0.030  0.00  0.00    -0.092 SA
ATOM     10  C   UNL d   1      -5.469  -2.402  -0.331  0.00  0.00     0.138 A 
ATOM     11  C   UNL d   1       2.134   0.284   0.009  0.00  0.00    -0.008 A 
ATOM     12  C   UNL d   1       1.034   1.127   0.011  0.00  0.00     0.035 A 
ATOM     13  N   UNL d   1      -5.949  -1.225   0.096  0.00  0.00    -0.242 N 
ATOM     14  HN  UNL d   1      -6.921  -0.962   0.260  1.00  0.00     0.196 HD
ATOM     15  O   UNL d   1      -4.798  -0.443   0.265  0.00  0.00    -0.216 OA
ATOM     16  C   UNL d   1      -1.182  -3.179   0.042  0.00  0.00     0.051 C 
ENDROOT
BRANCH  10  17
ATOM     17  C   UNL d   1      -6.261  -3.592  -0.625  0.00  0.00     0.011 A 
ATOM     18  C   UNL d   1      -5.602  -4.779  -0.992  0.00  0.00     0.031 A 
ATOM     19  C   UNL d   1      -6.309  -5.961  -1.261  0.00  0.00     0.049 A 
ATOM     20  C   UNL d   1      -7.706  -5.943  -1.171  0.00  0.00     0.032 A 
ATOM     21  C   UNL d   1      -8.392  -4.771  -0.807  0.00  0.00     0.049 A 
ATOM     22  C   UNL d   1      -7.658  -3.599  -0.537  0.00  0.00     0.031 A 
BRANCH  19  23
ATOM     23  C   UNL d   1      -5.550  -7.216  -1.626  0.00  0.00     0.417 C 
ATOM     24  F   UNL d   1      -6.353  -8.299  -1.816  0.00  0.00    -0.166 F 
ATOM     25  F   UNL d   1      -4.833  -7.075  -2.774  0.00  0.00    -0.166 F 
ATOM     26  F   UNL d   1      -4.656  -7.577  -0.666  0.00  0.00    -0.166 F 
ENDBRANCH  19  23
BRANCH  21  27
ATOM     27  C   UNL d   1      -9.900  -4.759  -0.693  0.00  0.00     0.417 C 
ATOM     28  F   UNL d   1     -10.469  -5.972  -0.938  0.00  0.00    -0.166 F 
ATOM     29  F   UNL d   1     -10.323  -4.392   0.547  0.00  0.00    -0.166 F 
ATOM     30  F   UNL d   1     -10.480  -3.890  -1.564  0.00  0.00    -0.166 F 
ENDBRANCH  21  27
ENDBRANCH  10  17
BRANCH  11  31
ATOM     31  C   UNL d   1       3.634   0.632  -0.005  0.00  0.00    -0.018 C 
ATOM     32  C   UNL d   1       4.308   0.060  -1.270  0.00  0.00     0.020 C 
ATOM     33  C   UNL d   1       3.859   2.158  -0.006  0.00  0.00     0.020 C 
ATOM     34  C   UNL d   1       4.330   0.060   1.248  0.00  0.00     0.020 C 
ENDBRANCH  11  31
TORSDOF 4
