REMARK  4 active torsions:
REMARK  status: ('A' for Active; 'I' for Inactive)
REMARK    1  A    between atoms: C_5  and  N_1 
REMARK    2  A    between atoms: C_10  and  C_4 
REMARK       I    between atoms: N_16  and  C_10 
REMARK    3  A    between atoms: N_13  and  N_16 
REMARK    4  A    between atoms: C_23  and  C_18 
ROOT
ATOM      1  N   UNL d   1       0.902  -0.675  -0.095  0.00  0.00    -0.257 N 
ATOM      2  N   UNL d   1       0.970   0.691  -0.122  0.00  0.00    -0.288 N 
ATOM      3  HN  UNL d   1       1.813   1.264  -0.164  1.00  0.00     0.188 HD
ATOM      4  C   UNL d   1      -0.302   1.123  -0.082  0.00  0.00     0.119 A 
ATOM      5  C   UNL d   1      -0.421  -1.103   0.009  0.00  0.00     0.033 A 
ATOM      6  C   UNL d   1      -1.196   0.033  -0.049  0.00  0.00     0.063 A 
ATOM      7  C   UNL d   1      -0.915  -2.486   0.245  0.00  0.00     0.070 C 
ENDROOT
BRANCH   4   8
ATOM      8  C   UNL d   1      -0.702   2.536  -0.048  0.00  0.00     0.288 C 
ATOM      9  N   UNL d   1       0.342   3.444   0.036  0.00  0.00    -0.265 N 
ATOM     10  H   UNL d   1       1.299   3.102   0.077  0.00  0.00     0.190 HD
ATOM     11  O   UNL d   1      -1.893   2.855  -0.080  0.00  0.00    -0.264 OA
BRANCH   9  12
ATOM     12  N   UNL d   1       0.049   4.779   0.027  0.00  0.00    -0.307 N 
ATOM     13  C   UNL d   1       1.027   5.620   0.115  0.00  0.00     0.136 C 
ATOM     14  HN  UNL d   1      -0.916   5.102  -0.047  1.00  0.00     0.186 HD
BRANCH  13  15
ATOM     15  C   UNL d   1       0.770   7.080   0.063  0.00  0.00     0.049 A 
ATOM     16  N   UNL d   1       1.872   7.867   0.126  0.00  0.00    -0.365 N 
ATOM     17  C   UNL d   1       1.656   9.200   0.039  0.00  0.00     0.088 A 
ATOM     18  HN  UNL d   1       2.809   7.478   0.233  1.00  0.00     0.165 HD
ATOM     19  C   UNL d   1       0.403   9.779  -0.109  0.00  0.00     0.017 A 
ATOM     20  C   UNL d   1      -0.707   8.944  -0.163  0.00  0.00     0.004 A 
ATOM     21  C   UNL d   1      -0.525   7.567  -0.074  0.00  0.00     0.031 A 
ENDBRANCH  13  15
ENDBRANCH   9  12
ENDBRANCH   4   8
BRANCH   1  22
ATOM     22  C   UNL d   1       2.107  -1.444  -0.122  0.00  0.00     0.100 A 
ATOM     23  C   UNL d   1       3.247  -1.019   0.597  0.00  0.00     0.066 A 
ATOM     24  C   UNL d   1       4.412  -1.802   0.619  0.00  0.00     0.050 A 
ATOM     25 CL   UNL d   1       3.324   0.402   1.591  0.00  0.00    -0.082 Cl
ATOM     26  C   UNL d   1       4.451  -3.018  -0.046  0.00  0.00     0.037 A 
ATOM     27  C   UNL d   1       3.356  -3.441  -0.785  0.00  0.00     0.050 A 
ATOM     28 CL   UNL d   1       5.870  -3.987   0.017  0.00  0.00    -0.084 Cl
ATOM     29  C   UNL d   1       2.207  -2.640  -0.863  0.00  0.00     0.066 A 
ATOM     30 CL   UNL d   1       1.073  -3.130  -2.079  0.00  0.00    -0.082 Cl
ENDBRANCH   1  22
TORSDOF 4
