REMARK  6 active torsions:
REMARK  status: ('A' for Active; 'I' for Inactive)
REMARK    1  A    between atoms: C_21  and  C_3 
REMARK    2  A    between atoms: C_13  and  C_4 
REMARK    3  A    between atoms: C_19  and  C_5 
REMARK    4  A    between atoms: C_20  and  C_6 
REMARK    5  A    between atoms: O_27  and  C_7 
REMARK    6  A    between atoms: C_10  and  C_22 
ROOT
ATOM      1  N   UNL d   1       0.741   0.301  -1.149  0.00  0.00    -0.349 N 
ATOM      2  HN  UNL d   1       1.093   0.477  -2.090  1.00  0.00     0.166 HD
ATOM      3  C   UNL d   1      -0.315  -0.441  -0.868  0.00  0.00     0.084 A 
ATOM      4  C   UNL d   1       1.306   0.808   0.016  0.00  0.00     0.050 A 
ATOM      5  S   UNL d   1      -0.623  -0.638   0.819  0.00  0.00    -0.081 SA
ATOM      6  C   UNL d   1       0.702   0.377   1.180  0.00  0.00     0.082 A 
ENDROOT
BRANCH   4   7
ATOM      7  C   UNL d   1       2.482   1.679  -0.012  0.00  0.00    -0.008 A 
ATOM      8  C   UNL d   1       2.740   2.597   1.013  0.00  0.00     0.024 A 
ATOM      9  C   UNL d   1       3.899   3.398   1.033  0.00  0.00    -0.016 A 
ATOM     10  C   UNL d   1       4.824   3.186  -0.019  0.00  0.00     0.079 A 
ATOM     11  C   UNL d   1       4.573   2.339  -1.128  0.00  0.00    -0.016 A 
ATOM     12  C   UNL d   1       3.376   1.595  -1.080  0.00  0.00     0.024 A 
BRANCH   9  13
ATOM     13  C   UNL d   1       4.111   4.403   2.195  0.00  0.00    -0.021 C 
ATOM     14  C   UNL d   1       4.861   3.689   3.335  0.00  0.00     0.019 C 
ATOM     15  C   UNL d   1       4.897   5.674   1.789  0.00  0.00     0.019 C 
ATOM     16  C   UNL d   1       2.773   4.944   2.775  0.00  0.00     0.019 C 
ENDBRANCH   9  13
BRANCH  10  17
ATOM     17  O   UNL d   1       6.051   3.777   0.084  0.00  0.00    -0.360 OA
ATOM     18  H   UNL d   1       6.043   4.537  -0.520  0.00  0.00     0.217 HD
ENDBRANCH  10  17
BRANCH  11  19
ATOM     19  C   UNL d   1       5.514   2.226  -2.357  0.00  0.00    -0.021 C 
ATOM     20  C   UNL d   1       5.019   1.205  -3.417  0.00  0.00     0.019 C 
ATOM     21  C   UNL d   1       5.592   3.585  -3.090  0.00  0.00     0.019 C 
ATOM     22  C   UNL d   1       6.940   1.774  -1.972  0.00  0.00     0.019 C 
ENDBRANCH  11  19
ENDBRANCH   4   7
BRANCH   3  23
ATOM     23  C   UNL d   1      -1.164  -1.112  -1.869  0.00  0.00    -0.002 A 
ATOM     24  C   UNL d   1      -0.611  -1.524  -3.091  0.00  0.00     0.015 A 
ATOM     25  C   UNL d   1      -1.395  -2.166  -4.062  0.00  0.00     0.014 A 
ATOM     26  C   UNL d   1      -2.758  -2.398  -3.837  0.00  0.00    -0.008 A 
ATOM     27  C   UNL d   1      -3.318  -1.972  -2.627  0.00  0.00     0.014 A 
ATOM     28  C   UNL d   1      -2.533  -1.339  -1.658  0.00  0.00     0.015 A 
BRANCH  26  29
ATOM     29  C   UNL d   1      -3.611  -3.038  -4.829  0.00  0.00     0.063 A 
ATOM     30  N   UNL d   1      -4.962  -2.717  -4.926  0.00  0.00    -0.292 N 
ATOM     31  N   UNL d   1      -5.569  -3.400  -5.882  0.00  0.00    -0.061 NA
ATOM     32  HN  UNL d   1      -5.430  -2.034  -4.330  1.00  0.00     0.183 HD
ATOM     33  S   UNL d   1      -4.544  -4.458  -6.672  0.00  0.00    -0.010 SA
ATOM     34  C   UNL d   1      -3.188  -4.011  -5.718  0.00  0.00     0.096 A 
ENDBRANCH  26  29
ENDBRANCH   3  23
TORSDOF 6
