REMARK  2 active torsions:
REMARK  status: ('A' for Active; 'I' for Inactive)
REMARK    1  A    between atoms: C_8  and  N_1 
REMARK    2  A    between atoms: C_10  and  C_8 
ROOT
ATOM      1  N   UNL d   1       3.272  -1.145  -0.503  0.00  0.00    -0.246 N 
ATOM      2  C   UNL d   1       4.463  -0.865   0.126  0.00  0.00     0.210 A 
ATOM      3  N   UNL d   1       3.431  -0.947  -1.855  0.00  0.00    -0.223 N 
ATOM      4  HN  UNL d   1       2.706  -1.078  -2.562  1.00  0.00     0.210 HD
ATOM      5  N   UNL d   1       4.625  -0.574  -2.084  0.00  0.00    -0.226 N 
ATOM      6  HN  UNL d   1       5.013  -0.358  -3.002  1.00  0.00     0.210 HD
ATOM      7  N   UNL d   1       5.298  -0.511  -0.906  0.00  0.00    -0.259 N 
ATOM      8  S   UNL d   1       4.880  -0.896   1.724  0.00  0.00    -0.038 SA
ATOM      9  H   UNL d   1       6.262  -0.221  -0.855  0.00  0.00     0.191 HD
ENDROOT
BRANCH   1  10
ATOM     10  C   UNL d   1       1.988  -1.516   0.051  0.00  0.00     0.191 C 
BRANCH  10  11
ATOM     11  C   UNL d   1       1.722  -3.001  -0.009  0.00  0.00    -0.038 A 
ATOM     12  C   UNL d   1       2.085  -3.836   1.060  0.00  0.00     0.012 A 
ATOM     13  C   UNL d   1       1.802  -5.202   1.018  0.00  0.00     0.043 A 
ATOM     14  C   UNL d   1       1.163  -5.737  -0.093  0.00  0.00     0.116 A 
ATOM     15  C   UNL d   1       0.816  -4.934  -1.172  0.00  0.00     0.043 A 
ATOM     16  F   UNL d   1       0.875  -7.045  -0.124  0.00  0.00    -0.206 F 
ATOM     17  C   UNL d   1       1.100  -3.568  -1.134  0.00  0.00     0.012 A 
ENDBRANCH  10  11
ENDBRANCH   1  10
TORSDOF 2
