REMARK  3 active torsions:
REMARK  status: ('A' for Active; 'I' for Inactive)
REMARK    1  A    between atoms: C_5  and  N_1 
REMARK    2  A    between atoms: C_10  and  C_2 
REMARK    3  A    between atoms: C_7  and  C_5 
ROOT
ATOM      1  N   UNL d   1      -0.451  -1.213   0.119  0.00  0.00    -0.334 N 
ATOM      2  C   UNL d   1       0.960  -1.307  -0.190  0.00  0.00     0.183 A 
ATOM      3  S   UNL d   1       1.530   0.368  -0.606  0.00  0.00    -0.130 SA
ATOM      4  C   UNL d   1      -1.042   0.036   0.034  0.00  0.00     0.230 A 
ATOM      5  C   UNL d   1      -0.091   1.119  -0.405  0.00  0.00     0.179 A 
ATOM      6  O   UNL d   1      -2.225   0.261   0.278  0.00  0.00    -0.273 OA
ENDROOT
BRANCH   2   7
ATOM      7  C   UNL d   1       1.847  -1.879   0.901  0.00  0.00    -0.023 A 
ATOM      8  C   UNL d   1       3.041  -2.527   0.544  0.00  0.00     0.027 A 
ATOM      9  C   UNL d   1       3.893  -2.976   1.542  0.00  0.00     0.088 A 
ATOM     10  N   UNL d   1       3.640  -2.840   2.857  0.00  0.00    -0.375 N 
ATOM     11  C   UNL d   1       2.492  -2.211   3.190  0.00  0.00     0.088 A 
ATOM     12  HN  UNL d   1       4.283  -3.194   3.566  1.00  0.00     0.164 HD
ATOM     13  C   UNL d   1       1.583  -1.717   2.268  0.00  0.00     0.027 A 
ENDBRANCH   2   7
BRANCH   1  14
ATOM     14  C   UNL d   1      -1.235  -2.382   0.488  0.00  0.00     0.132 C 
BRANCH  14  15
ATOM     15  C   UNL d   1      -2.071  -3.003  -0.595  0.00  0.00     0.004 A 
ATOM     16  C   UNL d   1      -1.461  -3.579  -1.849  0.00  0.00     0.007 A 
ATOM     17  C   UNL d   1      -2.375  -2.388  -1.942  0.00  0.00     0.007 A 
ENDBRANCH  14  15
ENDBRANCH   1  14
TORSDOF 3
