REMARK  8 active torsions:
REMARK  status: ('A' for Active; 'I' for Inactive)
REMARK    1  A    between atoms: N_4  and  C_1 
REMARK    2  A    between atoms: N_22  and  C_5 
REMARK    3  A    between atoms: C_13  and  C_6 
REMARK    4  A    between atoms: C_7  and  S_14 
REMARK    5  A    between atoms: C_8  and  C_15 
REMARK    6  A    between atoms: S_14  and  C_9 
REMARK    7  A    between atoms: O_26  and  C_13 
REMARK    8  A    between atoms: C_27  and  O_26 
ROOT
ATOM      1  N   UNL d   1       3.520  -3.534  -1.061  0.00  0.00    -0.327 N 
ATOM      2  HN  UNL d   1       3.020  -3.844  -1.894  1.00  0.00     0.169 HD
ATOM      3  C   UNL d   1       4.867  -3.535  -1.009  0.00  0.00     0.097 A 
ATOM      4  C   UNL d   1       5.561  -3.104   0.107  0.00  0.00     0.092 A 
ATOM      5  C   UNL d   1       2.862  -3.107   0.033  0.00  0.00     0.150 A 
ATOM      6  N   UNL d   1       3.442  -2.708   1.174  0.00  0.00    -0.345 N 
ATOM      7  HN  UNL d   1       2.897  -2.418   1.986  1.00  0.00     0.167 HD
ATOM      8  C   UNL d   1       4.791  -2.713   1.183  0.00  0.00     0.111 A 
ENDROOT
BRANCH   5   9
ATOM      9  S   UNL d   1       1.097  -2.965  -0.058  0.00  0.00    -0.052 SA
BRANCH   9  10
ATOM     10  C   UNL d   1       0.592  -4.605   0.427  0.00  0.00     0.041 A 
ATOM     11  C   UNL d   1       0.231  -4.990   1.725  0.00  0.00     0.120 A 
ATOM     12  C   UNL d   1      -0.214  -6.291   2.024  0.00  0.00     0.053 A 
ATOM     13  C   UNL d   1      -0.320  -7.245   1.002  0.00  0.00     0.050 A 
ATOM     14  C   UNL d   1       0.039  -6.871  -0.302  0.00  0.00     0.017 A 
ATOM     15  C   UNL d   1       0.487  -5.573  -0.583  0.00  0.00     0.022 A 
BRANCH  11  16
ATOM     16  N   UNL d   1       0.279  -4.048   2.827  0.00  0.00    -0.114 N 
ATOM     17  O   UNL d   1      -0.518  -3.102   2.801  0.00  0.00    -0.532 OA
ATOM     18  O   UNL d   1       1.060  -4.314   3.751  0.00  0.00    -0.532 OA
ENDBRANCH  11  16
BRANCH  13  19
ATOM     19  C   UNL d   1      -0.825  -8.643   1.275  0.00  0.00     0.417 C 
ATOM     20  F   UNL d   1      -1.117  -8.866   2.585  0.00  0.00    -0.166 F 
ATOM     21  F   UNL d   1      -1.963  -8.924   0.583  0.00  0.00    -0.166 F 
ATOM     22  F   UNL d   1       0.077  -9.598   0.921  0.00  0.00    -0.166 F 
ENDBRANCH  13  19
ENDBRANCH   9  10
ENDBRANCH   5   9
BRANCH   3  23
ATOM     23  N   UNL d   1       5.504  -3.890  -2.197  0.00  0.00    -0.288 NA
ATOM     24  H   UNL d   1       4.831  -4.262  -2.860  0.00  0.00     0.125 HD
ATOM     25  H   UNL d   1       6.319  -4.487  -2.056  0.00  0.00     0.125 HD
ENDBRANCH   3  23
BRANCH   4  26
ATOM     26  C   UNL d   1       7.024  -3.154   0.202  0.00  0.00     0.298 C 
ATOM     27  O   UNL d   1       7.716  -3.994  -0.350  0.00  0.00    -0.259 OA
BRANCH  26  28
ATOM     28  O   UNL d   1       7.444  -2.181   1.050  0.00  0.00    -0.318 OA
BRANCH  28  29
ATOM     29  C   UNL d   1       8.802  -2.272   1.504  0.00  0.00     0.174 C 
ATOM     30  C   UNL d   1       8.809  -3.055   2.805  0.00  0.00     0.034 C 
ENDBRANCH  28  29
ENDBRANCH  26  28
ENDBRANCH   4  26
TORSDOF 8
