REMARK  1 active torsions:
REMARK  status: ('A' for Active; 'I' for Inactive)
REMARK    1  A    between atoms: C_11  and  C_7 
ROOT
ATOM      1  N   UNL d   1      -0.297  -0.600  -0.017  0.00  0.00    -0.204 N 
ATOM      2  C   UNL d   1      -0.256   0.780  -0.015  0.00  0.00     0.133 A 
ATOM      3  N   UNL d   1      -1.571  -1.071  -0.020  0.00  0.00    -0.293 N 
ATOM      4  HN  UNL d   1      -1.875  -2.044  -0.026  1.00  0.00     0.187 HD
ATOM      5  C   UNL d   1      -1.553   1.216  -0.018  0.00  0.00     0.077 A 
ATOM      6  C   UNL d   1       0.842  -1.423  -0.010  0.00  0.00     0.270 A 
ATOM      7  C   UNL d   1      -2.340   0.029  -0.015  0.00  0.00     0.037 A 
ATOM      8  C   UNL d   1       2.130  -0.674  -0.001  0.00  0.00     0.101 A 
ATOM      9  N   UNL d   1       0.946   1.397  -0.007  0.00  0.00    -0.345 N 
ATOM     10  C   UNL d   1       2.129   0.673   0.002  0.00  0.00     0.012 A 
ATOM     11  O   UNL d   1       0.774  -2.646  -0.010  0.00  0.00    -0.266 OA
ATOM     12  C   UNL d   1       3.411   1.458   0.012  0.00  0.00     0.068 C 
ATOM     13  H   UNL d   1       1.028   2.413   0.002  0.00  0.00     0.167 HD
ENDROOT
BRANCH   7  14
ATOM     14  C   UNL d   1      -3.859  -0.069   0.013  0.00  0.00    -0.007 C 
ATOM     15  C   UNL d   1      -4.346  -1.534   0.011  0.00  0.00     0.021 C 
ATOM     16  C   UNL d   1      -4.403   0.616   1.284  0.00  0.00     0.021 C 
ATOM     17  C   UNL d   1      -4.463   0.633  -1.220  0.00  0.00     0.021 C 
ENDBRANCH   7  14
TORSDOF 1
