REMARK  6 active torsions:
REMARK  status: ('A' for Active; 'I' for Inactive)
REMARK    1  A    between atoms: N_2  and  C_1 
REMARK    2  A    between atoms: N_8  and  C_1 
REMARK    3  A    between atoms: C_3  and  N_2 
REMARK    4  A    between atoms: N_5  and  N_8 
REMARK    5  A    between atoms: C_14  and  C_13 
REMARK    6  A    between atoms: O_21  and  C_16 
ROOT
ATOM      1  N   UNL d   1       0.657   1.323   0.427  0.00  0.00    -0.277 N 
ATOM      2  H   UNL d   1       1.217   2.143   0.642  0.00  0.00     0.189 HD
ENDROOT
BRANCH   1   3
ATOM      3  N   UNL d   1      -0.628   1.235   0.897  0.00  0.00    -0.309 N 
ATOM      4  C   UNL d   1      -0.947   2.247   1.647  0.00  0.00     0.118 C 
ATOM      5  HN  UNL d   1      -1.261   0.464   0.682  1.00  0.00     0.186 HD
BRANCH   4   6
ATOM      6  C   UNL d   1      -2.288   2.472   2.223  0.00  0.00    -0.019 A 
ATOM      7  C   UNL d   1      -3.314   1.536   2.091  0.00  0.00     0.015 A 
ATOM      8  C   UNL d   1      -4.575   1.819   2.622  0.00  0.00     0.037 A 
ATOM      9  C   UNL d   1      -4.800   3.031   3.274  0.00  0.00     0.065 A 
ATOM     10  C   UNL d   1      -3.781   3.968   3.414  0.00  0.00     0.037 A 
ATOM     11  C   UNL d   1      -2.519   3.685   2.886  0.00  0.00     0.015 A 
BRANCH   9  12
ATOM     12  O   UNL d   1      -6.049   3.267   3.764  0.00  0.00    -0.361 OA
ATOM     13  H   UNL d   1      -6.066   4.151   4.172  0.00  0.00     0.217 HD
ENDBRANCH   9  12
ENDBRANCH   4   6
ENDBRANCH   1   3
BRANCH   1  14
ATOM     14  C   UNL d   1       1.241   0.414  -0.415  0.00  0.00     0.186 C 
ATOM     15  S   UNL d   1       2.772   0.760  -0.990  0.00  0.00    -0.040 SA
BRANCH  14  16
ATOM     16  N   UNL d   1       0.493  -0.699  -0.684  0.00  0.00    -0.361 N 
ATOM     17  H   UNL d   1      -0.374  -0.717  -0.155  0.00  0.00     0.162 HD
BRANCH  16  18
ATOM     18  C   UNL d   1       0.996  -1.922  -1.290  0.00  0.00     0.088 C 
ATOM     19  C   UNL d   1       1.948  -2.726  -0.370  0.00  0.00     0.009 C 
ATOM     20  C   UNL d   1       1.933  -4.096  -1.048  0.00  0.00     0.011 C 
ATOM     21  C   UNL d   1       1.262  -3.038   0.975  0.00  0.00     0.007 C 
ATOM     22  C   UNL d   1       0.416  -4.239  -0.927  0.00  0.00    -0.012 C 
ATOM     23  C   UNL d   1      -0.093  -2.962  -1.628  0.00  0.00     0.030 C 
ATOM     24  C   UNL d   1       0.210  -4.087   0.589  0.00  0.00     0.005 C 
ENDBRANCH  16  18
ENDBRANCH  14  16
ENDBRANCH   1  14
TORSDOF 6
