REMARK  4 active torsions:
REMARK  status: ('A' for Active; 'I' for Inactive)
REMARK    1  A    between atoms: C_12  and  N_1 
REMARK    2  A    between atoms: O_14  and  C_7 
REMARK    3  A    between atoms: O_15  and  C_8 
REMARK    4  A    between atoms: O_16  and  C_10 
ROOT
ATOM      1  N   UNL d   1       2.470  -0.776   0.023  0.00  0.00    -0.254 N 
ATOM      2  C   UNL d   1       1.247  -1.457  -0.058  0.00  0.00     0.267 A 
ATOM      3  C   UNL d   1       2.551   0.611   0.033  0.00  0.00     0.186 A 
ATOM      4  C   UNL d   1       0.013  -0.636  -0.036  0.00  0.00     0.065 A 
ATOM      5  C   UNL d   1       0.087   0.755  -0.001  0.00  0.00     0.087 A 
ATOM      6  N   UNL d   1       1.375   1.307   0.025  0.00  0.00    -0.329 N 
ATOM      7  C   UNL d   1      -1.107   1.523   0.009  0.00  0.00     0.132 A 
ATOM      8  C   UNL d   1      -2.372   0.849  -0.003  0.00  0.00     0.137 A 
ATOM      9  C   UNL d   1      -1.223  -1.285  -0.040  0.00  0.00     0.059 A 
ATOM     10  C   UNL d   1      -2.414  -0.562  -0.020  0.00  0.00     0.105 A 
ATOM     11  S   UNL d   1       3.933   1.574  -0.010  0.00  0.00    -0.040 SA
ATOM     12  O   UNL d   1       1.124  -2.680  -0.122  0.00  0.00    -0.267 OA
ATOM     13  H   UNL d   1       1.520   2.299   0.024  0.00  0.00     0.168 HD
ENDROOT
BRANCH   1  14
ATOM     14  C   UNL d   1       3.647  -1.586   0.095  0.00  0.00     0.045 A 
ATOM     15  C   UNL d   1       3.963  -2.465  -0.950  0.00  0.00     0.030 A 
ATOM     16  C   UNL d   1       5.087  -3.288  -0.861  0.00  0.00     0.002 A 
ATOM     17  C   UNL d   1       5.889  -3.254   0.279  0.00  0.00     0.000 A 
ATOM     18  C   UNL d   1       5.579  -2.387   1.325  0.00  0.00     0.002 A 
ATOM     19  C   UNL d   1       4.465  -1.550   1.234  0.00  0.00     0.030 A 
ENDBRANCH   1  14
BRANCH  10  20
ATOM     20  O   UNL d   1      -3.501  -1.397  -0.024  0.00  0.00    -0.353 OA
ATOM     21  C   UNL d   1      -4.816  -0.862  -0.004  0.00  0.00     0.210 C 
ENDBRANCH  10  20
BRANCH   7  22
ATOM     22  O   UNL d   1      -1.209   2.884   0.035  0.00  0.00    -0.351 OA
ATOM     23  C   UNL d   1      -0.136   3.797   0.029  0.00  0.00     0.210 C 
ENDBRANCH   7  22
BRANCH   8  24
ATOM     24  O   UNL d   1      -3.604   1.453   0.004  0.00  0.00    -0.351 OA
ATOM     25  C   UNL d   1      -3.772   2.860   0.006  0.00  0.00     0.210 C 
ENDBRANCH   8  24
TORSDOF 4
