REMARK  4 active torsions:
REMARK  status: ('A' for Active; 'I' for Inactive)
REMARK    1  A    between atoms: C_5  and  C_1 
REMARK    2  A    between atoms: C_15  and  N_4 
REMARK    3  A    between atoms: N_9  and  N_16 
REMARK    4  A    between atoms: N_16  and  C_22 
ROOT
ATOM      1  C   UNL d   1       7.564   4.585  -0.855  0.00  0.00     0.209 C 
ATOM      2  N   UNL d   1       6.557   3.765  -0.813  0.00  0.00    -0.282 N 
ATOM      3  HN  UNL d   1       6.639   2.825  -1.201  1.00  0.00     0.188 HD
ATOM      4  N   UNL d   1       7.370   6.995   0.097  0.00  0.00    -0.189 NA
ATOM      5  N   UNL d   1       9.762   3.647  -1.870  0.00  0.00    -0.189 NA
ATOM      6  C   UNL d   1       7.467   5.925  -0.345  0.00  0.00     0.130 C 
ATOM      7  C   UNL d   1       8.766   4.049  -1.427  0.00  0.00     0.130 C 
ENDROOT
BRANCH   2   8
ATOM      8  N   UNL d   1       5.386   4.181  -0.241  0.00  0.00    -0.299 N 
ATOM      9  H   UNL d   1       5.404   4.816   0.561  0.00  0.00     0.187 HD
BRANCH   8  10
ATOM     10  C   UNL d   1       4.326   3.250  -0.157  0.00  0.00     0.048 A 
ATOM     11  C   UNL d   1       3.363   3.407   0.847  0.00  0.00     0.033 A 
ATOM     12  C   UNL d   1       2.256   2.556   0.930  0.00  0.00     0.034 A 
ATOM     13  C   UNL d   1       2.077   1.538  -0.014  0.00  0.00     0.056 A 
ATOM     14  C   UNL d   1       3.041   1.364  -1.017  0.00  0.00     0.034 A 
ATOM     15  C   UNL d   1       4.154   2.215  -1.085  0.00  0.00     0.033 A 
BRANCH  13  16
ATOM     16  N   UNL d   1       0.924   0.701   0.024  0.00  0.00    -0.267 N 
ATOM     17  N   UNL d   1       0.755  -0.311  -0.865  0.00  0.00    -0.290 N 
ATOM     18  C   UNL d   1      -0.427  -0.876  -0.549  0.00  0.00     0.134 A 
ATOM     19  HN  UNL d   1       1.389  -0.586  -1.615  1.00  0.00     0.187 HD
ATOM     20  C   UNL d   1      -1.028  -0.208   0.545  0.00  0.00     0.055 A 
ATOM     21  C   UNL d   1      -0.144   0.783   0.891  0.00  0.00     0.119 A 
BRANCH  18  22
ATOM     22  C   UNL d   1      -1.009  -2.061  -1.273  0.00  0.00     0.434 C 
ATOM     23  F   UNL d   1      -0.254  -2.499  -2.314  0.00  0.00    -0.165 F 
ATOM     24  F   UNL d   1      -1.174  -3.122  -0.435  0.00  0.00    -0.165 F 
ATOM     25  F   UNL d   1      -2.244  -1.781  -1.776  0.00  0.00    -0.165 F 
ENDBRANCH  18  22
ENDBRANCH  13  16
ENDBRANCH   8  10
ENDBRANCH   2   8
TORSDOF 4
