REMARK  7 active torsions:
REMARK  status: ('A' for Active; 'I' for Inactive)
REMARK    1  A    between atoms: N_8  and  C_1 
REMARK    2  A    between atoms: C_2  and  C_15 
REMARK    3  A    between atoms: O_20  and  C_4 
REMARK    4  A    between atoms: O_21  and  C_5 
REMARK    5  A    between atoms: O_22  and  C_7 
REMARK    6  A    between atoms: C_12  and  N_8 
REMARK    7  A    between atoms: N_9  and  N_14 
ROOT
ATOM      1  N   UNL d   1       3.410  -1.042  -1.137  0.00  0.00    -0.309 N 
ATOM      2  HN  UNL d   1       3.152  -0.849  -2.104  1.00  0.00     0.186 HD
ATOM      3  C   UNL d   1       4.501  -1.647  -0.783  0.00  0.00     0.121 C 
ENDROOT
BRANCH   1   4
ATOM      4  N   UNL d   1       2.651  -0.697  -0.064  0.00  0.00    -0.277 N 
ATOM      5  C   UNL d   1       1.328  -0.455  -0.036  0.00  0.00     0.186 C 
ATOM      6  S   UNL d   1       0.627  -0.082   1.438  0.00  0.00    -0.040 SA
ATOM      7  H   UNL d   1       3.101  -0.650   0.849  0.00  0.00     0.189 HD
BRANCH   5   8
ATOM      8  N   UNL d   1       0.520  -0.523  -1.106  0.00  0.00    -0.361 N 
ATOM      9  H   UNL d   1      -0.422  -0.260  -0.846  0.00  0.00     0.162 HD
BRANCH   8  10
ATOM     10  C   UNL d   1       0.789  -0.481  -2.552  0.00  0.00     0.085 C 
ATOM     11  C   UNL d   1       1.180   0.957  -2.936  0.00  0.00     0.034 C 
ATOM     12  C   UNL d   1       1.011   1.324  -4.423  0.00  0.00    -0.045 C 
ATOM     13  C   UNL d   1       1.173   2.849  -4.578  0.00  0.00     0.015 C 
ATOM     14  C   UNL d   1       2.085   0.644  -5.292  0.00  0.00     0.015 C 
ATOM     15  C   UNL d   1      -0.403   0.921  -4.884  0.00  0.00     0.013 C 
ATOM     16  C   UNL d   1      -0.658  -0.580  -4.718  0.00  0.00    -0.016 C 
ATOM     17  C   UNL d   1      -0.483  -0.998  -3.257  0.00  0.00     0.029 C 
ATOM     18  C   UNL d   1      -2.062  -0.941  -5.209  0.00  0.00     0.010 C 
ENDBRANCH   8  10
ENDBRANCH   5   8
ENDBRANCH   1   4
BRANCH   3  19
ATOM     19  C   UNL d   1       5.566  -2.031  -1.714  0.00  0.00     0.017 A 
ATOM     20  C   UNL d   1       6.317  -3.180  -1.462  0.00  0.00     0.082 A 
ATOM     21  C   UNL d   1       7.519  -3.386  -2.145  0.00  0.00     0.077 A 
ATOM     22  C   UNL d   1       7.947  -2.475  -3.119  0.00  0.00     0.104 A 
ATOM     23  C   UNL d   1       7.112  -1.389  -3.455  0.00  0.00     0.102 A 
ATOM     24  C   UNL d   1       5.936  -1.157  -2.731  0.00  0.00     0.055 A 
BRANCH  20  25
ATOM     25  O   UNL d   1       5.978  -4.102  -0.504  0.00  0.00    -0.355 OA
ATOM     26  C   UNL d   1       4.783  -4.811  -0.858  0.00  0.00     0.210 C 
ENDBRANCH  20  25
BRANCH  22  27
ATOM     27  O   UNL d   1       9.156  -2.567  -3.758  0.00  0.00    -0.353 OA
ATOM     28  C   UNL d   1      10.139  -3.430  -3.197  0.00  0.00     0.210 C 
ENDBRANCH  22  27
BRANCH  23  29
ATOM     29  O   UNL d   1       7.375  -0.424  -4.394  0.00  0.00    -0.353 OA
ATOM     30  C   UNL d   1       8.028  -0.872  -5.577  0.00  0.00     0.210 C 
ENDBRANCH  23  29
ENDBRANCH   3  19
TORSDOF 7
