REMARK  7 active torsions:
REMARK  status: ('A' for Active; 'I' for Inactive)
REMARK    1  A    between atoms: N_6  and  N_1 
REMARK    2  A    between atoms: C_11  and  C_2 
REMARK       I    between atoms: C_7  and  N_6 
REMARK    3  A    between atoms: C_9  and  C_7 
REMARK       I    between atoms: N_17  and  C_11 
REMARK    4  A    between atoms: C_27  and  N_17 
REMARK    5  A    between atoms: C_21  and  C_27 
REMARK    6  A    between atoms: C_28  and  C_21 
REMARK    7  A    between atoms: O_24  and  C_28 
ROOT
ATOM      1  N   UNL d   1       2.632  -0.814  -0.341  0.00  0.00    -0.195 N 
ATOM      2  C   UNL d   1       2.550   0.168  -1.320  0.00  0.00     0.199 C 
ATOM      3  N   UNL d   1       1.451   0.809  -1.603  0.00  0.00    -0.336 N 
ATOM      4  HN  UNL d   1       1.426   1.554  -2.299  1.00  0.00     0.168 HD
ATOM      5  C   UNL d   1       1.512  -1.443   0.170  0.00  0.00     0.281 C 
ATOM      6  C   UNL d   1       0.232  -0.805  -0.199  0.00  0.00     0.060 C 
ATOM      7  C   UNL d   1       0.297   0.412  -0.890  0.00  0.00     0.049 C 
ATOM      8  O   UNL d   1       1.540  -2.432   0.897  0.00  0.00    -0.265 OA
ATOM      9  C   UNL d   1      -0.983  -1.320   0.267  0.00  0.00     0.019 C 
ATOM     10  C   UNL d   1      -0.851   1.205  -0.923  0.00  0.00     0.030 C 
ATOM     11  C   UNL d   1      -2.137  -0.551   0.149  0.00  0.00     0.001 C 
ATOM     12  C   UNL d   1      -2.058   0.734  -0.389  0.00  0.00     0.002 C 
ENDROOT
BRANCH   1  13
ATOM     13  N   UNL d   1       3.828  -0.939   0.403  0.00  0.00    -0.254 N 
ATOM     14  C   UNL d   1       4.281   0.194   1.074  0.00  0.00     0.276 C 
ATOM     15  O   UNL d   1       3.653   1.245   1.061  0.00  0.00    -0.266 OA
ATOM     16  H   UNL d   1       4.258  -1.858   0.445  0.00  0.00     0.191 HD
BRANCH  14  17
ATOM     17  C   UNL d   1       5.596   0.113   1.757  0.00  0.00     0.110 A 
ATOM     18  C   UNL d   1       6.393  -1.029   1.727  0.00  0.00     0.135 A 
ATOM     19  F   UNL d   1       5.960  -2.156   1.137  0.00  0.00    -0.205 F 
ATOM     20  C   UNL d   1       7.667  -1.041   2.298  0.00  0.00     0.043 A 
ATOM     21  C   UNL d   1       8.165   0.101   2.921  0.00  0.00     0.006 A 
ATOM     22  C   UNL d   1       7.375   1.246   2.985  0.00  0.00     0.043 A 
ATOM     23  C   UNL d   1       6.103   1.247   2.410  0.00  0.00     0.135 A 
ATOM     24  F   UNL d   1       5.396   2.383   2.499  0.00  0.00    -0.205 F 
ENDBRANCH  14  17
ENDBRANCH   1  13
BRANCH   2  25
ATOM     25  C   UNL d   1       3.839   0.401  -2.121  0.00  0.00     0.287 C 
ATOM     26  O   UNL d   1       4.654  -0.508  -2.237  0.00  0.00    -0.264 OA
ATOM     27  N   UNL d   1       3.993   1.646  -2.689  0.00  0.00    -0.354 N 
ATOM     28  H   UNL d   1       3.279   2.338  -2.483  0.00  0.00     0.162 HD
BRANCH  27  29
ATOM     29  C   UNL d   1       5.243   2.030  -3.316  0.00  0.00     0.125 C 
BRANCH  29  30
ATOM     30  C   UNL d   1       5.454   1.478  -4.726  0.00  0.00     0.046 C 
BRANCH  30  31
ATOM     31  C   UNL d   1       4.432   1.988  -5.732  0.00  0.00     0.168 C 
BRANCH  31  32
ATOM     32  O   UNL d   1       4.776   1.476  -7.021  0.00  0.00    -0.396 OA
ATOM     33  C   UNL d   1       3.837   1.867  -8.014  0.00  0.00     0.201 C 
ENDBRANCH  31  32
ENDBRANCH  30  31
ENDBRANCH  29  30
ENDBRANCH  27  29
ENDBRANCH   2  25
TORSDOF 7
