REMARK  4 active torsions:
REMARK  status: ('A' for Active; 'I' for Inactive)
REMARK    1  A    between atoms: N_15  and  C_4 
REMARK    2  A    between atoms: C_13  and  C_5 
REMARK    3  A    between atoms: C_16  and  C_10 
REMARK    4  A    between atoms: O_22  and  C_19 
ROOT
ATOM      1  C   UNL d   1      -1.723  -0.370   0.203  0.00  0.00     0.080 A 
ATOM      2  C   UNL d   1       0.786  -0.429   0.108  0.00  0.00     0.031 A 
ATOM      3  C   UNL d   1       0.758   0.907  -0.022  0.00  0.00     0.066 A 
ATOM      4  C   UNL d   1      -1.648   0.972   0.078  0.00  0.00     0.138 A 
ATOM      5  C   UNL d   1      -0.480  -1.249   0.168  0.00  0.00     0.105 A 
ATOM      6  O   UNL d   1      -0.430   1.614  -0.095  0.00  0.00    -0.301 OA
ATOM      7  C   UNL d   1       2.101  -1.119   0.221  0.00  0.00     0.159 C 
ATOM      8  C   UNL d   1      -2.983  -1.006   0.388  0.00  0.00     0.100 C 
ATOM      9  C   UNL d   1       1.969   1.786  -0.089  0.00  0.00     0.075 C 
ATOM     10  C   UNL d   1       3.249   1.099   0.410  0.00  0.00     0.032 C 
ATOM     11  C   UNL d   1       3.353  -0.336  -0.110  0.00  0.00     0.093 C 
ATOM     12  N   UNL d   1      -4.022  -1.511   0.524  0.00  0.00    -0.191 NA
ATOM     13  O   UNL d   1       2.155  -2.306   0.533  0.00  0.00    -0.293 OA
ENDROOT
BRANCH   4  14
ATOM     14  N   UNL d   1      -2.707   1.848   0.096  0.00  0.00    -0.282 NA
ATOM     15  H   UNL d   1      -3.606   1.461  -0.186  0.00  0.00     0.126 HD
ATOM     16  H   UNL d   1      -2.488   2.729  -0.362  0.00  0.00     0.126 HD
ENDBRANCH   4  14
BRANCH   5  17
ATOM     17  C   UNL d   1      -0.563  -2.265  -0.974  0.00  0.00    -0.044 A 
ATOM     18  C   UNL d   1      -0.630  -3.637  -0.681  0.00  0.00     0.011 A 
ATOM     19  C   UNL d   1      -0.728  -4.587  -1.704  0.00  0.00     0.037 A 
ATOM     20  C   UNL d   1      -0.761  -4.178  -3.035  0.00  0.00     0.068 A 
ATOM     21  C   UNL d   1      -0.708  -2.816  -3.335  0.00  0.00     0.037 A 
ATOM     22  C   UNL d   1      -0.601  -1.865  -2.318  0.00  0.00     0.011 A 
BRANCH  20  23
ATOM     23  O   UNL d   1      -0.882  -5.007  -4.116  0.00  0.00    -0.356 OA
ATOM     24  C   UNL d   1      -0.393  -6.332  -3.936  0.00  0.00     0.210 C 
ENDBRANCH  20  23
ENDBRANCH   5  17
BRANCH  10  25
ATOM     25  C   UNL d   1       4.462   1.940   0.051  0.00  0.00    -0.053 A 
ATOM     26  C   UNL d   1       4.828   2.156  -1.288  0.00  0.00     0.007 A 
ATOM     27  C   UNL d   1       5.897   2.992  -1.610  0.00  0.00     0.001 A 
ATOM     28  C   UNL d   1       6.620   3.617  -0.599  0.00  0.00     0.000 A 
ATOM     29  C   UNL d   1       6.280   3.401   0.735  0.00  0.00     0.001 A 
ATOM     30  C   UNL d   1       5.207   2.568   1.060  0.00  0.00     0.007 A 
ENDBRANCH  10  25
TORSDOF 4
