REMARK  3 active torsions:
REMARK  status: ('A' for Active; 'I' for Inactive)
REMARK    1  A    between atoms: N_4  and  C_1 
REMARK       I    between atoms: C_5  and  N_4 
REMARK    2  A    between atoms: C_10  and  C_5 
REMARK    3  A    between atoms: O_13  and  C_8 
ROOT
ATOM      1  C   UNL d   1      -0.386   3.042   0.014  0.00  0.00     0.687 A 
ATOM      2  N   UNL d   1      -0.594   4.307  -0.352  0.00  0.00    -0.170 N 
ATOM      3  HN  UNL d   1      -1.518   4.648  -0.618  1.00  0.00     0.186 HD
ATOM      4  N   UNL d   1       0.815   2.541   0.355  0.00  0.00    -0.196 N 
ATOM      5  HN  UNL d   1       0.930   1.559   0.604  1.00  0.00     0.184 HD
ATOM      6  C   UNL d   1       0.475   5.098  -0.349  0.00  0.00     0.157 A 
ATOM      7  C   UNL d   1       1.739   4.720  -0.003  0.00  0.00     0.081 A 
ATOM      8  C   UNL d   1       1.867   3.397   0.354  0.00  0.00     0.026 A 
ATOM      9  C   UNL d   1       3.193   2.851   0.791  0.00  0.00     0.069 C 
ENDROOT
BRANCH   1  10
ATOM     10  N   UNL d   1      -1.438   2.134   0.073  0.00  0.00    -0.159 N 
ATOM     11  C   UNL d   1      -2.767   2.463  -0.059  0.00  0.00     0.243 C 
ATOM     12  O   UNL d   1      -3.194   3.597  -0.260  0.00  0.00    -0.272 OA
ATOM     13  H   UNL d   1      -1.142   1.203   0.315  0.00  0.00     0.187 HD
BRANCH  11  14
ATOM     14  C   UNL d   1      -3.744   1.266   0.040  0.00  0.00     0.031 C 
ATOM     15  C   UNL d   1      -3.526   0.471   1.335  0.00  0.00     0.025 C 
ATOM     16  C   UNL d   1      -5.190   1.802   0.041  0.00  0.00     0.025 C 
ATOM     17  C   UNL d   1      -3.558   0.352  -1.179  0.00  0.00     0.025 C 
ENDBRANCH  11  14
ENDBRANCH   1  10
BRANCH   6  18
ATOM     18  O   UNL d   1       0.209   6.374  -0.723  0.00  0.00    -0.346 OA
ATOM     19  H   UNL d   1      -0.752   6.303  -0.880  0.00  0.00     0.219 HD
ENDBRANCH   6  18
TORSDOF 3
