REMARK  2 active torsions:
REMARK  status: ('A' for Active; 'I' for Inactive)
REMARK    1  A    between atoms: C_9  and  C_6 
REMARK    2  A    between atoms: C_18  and  C_11 
ROOT
ATOM      1  N   UNL d   1      -1.667   1.517  -0.246  0.00  0.00    -0.305 N 
ATOM      2  HN  UNL d   1      -1.363   2.411  -0.631  1.00  0.00     0.186 HD
ATOM      3  C   UNL d   1      -0.932   0.496   0.074  0.00  0.00     0.043 C 
ATOM      4  N   UNL d   1      -2.926   1.125   0.045  0.00  0.00    -0.322 N 
ATOM      5  C   UNL d   1      -1.679  -0.677   0.657  0.00  0.00     0.067 C 
ATOM      6  C   UNL d   1      -3.106  -0.333   0.209  0.00  0.00     0.144 C 
ATOM      7  C   UNL d   1       0.524   0.420  -0.006  0.00  0.00    -0.005 A 
ATOM      8  C   UNL d   1      -1.064  -2.042   0.394  0.00  0.00     0.018 C 
ATOM      9  C   UNL d   1       1.089  -0.845  -0.195  0.00  0.00    -0.046 A 
ATOM     10  C   UNL d   1       0.188  -2.019  -0.490  0.00  0.00     0.040 C 
ATOM     11  C   UNL d   1      -4.080   1.927  -0.299  0.00  0.00     0.171 C 
ATOM     12  C   UNL d   1       1.312   1.560   0.173  0.00  0.00     0.014 A 
ATOM     13  C   UNL d   1       2.482  -0.962  -0.200  0.00  0.00     0.008 A 
ATOM     14  C   UNL d   1       2.698   1.426   0.186  0.00  0.00     0.001 A 
ATOM     15  C   UNL d   1       3.280   0.168   0.006  0.00  0.00     0.001 A 
ENDROOT
BRANCH   6  16
ATOM     16  C   UNL d   1      -3.687  -1.022  -1.018  0.00  0.00    -0.033 A 
ATOM     17  C   UNL d   1      -3.063  -1.018  -2.272  0.00  0.00     0.010 A 
ATOM     18  C   UNL d   1      -3.731  -1.500  -3.408  0.00  0.00     0.008 A 
ATOM     19  C   UNL d   1      -5.045  -1.984  -3.328  0.00  0.00    -0.055 A 
ATOM     20  C   UNL d   1      -5.637  -2.068  -2.062  0.00  0.00     0.008 A 
ATOM     21  C   UNL d   1      -4.968  -1.595  -0.926  0.00  0.00     0.010 A 
BRANCH  19  22
ATOM     22  C   UNL d   1      -5.856  -2.320  -4.571  0.00  0.00     0.010 C 
ATOM     23  C   UNL d   1      -5.939  -1.118  -5.521  0.00  0.00     0.015 C 
ATOM     24  C   UNL d   1      -5.331  -3.545  -5.319  0.00  0.00     0.015 C 
ENDBRANCH  19  22
ENDBRANCH   6  16
TORSDOF 2
