REMARK  6 active torsions:
REMARK  status: ('A' for Active; 'I' for Inactive)
REMARK       I    between atoms: C_7  and  N_1 
REMARK    1  A    between atoms: C_8  and  C_5 
REMARK    2  A    between atoms: C_23  and  C_6 
REMARK    3  A    between atoms: C_10  and  C_7 
REMARK    4  A    between atoms: C_9  and  C_8 
REMARK    5  A    between atoms: C_12  and  C_10 
REMARK    6  A    between atoms: C_27  and  C_23 
ROOT
ATOM      1  N   UNL d   1       0.009  -0.942  -0.024  0.00  0.00    -0.187 N 
ATOM      2  N   UNL d   1      -1.352  -0.646  -0.031  0.00  0.00    -0.296 N 
ATOM      3  HN  UNL d   1      -2.117  -1.320  -0.013  1.00  0.00     0.187 HD
ATOM      4  C   UNL d   1       0.803   0.221  -0.130  0.00  0.00     0.255 C 
ATOM      5  C   UNL d   1      -0.161   1.376   0.009  0.00  0.00     0.131 C 
ATOM      6  C   UNL d   1      -1.467   0.641  -0.066  0.00  0.00     0.018 C 
ATOM      7  C   UNL d   1       0.377  -2.298  -0.019  0.00  0.00     0.269 C 
ATOM      8  O   UNL d   1       2.006   0.329  -0.303  0.00  0.00    -0.270 OA
ATOM      9  O   UNL d   1      -0.437  -3.221  -0.054  0.00  0.00    -0.266 OA
ENDROOT
BRANCH   7  10
ATOM     10  C   UNL d   1       1.837  -2.602   0.041  0.00  0.00     0.078 C 
BRANCH  10  11
ATOM     11  C   UNL d   1       2.239  -3.879  -0.060  0.00  0.00     0.024 C 
ATOM     12  C   UNL d   1       3.609  -4.267  -0.005  0.00  0.00     0.004 A 
ATOM     13  S   UNL d   1       4.003  -5.941  -0.180  0.00  0.00    -0.102 SA
ATOM     14  C   UNL d   1       4.769  -3.525   0.171  0.00  0.00     0.019 A 
ATOM     15  C   UNL d   1       5.675  -5.655  -0.011  0.00  0.00     0.050 A 
ATOM     16  C   UNL d   1       5.953  -4.322   0.170  0.00  0.00     0.008 A 
ENDBRANCH  10  11
ENDBRANCH   7  10
BRANCH   6  17
ATOM     17  C   UNL d   1      -2.796   1.326  -0.212  0.00  0.00     0.054 C 
BRANCH  17  18
ATOM     18  C   UNL d   1      -2.911   2.118  -1.514  0.00  0.00     0.001 C 
ATOM     19  C   UNL d   1      -2.609   1.296  -2.760  0.00  0.00     0.005 C 
ENDBRANCH  17  18
ENDBRANCH   6  17
BRANCH   5  20
ATOM     20  C   UNL d   1       0.010   2.089   1.355  0.00  0.00     0.063 C 
BRANCH  20  21
ATOM     21  C   UNL d   1       1.398   2.673   1.513  0.00  0.00     0.003 A 
ATOM     22  C   UNL d   1       1.784   3.716   0.661  0.00  0.00     0.124 A 
ATOM     23  F   UNL d   1       0.884   4.245  -0.182  0.00  0.00    -0.205 F 
ATOM     24  C   UNL d   1       3.090   4.197   0.625  0.00  0.00     0.043 A 
ATOM     25  C   UNL d   1       4.047   3.646   1.470  0.00  0.00     0.005 A 
ATOM     26  C   UNL d   1       3.682   2.636   2.360  0.00  0.00     0.024 A 
ATOM     27  C   UNL d   1       2.368   2.152   2.384  0.00  0.00     0.043 A 
ATOM     28 CL   UNL d   1       2.017   0.870   3.488  0.00  0.00    -0.084 Cl
ENDBRANCH  20  21
ENDBRANCH   5  20
TORSDOF 6
