REMARK  5 active torsions:
REMARK  status: ('A' for Active; 'I' for Inactive)
REMARK    1  A    between atoms: C_12  and  C_1 
REMARK    2  A    between atoms: C_7  and  N_2 
REMARK    3  A    between atoms: C_8  and  C_11 
REMARK    4  A    between atoms: C_9  and  C_10 
REMARK    5  A    between atoms: O_25  and  N_16 
ROOT
ATOM      1  C   UNL d   1       3.045  -6.949   0.117  0.00  0.00     0.056 A 
ATOM      2  C   UNL d   1       3.436  -9.201  -0.743  0.00  0.00     0.050 A 
ATOM      3  C   UNL d   1       4.625  -8.420   1.248  0.00  0.00     0.050 A 
ATOM      4  C   UNL d   1       3.953  -7.189   1.155  0.00  0.00     0.047 A 
ATOM      5  C   UNL d   1       2.764  -7.971  -0.806  0.00  0.00     0.047 A 
ATOM      6  C   UNL d   1       4.370  -9.411   0.285  0.00  0.00     0.032 A 
ENDROOT
BRANCH   1   7
ATOM      7  N   UNL d   1       2.377  -5.700  -0.013  0.00  0.00    -0.242 N 
ATOM      8  C   UNL d   1       2.756  -4.418   0.362  0.00  0.00     0.058 A 
ATOM      9  C   UNL d   1       1.642  -3.635   0.069  0.00  0.00     0.094 A 
ATOM     10  C   UNL d   1       4.101  -3.999   0.832  0.00  0.00     0.072 C 
ATOM     11  N   UNL d   1       0.686  -4.425  -0.508  0.00  0.00    -0.280 N 
ATOM     12  N   UNL d   1       1.163  -5.652  -0.613  0.00  0.00    -0.014 NA
ATOM     13  HN  UNL d   1      -0.240  -4.118  -0.807  1.00  0.00     0.184 HD
BRANCH   9  14
ATOM     14  C   UNL d   1       1.452  -2.198   0.240  0.00  0.00     0.057 C 
ATOM     15  N   UNL d   1       2.428  -1.522   0.779  0.00  0.00    -0.272 N 
ATOM     16  HN  UNL d   1       3.301  -1.937   1.103  1.00  0.00     0.194 HD
ATOM     17  C   UNL d   1       0.163  -1.557  -0.223  0.00  0.00     0.072 C 
BRANCH  15  18
ATOM     18  O   UNL d   1       2.130  -0.156   0.859  0.00  0.00    -0.290 OA
ATOM     19  H   UNL d   1       2.946   0.218   1.241  0.00  0.00     0.244 HD
ENDBRANCH  15  18
ENDBRANCH   9  14
ENDBRANCH   1   7
BRANCH   3  20
ATOM     20  C   UNL d   1       5.603  -8.690   2.369  0.00  0.00     0.417 C 
ATOM     21  F   UNL d   1       5.739  -7.645   3.232  0.00  0.00    -0.166 F 
ATOM     22  F   UNL d   1       5.239  -9.759   3.128  0.00  0.00    -0.166 F 
ATOM     23  F   UNL d   1       6.854  -8.961   1.909  0.00  0.00    -0.166 F 
ENDBRANCH   3  20
BRANCH   2  24
ATOM     24  C   UNL d   1       3.180 -10.288  -1.763  0.00  0.00     0.417 C 
ATOM     25  F   UNL d   1       2.238  -9.961  -2.687  0.00  0.00    -0.166 F 
ATOM     26  F   UNL d   1       4.301 -10.603  -2.469  0.00  0.00    -0.166 F 
ATOM     27  F   UNL d   1       2.761 -11.447  -1.190  0.00  0.00    -0.166 F 
ENDBRANCH   2  24
TORSDOF 5
