REMARK  6 active torsions:
REMARK  status: ('A' for Active; 'I' for Inactive)
REMARK    1  A    between atoms: C_6  and  S_1 
REMARK    2  A    between atoms: C_9  and  S_1 
REMARK    3  A    between atoms: C_4  and  C_6 
REMARK    4  A    between atoms: C_12  and  C_5 
REMARK    5  A    between atoms: C_13  and  O_14 
REMARK    6  A    between atoms: O_14  and  C_17 
ROOT
ATOM      1  N   UNL d   1       1.331   0.939   2.738  0.00  0.00    -0.352 N 
ATOM      2  HN  UNL d   1       1.457  -0.047   2.509  1.00  0.00     0.166 HD
ATOM      3  C   UNL d   1       0.862   1.854   1.908  0.00  0.00     0.065 A 
ATOM      4  C   UNL d   1       1.629   1.513   3.968  0.00  0.00     0.049 A 
ATOM      5  S   UNL d   1       0.663   3.421   2.596  0.00  0.00    -0.085 SA
ATOM      6  C   UNL d   1       1.372   2.868   4.046  0.00  0.00     0.081 A 
ENDROOT
BRANCH   4   7
ATOM      7  C   UNL d   1       2.204   0.744   5.068  0.00  0.00    -0.009 A 
ATOM      8  C   UNL d   1       2.986  -0.388   4.804  0.00  0.00     0.016 A 
ATOM      9  C   UNL d   1       3.610  -1.091   5.846  0.00  0.00     0.038 A 
ATOM     10  C   UNL d   1       3.437  -0.679   7.168  0.00  0.00     0.074 A 
ATOM     11  C   UNL d   1       2.645   0.437   7.438  0.00  0.00     0.038 A 
ATOM     12  C   UNL d   1       2.023   1.135   6.402  0.00  0.00     0.016 A 
BRANCH  10  13
ATOM     13  O   UNL d   1       4.010  -1.248   8.268  0.00  0.00    -0.290 OA
BRANCH  13  14
ATOM     14  C   UNL d   1       4.356  -2.616   8.149  0.00  0.00     0.505 C 
ATOM     15  F   UNL d   1       5.557  -2.716   7.529  0.00  0.00    -0.184 F 
ATOM     16  F   UNL d   1       4.525  -3.097   9.407  0.00  0.00    -0.184 F 
ENDBRANCH  13  14
ENDBRANCH  10  13
ENDBRANCH   4   7
BRANCH   3  17
ATOM     17  C   UNL d   1       0.378   1.562   0.528  0.00  0.00     0.206 C 
BRANCH  17  18
ATOM     18  S   UNL d   1       1.430   2.376  -0.667  0.00  0.00     0.157 S 
ATOM     19  O   UNL d   1       2.743   1.759  -0.622  0.00  0.00    -0.227 OA
ATOM     20  O   UNL d   1       1.302   3.815  -0.503  0.00  0.00    -0.227 OA
BRANCH  18  21
ATOM     21  C   UNL d   1       0.703   1.982  -2.304  0.00  0.00     0.053 C 
ATOM     22  C   UNL d   1      -0.743   2.491  -2.383  0.00  0.00     0.031 C 
ATOM     23  C   UNL d   1       1.539   2.697  -3.382  0.00  0.00     0.031 C 
ATOM     24  C   UNL d   1       0.742   0.471  -2.563  0.00  0.00     0.031 C 
ENDBRANCH  18  21
ENDBRANCH  17  18
ENDBRANCH   3  17
TORSDOF 6
