REMARK  3 active torsions:
REMARK  status: ('A' for Active; 'I' for Inactive)
REMARK    1  A    between atoms: S_13  and  C_6 
REMARK    2  A    between atoms: C_12  and  C_16 
REMARK    3  A    between atoms: C_16  and  S_13 
ROOT
ATOM      1  C   UNL d   1       1.141   0.732  -0.034  0.00  0.00     0.089 A 
ATOM      2  C   UNL d   1       0.640  -0.568  -0.001  0.00  0.00     0.039 A 
ATOM      3  S   UNL d   1      -0.061   1.935  -0.026  0.00  0.00    -0.075 SA
ATOM      4  C   UNL d   1      -0.817  -0.528   0.002  0.00  0.00    -0.029 A 
ATOM      5  C   UNL d   1      -1.293   0.775   0.022  0.00  0.00    -0.008 A 
ATOM      6  C   UNL d   1       1.635  -1.565   0.022  0.00  0.00     0.084 A 
ATOM      7  N   UNL d   1       2.430   1.108  -0.061  0.00  0.00    -0.346 N 
ATOM      8  HN  UNL d   1       2.733   2.081  -0.087  1.00  0.00     0.167 HD
ATOM      9  N   UNL d   1       2.944  -1.214  -0.013  0.00  0.00    -0.346 N 
ATOM     10  HN  UNL d   1       3.672  -1.929  -0.010  1.00  0.00     0.167 HD
ATOM     11  C   UNL d   1       3.266   0.081  -0.051  0.00  0.00     0.182 A 
ATOM     12  C   UNL d   1      -1.772  -1.692   0.027  0.00  0.00     0.040 C 
ATOM     13  C   UNL d   1      -2.732   1.189   0.046  0.00  0.00     0.047 C 
ATOM     14  C   UNL d   1      -3.225  -1.270  -0.268  0.00  0.00     0.005 C 
ATOM     15  C   UNL d   1      -3.616   0.013   0.475  0.00  0.00     0.005 C 
ENDROOT
BRANCH   6  16
ATOM     16  S   UNL d   1       1.270  -3.305   0.103  0.00  0.00    -0.107 SA
BRANCH  16  17
ATOM     17  C   UNL d   1       2.903  -3.909   0.646  0.00  0.00     0.121 C 
BRANCH  17  18
ATOM     18  C   UNL d   1       3.073  -5.412   0.631  0.00  0.00    -0.027 A 
ATOM     19  C   UNL d   1       3.196  -6.182   1.801  0.00  0.00     0.042 A 
ATOM     20  C   UNL d   1       3.533  -7.538   1.733  0.00  0.00     0.048 A 
ATOM     21 CL   UNL d   1       2.981  -5.504   3.376  0.00  0.00    -0.084 Cl
ATOM     22  C   UNL d   1       3.735  -8.142   0.495  0.00  0.00     0.035 A 
ATOM     23  C   UNL d   1       3.578  -7.411  -0.678  0.00  0.00     0.024 A 
ATOM     24 CL   UNL d   1       4.202  -9.796   0.415  0.00  0.00    -0.084 Cl
ATOM     25  C   UNL d   1       3.246  -6.056  -0.611  0.00  0.00     0.011 A 
ENDBRANCH  17  18
ENDBRANCH  16  17
ENDBRANCH   6  16
TORSDOF 3
