REMARK  3 active torsions:
REMARK  status: ('A' for Active; 'I' for Inactive)
REMARK    1  A    between atoms: C_2  and  C_1 
REMARK    2  A    between atoms: C_3  and  C_2 
REMARK    3  A    between atoms: C_10  and  C_4 
ROOT
ATOM      1  C   UNL d   1       0.982  -0.021   0.129  0.00  0.00     0.091 C 
ATOM      2  C   UNL d   1       0.302  -0.703  -0.816  0.00  0.00     0.038 C 
ATOM      3  C   UNL d   1       0.326   0.684   1.174  0.00  0.00     0.103 C 
ATOM      4  N   UNL d   1      -0.184   1.275   2.033  0.00  0.00    -0.191 NA
ENDROOT
BRANCH   1   5
ATOM      5  C   UNL d   1       2.477  -0.031   0.044  0.00  0.00     0.174 C 
ATOM      6  O   UNL d   1       3.076  -0.693  -0.798  0.00  0.00    -0.291 OA
BRANCH   5   7
ATOM      7  C   UNL d   1       3.246   0.777   1.047  0.00  0.00     0.061 A 
ATOM      8  C   UNL d   1       4.720   1.059   0.840  0.00  0.00     0.013 A 
ATOM      9  C   UNL d   1       4.289   0.098   1.908  0.00  0.00     0.013 A 
ENDBRANCH   5   7
ENDBRANCH   1   5
BRANCH   2  10
ATOM     10  C   UNL d   1      -1.161  -0.807  -0.884  0.00  0.00    -0.035 A 
ATOM     11  C   UNL d   1      -1.898   0.080  -1.675  0.00  0.00     0.012 A 
ATOM     12  C   UNL d   1      -3.289  -0.035  -1.755  0.00  0.00     0.007 A 
ATOM     13  C   UNL d   1      -3.963  -1.036  -1.046  0.00  0.00    -0.062 A 
ATOM     14  C   UNL d   1      -3.224  -1.915  -0.245  0.00  0.00     0.007 A 
ATOM     15  C   UNL d   1      -5.453  -1.174  -1.171  0.00  0.00     0.048 C 
ATOM     16  C   UNL d   1      -1.832  -1.800  -0.164  0.00  0.00     0.012 A 
ENDBRANCH   2  10
TORSDOF 3
