REMARK  3 active torsions:
REMARK  status: ('A' for Active; 'I' for Inactive)
REMARK    1  A    between atoms: C_5  and  N_1 
REMARK    2  A    between atoms: C_9  and  C_2 
REMARK    3  A    between atoms: C_12  and  C_13 
ROOT
ATOM      1  N   UNL d   1      -0.193  -1.164  -0.447  0.00  0.00    -0.222 N 
ATOM      2  C   UNL d   1       1.007  -0.590  -0.025  0.00  0.00     0.148 A 
ATOM      3  N   UNL d   1      -1.161  -0.223  -0.342  0.00  0.00     0.001 NA
ATOM      4  N   UNL d   1      -0.595   0.834   0.211  0.00  0.00    -0.007 NA
ATOM      5  N   UNL d   1       0.736   0.621   0.429  0.00  0.00    -0.269 N 
ATOM      6  HN  UNL d   1       1.394   1.271   0.859  1.00  0.00     0.185 HD
ENDROOT
BRANCH   2   7
ATOM      7  C   UNL d   1       2.346  -1.179  -0.097  0.00  0.00     0.011 A 
ATOM      8  C   UNL d   1       2.751  -1.976  -1.172  0.00  0.00     0.016 A 
ATOM      9  C   UNL d   1       3.998  -2.608  -1.163  0.00  0.00     0.009 A 
ATOM     10  C   UNL d   1       4.906  -2.428  -0.105  0.00  0.00    -0.051 A 
ATOM     11  C   UNL d   1       4.519  -1.562   0.930  0.00  0.00     0.009 A 
ATOM     12  C   UNL d   1       3.260  -0.947   0.934  0.00  0.00     0.016 A 
BRANCH  10  13
ATOM     13  C   UNL d   1       6.252  -3.173  -0.111  0.00  0.00    -0.024 C 
ATOM     14  C   UNL d   1       7.160  -2.819   1.087  0.00  0.00     0.019 C 
ATOM     15  C   UNL d   1       5.992  -4.695  -0.058  0.00  0.00     0.019 C 
ATOM     16  C   UNL d   1       7.038  -2.841  -1.397  0.00  0.00     0.019 C 
ENDBRANCH  10  13
ENDBRANCH   2   7
BRANCH   1  17
ATOM     17  C   UNL d   1      -0.495  -2.502  -0.811  0.00  0.00     0.078 A 
ATOM     18  C   UNL d   1      -1.455  -2.809  -1.791  0.00  0.00     0.064 A 
ATOM     19  C   UNL d   1      -1.692  -4.146  -2.141  0.00  0.00     0.050 A 
ATOM     20 CL   UNL d   1      -2.292  -1.626  -2.736  0.00  0.00    -0.082 Cl
ATOM     21  C   UNL d   1      -0.985  -5.171  -1.520  0.00  0.00     0.035 A 
ATOM     22  C   UNL d   1      -0.047  -4.883  -0.535  0.00  0.00     0.026 A 
ATOM     23 CL   UNL d   1      -1.260  -6.804  -1.983  0.00  0.00    -0.084 Cl
ATOM     24  C   UNL d   1       0.190  -3.555  -0.172  0.00  0.00     0.034 A 
ENDBRANCH   1  17
TORSDOF 3
