REMARK  1 active torsions:
REMARK  status: ('A' for Active; 'I' for Inactive)
REMARK    1  A    between atoms: C_12  and  C_8 
ROOT
ATOM      1  C   UNL d   1      -0.232   0.750   0.021  0.00  0.00     0.129 A 
ATOM      2  N   UNL d   1      -0.279  -0.648   0.043  0.00  0.00    -0.244 N 
ATOM      3  N   UNL d   1      -1.562  -1.096   0.075  0.00  0.00    -0.292 N 
ATOM      4  HN  UNL d   1      -1.876  -2.064   0.131  1.00  0.00     0.187 HD
ATOM      5  C   UNL d   1      -1.536   1.174  -0.004  0.00  0.00     0.082 A 
ATOM      6  N   UNL d   1       0.939   1.452   0.013  0.00  0.00    -0.345 N 
ATOM      7  HN  UNL d   1       0.955   2.471   0.010  1.00  0.00     0.167 HD
ATOM      8  C   UNL d   1      -2.329   0.005   0.018  0.00  0.00     0.062 A 
ATOM      9  C   UNL d   1       0.911  -1.395   0.026  0.00  0.00     0.034 A 
ATOM     10  C   UNL d   1       2.088  -0.745   0.006  0.00  0.00     0.051 A 
ATOM     11  C   UNL d   1       2.033   0.750   0.009  0.00  0.00     0.009 A 
ATOM     12  C   UNL d   1       0.855  -2.891   0.017  0.00  0.00     0.070 C 
ATOM     13  C   UNL d   1       3.346   1.490   0.009  0.00  0.00     0.068 C 
ENDROOT
BRANCH   8  14
ATOM     14  C   UNL d   1      -3.791  -0.072  -0.028  0.00  0.00    -0.008 A 
ATOM     15  C   UNL d   1      -4.537   0.921  -0.682  0.00  0.00     0.014 A 
ATOM     16  C   UNL d   1      -5.929   0.833  -0.757  0.00  0.00     0.001 A 
ATOM     17  C   UNL d   1      -6.592  -0.243  -0.170  0.00  0.00     0.000 A 
ATOM     18  C   UNL d   1      -5.865  -1.227   0.498  0.00  0.00     0.001 A 
ATOM     19  C   UNL d   1      -4.471  -1.143   0.567  0.00  0.00     0.014 A 
ENDBRANCH   8  14
TORSDOF 1
