REMARK  3 active torsions:
REMARK  status: ('A' for Active; 'I' for Inactive)
REMARK    1  A    between atoms: N_8  and  C_2 
REMARK    2  A    between atoms: C_9  and  N_8 
REMARK    3  A    between atoms: C_10  and  C_9 
ROOT
ATOM      1  N   UNL d   1       3.329  -0.627   0.357  0.00  0.00    -0.365 N 
ATOM      2  H   UNL d   1       2.630  -0.536   1.084  0.00  0.00     0.162 HD
ENDROOT
BRANCH   1   3
ATOM      3  C   UNL d   1       4.263   0.359   0.312  0.00  0.00     0.162 A 
ATOM      4  S   UNL d   1       3.859   1.841   1.149  0.00  0.00    -0.022 SA
ATOM      5  C   UNL d   1       5.377   2.499   0.608  0.00  0.00     0.160 A 
ATOM      6  N   UNL d   1       6.041   1.536  -0.099  0.00  0.00    -0.282 N 
ATOM      7  S   UNL d   1       5.955   4.027   0.878  0.00  0.00    -0.051 SA
ATOM      8  N   UNL d   1       5.414   0.337  -0.280  0.00  0.00    -0.278 N 
ATOM      9  H   UNL d   1       6.949   1.691  -0.523  0.00  0.00     0.188 HD
ATOM     10  HN  UNL d   1       5.794  -0.454  -0.800  1.00  0.00     0.189 HD
ENDBRANCH   1   3
BRANCH   1  11
ATOM     11  C   UNL d   1       3.611  -1.974  -0.082  0.00  0.00     0.160 C 
BRANCH  11  12
ATOM     12  C   UNL d   1       2.348  -2.806  -0.117  0.00  0.00    -0.041 A 
ATOM     13  C   UNL d   1       1.125  -2.274  -0.554  0.00  0.00     0.009 A 
ATOM     14  C   UNL d   1      -0.034  -3.054  -0.553  0.00  0.00     0.007 A 
ATOM     15  C   UNL d   1       0.011  -4.392  -0.148  0.00  0.00    -0.062 A 
ATOM     16  C   UNL d   1       1.236  -4.941   0.242  0.00  0.00     0.007 A 
ATOM     17  C   UNL d   1      -1.250  -5.200  -0.070  0.00  0.00     0.048 C 
ATOM     18  C   UNL d   1       2.394  -4.159   0.250  0.00  0.00     0.009 A 
ENDBRANCH  11  12
ENDBRANCH   1  11
TORSDOF 3
