REMARK  4 active torsions:
REMARK  status: ('A' for Active; 'I' for Inactive)
REMARK    1  A    between atoms: C_7  and  C_2 
REMARK    2  A    between atoms: C_14  and  N_3 
REMARK    3  A    between atoms: S_16  and  C_4 
REMARK    4  A    between atoms: C_15  and  C_9 
ROOT
ATOM      1  C   UNL d   1       0.212  -0.137  -1.266  0.00  0.00     0.109 C 
ATOM      2  C   UNL d   1       0.928  -0.511  -0.114  0.00  0.00     0.085 C 
ATOM      3  N   UNL d   1      -0.913   0.330   0.590  0.00  0.00    -0.248 N 
ATOM      4  C   UNL d   1      -0.973   0.405  -0.803  0.00  0.00     0.116 C 
ATOM      5  N   UNL d   1       0.301  -0.129   0.997  0.00  0.00    -0.290 N 
ATOM      6  HN  UNL d   1       0.656  -0.173   1.952  1.00  0.00     0.187 HD
ATOM      7  C   UNL d   1       0.623  -0.268  -2.626  0.00  0.00     0.104 C 
ATOM      8  N   UNL d   1       0.981  -0.370  -3.722  0.00  0.00    -0.191 NA
ENDROOT
BRANCH   2   9
ATOM      9  C   UNL d   1       2.213  -1.209  -0.066  0.00  0.00     0.025 A 
ATOM     10  C   UNL d   1       2.680  -2.140  -1.026  0.00  0.00     0.050 A 
ATOM     11  C   UNL d   1       3.930  -2.555  -0.613  0.00  0.00     0.061 A 
ATOM     12  O   UNL d   1       4.236  -1.955   0.578  0.00  0.00    -0.318 OA
ATOM     13  C   UNL d   1       3.183  -1.149   0.915  0.00  0.00     0.062 A 
ATOM     14  C   UNL d   1       3.311  -0.411   2.191  0.00  0.00     0.077 C 
BRANCH  11  15
ATOM     15  C   UNL d   1       4.950  -3.501  -1.201  0.00  0.00    -0.002 C 
ATOM     16  C   UNL d   1       4.446  -4.068  -2.545  0.00  0.00     0.021 C 
ATOM     17  C   UNL d   1       6.274  -2.759  -1.454  0.00  0.00     0.021 C 
ATOM     18  C   UNL d   1       5.200  -4.676  -0.243  0.00  0.00     0.021 C 
ENDBRANCH  11  15
ENDBRANCH   2   9
BRANCH   4  19
ATOM     19  S   UNL d   1      -2.323   1.071  -1.691  0.00  0.00    -0.113 SA
ATOM     20  C   UNL d   1      -1.603   2.461  -2.588  0.00  0.00     0.097 C 
ENDBRANCH   4  19
BRANCH   3  21
ATOM     21  C   UNL d   1      -1.872   0.630   1.605  0.00  0.00     0.057 A 
ATOM     22  C   UNL d   1      -3.250   0.526   1.386  0.00  0.00     0.034 A 
ATOM     23  C   UNL d   1      -4.147   0.795   2.424  0.00  0.00     0.044 A 
ATOM     24  C   UNL d   1      -3.669   1.171   3.673  0.00  0.00     0.116 A 
ATOM     25  C   UNL d   1      -2.307   1.267   3.916  0.00  0.00     0.044 A 
ATOM     26  F   UNL d   1      -4.537   1.427   4.661  0.00  0.00    -0.206 F 
ATOM     27  C   UNL d   1      -1.405   0.981   2.888  0.00  0.00     0.034 A 
ENDBRANCH   3  21
TORSDOF 4
