REMARK  2 active torsions:
REMARK  status: ('A' for Active; 'I' for Inactive)
REMARK    1  A    between atoms: N_9  and  C_7 
REMARK    2  A    between atoms: C_12  and  N_9 
ROOT
ATOM      1  C   UNL d   1      -2.405   0.500  -0.549  0.00  0.00     0.098 C 
ATOM      2  C   UNL d   1      -2.393  -0.958  -0.279  0.00  0.00     0.263 C 
ATOM      3  N   UNL d   1      -1.138  -1.546  -0.166  0.00  0.00    -0.317 N 
ATOM      4  C   UNL d   1      -1.218   1.339  -0.306  0.00  0.00     0.201 C 
ATOM      5  C   UNL d   1       0.051   0.611  -0.131  0.00  0.00     0.042 A 
ATOM      6  C   UNL d   1       0.073  -0.790  -0.122  0.00  0.00     0.051 A 
ATOM      7  C   UNL d   1      -3.474   1.066  -1.137  0.00  0.00     0.109 C 
ATOM      8  O   UNL d   1      -3.446  -1.596  -0.217  0.00  0.00    -0.267 OA
ATOM      9  O   UNL d   1      -1.254   2.563  -0.287  0.00  0.00    -0.286 OA
ATOM     10  C   UNL d   1      -1.083  -3.003  -0.122  0.00  0.00     0.159 C 
ATOM     11  C   UNL d   1       1.236   1.358  -0.026  0.00  0.00     0.018 A 
ATOM     12  C   UNL d   1       1.327  -1.421  -0.049  0.00  0.00     0.031 A 
ATOM     13  C   UNL d   1       2.465   0.711   0.057  0.00  0.00     0.001 A 
ATOM     14  C   UNL d   1       2.510  -0.678   0.033  0.00  0.00     0.002 A 
ENDROOT
BRANCH   7  15
ATOM     15  N   UNL d   1      -4.669   0.468  -1.468  0.00  0.00    -0.365 N 
ATOM     16  H   UNL d   1      -4.772  -0.494  -1.129  0.00  0.00     0.165 HD
BRANCH  15  17
ATOM     17  C   UNL d   1      -5.565   0.821  -2.490  0.00  0.00     0.031 A 
ATOM     18  C   UNL d   1      -5.263   1.748  -3.494  0.00  0.00     0.029 A 
ATOM     19  C   UNL d   1      -6.213   2.095  -4.459  0.00  0.00     0.002 A 
ATOM     20  C   UNL d   1      -7.490   1.540  -4.415  0.00  0.00     0.000 A 
ATOM     21  C   UNL d   1      -7.814   0.632  -3.411  0.00  0.00     0.002 A 
ATOM     22  C   UNL d   1      -6.856   0.277  -2.458  0.00  0.00     0.029 A 
ENDBRANCH  15  17
ENDBRANCH   7  15
TORSDOF 2
