REMARK  5 active torsions:
REMARK  status: ('A' for Active; 'I' for Inactive)
REMARK    1  A    between atoms: C_12  and  C_1 
REMARK    2  A    between atoms: C_6  and  C_4 
REMARK    3  A    between atoms: C_8  and  C_11 
REMARK    4  A    between atoms: C_14  and  C_12 
REMARK    5  A    between atoms: O_16  and  C_14 
ROOT
ATOM      1  C   UNL d   1      -0.192  -0.804  -1.245  0.00  0.00     0.079 C 
ATOM      2  C   UNL d   1       0.243   0.665  -1.290  0.00  0.00     0.032 C 
ATOM      3  C   UNL d   1      -0.477  -1.027   0.246  0.00  0.00     0.033 A 
ATOM      4  C   UNL d   1       1.816  -0.910  -0.429  0.00  0.00     0.132 C 
ATOM      5  C   UNL d   1       1.684   0.584  -0.720  0.00  0.00     0.027 C 
ATOM      6  C   UNL d   1       0.962  -1.108   0.822  0.00  0.00     0.027 A 
ATOM      7  C   UNL d   1      -0.649   0.350   0.917  0.00  0.00     0.002 A 
ATOM      8  C   UNL d   1       0.795   0.271   1.477  0.00  0.00     0.002 A 
ATOM      9  O   UNL d   1       1.042  -1.518  -1.474  0.00  0.00    -0.373 OA
ATOM     10  C   UNL d   1      -0.533   1.412  -0.189  0.00  0.00    -0.002 C 
ATOM     11  C   UNL d   1       1.553   1.306   0.625  0.00  0.00    -0.002 C 
ATOM     12  C   UNL d   1       0.503   2.383   0.364  0.00  0.00     0.011 C 
ENDROOT
BRANCH   1  13
ATOM     13  C   UNL d   1      -1.265  -1.171  -2.239  0.00  0.00     0.148 C 
BRANCH  13  14
ATOM     14  C   UNL d   1      -1.569  -2.648  -2.364  0.00  0.00     0.142 C 
ATOM     15  O   UNL d   1      -2.648  -3.064  -2.756  0.00  0.00    -0.650 OA
BRANCH  14  16
ATOM     16  O   UNL d   1      -0.534  -3.476  -2.106  0.00  0.00    -0.776 OA
ATOM     17  H   UNL d   1       0.298  -2.993  -1.889  0.00  0.00     0.167 HD
ENDBRANCH  14  16
ENDBRANCH  13  14
ENDBRANCH   1  13
TORSDOF 5
