REMARK  4 active torsions:
REMARK  status: ('A' for Active; 'I' for Inactive)
REMARK    1  A    between atoms: O_8  and  N_1 
REMARK    2  A    between atoms: C_10  and  C_2 
REMARK    3  A    between atoms: C_11  and  O_8 
REMARK    4  A    between atoms: C_13  and  C_11 
ROOT
ATOM      1  N   UNL d   1       2.264  -0.708   0.077  0.00  0.00    -0.166 N 
ATOM      2  C   UNL d   1       2.282   0.677  -0.031  0.00  0.00     0.147 C 
ATOM      3  C   UNL d   1       1.090  -1.408   0.330  0.00  0.00     0.285 C 
ATOM      4  N   UNL d   1       1.182   1.372  -0.120  0.00  0.00    -0.339 N 
ATOM      5  HN  UNL d   1       1.219   2.387  -0.207  1.00  0.00     0.167 HD
ATOM      6  C   UNL d   1      -0.153  -0.665   0.095  0.00  0.00     0.061 A 
ATOM      7  C   UNL d   1      -0.051   0.709  -0.096  0.00  0.00     0.049 A 
ATOM      8  O   UNL d   1       1.009  -2.559   0.763  0.00  0.00    -0.265 OA
ATOM      9  C   UNL d   1      -1.395  -1.311   0.110  0.00  0.00     0.019 A 
ATOM     10  C   UNL d   1      -1.226   1.450  -0.237  0.00  0.00     0.030 A 
ATOM     11  C   UNL d   1      -2.559  -0.563  -0.046  0.00  0.00     0.001 A 
ATOM     12  C   UNL d   1      -2.475   0.820  -0.208  0.00  0.00     0.002 A 
ENDROOT
BRANCH   1  13
ATOM     13  O   UNL d   1       3.455  -1.381   0.453  0.00  0.00    -0.264 OA
BRANCH  13  14
ATOM     14  C   UNL d   1       3.687  -2.509  -0.410  0.00  0.00     0.240 C 
BRANCH  14  15
ATOM     15  C   UNL d   1       4.986  -3.221  -0.094  0.00  0.00    -0.032 A 
ATOM     16  C   UNL d   1       5.624  -3.099   1.148  0.00  0.00     0.011 A 
ATOM     17  C   UNL d   1       6.773  -3.843   1.434  0.00  0.00     0.019 A 
ATOM     18  C   UNL d   1       7.283  -4.725   0.485  0.00  0.00     0.011 A 
ATOM     19  C   UNL d   1       6.656  -4.872  -0.749  0.00  0.00     0.019 A 
ATOM     20 BR   UNL d   1       8.826  -5.744   0.879  0.00  0.00    -0.051 Br
ATOM     21  C   UNL d   1       5.510  -4.125  -1.035  0.00  0.00     0.011 A 
ENDBRANCH  14  15
ENDBRANCH  13  14
ENDBRANCH   1  13
BRANCH   2  22
ATOM     22  C   UNL d   1       3.567   1.444  -0.024  0.00  0.00     0.010 A 
ATOM     23  C   UNL d   1       4.740   1.002  -0.642  0.00  0.00     0.015 A 
ATOM     24  C   UNL d   1       5.888   1.801  -0.624  0.00  0.00     0.001 A 
ATOM     25  C   UNL d   1       5.870   3.054  -0.009  0.00  0.00     0.000 A 
ATOM     26  C   UNL d   1       4.700   3.516   0.587  0.00  0.00     0.001 A 
ATOM     27  C   UNL d   1       3.555   2.718   0.575  0.00  0.00     0.015 A 
ENDBRANCH   2  22
TORSDOF 4
