REMARK  4 active torsions:
REMARK  status: ('A' for Active; 'I' for Inactive)
REMARK       I    between atoms: N_3  and  C_1 
REMARK    1  A    between atoms: C_4  and  C_1 
REMARK    2  A    between atoms: C_2  and  O_6 
REMARK    3  A    between atoms: C_12  and  C_5 
REMARK    4  A    between atoms: O_6  and  C_13 
ROOT
ATOM      1  C   UNL d   1      -1.898   1.684  -2.070  0.00  0.00    -0.036 A 
ATOM      2  C   UNL d   1      -3.342   3.109  -4.032  0.00  0.00     0.078 A 
ATOM      3  C   UNL d   1      -1.536   1.617  -3.419  0.00  0.00     0.014 A 
ATOM      4  C   UNL d   1      -3.034   2.426  -1.723  0.00  0.00     0.014 A 
ATOM      5  C   UNL d   1      -3.748   3.129  -2.697  0.00  0.00     0.038 A 
ATOM      6  C   UNL d   1      -2.257   2.314  -4.397  0.00  0.00     0.038 A 
ENDROOT
BRANCH   1   7
ATOM      7  C   UNL d   1      -1.170   0.989  -1.000  0.00  0.00     0.017 C 
ATOM      8  C   UNL d   1       0.136   0.686  -1.036  0.00  0.00     0.075 C 
BRANCH   8   9
ATOM      9  C   UNL d   1       0.758   0.080   0.165  0.00  0.00     0.243 C 
ATOM     10  N   UNL d   1       1.670  -0.929  -0.055  0.00  0.00    -0.345 N 
ATOM     11  C   UNL d   1       1.872  -1.664  -1.309  0.00  0.00     0.152 C 
ATOM     12  C   UNL d   1       2.352  -1.532   1.091  0.00  0.00     0.152 C 
ATOM     13  C   UNL d   1       3.367  -1.896  -1.552  0.00  0.00     0.187 C 
ATOM     14  O   UNL d   1       3.982  -2.548  -0.429  0.00  0.00    -0.388 OA
ATOM     15  C   UNL d   1       3.830  -1.760   0.765  0.00  0.00     0.187 C 
ATOM     16  O   UNL d   1       0.475   0.510   1.282  0.00  0.00    -0.268 OA
ENDBRANCH   8   9
ENDBRANCH   1   7
BRANCH   2  17
ATOM     17  O   UNL d   1      -4.122   3.830  -4.880  0.00  0.00    -0.255 OA
BRANCH  17  18
ATOM     18  C   UNL d   1      -3.522   4.478  -5.995  0.00  0.00     0.530 C 
ATOM     19  F   UNL d   1      -2.181   4.350  -6.063  0.00  0.00    -0.144 F 
ATOM     20  F   UNL d   1      -4.061   3.985  -7.132  0.00  0.00    -0.144 F 
ATOM     21  F   UNL d   1      -3.810   5.797  -5.933  0.00  0.00    -0.144 F 
ENDBRANCH  17  18
ENDBRANCH   2  17
TORSDOF 4
