REMARK  5 active torsions:
REMARK  status: ('A' for Active; 'I' for Inactive)
REMARK       I    between atoms: C_5  and  N_1 
REMARK    1  A    between atoms: N_2  and  O_7 
REMARK    2  A    between atoms: C_8  and  C_4 
REMARK    3  A    between atoms: N_18  and  C_4 
REMARK    4  A    between atoms: C_6  and  C_9 
REMARK    5  A    between atoms: O_7  and  C_6 
ROOT
ATOM      1  N   UNL d   1       0.818  -2.832   0.297  0.00  0.00    -0.246 N 
ATOM      2  HN  UNL d   1       0.668  -2.931   1.301  1.00  0.00     0.196 HD
ATOM      3  C   UNL d   1       1.674  -3.546  -0.373  0.00  0.00     0.109 C 
ENDROOT
BRANCH   1   4
ATOM      4  O   UNL d   1       0.114  -1.901  -0.510  0.00  0.00    -0.198 OA
BRANCH   4   5
ATOM      5  C   UNL d   1      -0.832  -1.268   0.269  0.00  0.00     0.285 C 
ATOM      6  O   UNL d   1      -1.101  -1.556   1.429  0.00  0.00    -0.263 OA
BRANCH   5   7
ATOM      7  C   UNL d   1      -1.490  -0.077  -0.437  0.00  0.00     0.090 C 
ATOM      8  C   UNL d   1      -2.908   0.152   0.125  0.00  0.00     0.034 C 
ATOM      9  C   UNL d   1      -3.901  -0.895  -0.382  0.00  0.00     0.126 C 
ATOM     10  N   UNL d   1      -3.884  -0.978  -1.846  0.00  0.00    -0.352 N 
ATOM     11  C   UNL d   1      -5.100  -0.975  -2.516  0.00  0.00     0.215 C 
ATOM     12  C   UNL d   1      -2.566  -1.213  -2.431  0.00  0.00     0.126 C 
ATOM     13  O   UNL d   1      -6.171  -0.820  -1.925  0.00  0.00    -0.274 OA
ATOM     14  C   UNL d   1      -5.140  -1.139  -4.018  0.00  0.00     0.117 C 
ATOM     15  C   UNL d   1      -1.572  -0.153  -1.964  0.00  0.00     0.034 C 
ENDBRANCH   5   7
ENDBRANCH   4   5
ENDBRANCH   1   4
BRANCH   3  16
ATOM     16  C   UNL d   1       2.537  -4.523   0.388  0.00  0.00     0.004 A 
ATOM     17  C   UNL d   1       2.100  -5.067   1.603  0.00  0.00     0.016 A 
ATOM     18  C   UNL d   1       2.906  -5.977   2.300  0.00  0.00     0.024 A 
ATOM     19  C   UNL d   1       4.151  -6.338   1.788  0.00  0.00     0.034 A 
ATOM     20  C   UNL d   1       4.602  -5.794   0.585  0.00  0.00     0.024 A 
ATOM     21 CL   UNL d   1       5.148  -7.450   2.645  0.00  0.00    -0.084 Cl
ATOM     22  C   UNL d   1       3.795  -4.891  -0.114  0.00  0.00     0.016 A 
ENDBRANCH   3  16
BRANCH   3  23
ATOM     23  N   UNL d   1       1.830  -3.471  -1.737  0.00  0.00    -0.286 NA
ATOM     24  H   UNL d   1       1.051  -3.009  -2.190  0.00  0.00     0.125 HD
ATOM     25  H   UNL d   1       2.075  -4.343  -2.193  0.00  0.00     0.125 HD
ENDBRANCH   3  23
TORSDOF 5
