REMARK  6 active torsions:
REMARK  status: ('A' for Active; 'I' for Inactive)
REMARK    1  A    between atoms: C_9  and  C_1 
REMARK    2  A    between atoms: C_8  and  C_2 
REMARK    3  A    between atoms: C_3  and  C_9 
REMARK    4  A    between atoms: O_18  and  C_3 
REMARK    5  A    between atoms: C_4  and  C_8 
REMARK    6  A    between atoms: O_17  and  C_4 
ROOT
ATOM      1  C   UNL d   1       0.767   0.789   1.116  0.00  0.00    -0.030 C 
ATOM      2  C   UNL d   1      -1.521   0.360   0.046  0.00  0.00    -0.030 C 
ATOM      3  C   UNL d   1       0.562   0.430  -1.398  0.00  0.00    -0.013 C 
ATOM      4  C   UNL d   1       0.222  -1.499   0.171  0.00  0.00    -0.013 C 
ATOM      5  C   UNL d   1      -0.750   1.079   1.179  0.00  0.00     0.020 C 
ATOM      6  C   UNL d   1      -0.937   0.752  -1.332  0.00  0.00     0.014 C 
ATOM      7  C   UNL d   1      -1.283  -1.166   0.237  0.00  0.00     0.014 C 
ATOM      8  C   UNL d   1       0.976  -0.736   1.275  0.00  0.00     0.014 C 
ATOM      9  C   UNL d   1       1.288   1.204  -0.286  0.00  0.00     0.014 C 
ATOM     10  C   UNL d   1       0.772  -1.077  -1.198  0.00  0.00     0.009 C 
ENDROOT
BRANCH   1  11
ATOM     11  C   UNL d   1       1.525   1.601   2.185  0.00  0.00     0.119 C 
BRANCH  11  12
ATOM     12  C   UNL d   1       1.130   1.284   3.611  0.00  0.00     0.140 C 
ATOM     13  O   UNL d   1       1.658   0.414   4.285  0.00  0.00    -0.650 OA
BRANCH  12  14
ATOM     14  O   UNL d   1       0.110   2.038   4.072  0.00  0.00    -0.776 OA
ATOM     15  H   UNL d   1      -0.231   2.690   3.430  0.00  0.00     0.167 HD
ENDBRANCH  12  14
ENDBRANCH  11  12
ENDBRANCH   1  11
BRANCH   2  16
ATOM     16  C   UNL d   1      -3.036   0.667   0.123  0.00  0.00     0.119 C 
BRANCH  16  17
ATOM     17  C   UNL d   1      -3.426   2.135   0.003  0.00  0.00     0.140 C 
ATOM     18  O   UNL d   1      -2.665   3.079  -0.122  0.00  0.00    -0.650 OA
BRANCH  17  19
ATOM     19  O   UNL d   1      -4.766   2.311   0.069  0.00  0.00    -0.776 OA
ATOM     20  H   UNL d   1      -5.274   1.488   0.178  0.00  0.00     0.167 HD
ENDBRANCH  17  19
ENDBRANCH  16  17
ENDBRANCH   2  16
TORSDOF 6
