REMARK  8 active torsions:
REMARK  status: ('A' for Active; 'I' for Inactive)
REMARK    1  A    between atoms: C_9  and  C_3 
REMARK    2  A    between atoms: O_15  and  C_4 
REMARK    3  A    between atoms: S_11  and  C_5 
REMARK    4  A    between atoms: C_18  and  C_8 
REMARK    5  A    between atoms: C_14  and  C_9 
REMARK    6  A    between atoms: C_10  and  C_17 
REMARK    7  A    between atoms: C_17  and  S_11 
REMARK    8  A    between atoms: O_19  and  C_18 
ROOT
ATOM      1  N   UNL d   1      -0.041  -1.234  -0.400  0.00  0.00    -0.317 N 
ATOM      2  HN  UNL d   1      -0.497  -2.125  -0.595  1.00  0.00     0.170 HD
ATOM      3  C   UNL d   1      -0.167   1.164  -0.117  0.00  0.00     0.021 A 
ATOM      4  C   UNL d   1      -0.714  -0.076  -0.404  0.00  0.00     0.150 A 
ATOM      5  C   UNL d   1       1.261  -1.151  -0.126  0.00  0.00     0.146 A 
ATOM      6  N   UNL d   1       1.926   0.001   0.047  0.00  0.00    -0.338 N 
ATOM      7  HN  UNL d   1       2.938   0.010   0.179  1.00  0.00     0.168 HD
ATOM      8  C   UNL d   1       1.213   1.152   0.042  0.00  0.00     0.045 A 
ENDROOT
BRANCH   5   9
ATOM      9  S   UNL d   1       2.172  -2.669   0.004  0.00  0.00    -0.093 SA
BRANCH   9  10
ATOM     10  C   UNL d   1       3.130  -2.282   1.494  0.00  0.00     0.087 C 
BRANCH  10  11
ATOM     11  C   UNL d   1       3.811  -3.524   1.992  0.00  0.00    -0.005 A 
ATOM     12  C   UNL d   1       4.885  -3.405   3.047  0.00  0.00     0.006 A 
ATOM     13  C   UNL d   1       5.250  -3.824   1.651  0.00  0.00     0.006 A 
ENDBRANCH  10  11
ENDBRANCH   9  10
ENDBRANCH   5   9
BRANCH   4  14
ATOM     14  O   UNL d   1      -2.031  -0.212  -0.735  0.00  0.00    -0.346 OA
ATOM     15  H   UNL d   1      -2.288   0.583  -1.230  0.00  0.00     0.219 HD
ENDBRANCH   4  14
BRANCH   8  16
ATOM     16  C   UNL d   1       2.038   2.417   0.137  0.00  0.00     0.224 C 
BRANCH  16  17
ATOM     17  O   UNL d   1       1.737   3.167   1.311  0.00  0.00    -0.390 OA
ATOM     18  C   UNL d   1       2.484   4.378   1.342  0.00  0.00     0.201 C 
ENDBRANCH  16  17
ENDBRANCH   8  16
BRANCH   3  19
ATOM     19  C   UNL d   1      -1.022   2.387   0.077  0.00  0.00     0.078 C 
BRANCH  19  20
ATOM     20  C   UNL d   1      -1.274   3.292  -1.108  0.00  0.00    -0.089 C 
ATOM     21  C   UNL d   1      -0.790   3.122  -2.350  0.00  0.00     0.014 C 
ATOM     22  C   UNL d   1      -2.156   4.476  -0.793  0.00  0.00     0.043 C 
ENDBRANCH  19  20
ENDBRANCH   3  19
TORSDOF 8
