REMARK  5 active torsions:
REMARK  status: ('A' for Active; 'I' for Inactive)
REMARK    1  A    between atoms: C_2  and  C_1 
REMARK       I    between atoms: N_4  and  C_1 
REMARK    2  A    between atoms: C_3  and  C_6 
REMARK    3  A    between atoms: C_5  and  N_4 
REMARK    4  A    between atoms: O_13  and  C_10 
REMARK    5  A    between atoms: C_11  and  O_13 
ROOT
ATOM      1  C   UNL d   1      -1.037  -0.392  -0.827  0.00  0.00     0.070 C 
ATOM      2  C   UNL d   1      -3.089  -1.402  -1.727  0.00  0.00     0.050 C 
ATOM      3  C   UNL d   1      -1.714   0.838  -0.719  0.00  0.00     0.102 C 
ATOM      4  C   UNL d   1      -1.726  -1.484  -1.390  0.00  0.00     0.048 C 
ATOM      5  C   UNL d   1      -3.777  -0.214  -1.461  0.00  0.00     0.019 C 
ATOM      6  C   UNL d   1      -3.097   0.889  -0.950  0.00  0.00     0.040 C 
ENDROOT
BRANCH   1   7
ATOM      7  N   UNL d   1       0.292  -0.669  -0.397  0.00  0.00    -0.320 N 
ATOM      8  C   UNL d   1       0.968  -0.054   0.651  0.00  0.00     0.262 C 
ATOM      9  O   UNL d   1       0.531   0.883   1.310  0.00  0.00    -0.267 OA
ATOM     10  H   UNL d   1       0.671  -1.558  -0.705  0.00  0.00     0.169 HD
BRANCH   8  11
ATOM     11  C   UNL d   1       2.272  -0.659   1.076  0.00  0.00     0.109 A 
ATOM     12  C   UNL d   1       2.786  -1.834   0.516  0.00  0.00     0.135 A 
ATOM     13  F   UNL d   1       2.148  -2.454  -0.490  0.00  0.00    -0.205 F 
ATOM     14  C   UNL d   1       3.963  -2.423   0.996  0.00  0.00     0.043 A 
ATOM     15  C   UNL d   1       4.655  -1.844   2.052  0.00  0.00     0.006 A 
ATOM     16  C   UNL d   1       4.174  -0.666   2.612  0.00  0.00     0.043 A 
ATOM     17  C   UNL d   1       3.000  -0.082   2.124  0.00  0.00     0.135 A 
ATOM     18  F   UNL d   1       2.603   1.054   2.716  0.00  0.00    -0.205 F 
ENDBRANCH   8  11
ENDBRANCH   1   7
BRANCH   3  19
ATOM     19  O   UNL d   1      -1.017   1.976  -0.386  0.00  0.00    -0.308 OA
BRANCH  19  20
ATOM     20  C   UNL d   1      -1.272   3.187  -0.997  0.00  0.00     0.077 A 
ATOM     21  C   UNL d   1      -0.832   4.307  -0.289  0.00  0.00     0.045 A 
ATOM     22  C   UNL d   1      -0.977   5.604  -0.812  0.00  0.00    -0.037 A 
ATOM     23  C   UNL d   1      -0.430   6.771  -0.035  0.00  0.00     0.050 C 
ATOM     24  C   UNL d   1      -1.607   5.772  -2.061  0.00  0.00     0.046 A 
ATOM     25  C   UNL d   1      -2.071   4.656  -2.782  0.00  0.00    -0.037 A 
ATOM     26 CL   UNL d   1      -1.780   7.372  -2.713  0.00  0.00    -0.083 Cl
ATOM     27  C   UNL d   1      -1.855   3.366  -2.253  0.00  0.00     0.045 A 
ATOM     28  C   UNL d   1      -2.806   4.751  -4.092  0.00  0.00     0.050 C 
ENDBRANCH  19  20
ENDBRANCH   3  19
BRANCH   2  29
ATOM     29  C   UNL d   1      -3.823  -2.566  -2.346  0.00  0.00     0.417 C 
ATOM     30  F   UNL d   1      -3.037  -3.657  -2.557  0.00  0.00    -0.166 F 
ATOM     31  F   UNL d   1      -4.863  -2.995  -1.579  0.00  0.00    -0.166 F 
ATOM     32  F   UNL d   1      -4.358  -2.251  -3.558  0.00  0.00    -0.166 F 
ENDBRANCH   2  29
TORSDOF 5
