REMARK  5 active torsions:
REMARK  status: ('A' for Active; 'I' for Inactive)
REMARK       I    between atoms: N_2  and  C_1 
REMARK    1  A    between atoms: C_4  and  C_1 
REMARK    2  A    between atoms: C_3  and  N_2 
REMARK    3  A    between atoms: C_8  and  C_5 
REMARK    4  A    between atoms: N_6  and  C_8 
REMARK    5  A    between atoms: O_16  and  C_9 
ROOT
ATOM      1  C   UNL d   1       0.316  -1.078  -1.112  0.00  0.00     0.040 A 
ATOM      2  C   UNL d   1       0.715  -2.431  -1.006  0.00  0.00    -0.014 A 
ATOM      3  C   UNL d   1       0.085  -3.394  -1.824  0.00  0.00     0.010 A 
ATOM      4  C   UNL d   1      -0.651  -0.729  -2.062  0.00  0.00     0.017 A 
ATOM      5  C   UNL d   1      -0.915  -3.032  -2.722  0.00  0.00     0.001 A 
ATOM      6  C   UNL d   1      -1.283  -1.700  -2.841  0.00  0.00     0.001 A 
ENDROOT
BRANCH   1   7
ATOM      7  C   UNL d   1       1.022  -0.030  -0.317  0.00  0.00     0.256 C 
ATOM      8  N   UNL d   1       0.387   0.585   0.745  0.00  0.00    -0.320 N 
ATOM      9  H   UNL d   1       1.048   0.965   1.416  0.00  0.00     0.169 HD
ATOM     10  O   UNL d   1       2.227   0.129  -0.486  0.00  0.00    -0.267 OA
BRANCH   8  11
ATOM     11  C   UNL d   1      -0.913   1.117   0.844  0.00  0.00     0.070 A 
ATOM     12  C   UNL d   1      -1.527   1.796  -0.208  0.00  0.00     0.056 A 
ATOM     13  C   UNL d   1      -2.792   2.361  -0.038  0.00  0.00     0.036 A 
ATOM     14 CL   UNL d   1      -3.553   3.154  -1.365  0.00  0.00    -0.084 Cl
ATOM     15  C   UNL d   1      -3.435   2.312   1.197  0.00  0.00     0.026 A 
ATOM     16  C   UNL d   1      -2.794   1.706   2.277  0.00  0.00     0.040 A 
ATOM     17  C   UNL d   1      -1.543   1.120   2.094  0.00  0.00     0.092 A 
BRANCH  17  18
ATOM     18  O   UNL d   1      -0.967   0.510   3.175  0.00  0.00    -0.358 OA
ATOM     19  H   UNL d   1      -0.263  -0.069   2.828  0.00  0.00     0.217 HD
ENDBRANCH  17  18
ENDBRANCH   8  11
ENDBRANCH   1   7
BRANCH   2  20
ATOM     20  C   UNL d   1       1.811  -2.908  -0.069  0.00  0.00     0.312 C 
BRANCH  20  21
ATOM     21  N   UNL d   1       1.454  -2.841   1.359  0.00  0.00     0.096 N 
ATOM     22  C   UNL d   1       0.321  -3.720   1.727  0.00  0.00     0.299 C 
ATOM     23  C   UNL d   1       0.659  -5.220   1.770  0.00  0.00     0.198 C 
ATOM     24  O   UNL d   1       1.764  -5.479   2.642  0.00  0.00    -0.388 OA
ATOM     25  C   UNL d   1       2.915  -4.732   2.236  0.00  0.00     0.198 C 
ATOM     26  C   UNL d   1       2.619  -3.220   2.197  0.00  0.00     0.299 C 
ENDBRANCH  20  21
ENDBRANCH   2  20
TORSDOF 5
