REMARK  2 active torsions:
REMARK  status: ('A' for Active; 'I' for Inactive)
REMARK    1  A    between atoms: C_7  and  C_1 
REMARK    2  A    between atoms: O_10  and  C_2 
ROOT
ATOM      1  C   UNL d   1      -2.250   0.952   0.013  0.00  0.00     0.076 A 
ATOM      2  C   UNL d   1      -0.972   1.391   0.028  0.00  0.00     0.094 A 
ATOM      3  C   UNL d   1      -2.528  -0.523   0.014  0.00  0.00     0.259 A 
ATOM      4  C   UNL d   1       0.153   0.438   0.027  0.00  0.00     0.028 A 
ATOM      5  N   UNL d   1      -1.452  -1.367   0.019  0.00  0.00    -0.322 N 
ATOM      6  C   UNL d   1      -0.125  -0.936   0.022  0.00  0.00     0.048 A 
ATOM      7  O   UNL d   1      -3.669  -0.975   0.009  0.00  0.00    -0.267 OA
ATOM      8  C   UNL d   1       1.492   0.850   0.022  0.00  0.00     0.058 A 
ATOM      9  C   UNL d   1       0.900  -1.886   0.014  0.00  0.00     0.033 A 
ATOM     10  C   UNL d   1       2.510  -0.100   0.012  0.00  0.00     0.117 A 
ATOM     11  C   UNL d   1       2.227  -1.462   0.008  0.00  0.00     0.044 A 
ATOM     12  F   UNL d   1       3.787   0.303   0.003  0.00  0.00    -0.206 F 
ATOM     13  H   UNL d   1      -1.675  -2.353   0.015  0.00  0.00     0.169 HD
ENDROOT
BRANCH   1  14
ATOM     14  C   UNL d   1      -3.390   1.885  -0.019  0.00  0.00    -0.018 A 
ATOM     15  C   UNL d   1      -3.897   2.330  -1.247  0.00  0.00     0.012 A 
ATOM     16  C   UNL d   1      -4.989   3.198  -1.282  0.00  0.00     0.001 A 
ATOM     17  C   UNL d   1      -5.576   3.630  -0.094  0.00  0.00     0.000 A 
ATOM     18  C   UNL d   1      -5.069   3.200   1.132  0.00  0.00     0.001 A 
ATOM     19  C   UNL d   1      -3.977   2.331   1.171  0.00  0.00     0.012 A 
ENDBRANCH   1  14
BRANCH   2  20
ATOM     20  O   UNL d   1      -0.607   2.725   0.036  0.00  0.00    -0.359 OA
ATOM     21  H   UNL d   1      -1.411   3.274   0.053  0.00  0.00     0.217 HD
ENDBRANCH   2  20
TORSDOF 2
