REMARK  3 active torsions:
REMARK  status: ('A' for Active; 'I' for Inactive)
REMARK    1  A    between atoms: N_13  and  C_3 
REMARK    2  A    between atoms: C_4  and  C_5 
REMARK    3  A    between atoms: O_14  and  C_9 
ROOT
ATOM      1  N   UNL d   1      -0.720   1.214   0.080  0.00  0.00    -0.314 N 
ATOM      2  HN  UNL d   1      -1.238   2.093   0.088  1.00  0.00     0.170 HD
ATOM      3  C   UNL d   1      -1.338   0.037   0.135  0.00  0.00     0.157 A 
ATOM      4  C   UNL d   1       0.634  -1.143   0.021  0.00  0.00     0.123 A 
ATOM      5  N   UNL d   1      -0.722  -1.146   0.089  0.00  0.00    -0.329 N 
ATOM      6  HN  UNL d   1      -1.250  -2.019   0.104  1.00  0.00     0.168 HD
ATOM      7  C   UNL d   1       1.358   0.034  -0.016  0.00  0.00     0.090 A 
ATOM      8  C   UNL d   1       0.614   1.185   0.013  0.00  0.00     0.144 A 
ENDROOT
BRANCH   4   9
ATOM      9  C   UNL d   1       1.383  -2.462  -0.011  0.00  0.00     0.432 C 
ATOM     10  F   UNL d   1       0.589  -3.567   0.001  0.00  0.00    -0.165 F 
ATOM     11  F   UNL d   1       2.168  -2.579  -1.122  0.00  0.00    -0.165 F 
ATOM     12  F   UNL d   1       2.235  -2.599   1.047  0.00  0.00    -0.165 F 
ENDBRANCH   4   9
BRANCH   8  13
ATOM     13  O   UNL d   1       1.208   2.412  -0.030  0.00  0.00    -0.346 OA
ATOM     14  H   UNL d   1       2.169   2.300  -0.026  0.00  0.00     0.219 HD
ENDBRANCH   8  13
BRANCH   3  15
ATOM     15  N   UNL d   1      -2.713   0.037   0.203  0.00  0.00    -0.274 NA
ATOM     16  H   UNL d   1      -3.074   0.910  -0.157  0.00  0.00     0.127 HD
ATOM     17  H   UNL d   1      -3.087  -0.818  -0.182  0.00  0.00     0.127 HD
ENDBRANCH   3  15
TORSDOF 3
