REMARK  3 active torsions:
REMARK  status: ('A' for Active; 'I' for Inactive)
REMARK    1  A    between atoms: N_3  and  S_1 
REMARK    2  A    between atoms: C_4  and  S_1 
REMARK    3  A    between atoms: C_2  and  N_3 
ROOT
ATOM      1  S   UNL d   1       1.051   0.086   0.050  0.00  0.00     0.246 S 
ATOM      2  O   UNL d   1       0.326  -1.100   0.450  0.00  0.00    -0.206 OA
ATOM      3  O   UNL d   1       2.495   0.094  -0.052  0.00  0.00    -0.206 OA
ENDROOT
BRANCH   1   4
ATOM      4  N   UNL d   1       0.528   1.323   1.093  0.00  0.00    -0.177 NA
ATOM      5  H   UNL d   1      -0.163   0.902   1.721  0.00  0.00     0.146 HD
BRANCH   4   6
ATOM      6  C   UNL d   1       1.585   1.993   1.815  0.00  0.00     0.079 A 
ATOM      7  C   UNL d   1       2.264   3.061   1.216  0.00  0.00     0.142 A 
ATOM      8  C   UNL d   1       3.308   3.708   1.871  0.00  0.00     0.086 A 
ATOM      9  F   UNL d   1       1.898   3.493   0.001  0.00  0.00    -0.204 F 
ATOM     10  C   UNL d   1       3.697   3.260   3.124  0.00  0.00     0.120 A 
ATOM     11  C   UNL d   1       3.068   2.177   3.731  0.00  0.00     0.063 A 
ATOM     12  F   UNL d   1       4.697   3.880   3.764  0.00  0.00    -0.206 F 
ATOM     13  C   UNL d   1       2.015   1.540   3.073  0.00  0.00     0.039 A 
ATOM     14 BR   UNL d   1       1.180   0.071   3.936  0.00  0.00    -0.049 Br
ENDBRANCH   4   6
ENDBRANCH   1   4
BRANCH   1  15
ATOM     15  C   UNL d   1       0.384   0.605  -1.514  0.00  0.00     0.076 A 
ATOM     16  C   UNL d   1      -0.911   0.216  -1.872  0.00  0.00     0.050 A 
ATOM     17  C   UNL d   1      -1.401   0.529  -3.144  0.00  0.00     0.057 A 
ATOM     18 CL   UNL d   1      -3.006   0.019  -3.533  0.00  0.00    -0.083 Cl
ATOM     19  C   UNL d   1      -0.594   1.222  -4.056  0.00  0.00     0.055 A 
ATOM     20  C   UNL d   1       0.701   1.605  -3.689  0.00  0.00     0.027 A 
ATOM     21 CL   UNL d   1      -1.127   1.618  -5.651  0.00  0.00    -0.083 Cl
ATOM     22  C   UNL d   1       1.195   1.295  -2.420  0.00  0.00     0.026 A 
ENDBRANCH   1  15
TORSDOF 3
