REMARK  3 active torsions:
REMARK  status: ('A' for Active; 'I' for Inactive)
REMARK    1  A    between atoms: C_2  and  C_1 
REMARK    2  A    between atoms: C_14  and  C_7 
REMARK    3  A    between atoms: C_11  and  C_13 
ROOT
ATOM      1  C   UNL d   1       3.942   0.162   0.104  0.00  0.00     0.057 A 
ATOM      2  N   UNL d   1       4.731  -0.457  -0.850  0.00  0.00    -0.348 N 
ATOM      3  HN  UNL d   1       4.369  -0.972  -1.653  1.00  0.00     0.166 HD
ATOM      4  C   UNL d   1       6.013  -0.294  -0.585  0.00  0.00     0.084 A 
ATOM      5  S   UNL d   1       6.340   0.668   0.804  0.00  0.00    -0.081 SA
ATOM      6  C   UNL d   1       4.660   0.830   1.079  0.00  0.00     0.082 A 
ENDROOT
BRANCH   1   7
ATOM      7  C   UNL d   1       2.428   0.113   0.073  0.00  0.00     0.039 A 
ATOM      8  S   UNL d   1       1.487   0.981   1.211  0.00  0.00    -0.087 SA
ATOM      9  C   UNL d   1       0.005   0.470   0.535  0.00  0.00     0.016 A 
ATOM     10  C   UNL d   1      -1.286   0.825   0.975  0.00  0.00     0.021 A 
ATOM     11  C   UNL d   1       0.211  -0.380  -0.550  0.00  0.00    -0.010 A 
ATOM     12  C   UNL d   1      -2.396   0.308   0.305  0.00  0.00     0.025 A 
ATOM     13  C   UNL d   1      -2.221  -0.543  -0.774  0.00  0.00     0.035 A 
ATOM     14  C   UNL d   1      -0.940  -0.893  -1.208  0.00  0.00     0.037 A 
ATOM     15 CL   UNL d   1      -3.597  -1.177  -1.591  0.00  0.00    -0.084 Cl
ATOM     16  C   UNL d   1       1.631  -0.595  -0.819  0.00  0.00    -0.031 A 
ATOM     17  C   UNL d   1       2.072  -1.492  -1.938  0.00  0.00     0.050 C 
ENDBRANCH   1   7
BRANCH   4  18
ATOM     18  C   UNL d   1       7.104  -0.849  -1.405  0.00  0.00    -0.002 A 
ATOM     19  C   UNL d   1       6.894  -1.052  -2.778  0.00  0.00     0.015 A 
ATOM     20  C   UNL d   1       7.888  -1.616  -3.586  0.00  0.00     0.017 A 
ATOM     21  C   UNL d   1       9.117  -2.003  -3.036  0.00  0.00     0.048 A 
ATOM     22  C   UNL d   1       9.337  -1.795  -1.668  0.00  0.00     0.017 A 
ATOM     23  C   UNL d   1       8.343  -1.226  -0.863  0.00  0.00     0.015 A 
BRANCH  21  24
ATOM     24  C   UNL d   1      10.186  -2.652  -3.880  0.00  0.00     0.417 C 
ATOM     25  F   UNL d   1       9.831  -2.815  -5.184  0.00  0.00    -0.166 F 
ATOM     26  F   UNL d   1      11.345  -1.935  -3.895  0.00  0.00    -0.166 F 
ATOM     27  F   UNL d   1      10.524  -3.891  -3.428  0.00  0.00    -0.166 F 
ENDBRANCH  21  24
ENDBRANCH   4  18
TORSDOF 3
