REMARK  5 active torsions:
REMARK  status: ('A' for Active; 'I' for Inactive)
REMARK    1  A    between atoms: C_14  and  C_3 
REMARK    2  A    between atoms: C_9  and  C_4 
REMARK    3  A    between atoms: C_5  and  C_7 
REMARK    4  A    between atoms: C_15  and  O_20 
REMARK    5  A    between atoms: O_20  and  C_27 
ROOT
ATOM      1  C   UNL d   1      -0.052  -2.563  -0.100  0.00  0.00    -0.002 A 
ATOM      2  C   UNL d   1       0.493  -3.317   0.950  0.00  0.00     0.017 A 
ATOM      3  C   UNL d   1      -0.784  -3.237  -1.091  0.00  0.00     0.017 A 
ATOM      4  C   UNL d   1      -0.384  -5.365  -0.001  0.00  0.00     0.077 A 
ATOM      5  C   UNL d   1       0.308  -4.700   1.014  0.00  0.00     0.038 A 
ATOM      6  C   UNL d   1      -0.952  -4.627  -1.039  0.00  0.00     0.038 A 
ENDROOT
BRANCH   1   7
ATOM      7  C   UNL d   1       0.177  -1.111  -0.121  0.00  0.00     0.084 A 
ATOM      8  N   UNL d   1       1.264  -0.526   0.343  0.00  0.00    -0.349 N 
ATOM      9  C   UNL d   1       1.165   0.851   0.237  0.00  0.00     0.050 A 
ATOM     10  HN  UNL d   1       2.069  -1.021   0.728  1.00  0.00     0.166 HD
ATOM     11  C   UNL d   1      -0.019   1.301  -0.313  0.00  0.00     0.082 A 
ATOM     12  S   UNL d   1      -1.029  -0.026  -0.702  0.00  0.00    -0.081 SA
BRANCH   9  13
ATOM     13  C   UNL d   1       2.253   1.722   0.658  0.00  0.00    -0.006 A 
ATOM     14  C   UNL d   1       3.577   1.266   0.558  0.00  0.00     0.059 A 
ATOM     15  C   UNL d   1       4.630   2.094   0.938  0.00  0.00     0.155 A 
ATOM     16  F   UNL d   1       5.890   1.652   0.822  0.00  0.00    -0.203 F 
ATOM     17  C   UNL d   1       4.383   3.370   1.429  0.00  0.00     0.154 A 
ATOM     18  C   UNL d   1       3.078   3.834   1.551  0.00  0.00     0.046 A 
ATOM     19  F   UNL d   1       5.398   4.166   1.790  0.00  0.00    -0.203 F 
ATOM     20  C   UNL d   1       2.014   3.011   1.167  0.00  0.00     0.017 A 
ENDBRANCH   9  13
ENDBRANCH   1   7
BRANCH   4  21
ATOM     21  O   UNL d   1      -0.607  -6.725  -0.018  0.00  0.00    -0.294 OA
BRANCH  21  22
ATOM     22  C   UNL d   1       0.370  -7.551   0.516  0.00  0.00     0.147 A 
ATOM     23  N   UNL d   1       1.672  -7.209   0.396  0.00  0.00    -0.346 N 
ATOM     24  C   UNL d   1       2.577  -8.000   1.012  0.00  0.00     0.106 A 
ATOM     25  HN  UNL d   1       1.959  -6.389  -0.137  1.00  0.00     0.167 HD
ATOM     26  C   UNL d   1       2.246  -9.139   1.730  0.00  0.00     0.063 A 
ATOM     27  C   UNL d   1       0.895  -9.505   1.775  0.00  0.00     0.022 A 
ATOM     28  C   UNL d   1      -0.061  -8.703   1.155  0.00  0.00     0.057 A 
BRANCH  26  29
ATOM     29  C   UNL d   1       3.302  -9.924   2.445  0.00  0.00     0.418 C 
ATOM     30  F   UNL d   1       4.547  -9.381   2.345  0.00  0.00    -0.166 F 
ATOM     31  F   UNL d   1       3.051 -10.033   3.778  0.00  0.00    -0.166 F 
ATOM     32  F   UNL d   1       3.413 -11.198   1.980  0.00  0.00    -0.166 F 
ENDBRANCH  26  29
ENDBRANCH  21  22
ENDBRANCH   4  21
TORSDOF 5
