REMARK  7 active torsions:
REMARK  status: ('A' for Active; 'I' for Inactive)
REMARK    1  A    between atoms: C_3  and  C_1 
REMARK    2  A    between atoms: C_8  and  N_2 
REMARK       I    between atoms: N_10  and  C_3 
REMARK    3  A    between atoms: N_4  and  C_15 
REMARK    4  A    between atoms: O_14  and  C_5 
REMARK    5  A    between atoms: C_17  and  O_14 
REMARK    6  A    between atoms: C_15  and  C_16 
REMARK    7  A    between atoms: C_16  and  C_17 
ROOT
ATOM      1  C   UNL d   1       4.208  -3.461  -0.834  0.00  0.00     0.057 C 
ENDROOT
BRANCH   1   2
ATOM      2  C   UNL d   1       3.752  -4.834  -0.304  0.00  0.00     0.274 C 
BRANCH   2   3
ATOM      3  N   UNL d   1       4.896  -5.660   0.098  0.00  0.00     0.091 N 
ATOM      4  C   UNL d   1       5.495  -5.244   1.380  0.00  0.00     0.292 C 
ATOM      5  C   UNL d   1       4.641  -5.614   2.608  0.00  0.00     0.153 C 
ATOM      6  N   UNL d   1       4.402  -7.071   2.664  0.00  0.00    -0.378 N 
ATOM      7  C   UNL d   1       3.917  -7.659   1.401  0.00  0.00     0.153 C 
ATOM      8  C   UNL d   1       4.623  -7.108   0.139  0.00  0.00     0.292 C 
BRANCH   6   9
ATOM      9  C   UNL d   1       5.278  -7.752   3.507  0.00  0.00     0.030 A 
ATOM     10  C   UNL d   1       6.213  -8.699   3.072  0.00  0.00     0.029 A 
ATOM     11  C   UNL d   1       7.107  -9.298   3.974  0.00  0.00     0.002 A 
ATOM     12  C   UNL d   1       7.068  -8.969   5.326  0.00  0.00     0.000 A 
ATOM     13  C   UNL d   1       6.131  -8.051   5.787  0.00  0.00     0.002 A 
ATOM     14  C   UNL d   1       5.249  -7.458   4.881  0.00  0.00     0.029 A 
ENDBRANCH   6   9
ENDBRANCH   2   3
ENDBRANCH   1   2
BRANCH   1  15
ATOM     15  C   UNL d   1       5.274  -3.635  -1.914  0.00  0.00     0.177 C 
BRANCH  15  16
ATOM     16  O   UNL d   1       5.566  -2.398  -2.553  0.00  0.00    -0.350 OA
BRANCH  16  17
ATOM     17  C   UNL d   1       6.465  -2.405  -3.588  0.00  0.00     0.084 A 
ATOM     18  C   UNL d   1       7.092  -3.474  -4.255  0.00  0.00     0.065 A 
ATOM     19  C   UNL d   1       7.944  -3.219  -5.349  0.00  0.00     0.020 A 
ATOM     20  C   UNL d   1       8.183  -1.921  -5.784  0.00  0.00     0.001 A 
ATOM     21  C   UNL d   1       7.581  -0.858  -5.123  0.00  0.00     0.003 A 
ATOM     22  C   UNL d   1       6.730  -1.101  -4.039  0.00  0.00     0.038 A 
BRANCH  18  23
ATOM     23  C   UNL d   1       6.989  -4.911  -3.907  0.00  0.00     0.252 C 
ATOM     24  O   UNL d   1       7.445  -5.375  -2.878  0.00  0.00    -0.268 OA
ATOM     25  N   UNL d   1       6.419  -5.710  -4.864  0.00  0.00    -0.366 N 
ATOM     26  H   UNL d   1       6.108  -5.366  -5.761  0.00  0.00     0.159 HD
ATOM     27  H   UNL d   1       6.387  -6.705  -4.678  0.00  0.00     0.159 HD
ENDBRANCH  18  23
ENDBRANCH  16  17
ENDBRANCH  15  16
ENDBRANCH   1  15
TORSDOF 7
