REMARK  2 active torsions:
REMARK  status: ('A' for Active; 'I' for Inactive)
REMARK    1  A    between atoms: C_6  and  N_1 
REMARK    2  A    between atoms: C_18  and  C_12 
ROOT
ATOM      1  N   UNL d   1      -1.889   0.174   0.104  0.00  0.00    -0.241 N 
ATOM      2  C   UNL d   1      -1.192  -0.873  -0.445  0.00  0.00     0.268 A 
ATOM      3  C   UNL d   1      -1.068   1.074   0.743  0.00  0.00     0.283 A 
ATOM      4  C   UNL d   1       0.216  -0.600  -0.188  0.00  0.00     0.065 A 
ATOM      5  C   UNL d   1       0.299   0.578   0.516  0.00  0.00     0.117 A 
ATOM      6  N   UNL d   1       1.437   1.187   0.892  0.00  0.00    -0.361 N 
ATOM      7  HN  UNL d   1       1.452   2.062   1.415  1.00  0.00     0.165 HD
ATOM      8  O   UNL d   1      -1.573  -1.861  -1.041  0.00  0.00    -0.267 OA
ATOM      9  O   UNL d   1      -1.357   2.071   1.377  0.00  0.00    -0.265 OA
ATOM     10  C   UNL d   1       1.364  -1.268  -0.555  0.00  0.00     0.021 A 
ATOM     11  C   UNL d   1       2.566   0.534   0.514  0.00  0.00     0.088 A 
ATOM     12  C   UNL d   1       2.576  -0.676  -0.194  0.00  0.00     0.018 A 
ENDROOT
BRANCH   1  13
ATOM     13  C   UNL d   1      -3.286   0.311   0.027  0.00  0.00     0.058 A 
ATOM     14  C   UNL d   1      -4.094  -0.205   1.062  0.00  0.00    -0.034 A 
ATOM     15  C   UNL d   1      -5.486  -0.048   0.982  0.00  0.00     0.009 A 
ATOM     16  C   UNL d   1      -3.550  -0.954   2.249  0.00  0.00     0.050 C 
ATOM     17  C   UNL d   1      -6.066   0.615  -0.096  0.00  0.00     0.001 A 
ATOM     18  C   UNL d   1      -5.266   1.115  -1.120  0.00  0.00     0.009 A 
ATOM     19  C   UNL d   1      -3.868   0.971  -1.083  0.00  0.00    -0.030 A 
BRANCH  19  20
ATOM     20  C   UNL d   1      -3.061   1.471  -2.265  0.00  0.00     0.036 C 
ATOM     21  C   UNL d   1      -3.206   2.963  -2.540  0.00  0.00     0.010 C 
ENDBRANCH  19  20
ENDBRANCH   1  13
TORSDOF 2
