REMARK  3 active torsions:
REMARK  status: ('A' for Active; 'I' for Inactive)
REMARK    1  A    between atoms: C_3  and  C_1 
REMARK       I    between atoms: N_6  and  C_3 
REMARK    2  A    between atoms: C_8  and  N_6 
REMARK    3  A    between atoms: O_16  and  C_13 
ROOT
ATOM      1  C   UNL d   1      -2.371  -0.152  -0.311  0.00  0.00     0.102 A 
ATOM      2  N   UNL d   1      -1.592   0.971  -0.134  0.00  0.00    -0.351 N 
ATOM      3  C   UNL d   1      -1.503  -1.229  -0.377  0.00  0.00     0.049 A 
ATOM      4  C   UNL d   1      -0.176  -0.741  -0.232  0.00  0.00    -0.004 A 
ATOM      5  C   UNL d   1      -0.257   0.640  -0.075  0.00  0.00     0.043 A 
ATOM      6  C   UNL d   1       1.095  -1.347  -0.238  0.00  0.00     0.050 A 
ATOM      7  C   UNL d   1       0.872   1.444   0.090  0.00  0.00     0.033 A 
ATOM      8  C   UNL d   1       2.245  -0.565  -0.073  0.00  0.00     0.069 A 
ATOM      9  C   UNL d   1       2.127   0.817   0.089  0.00  0.00     0.039 A 
ATOM     10  H   UNL d   1      -1.965   1.908  -0.070  0.00  0.00     0.166 HD
ENDROOT
BRANCH   1  11
ATOM     11  C   UNL d   1      -3.809  -0.072  -0.455  0.00  0.00     0.272 C 
ATOM     12  N   UNL d   1      -4.465  -1.254  -0.185  0.00  0.00    -0.320 N 
ATOM     13  H   UNL d   1      -3.978  -1.922   0.401  0.00  0.00     0.169 HD
ATOM     14  O   UNL d   1      -4.362   0.986  -0.734  0.00  0.00    -0.266 OA
BRANCH  12  15
ATOM     15  C   UNL d   1      -5.836  -1.506  -0.410  0.00  0.00     0.057 A 
ATOM     16  C   UNL d   1      -6.501  -2.464   0.374  0.00  0.00     0.060 A 
ATOM     17 CL   UNL d   1      -5.691  -3.272   1.673  0.00  0.00    -0.082 Cl
ATOM     18  C   UNL d   1      -7.848  -2.759   0.148  0.00  0.00     0.026 A 
ATOM     19  C   UNL d   1      -8.534  -2.126  -0.888  0.00  0.00     0.002 A 
ATOM     20  C   UNL d   1      -7.878  -1.190  -1.685  0.00  0.00     0.002 A 
ATOM     21  C   UNL d   1      -6.539  -0.872  -1.440  0.00  0.00     0.031 A 
ENDBRANCH  12  15
ENDBRANCH   1  11
BRANCH   8  22
ATOM     22  O   UNL d   1       3.415  -1.276  -0.094  0.00  0.00    -0.356 OA
ATOM     23  C   UNL d   1       4.615  -0.550   0.132  0.00  0.00     0.210 C 
ENDBRANCH   8  22
TORSDOF 3
