REMARK  3 active torsions:
REMARK  status: ('A' for Active; 'I' for Inactive)
REMARK    1  A    between atoms: N_4  and  S_1 
REMARK    2  A    between atoms: C_10  and  S_1 
REMARK    3  A    between atoms: C_2  and  N_4 
ROOT
ATOM      1  N   UNL d   1       0.606   1.631   0.004  0.00  0.00    -0.179 NA
ATOM      2  H   UNL d   1      -0.343   1.684   0.396  0.00  0.00     0.146 HD
ENDROOT
BRANCH   1   3
ATOM      3  C   UNL d   1       1.482   2.573   0.671  0.00  0.00     0.106 A 
ATOM      4  C   UNL d   1       2.625   3.067   0.038  0.00  0.00     0.183 A 
ATOM      5  C   UNL d   1       3.492   3.918   0.720  0.00  0.00     0.198 A 
ATOM      6  F   UNL d   1       2.879   2.744  -1.239  0.00  0.00    -0.201 F 
ATOM      7  F   UNL d   1       4.570   4.416   0.098  0.00  0.00    -0.199 F 
ATOM      8  C   UNL d   1       3.235   4.263   2.042  0.00  0.00     0.199 A 
ATOM      9  C   UNL d   1       2.114   3.758   2.686  0.00  0.00     0.198 A 
ATOM     10  F   UNL d   1       4.065   5.090   2.693  0.00  0.00    -0.199 F 
ATOM     11  C   UNL d   1       1.245   2.913   2.005  0.00  0.00     0.183 A 
ATOM     12  F   UNL d   1       1.862   4.091   3.960  0.00  0.00    -0.199 F 
ATOM     13  F   UNL d   1       0.155   2.434   2.623  0.00  0.00    -0.201 F 
ENDBRANCH   1   3
BRANCH   1  14
ATOM     14  S   UNL d   1       1.108   0.012   0.175  0.00  0.00     0.219 S 
ATOM     15  O   UNL d   1       0.278  -0.541   1.221  0.00  0.00    -0.211 OA
ATOM     16  O   UNL d   1       2.550  -0.041   0.242  0.00  0.00    -0.211 OA
BRANCH  14  17
ATOM     17  C   UNL d   1       0.575  -0.683  -1.370  0.00  0.00     0.139 C 
ATOM     18  C   UNL d   1       0.842  -2.180  -1.384  0.00  0.00     0.161 C 
ATOM     19  S   UNL d   1       0.652  -2.630  -3.090  0.00  0.00     0.145 S 
ATOM     20  O   UNL d   1      -0.737  -2.975  -3.308  0.00  0.00    -0.228 OA
ATOM     21  O   UNL d   1       1.741  -3.503  -3.466  0.00  0.00    -0.228 OA
ATOM     22  C   UNL d   1       0.936  -1.002  -3.771  0.00  0.00     0.142 C 
ATOM     23  C   UNL d   1       1.302  -0.112  -2.588  0.00  0.00     0.037 C 
ENDBRANCH  14  17
ENDBRANCH   1  14
TORSDOF 3
