REMARK  9 active torsions:
REMARK  status: ('A' for Active; 'I' for Inactive)
REMARK    1  A    between atoms: N_4  and  C_1 
REMARK    2  A    between atoms: C_6  and  C_2 
REMARK       I    between atoms: C_8  and  N_4 
REMARK    3  A    between atoms: O_14  and  C_6 
REMARK    4  A    between atoms: C_16  and  C_8 
REMARK    5  A    between atoms: C_9  and  C_17 
REMARK    6  A    between atoms: O_15  and  C_9 
REMARK    7  A    between atoms: S_13  and  C_16 
REMARK    8  A    between atoms: C_17  and  S_13 
REMARK    9  A    between atoms: C_19  and  O_14 
ROOT
ATOM      1  C   UNL d   1       0.515  -1.166   0.449  0.00  0.00     0.093 A 
ATOM      2  C   UNL d   1       1.341  -0.106   0.088  0.00  0.00     0.079 A 
ATOM      3  S   UNL d   1      -1.106  -0.692   0.657  0.00  0.00    -0.083 SA
ATOM      4  C   UNL d   1       0.602   1.153   0.145  0.00  0.00    -0.036 A 
ATOM      5  C   UNL d   1      -0.738   0.941   0.401  0.00  0.00     0.059 A 
ATOM      6  C   UNL d   1       1.166   2.525  -0.060  0.00  0.00     0.050 C 
ENDROOT
BRANCH   1   7
ATOM      7  N   UNL d   1       0.844  -2.513   0.555  0.00  0.00    -0.320 N 
ATOM      8  C   UNL d   1       0.131  -3.456   1.273  0.00  0.00     0.231 C 
ATOM      9  O   UNL d   1      -0.786  -3.240   2.070  0.00  0.00    -0.272 OA
ATOM     10  H   UNL d   1       1.786  -2.758   0.265  0.00  0.00     0.169 HD
BRANCH   8  11
ATOM     11  C   UNL d   1       0.641  -4.874   1.089  0.00  0.00     0.177 C 
BRANCH  11  12
ATOM     12  S   UNL d   1       1.797  -5.326   2.422  0.00  0.00    -0.149 SA
BRANCH  12  13
ATOM     13  C   UNL d   1       0.758  -5.084   3.905  0.00  0.00     0.184 C 
BRANCH  13  14
ATOM     14  C   UNL d   1      -0.525  -5.886   3.876  0.00  0.00     0.149 C 
ATOM     15  O   UNL d   1      -0.591  -7.074   4.161  0.00  0.00    -0.649 OA
BRANCH  14  16
ATOM     16  O   UNL d   1      -1.614  -5.187   3.485  0.00  0.00    -0.776 OA
ATOM     17  H   UNL d   1      -1.433  -4.265   3.174  0.00  0.00     0.167 HD
ENDBRANCH  14  16
ENDBRANCH  13  14
ENDBRANCH  12  13
ENDBRANCH  11  12
ENDBRANCH   8  11
ENDBRANCH   1   7
BRANCH   2  18
ATOM     18  C   UNL d   1       2.761  -0.228  -0.274  0.00  0.00     0.296 C 
ATOM     19  O   UNL d   1       3.455   0.724  -0.610  0.00  0.00    -0.259 OA
BRANCH  18  20
ATOM     20  O   UNL d   1       3.222  -1.518  -0.238  0.00  0.00    -0.318 OA
BRANCH  20  21
ATOM     21  C   UNL d   1       4.583  -1.698  -0.666  0.00  0.00     0.174 C 
ATOM     22  C   UNL d   1       4.633  -1.841  -2.176  0.00  0.00     0.034 C 
ENDBRANCH  20  21
ENDBRANCH  18  20
ENDBRANCH   2  18
TORSDOF 9
