REMARK  5 active torsions:
REMARK  status: ('A' for Active; 'I' for Inactive)
REMARK    1  A    between atoms: C_9  and  N_2 
REMARK    2  A    between atoms: C_7  and  C_3 
REMARK    3  A    between atoms: C_10  and  C_4 
REMARK    4  A    between atoms: O_13  and  C_6 
REMARK    5  A    between atoms: O_14  and  N_11 
ROOT
ATOM      1  C   UNL d   1      -0.703   3.771   0.181  0.00  0.00     0.268 A 
ATOM      2  N   UNL d   1      -1.303   5.045   0.089  0.00  0.00    -0.277 N 
ATOM      3  C   UNL d   1       0.796   3.717   0.086  0.00  0.00     0.090 A 
ATOM      4  C   UNL d   1      -0.542   6.209   0.026  0.00  0.00     0.056 A 
ATOM      5  C   UNL d   1       0.797   6.146  -0.018  0.00  0.00     0.068 A 
ATOM      6  C   UNL d   1       1.472   4.875  -0.034  0.00  0.00     0.085 A 
ATOM      7  O   UNL d   1      -1.339   2.727   0.329  0.00  0.00    -0.267 OA
ENDROOT
BRANCH   2   8
ATOM      8  C   UNL d   1      -2.726   5.074   0.066  0.00  0.00     0.043 A 
ATOM      9  C   UNL d   1      -3.447   5.077   1.263  0.00  0.00     0.030 A 
ATOM     10  C   UNL d   1      -4.841   5.062   1.231  0.00  0.00     0.002 A 
ATOM     11  C   UNL d   1      -5.515   5.036   0.011  0.00  0.00     0.000 A 
ATOM     12  C   UNL d   1      -4.797   5.030  -1.184  0.00  0.00     0.002 A 
ATOM     13  C   UNL d   1      -3.402   5.049  -1.160  0.00  0.00     0.030 A 
ENDBRANCH   2   8
BRANCH   4  14
ATOM     14  C   UNL d   1      -1.150   7.551   0.044  0.00  0.00    -0.009 A 
ATOM     15  C   UNL d   1      -1.432   8.219  -1.155  0.00  0.00     0.014 A 
ATOM     16  C   UNL d   1      -1.901   9.535  -1.133  0.00  0.00     0.001 A 
ATOM     17  C   UNL d   1      -2.086  10.193   0.083  0.00  0.00     0.000 A 
ATOM     18  C   UNL d   1      -1.813   9.534   1.280  0.00  0.00     0.001 A 
ATOM     19  C   UNL d   1      -1.347   8.217   1.262  0.00  0.00     0.014 A 
ENDBRANCH   4  14
BRANCH   3  20
ATOM     20  C   UNL d   1       1.542   2.413   0.079  0.00  0.00     0.046 C 
ATOM     21  N   UNL d   1       2.674   2.299   0.721  0.00  0.00    -0.273 N 
ATOM     22  HN  UNL d   1       3.098   3.050   1.267  1.00  0.00     0.194 HD
ATOM     23  C   UNL d   1       0.941   1.246  -0.684  0.00  0.00     0.071 C 
BRANCH  21  24
ATOM     24  O   UNL d   1       3.237   1.027   0.572  0.00  0.00    -0.290 OA
ATOM     25  H   UNL d   1       4.112   1.139   0.987  0.00  0.00     0.244 HD
ENDBRANCH  21  24
ENDBRANCH   3  20
BRANCH   6  26
ATOM     26  O   UNL d   1       2.839   4.941  -0.196  0.00  0.00    -0.360 OA
ATOM     27  H   UNL d   1       3.160   5.830   0.028  0.00  0.00     0.217 HD
ENDBRANCH   6  26
TORSDOF 5
