REMARK  4 active torsions:
REMARK  status: ('A' for Active; 'I' for Inactive)
REMARK    1  A    between atoms: N_4  and  C_5 
REMARK    2  A    between atoms: C_7  and  C_6 
REMARK    3  A    between atoms: C_11  and  C_16 
REMARK    4  A    between atoms: C_14  and  C_12 
ROOT
ATOM      1  C   UNL d   1      -4.420   2.983  -1.611  0.00  0.00     0.088 A 
ATOM      2  O   UNL d   1      -4.245   1.821  -0.929  0.00  0.00    -0.310 OA
ATOM      3  C   UNL d   1      -2.994   1.322  -1.197  0.00  0.00     0.077 A 
ATOM      4  C   UNL d   1      -3.272   3.276  -2.311  0.00  0.00     0.041 A 
ATOM      5  C   UNL d   1      -2.362   2.223  -2.041  0.00  0.00     0.040 A 
ENDROOT
BRANCH   1   6
ATOM      6  C   UNL d   1      -5.752   3.575  -1.528  0.00  0.00     0.031 A 
ATOM      7  C   UNL d   1      -6.605   3.466  -0.419  0.00  0.00     0.116 A 
ATOM      8  C   UNL d   1      -7.928   3.946  -0.441  0.00  0.00     0.053 A 
ATOM      9  C   UNL d   1      -8.431   4.557  -1.598  0.00  0.00     0.050 A 
ATOM     10  C   UNL d   1      -7.575   4.715  -2.698  0.00  0.00     0.017 A 
ATOM     11  C   UNL d   1      -6.260   4.235  -2.661  0.00  0.00     0.017 A 
BRANCH   7  12
ATOM     12  N   UNL d   1      -6.146   2.870   0.825  0.00  0.00    -0.115 N 
ATOM     13  O   UNL d   1      -5.209   3.430   1.410  0.00  0.00    -0.532 OA
ATOM     14  O   UNL d   1      -6.777   1.893   1.250  0.00  0.00    -0.532 OA
ENDBRANCH   7  12
BRANCH   9  15
ATOM     15  C   UNL d   1      -9.868   5.014  -1.690  0.00  0.00     0.417 C 
ATOM     16  F   UNL d   1     -10.585   4.772  -0.559  0.00  0.00    -0.166 F 
ATOM     17  F   UNL d   1      -9.974   6.350  -1.925  0.00  0.00    -0.166 F 
ATOM     18  F   UNL d   1     -10.540   4.399  -2.700  0.00  0.00    -0.166 F 
ENDBRANCH   9  15
ENDBRANCH   1   6
BRANCH   3  19
ATOM     19  C   UNL d   1      -2.497   0.121  -0.628  0.00  0.00     0.061 C 
ATOM     20  C   UNL d   1      -3.278  -0.936  -0.328  0.00  0.00     0.117 C 
ATOM     21  C   UNL d   1      -2.656  -2.019   0.442  0.00  0.00     0.302 C 
ATOM     22  C   UNL d   1      -4.691  -1.072  -0.703  0.00  0.00     0.302 C 
ATOM     23  O   UNL d   1      -3.519  -2.754   1.176  0.00  0.00    -0.280 OA
ATOM     24  O   UNL d   1      -1.453  -2.243   0.440  0.00  0.00    -0.259 OA
ATOM     25  C   UNL d   1      -4.843  -2.248   1.375  0.00  0.00     0.175 C 
ATOM     26  O   UNL d   1      -5.444  -1.759   0.177  0.00  0.00    -0.280 OA
ATOM     27  C   UNL d   1      -4.854  -1.176   2.469  0.00  0.00     0.080 C 
ATOM     28  C   UNL d   1      -5.699  -3.434   1.821  0.00  0.00     0.080 C 
ATOM     29  O   UNL d   1      -5.153  -0.671  -1.762  0.00  0.00    -0.259 OA
ENDBRANCH   3  19
TORSDOF 4
