REMARK  3 active torsions:
REMARK  status: ('A' for Active; 'I' for Inactive)
REMARK    1  A    between atoms: C_6  and  C_1 
REMARK    2  A    between atoms: N_7  and  C_3 
REMARK       I    between atoms: C_10  and  N_7 
REMARK    3  A    between atoms: C_11  and  C_10 
ROOT
ATOM      1  N   UNL d   1       0.365  -2.460  -0.064  0.00  0.00    -0.302 N 
ATOM      2  C   UNL d   1       1.591  -3.079   0.025  0.00  0.00     0.257 C 
ATOM      3  O   UNL d   1       1.816  -4.282   0.035  0.00  0.00    -0.267 OA
ATOM      4  H   UNL d   1       0.302  -1.457  -0.168  0.00  0.00     0.171 HD
ENDROOT
BRANCH   1   5
ATOM      5  C   UNL d   1      -0.847  -3.088  -0.222  0.00  0.00     0.168 A 
ATOM      6  S   UNL d   1      -1.047  -4.777  -0.167  0.00  0.00    -0.029 SA
ATOM      7  C   UNL d   1      -2.698  -4.533  -0.586  0.00  0.00     0.177 A 
ATOM      8  N   UNL d   1      -3.032  -3.256  -0.668  0.00  0.00    -0.288 N 
ATOM      9  N   UNL d   1      -1.956  -2.420  -0.445  0.00  0.00    -0.279 N 
ATOM     10  HN  UNL d   1      -3.976  -2.927  -0.872  1.00  0.00     0.187 HD
ATOM     11  HN  UNL d   1      -2.015  -1.402  -0.454  1.00  0.00     0.189 HD
BRANCH   7  12
ATOM     12  C   UNL d   1      -3.598  -5.691  -0.855  0.00  0.00     0.440 C 
ATOM     13  F   UNL d   1      -3.052  -6.892  -0.516  0.00  0.00    -0.164 F 
ATOM     14  F   UNL d   1      -4.771  -5.603  -0.171  0.00  0.00    -0.164 F 
ATOM     15  F   UNL d   1      -3.922  -5.781  -2.173  0.00  0.00    -0.164 F 
ENDBRANCH   7  12
ENDBRANCH   1   5
BRANCH   2  16
ATOM     16  C   UNL d   1       2.763  -2.159   0.051  0.00  0.00     0.034 A 
ATOM     17  C   UNL d   1       3.943  -2.584  -0.578  0.00  0.00     0.044 A 
ATOM     18  C   UNL d   1       5.063  -1.754  -0.592  0.00  0.00     0.073 A 
ATOM     19 CL   UNL d   1       6.498  -2.280  -1.382  0.00  0.00    -0.081 Cl
ATOM     20  C   UNL d   1       5.007  -0.507   0.028  0.00  0.00     0.138 A 
ATOM     21  C   UNL d   1       3.845  -0.086   0.671  0.00  0.00     0.045 A 
ATOM     22  F   UNL d   1       6.072   0.310   0.023  0.00  0.00    -0.204 F 
ATOM     23  C   UNL d   1       2.719  -0.911   0.688  0.00  0.00     0.020 A 
ENDBRANCH   2  16
TORSDOF 3
