REMARK  4 active torsions:
REMARK  status: ('A' for Active; 'I' for Inactive)
REMARK    1  A    between atoms: N_2  and  C_1 
REMARK    2  A    between atoms: N_3  and  C_1 
REMARK    3  A    between atoms: C_7  and  N_2 
REMARK    4  A    between atoms: C_9  and  N_3 
ROOT
ATOM      1  N   UNL d   1       0.483  -0.450  -1.160  0.00  0.00    -0.333 N 
ATOM      2  H   UNL d   1      -0.512  -0.317  -1.222  0.00  0.00     0.168 HD
ENDROOT
BRANCH   1   3
ATOM      3  C   UNL d   1       1.026   0.139  -0.053  0.00  0.00     0.172 C 
ATOM      4  S   UNL d   1       2.611   0.553   0.263  0.00  0.00    -0.041 SA
BRANCH   3   5
ATOM      5  N   UNL d   1       0.148   0.395   0.966  0.00  0.00    -0.359 N 
ATOM      6  H   UNL d   1       0.622   0.845   1.744  0.00  0.00     0.162 HD
BRANCH   5   7
ATOM      7  C   UNL d   1      -1.258   0.000   1.225  0.00  0.00     0.021 C 
ATOM      8  C   UNL d   1      -1.510  -1.489   0.932  0.00  0.00     0.037 C 
ATOM      9  C   UNL d   1      -1.524   0.221   2.727  0.00  0.00     0.037 C 
ATOM     10  C   UNL d   1      -2.234   0.885   0.433  0.00  0.00     0.037 C 
ENDBRANCH   5   7
ENDBRANCH   3   5
ENDBRANCH   1   3
BRANCH   1  11
ATOM     11  C   UNL d   1       1.017  -1.247  -2.195  0.00  0.00     0.037 A 
ATOM     12  C   UNL d   1       0.079  -1.857  -3.043  0.00  0.00     0.072 A 
ATOM     13  C   UNL d   1       0.489  -2.747  -4.031  0.00  0.00     0.124 A 
ATOM     14  F   UNL d   1      -0.442  -3.343  -4.786  0.00  0.00    -0.205 F 
ATOM     15  C   UNL d   1       1.836  -3.042  -4.228  0.00  0.00    -0.023 A 
ATOM     16  C   UNL d   1       2.771  -2.421  -3.401  0.00  0.00     0.012 A 
ATOM     17  C   UNL d   1       2.250  -4.006  -5.296  0.00  0.00     0.051 C 
ATOM     18  C   UNL d   1       2.366  -1.542  -2.389  0.00  0.00     0.030 A 
ENDBRANCH   1  11
TORSDOF 4
