REMARK  7 active torsions:
REMARK  status: ('A' for Active; 'I' for Inactive)
REMARK    1  A    between atoms: N_7  and  S_1 
REMARK    2  A    between atoms: C_11  and  S_1 
REMARK    3  A    between atoms: C_8  and  C_2 
REMARK    4  A    between atoms: C_3  and  N_9 
REMARK    5  A    between atoms: C_17  and  C_5 
REMARK       I    between atoms: N_25  and  C_8 
REMARK       I    between atoms: N_9  and  C_10 
REMARK    6  A    between atoms: C_10  and  C_18 
REMARK    7  A    between atoms: C_18  and  N_12 
ROOT
ATOM      1  N   UNL d   1       4.759   0.270   5.050  0.00  0.00    -0.324 N 
ATOM      2  C   UNL d   1       3.603   0.884   5.485  0.00  0.00     0.250 C 
ATOM      3  O   UNL d   1       3.403   1.239   6.650  0.00  0.00    -0.271 OA
ATOM      4  H   UNL d   1       4.755  -0.150   4.122  0.00  0.00     0.169 HD
ENDROOT
BRANCH   2   5
ATOM      5  C   UNL d   1       2.470   1.098   4.463  0.00  0.00     0.375 C 
BRANCH   5   6
ATOM      6  N   UNL d   1       2.829   0.850   3.052  0.00  0.00     0.099 N 
ATOM      7  C   UNL d   1       2.654  -0.567   2.635  0.00  0.00     0.288 C 
ATOM      8  C   UNL d   1       1.226  -1.032   2.240  0.00  0.00     0.138 C 
ATOM      9  N   UNL d   1       0.555  -0.088   1.281  0.00  0.00    -0.203 NA
ATOM     10  C   UNL d   1       0.602   1.282   1.857  0.00  0.00     0.138 C 
ATOM     11  C   UNL d   1       2.045   1.737   2.152  0.00  0.00     0.288 C 
BRANCH   9  12
ATOM     12  S   UNL d   1       1.041  -0.317  -0.344  0.00  0.00     0.243 S 
ATOM     13  O   UNL d   1       0.654  -1.667  -0.711  0.00  0.00    -0.206 OA
ATOM     14  O   UNL d   1       2.423   0.097  -0.478  0.00  0.00    -0.206 OA
BRANCH  12  15
ATOM     15  C   UNL d   1       0.072   0.809  -1.331  0.00  0.00     0.074 A 
ATOM     16  C   UNL d   1       0.508   2.132  -1.479  0.00  0.00     0.025 A 
ATOM     17  C   UNL d   1      -0.117   2.978  -2.398  0.00  0.00     0.008 A 
ATOM     18  C   UNL d   1      -1.151   2.500  -3.211  0.00  0.00    -0.062 A 
ATOM     19  C   UNL d   1      -1.586   1.176  -3.057  0.00  0.00     0.008 A 
ATOM     20  C   UNL d   1      -1.742   3.396  -4.262  0.00  0.00     0.048 C 
ATOM     21  C   UNL d   1      -0.978   0.330  -2.120  0.00  0.00     0.025 A 
ENDBRANCH  12  15
ENDBRANCH   9  12
ENDBRANCH   5   6
ENDBRANCH   2   5
BRANCH   1  22
ATOM     22  C   UNL d   1       5.858  -0.002   5.875  0.00  0.00     0.058 A 
ATOM     23  C   UNL d   1       6.779  -1.006   5.599  0.00  0.00     0.100 A 
ATOM     24  S   UNL d   1       7.986  -1.114   6.818  0.00  0.00    -0.082 SA
ATOM     25  C   UNL d   1       7.299   0.152   7.735  0.00  0.00     0.018 A 
ATOM     26  C   UNL d   1       6.194   0.676   7.095  0.00  0.00     0.051 A 
BRANCH  23  27
ATOM     27  C   UNL d   1       6.766  -1.945   4.490  0.00  0.00     0.258 C 
ATOM     28  O   UNL d   1       5.939  -1.910   3.580  0.00  0.00    -0.267 OA
ATOM     29  N   UNL d   1       7.713  -2.931   4.495  0.00  0.00    -0.365 N 
ATOM     30  H   UNL d   1       8.377  -3.026   5.251  0.00  0.00     0.159 HD
ATOM     31  H   UNL d   1       7.691  -3.629   3.764  0.00  0.00     0.159 HD
ENDBRANCH  23  27
BRANCH  25  32
ATOM     32  C   UNL d   1       7.904   0.545   9.010  0.00  0.00    -0.019 A 
ATOM     33  C   UNL d   1       8.061  -0.385  10.050  0.00  0.00     0.013 A 
ATOM     34  C   UNL d   1       8.630  -0.006  11.268  0.00  0.00     0.001 A 
ATOM     35  C   UNL d   1       9.045   1.309  11.463  0.00  0.00     0.000 A 
ATOM     36  C   UNL d   1       8.887   2.247  10.444  0.00  0.00     0.001 A 
ATOM     37  C   UNL d   1       8.316   1.869   9.224  0.00  0.00     0.013 A 
ENDBRANCH  25  32
ENDBRANCH   1  22
TORSDOF 7
