REMARK  3 active torsions:
REMARK  status: ('A' for Active; 'I' for Inactive)
REMARK    1  A    between atoms: C_13  and  C_3 
REMARK    2  A    between atoms: N_9  and  C_4 
REMARK    3  A    between atoms: C_14  and  N_9 
ROOT
ATOM      1  C   UNL d   1       0.022  -0.485  -0.028  0.00  0.00     0.076 A 
ATOM      2  S   UNL d   1       1.713  -0.799  -0.059  0.00  0.00    -0.084 SA
ATOM      3  C   UNL d   1       2.122   0.870  -0.054  0.00  0.00     0.018 A 
ATOM      4  C   UNL d   1      -1.061  -1.372   0.051  0.00  0.00     0.126 A 
ATOM      5  C   UNL d   1       0.978   1.645  -0.078  0.00  0.00     0.050 A 
ATOM      6  C   UNL d   1      -0.223   0.882  -0.066  0.00  0.00     0.055 A 
ATOM      7  N   UNL d   1      -2.302  -0.828   0.053  0.00  0.00    -0.337 N 
ATOM      8  HN  UNL d   1      -3.125  -1.428   0.107  1.00  0.00     0.168 HD
ATOM      9  N   UNL d   1      -1.470   1.410  -0.070  0.00  0.00    -0.351 N 
ATOM     10  HN  UNL d   1      -1.648   2.413  -0.110  1.00  0.00     0.166 HD
ATOM     11  C   UNL d   1      -2.442   0.500  -0.017  0.00  0.00     0.182 A 
ENDROOT
BRANCH   4  12
ATOM     12  N   UNL d   1      -0.900  -2.764   0.103  0.00  0.00    -0.341 N 
ATOM     13  H   UNL d   1       0.045  -3.086  -0.058  0.00  0.00     0.167 HD
BRANCH  12  14
ATOM     14  C   UNL d   1      -1.743  -3.713   0.710  0.00  0.00     0.033 A 
ATOM     15  C   UNL d   1      -1.712  -5.043   0.270  0.00  0.00     0.029 A 
ATOM     16  C   UNL d   1      -2.577  -5.998   0.814  0.00  0.00     0.002 A 
ATOM     17  C   UNL d   1      -3.478  -5.640   1.814  0.00  0.00     0.000 A 
ATOM     18  C   UNL d   1      -3.522  -4.323   2.262  0.00  0.00     0.002 A 
ATOM     19  C   UNL d   1      -2.669  -3.369   1.703  0.00  0.00     0.029 A 
ENDBRANCH  12  14
ENDBRANCH   4  12
BRANCH   3  20
ATOM     20  C   UNL d   1       3.527   1.320  -0.049  0.00  0.00    -0.019 A 
ATOM     21  C   UNL d   1       3.876   2.529  -0.676  0.00  0.00     0.013 A 
ATOM     22  C   UNL d   1       5.193   2.996  -0.663  0.00  0.00     0.001 A 
ATOM     23  C   UNL d   1       6.186   2.261  -0.023  0.00  0.00     0.000 A 
ATOM     24  C   UNL d   1       5.862   1.062   0.606  0.00  0.00     0.001 A 
ATOM     25  C   UNL d   1       4.543   0.597   0.596  0.00  0.00     0.013 A 
ENDBRANCH   3  20
TORSDOF 3
