REMARK  9 active torsions:
REMARK  status: ('A' for Active; 'I' for Inactive)
REMARK    1  A    between atoms: N_4  and  C_1 
REMARK    2  A    between atoms: C_2  and  N_4 
REMARK    3  A    between atoms: N_14  and  C_2 
REMARK    4  A    between atoms: O_19  and  C_6 
REMARK    5  A    between atoms: O_20  and  C_8 
REMARK    6  A    between atoms: O_18  and  C_9 
REMARK    7  A    between atoms: N_10  and  N_14 
REMARK    8  A    between atoms: C_12  and  C_16 
REMARK    9  A    between atoms: O_21  and  C_15 
ROOT
ATOM      1  C   UNL d   1       4.697   1.344   0.222  0.00  0.00     0.191 C 
ATOM      2  S   UNL d   1       4.437   2.984   0.319  0.00  0.00    -0.039 SA
ENDROOT
BRANCH   1   3
ATOM      3  N   UNL d   1       3.790   0.305   0.254  0.00  0.00    -0.330 N 
ATOM      4  H   UNL d   1       4.169  -0.539  -0.170  0.00  0.00     0.168 HD
BRANCH   3   5
ATOM      5  C   UNL d   1       2.466   0.177   0.704  0.00  0.00     0.070 A 
ATOM      6  C   UNL d   1       1.871   1.056   1.605  0.00  0.00     0.071 A 
ATOM      7  C   UNL d   1       0.570   0.856   2.096  0.00  0.00     0.092 A 
ATOM      8  C   UNL d   1      -0.149  -0.258   1.641  0.00  0.00     0.070 A 
ATOM      9  C   UNL d   1       0.447  -1.161   0.747  0.00  0.00     0.065 A 
ATOM     10 CL   UNL d   1      -1.778  -0.648   2.078  0.00  0.00    -0.081 Cl
ATOM     11  C   UNL d   1       1.746  -0.959   0.279  0.00  0.00     0.096 A 
BRANCH   7  12
ATOM     12  O   UNL d   1       0.220   1.839   2.979  0.00  0.00    -0.354 OA
ATOM     13  C   UNL d   1      -0.976   1.745   3.731  0.00  0.00     0.210 C 
ENDBRANCH   7  12
BRANCH  11  14
ATOM     14  O   UNL d   1       2.400  -1.802  -0.582  0.00  0.00    -0.354 OA
ATOM     15  C   UNL d   1       1.605  -2.781  -1.251  0.00  0.00     0.210 C 
ENDBRANCH  11  14
ENDBRANCH   3   5
ENDBRANCH   1   3
BRANCH   1  16
ATOM     16  N   UNL d   1       5.996   0.873   0.043  0.00  0.00    -0.276 N 
ATOM     17  H   UNL d   1       6.750   1.554   0.019  0.00  0.00     0.189 HD
BRANCH  16  18
ATOM     18  N   UNL d   1       6.252  -0.395   0.464  0.00  0.00    -0.309 N 
ATOM     19  C   UNL d   1       7.443  -0.867   0.304  0.00  0.00     0.121 C 
ATOM     20  HN  UNL d   1       5.520  -0.959   0.895  1.00  0.00     0.186 HD
BRANCH  19  21
ATOM     21  C   UNL d   1       7.764  -2.163   0.941  0.00  0.00     0.017 A 
ATOM     22  C   UNL d   1       6.990  -2.659   2.017  0.00  0.00     0.110 A 
ATOM     23  C   UNL d   1       7.332  -3.875   2.617  0.00  0.00     0.102 A 
ATOM     24  C   UNL d   1       8.444  -4.576   2.128  0.00  0.00     0.040 A 
ATOM     25  C   UNL d   1       9.208  -4.082   1.068  0.00  0.00     0.004 A 
ATOM     26  C   UNL d   1       8.873  -2.868   0.473  0.00  0.00     0.016 A 
BRANCH  22  27
ATOM     27  O   UNL d   1       5.921  -1.945   2.496  0.00  0.00    -0.357 OA
ATOM     28  H   UNL d   1       5.754  -1.183   1.900  0.00  0.00     0.217 HD
ENDBRANCH  22  27
BRANCH  23  29
ATOM     29  O   UNL d   1       6.716  -4.515   3.662  0.00  0.00    -0.353 OA
ATOM     30  C   UNL d   1       5.559  -3.920   4.233  0.00  0.00     0.210 C 
ENDBRANCH  23  29
ENDBRANCH  19  21
ENDBRANCH  16  18
ENDBRANCH   1  16
TORSDOF 9
