REMARK  3 active torsions:
REMARK  status: ('A' for Active; 'I' for Inactive)
REMARK    1  A    between atoms: C_2  and  C_1 
REMARK    2  A    between atoms: C_13  and  N_3 
REMARK    3  A    between atoms: C_15  and  C_8 
ROOT
ATOM      1  C   UNL d   1      -0.543  -2.789   0.023  0.00  0.00     0.038 A 
ATOM      2  C   UNL d   1      -1.111  -3.429  -1.115  0.00  0.00     0.002 A 
ATOM      3  C   UNL d   1      -0.248  -3.584   1.127  0.00  0.00     0.104 A 
ATOM      4  N   UNL d   1      -0.373  -4.920   1.185  0.00  0.00    -0.364 N 
ATOM      5  HN  UNL d   1      -0.108  -5.438   2.023  1.00  0.00     0.165 HD
ATOM      6  C   UNL d   1      -1.243  -4.873  -1.073  0.00  0.00     0.003 A 
ATOM      7  C   UNL d   1      -0.856  -5.546   0.113  0.00  0.00     0.043 A 
ATOM      8  C   UNL d   1      -1.724  -5.698  -2.130  0.00  0.00     0.014 A 
ATOM      9  C   UNL d   1      -0.977  -6.924   0.215  0.00  0.00     0.030 A 
ATOM     10  C   UNL d   1      -1.877  -7.082  -1.995  0.00  0.00     0.001 A 
ATOM     11  C   UNL d   1      -1.499  -7.699  -0.817  0.00  0.00     0.002 A 
ENDROOT
BRANCH   1  12
ATOM     12  C   UNL d   1      -0.293  -1.345   0.141  0.00  0.00     0.151 A 
ATOM     13  N   UNL d   1       0.844  -0.722   0.670  0.00  0.00    -0.224 N 
ATOM     14  N   UNL d   1       0.571   0.599   0.803  0.00  0.00     0.001 NA
ATOM     15  N   UNL d   1      -0.623   0.787   0.272  0.00  0.00    -0.007 NA
ATOM     16  N   UNL d   1      -1.176  -0.397  -0.120  0.00  0.00    -0.269 N 
ATOM     17  HN  UNL d   1      -2.098  -0.526  -0.537  1.00  0.00     0.185 HD
BRANCH  13  18
ATOM     18  C   UNL d   1       2.100  -1.239   1.083  0.00  0.00     0.056 A 
ATOM     19  C   UNL d   1       2.634  -2.418   0.540  0.00  0.00     0.032 A 
ATOM     20  C   UNL d   1       3.832  -2.933   1.035  0.00  0.00     0.009 A 
ATOM     21  C   UNL d   1       4.523  -2.288   2.070  0.00  0.00    -0.062 A 
ATOM     22  C   UNL d   1       4.011  -1.091   2.580  0.00  0.00     0.009 A 
ATOM     23  C   UNL d   1       5.799  -2.869   2.602  0.00  0.00     0.048 C 
ATOM     24  C   UNL d   1       2.817  -0.560   2.081  0.00  0.00     0.032 A 
ENDBRANCH  13  18
ENDBRANCH   1  12
BRANCH   2  25
ATOM     25  C   UNL d   1      -1.594  -2.645  -2.304  0.00  0.00    -0.024 A 
ATOM     26  C   UNL d   1      -0.821  -1.637  -2.911  0.00  0.00     0.012 A 
ATOM     27  C   UNL d   1      -1.304  -0.887  -3.993  0.00  0.00     0.001 A 
ATOM     28  C   UNL d   1      -2.546  -1.173  -4.546  0.00  0.00     0.000 A 
ATOM     29  C   UNL d   1      -3.326  -2.178  -3.987  0.00  0.00     0.001 A 
ATOM     30  C   UNL d   1      -2.872  -2.871  -2.858  0.00  0.00     0.012 A 
ENDBRANCH   2  25
TORSDOF 3
