REMARK  2 active torsions:
REMARK  status: ('A' for Active; 'I' for Inactive)
REMARK    1  A    between atoms: C_7  and  C_4 
REMARK    2  A    between atoms: N_14  and  C_5 
ROOT
ATOM      1  C   UNL d   1       0.280   0.735   0.002  0.00  0.00     0.041 A 
ATOM      2  C   UNL d   1       0.170  -0.656   0.004  0.00  0.00     0.089 A 
ATOM      3  C   UNL d   1       2.526   0.009  -0.000  0.00  0.00     0.114 A 
ATOM      4  C   UNL d   1      -0.947   1.457   0.002  0.00  0.00     0.065 A 
ATOM      5  C   UNL d   1       1.680   1.102  -0.001  0.00  0.00     0.068 A 
ATOM      6  S   UNL d   1       1.668  -1.461   0.002  0.00  0.00    -0.058 SA
ATOM      7  N   UNL d   1      -0.960  -1.389   0.007  0.00  0.00    -0.354 N 
ATOM      8  HN  UNL d   1      -0.947  -2.409   0.009  1.00  0.00     0.166 HD
ATOM      9  C   UNL d   1       3.955   0.058  -0.001  0.00  0.00     0.109 C 
ATOM     10  N   UNL d   1       5.112   0.136  -0.002  0.00  0.00    -0.191 NA
ATOM     11  C   UNL d   1      -2.141   0.698   0.004  0.00  0.00     0.041 A 
ATOM     12  C   UNL d   1      -2.103  -0.688   0.006  0.00  0.00     0.007 A 
ATOM     13  C   UNL d   1      -3.374  -1.489   0.011  0.00  0.00     0.068 C 
ENDROOT
BRANCH   5  14
ATOM     14  N   UNL d   1       2.134   2.376  -0.005  0.00  0.00    -0.397 N 
ATOM     15  H   UNL d   1       3.120   2.633  -0.001  0.00  0.00     0.156 HD
ATOM     16  H   UNL d   1       1.526   3.196  -0.000  0.00  0.00     0.156 HD
ENDBRANCH   5  14
BRANCH   4  17
ATOM     17  C   UNL d   1      -1.108   2.958   0.000  0.00  0.00     0.418 C 
ATOM     18  F   UNL d   1       0.044   3.681   0.012  0.00  0.00    -0.166 F 
ATOM     19  F   UNL d   1      -1.795   3.395  -1.093  0.00  0.00    -0.166 F 
ATOM     20  F   UNL d   1      -1.817   3.396   1.079  0.00  0.00    -0.166 F 
ENDBRANCH   4  17
TORSDOF 2
