REMARK  2 active torsions:
REMARK  status: ('A' for Active; 'I' for Inactive)
REMARK    1  A    between atoms: O_9  and  C_2 
REMARK    2  A    between atoms: C_8  and  C_4 
ROOT
ATOM      1  N   UNL d   1      -1.197   1.338  -0.124  0.00  0.00     0.101 N 
ATOM      2  C   UNL d   1       0.128  -0.741  -0.488  0.00  0.00     0.148 C 
ATOM      3  C   UNL d   1       0.078   0.654   0.206  0.00  0.00     0.265 C 
ATOM      4  C   UNL d   1      -2.383   0.586   0.379  0.00  0.00     0.263 C 
ATOM      5  C   UNL d   1      -1.155  -1.524  -0.197  0.00  0.00     0.165 C 
ATOM      6  C   UNL d   1      -2.455  -0.771  -0.335  0.00  0.00     0.122 C 
ATOM      7  O   UNL d   1      -1.161  -2.727   0.077  0.00  0.00    -0.294 OA
ATOM      8  C   UNL d   1      -1.238   2.744   0.283  0.00  0.00     0.311 C 
ATOM      9  C   UNL d   1       1.366  -1.503  -0.003  0.00  0.00     0.048 C 
ATOM     10  C   UNL d   1       1.345   1.447  -0.199  0.00  0.00     0.039 C 
ATOM     11  C   UNL d   1       2.651  -0.743  -0.324  0.00  0.00     0.004 C 
ATOM     12  C   UNL d   1       2.617   0.693   0.195  0.00  0.00     0.002 C 
ENDROOT
BRANCH   4  13
ATOM     13  C   UNL d   1      -2.545   0.499   1.907  0.00  0.00    -0.025 A 
ATOM     14  C   UNL d   1      -3.291   1.487   2.575  0.00  0.00     0.009 A 
ATOM     15  C   UNL d   1      -3.498   1.432   3.957  0.00  0.00     0.001 A 
ATOM     16  C   UNL d   1      -2.958   0.392   4.705  0.00  0.00     0.000 A 
ATOM     17  C   UNL d   1      -2.213  -0.593   4.072  0.00  0.00     0.001 A 
ATOM     18  C   UNL d   1      -2.009  -0.539   2.689  0.00  0.00     0.009 A 
ENDBRANCH   4  13
BRANCH   2  19
ATOM     19  O   UNL d   1       0.221  -0.592  -1.914  0.00  0.00    -0.380 OA
ATOM     20  H   UNL d   1      -0.273   0.222  -2.141  0.00  0.00     0.211 HD
ENDBRANCH   2  19
TORSDOF 2
