REMARK  6 active torsions:
REMARK  status: ('A' for Active; 'I' for Inactive)
REMARK    1  A    between atoms: C_8  and  C_1 
REMARK    2  A    between atoms: C_2  and  C_9 
REMARK    3  A    between atoms: C_3  and  C_6 
REMARK    4  A    between atoms: C_4  and  C_7 
REMARK       I    between atoms: C_5  and  N_14 
REMARK       I    between atoms: N_15  and  C_5 
REMARK    5  A    between atoms: C_12  and  N_15 
REMARK    6  A    between atoms: N_14  and  C_13 
ROOT
ATOM      1  C   UNL d   1       1.402   5.571  -0.422  0.00  0.00     0.325 C 
ATOM      2  N   UNL d   1       1.566   4.238  -0.601  0.00  0.00    -0.309 N 
ATOM      3  N   UNL d   1       0.174   6.123  -0.665  0.00  0.00    -0.309 N 
ATOM      4  O   UNL d   1       2.369   6.168   0.047  0.00  0.00    -0.247 OA
ATOM      5  H   UNL d   1       2.436   3.969  -0.152  0.00  0.00     0.170 HD
ATOM      6  H   UNL d   1      -0.593   5.466  -0.686  0.00  0.00     0.170 HD
ENDROOT
BRANCH   2   7
ATOM      7  C   UNL d   1       0.897   3.218  -1.286  0.00  0.00     0.037 A 
ATOM      8  C   UNL d   1      -0.083   3.405  -2.258  0.00  0.00     0.045 A 
ATOM      9  C   UNL d   1      -0.630   2.296  -2.938  0.00  0.00     0.050 A 
ATOM     10  C   UNL d   1      -0.181   0.999  -2.627  0.00  0.00     0.032 A 
ATOM     11  C   UNL d   1       0.814   0.799  -1.664  0.00  0.00     0.050 A 
ATOM     12  C   UNL d   1       1.340   1.917  -1.004  0.00  0.00     0.045 A 
BRANCH   9  13
ATOM     13  C   UNL d   1      -1.672   2.509  -4.014  0.00  0.00     0.417 C 
ATOM     14  F   UNL d   1      -2.090   1.354  -4.603  0.00  0.00    -0.166 F 
ATOM     15  F   UNL d   1      -1.222   3.304  -5.022  0.00  0.00    -0.166 F 
ATOM     16  F   UNL d   1      -2.793   3.111  -3.530  0.00  0.00    -0.166 F 
ENDBRANCH   9  13
BRANCH  11  17
ATOM     17  C   UNL d   1       1.325  -0.579  -1.317  0.00  0.00     0.417 C 
ATOM     18  F   UNL d   1       0.943  -1.539  -2.202  0.00  0.00    -0.166 F 
ATOM     19  F   UNL d   1       2.686  -0.632  -1.271  0.00  0.00    -0.166 F 
ATOM     20  F   UNL d   1       0.893  -0.996  -0.096  0.00  0.00    -0.166 F 
ENDBRANCH  11  17
ENDBRANCH   2   7
BRANCH   3  21
ATOM     21  C   UNL d   1      -0.160   7.475  -0.391  0.00  0.00     0.037 A 
ATOM     22  C   UNL d   1       0.802   8.485  -0.264  0.00  0.00     0.045 A 
ATOM     23  C   UNL d   1       0.458   9.780   0.156  0.00  0.00     0.050 A 
ATOM     24  C   UNL d   1      -0.890  10.077   0.393  0.00  0.00     0.032 A 
ATOM     25  C   UNL d   1      -1.880   9.095   0.227  0.00  0.00     0.050 A 
ATOM     26  C   UNL d   1      -1.504   7.802  -0.187  0.00  0.00     0.045 A 
BRANCH  23  27
ATOM     27  C   UNL d   1       1.541  10.815   0.352  0.00  0.00     0.417 C 
ATOM     28  F   UNL d   1       1.134  11.877   1.102  0.00  0.00    -0.166 F 
ATOM     29  F   UNL d   1       2.642  10.320   0.981  0.00  0.00    -0.166 F 
ATOM     30  F   UNL d   1       1.980  11.336  -0.826  0.00  0.00    -0.166 F 
ENDBRANCH  23  27
BRANCH  25  31
ATOM     31  C   UNL d   1      -3.331   9.420   0.496  0.00  0.00     0.417 C 
ATOM     32  F   UNL d   1      -3.496  10.477   1.339  0.00  0.00    -0.166 F 
ATOM     33  F   UNL d   1      -4.011   9.733  -0.639  0.00  0.00    -0.166 F 
ATOM     34  F   UNL d   1      -4.005   8.382   1.065  0.00  0.00    -0.166 F 
ENDBRANCH  25  31
ENDBRANCH   3  21
TORSDOF 6
