REMARK  7 active torsions:
REMARK  status: ('A' for Active; 'I' for Inactive)
REMARK    1  A    between atoms: C_2  and  S_1 
REMARK    2  A    between atoms: N_5  and  S_1 
REMARK    3  A    between atoms: C_8  and  C_4 
REMARK    4  A    between atoms: O_18  and  C_8 
REMARK    5  A    between atoms: C_19  and  N_11 
REMARK    6  A    between atoms: C_21  and  C_19 
REMARK    7  A    between atoms: O_20  and  C_21 
ROOT
ATOM      1  S   UNL d   1       1.159  -0.030  -0.210  0.00  0.00     0.259 S 
ATOM      2  O   UNL d   1       2.535  -0.421  -0.394  0.00  0.00    -0.204 OA
ATOM      3  O   UNL d   1       0.134  -0.315  -1.192  0.00  0.00    -0.204 OA
ENDROOT
BRANCH   1   4
ATOM      4  C   UNL d   1       1.236   1.757  -0.212  0.00  0.00     0.146 C 
ATOM      5  N   UNL d   1       1.573   2.517  -1.329  0.00  0.00    -0.336 N 
ATOM      6  C   UNL d   1       1.368   3.870  -1.071  0.00  0.00     0.111 C 
ATOM      7  C   UNL d   1       2.108   2.017  -2.582  0.00  0.00     0.157 C 
ATOM      8  C   UNL d   1       1.081   3.962   0.282  0.00  0.00     0.039 C 
ATOM      9  C   UNL d   1       0.997   2.659   0.811  0.00  0.00     0.046 C 
BRANCH   6  10
ATOM     10  C   UNL d   1       1.454   4.949  -2.046  0.00  0.00     0.309 C 
ATOM     11  O   UNL d   1       1.708   4.830  -3.234  0.00  0.00    -0.258 OA
BRANCH  10  12
ATOM     12  O   UNL d   1       1.183   6.135  -1.426  0.00  0.00    -0.321 OA
ATOM     13  C   UNL d   1       1.204   7.286  -2.271  0.00  0.00     0.213 C 
ENDBRANCH  10  12
ENDBRANCH   6  10
ENDBRANCH   1   4
BRANCH   1  14
ATOM     14  N   UNL d   1       0.606  -0.528   1.336  0.00  0.00    -0.202 NA
ATOM     15  C   UNL d   1       1.662  -0.855   2.341  0.00  0.00     0.138 C 
ATOM     16  C   UNL d   1       2.326  -2.222   2.038  0.00  0.00     0.288 C 
ATOM     17  N   UNL d   1       1.408  -3.369   1.831  0.00  0.00     0.092 N 
ATOM     18  C   UNL d   1       0.237  -2.984   1.011  0.00  0.00     0.288 C 
ATOM     19  C   UNL d   1      -0.409  -1.625   1.345  0.00  0.00     0.138 C 
BRANCH  17  20
ATOM     20  C   UNL d   1       1.084  -4.042   3.095  0.00  0.00     0.298 C 
BRANCH  20  21
ATOM     21  C   UNL d   1       0.411  -5.416   2.928  0.00  0.00     0.194 C 
BRANCH  21  22
ATOM     22  O   UNL d   1       0.219  -6.011   4.209  0.00  0.00    -0.399 OA
ATOM     23  H   UNL d   1      -0.206  -6.873   4.056  0.00  0.00     0.209 HD
ENDBRANCH  21  22
ENDBRANCH  20  21
ENDBRANCH  17  20
ENDBRANCH   1  14
TORSDOF 7
