REMARK  3 active torsions:
REMARK  status: ('A' for Active; 'I' for Inactive)
REMARK    1  A    between atoms: N_2  and  C_5 
REMARK    2  A    between atoms: C_6  and  C_3 
REMARK       I    between atoms: N_9  and  C_6 
REMARK    3  A    between atoms: C_13  and  N_9 
ROOT
ATOM      1  N   UNL d   1      -1.580   0.969  -0.047  0.00  0.00    -0.349 N 
ATOM      2  C   UNL d   1      -2.352  -0.169  -0.180  0.00  0.00     0.102 A 
ATOM      3  C   UNL d   1      -0.236   0.669  -0.060  0.00  0.00     0.076 A 
ATOM      4  C   UNL d   1       0.902   1.495   0.050  0.00  0.00     0.130 A 
ATOM      5  C   UNL d   1      -1.466  -1.220  -0.340  0.00  0.00     0.049 A 
ATOM      6  C   UNL d   1      -0.140  -0.713  -0.213  0.00  0.00    -0.005 A 
ATOM      7  C   UNL d   1       2.163   0.871   0.049  0.00  0.00     0.038 A 
ATOM      8  C   UNL d   1       1.135  -1.311  -0.222  0.00  0.00     0.014 A 
ATOM      9  C   UNL d   1       2.275  -0.513  -0.074  0.00  0.00     0.003 A 
ATOM     10  H   UNL d   1      -1.968   1.902   0.061  0.00  0.00     0.166 HD
ENDROOT
BRANCH   2  11
ATOM     11  C   UNL d   1      -3.801  -0.086  -0.166  0.00  0.00     0.272 C 
ATOM     12  N   UNL d   1      -4.465  -1.296  -0.216  0.00  0.00    -0.322 N 
ATOM     13  H   UNL d   1      -3.903  -2.128  -0.099  0.00  0.00     0.169 HD
ATOM     14  O   UNL d   1      -4.343   1.015  -0.097  0.00  0.00    -0.266 OA
BRANCH  12  15
ATOM     15  C   UNL d   1      -5.848  -1.496  -0.426  0.00  0.00     0.035 A 
ATOM     16  C   UNL d   1      -6.731  -0.463  -0.758  0.00  0.00     0.031 A 
ATOM     17  C   UNL d   1      -8.072  -0.732  -1.052  0.00  0.00     0.026 A 
ATOM     18  C   UNL d   1      -8.543  -2.039  -1.006  0.00  0.00     0.034 A 
ATOM     19  C   UNL d   1      -7.688  -3.077  -0.645  0.00  0.00     0.026 A 
ATOM     20 CL   UNL d   1     -10.178  -2.373  -1.420  0.00  0.00    -0.084 Cl
ATOM     21  C   UNL d   1      -6.343  -2.805  -0.357  0.00  0.00     0.031 A 
ENDBRANCH  12  15
ENDBRANCH   2  11
BRANCH   4  22
ATOM     22  N   UNL d   1       0.831   2.958   0.154  0.00  0.00    -0.113 N 
ATOM     23  O   UNL d   1      -0.296   3.474   0.145  0.00  0.00    -0.532 OA
ATOM     24  O   UNL d   1       1.895   3.589   0.239  0.00  0.00    -0.532 OA
ENDBRANCH   4  22
TORSDOF 3
