REMARK  2 active torsions:
REMARK  status: ('A' for Active; 'I' for Inactive)
REMARK    1  A    between atoms: C_13  and  C_4 
REMARK    2  A    between atoms: N_15  and  C_5 
ROOT
ATOM      1  C   UNL d   1      -0.739   0.595   0.052  0.00  0.00     0.144 A 
ATOM      2  C   UNL d   1      -1.486   0.337  -1.246  0.00  0.00     0.095 C 
ATOM      3  C   UNL d   1      -0.266   2.088   0.043  0.00  0.00     0.246 A 
ATOM      4  C   UNL d   1      -1.571   0.291   1.306  0.00  0.00     0.045 C 
ATOM      5  C   UNL d   1      -2.615  -0.395  -1.247  0.00  0.00     0.139 C 
ATOM      6  C   UNL d   1      -2.697  -0.448   1.179  0.00  0.00     0.063 C 
ATOM      7  N   UNL d   1       1.126   2.082  -0.057  0.00  0.00    -0.325 N 
ATOM      8  O   UNL d   1      -3.159  -0.865  -0.066  0.00  0.00    -0.302 OA
ATOM      9  C   UNL d   1       0.592  -0.141   0.030  0.00  0.00    -0.003 A 
ATOM     10  C   UNL d   1       1.633   0.788  -0.039  0.00  0.00     0.043 A 
ATOM     11  C   UNL d   1      -0.941   0.821  -2.477  0.00  0.00     0.101 C 
ATOM     12  N   UNL d   1      -0.518   1.217  -3.477  0.00  0.00    -0.191 NA
ATOM     13  O   UNL d   1      -0.977   3.082   0.081  0.00  0.00    -0.271 OA
ATOM     14  C   UNL d   1      -3.580  -1.015   2.253  0.00  0.00     0.077 C 
ATOM     15  C   UNL d   1       0.851  -1.503   0.056  0.00  0.00     0.011 A 
ATOM     16  C   UNL d   1       2.955   0.403  -0.067  0.00  0.00     0.030 A 
ATOM     17  C   UNL d   1       2.185  -1.913   0.023  0.00  0.00     0.001 A 
ATOM     18  C   UNL d   1       3.227  -0.969  -0.034  0.00  0.00     0.002 A 
ATOM     19  H   UNL d   1       1.679   2.925  -0.062  0.00  0.00     0.169 HD
ENDROOT
BRANCH   5  20
ATOM     20  N   UNL d   1      -3.323  -0.786  -2.357  0.00  0.00    -0.282 NA
ATOM     21  H   UNL d   1      -3.207  -0.216  -3.192  0.00  0.00     0.126 HD
ATOM     22  H   UNL d   1      -4.292  -1.013  -2.149  0.00  0.00     0.126 HD
ENDBRANCH   5  20
BRANCH   4  23
ATOM     23  C   UNL d   1      -0.994   0.822   2.598  0.00  0.00     0.156 C 
ATOM     24  O   UNL d   1       0.211   1.072   2.672  0.00  0.00    -0.293 OA
ATOM     25  C   UNL d   1      -1.834   1.093   3.818  0.00  0.00     0.096 C 
ENDBRANCH   4  23
TORSDOF 2
