REMARK  2 active torsions:
REMARK  status: ('A' for Active; 'I' for Inactive)
REMARK    1  A    between atoms: N_15  and  C_1 
REMARK    2  A    between atoms: C_14  and  N_2 
ROOT
ATOM      1  C   UNL d   1       1.593   0.882   0.502  0.00  0.00     0.110 C 
ATOM      2  N   UNL d   1       1.849   1.252  -0.829  0.00  0.00    -0.285 N 
ATOM      3  C   UNL d   1       0.468   1.646   0.780  0.00  0.00     0.113 C 
ATOM      4  C   UNL d   1       1.808   2.647  -0.735  0.00  0.00     0.143 C 
ATOM      5  C   UNL d   1       0.754   2.872   0.155  0.00  0.00     0.102 C 
ATOM      6  N   UNL d   1       2.573   3.606  -1.305  0.00  0.00    -0.338 N 
ATOM      7  HN  UNL d   1       3.263   3.437  -2.037  1.00  0.00     0.167 HD
ATOM      8  N   UNL d   1       0.310   4.114   0.442  0.00  0.00    -0.350 N 
ATOM      9  HN  UNL d   1      -0.585   4.304   0.893  1.00  0.00     0.166 HD
ATOM     10  C   UNL d   1      -0.599   1.340   1.651  0.00  0.00     0.105 C 
ATOM     11  N   UNL d   1      -1.542   1.044   2.277  0.00  0.00    -0.191 NA
ATOM     12  C   UNL d   1       2.298   4.824  -0.770  0.00  0.00     0.060 A 
ATOM     13  C   UNL d   1       1.168   5.066   0.073  0.00  0.00     0.059 A 
ATOM     14  C   UNL d   1       3.197   5.868  -0.950  0.00  0.00     0.032 A 
ATOM     15  C   UNL d   1       0.994   6.297   0.673  0.00  0.00     0.032 A 
ATOM     16  C   UNL d   1       3.049   7.088  -0.280  0.00  0.00     0.002 A 
ATOM     17  C   UNL d   1       1.945   7.302   0.537  0.00  0.00     0.002 A 
ENDROOT
BRANCH   1  18
ATOM     18  N   UNL d   1       2.241  -0.117   1.162  0.00  0.00    -0.287 NA
ATOM     19  H   UNL d   1       2.367  -0.994   0.662  0.00  0.00     0.125 HD
ATOM     20  H   UNL d   1       3.207   0.142   1.398  0.00  0.00     0.125 HD
ENDBRANCH   1  18
BRANCH   2  21
ATOM     21  C   UNL d   1       1.273   0.501  -1.926  0.00  0.00     0.042 C 
ATOM     22  C   UNL d   1       1.086   1.112  -3.169  0.00  0.00     0.030 C 
ATOM     23  C   UNL d   1       0.037   0.676  -3.985  0.00  0.00     0.002 C 
ATOM     24  C   UNL d   1      -0.807  -0.358  -3.569  0.00  0.00     0.000 C 
ATOM     25  C   UNL d   1      -0.530  -1.054  -2.400  0.00  0.00     0.002 C 
ATOM     26  C   UNL d   1       0.542  -0.662  -1.606  0.00  0.00     0.030 C 
ENDBRANCH   2  21
TORSDOF 2
