REMARK  1 active torsions:
REMARK  status: ('A' for Active; 'I' for Inactive)
REMARK    1  A    between atoms: C_5  and  C_4 
ROOT
ATOM      1  C   UNL d   1      -0.749  -0.769   0.009  0.00  0.00     0.058 C 
ATOM      2  C   UNL d   1      -0.918   0.746   0.003  0.00  0.00     0.174 C 
ATOM      3  N   UNL d   1       0.630  -1.113   0.051  0.00  0.00    -0.280 NA
ATOM      4  C   UNL d   1      -1.758  -1.654  -0.019  0.00  0.00     0.039 C 
ATOM      5  C   UNL d   1       0.443   1.434  -0.040  0.00  0.00     0.064 C 
ATOM      6  C   UNL d   1       1.372  -0.635  -1.156  0.00  0.00     0.096 C 
ATOM      7  C   UNL d   1       1.316  -0.551   1.258  0.00  0.00     0.096 C 
ATOM      8  O   UNL d   1      -1.975   1.359   0.076  0.00  0.00    -0.291 OA
ATOM      9  C   UNL d   1       1.181   0.988   1.236  0.00  0.00     0.027 C 
ATOM     10  C   UNL d   1       1.176   0.891  -1.281  0.00  0.00     0.027 C 
ENDROOT
BRANCH   4  11
ATOM     11  C   UNL d   1      -3.151  -1.350  -0.079  0.00  0.00    -0.027 A 
ATOM     12  C   UNL d   1      -3.841  -1.206  -1.263  0.00  0.00     0.061 A 
ATOM     13  S   UNL d   1      -5.476  -0.762  -1.000  0.00  0.00    -0.113 SA
ATOM     14  C   UNL d   1      -5.266  -0.788   0.699  0.00  0.00     0.050 A 
ATOM     15  C   UNL d   1      -3.986  -1.150   1.058  0.00  0.00     0.019 A 
ENDBRANCH   4  11
TORSDOF 1
