REMARK  5 active torsions:
REMARK  status: ('A' for Active; 'I' for Inactive)
REMARK    1  A    between atoms: C_9  and  C_1 
REMARK    2  A    between atoms: N_8  and  C_2 
REMARK    3  A    between atoms: C_10  and  C_4 
REMARK    4  A    between atoms: C_6  and  C_7 
REMARK       I    between atoms: C_7  and  N_8 
REMARK    5  A    between atoms: O_16  and  C_9 
ROOT
ATOM      1  C   UNL d   1      -0.051   1.213  -0.081  0.00  0.00     0.107 A 
ATOM      2  C   UNL d   1       1.233   0.706  -0.203  0.00  0.00     0.059 A 
ATOM      3  S   UNL d   1      -1.219  -0.059  -0.073  0.00  0.00    -0.081 SA
ATOM      4  C   UNL d   1      -0.045  -1.294  -0.211  0.00  0.00     0.018 A 
ATOM      5  C   UNL d   1       1.206  -0.725  -0.328  0.00  0.00     0.051 A 
ENDROOT
BRANCH   2   6
ATOM      6  N   UNL d   1       2.482   1.323  -0.190  0.00  0.00    -0.322 N 
ATOM      7  C   UNL d   1       2.829   2.562   0.335  0.00  0.00     0.277 C 
ATOM      8  O   UNL d   1       2.015   3.363   0.795  0.00  0.00    -0.268 OA
ATOM      9  H   UNL d   1       3.259   0.695  -0.374  0.00  0.00     0.169 HD
BRANCH   7  10
ATOM     10  C   UNL d   1       4.359   2.857   0.291  0.00  0.00     0.269 C 
ATOM     11 CL   UNL d   1       5.297   1.320   0.254  0.00  0.00    -0.073 Cl
ATOM     12 CL   UNL d   1       4.707   3.778  -1.190  0.00  0.00    -0.073 Cl
ATOM     13 CL   UNL d   1       4.846   3.769   1.737  0.00  0.00    -0.073 Cl
ENDBRANCH   7  10
ENDBRANCH   2   6
BRANCH   1  14
ATOM     14  C   UNL d   1      -0.606   2.551   0.009  0.00  0.00     0.302 C 
ATOM     15  O   UNL d   1      -1.524   2.880   0.751  0.00  0.00    -0.259 OA
BRANCH  14  16
ATOM     16  O   UNL d   1      -0.060   3.358  -0.948  0.00  0.00    -0.322 OA
ATOM     17  C   UNL d   1      -0.560   4.699  -0.973  0.00  0.00     0.213 C 
ENDBRANCH  14  16
ENDBRANCH   1  14
BRANCH   4  18
ATOM     18  C   UNL d   1      -0.398  -2.726  -0.186  0.00  0.00    -0.019 A 
ATOM     19  C   UNL d   1       0.471  -3.674  -0.756  0.00  0.00     0.013 A 
ATOM     20  C   UNL d   1       0.208  -5.044  -0.674  0.00  0.00     0.001 A 
ATOM     21  C   UNL d   1      -0.938  -5.493  -0.027  0.00  0.00     0.000 A 
ATOM     22  C   UNL d   1      -1.821  -4.574   0.531  0.00  0.00     0.001 A 
ATOM     23  C   UNL d   1      -1.553  -3.203   0.454  0.00  0.00     0.013 A 
ENDBRANCH   4  18
TORSDOF 5
