REMARK  6 active torsions:
REMARK  status: ('A' for Active; 'I' for Inactive)
REMARK    1  A    between atoms: N_3  and  S_1 
REMARK    2  A    between atoms: C_10  and  S_1 
REMARK    3  A    between atoms: S_2  and  N_8 
REMARK    4  A    between atoms: C_11  and  S_2 
REMARK    5  A    between atoms: C_4  and  N_3 
REMARK    6  A    between atoms: N_8  and  C_21 
ROOT
ATOM      1  C   UNL d   1       0.547   1.716   0.351  0.00  0.00     0.075 A 
ATOM      2  C   UNL d   1      -0.550   2.002   1.172  0.00  0.00     0.027 A 
ATOM      3  C   UNL d   1       1.233   2.743  -0.303  0.00  0.00     0.027 A 
ATOM      4  C   UNL d   1      -0.343   4.340   0.598  0.00  0.00     0.042 A 
ATOM      5  C   UNL d   1      -1.001   3.320   1.287  0.00  0.00     0.031 A 
ATOM      6  C   UNL d   1       0.776   4.056  -0.186  0.00  0.00     0.031 A 
ENDROOT
BRANCH   1   7
ATOM      7  S   UNL d   1       1.093   0.039   0.170  0.00  0.00     0.247 S 
ATOM      8  O   UNL d   1       2.489   0.068  -0.221  0.00  0.00    -0.205 OA
ATOM      9  O   UNL d   1       0.670  -0.726   1.323  0.00  0.00    -0.205 OA
BRANCH   7  10
ATOM     10  N   UNL d   1       0.260  -0.487  -1.203  0.00  0.00    -0.165 NA
ATOM     11  H   UNL d   1       0.921  -0.984  -1.796  0.00  0.00     0.147 HD
BRANCH  10  12
ATOM     12  C   UNL d   1      -0.978  -1.083  -1.006  0.00  0.00     0.117 A 
ATOM     13  N   UNL d   1      -2.097  -0.372  -0.855  0.00  0.00    -0.249 N 
ATOM     14  O   UNL d   1      -3.110  -1.302  -0.691  0.00  0.00    -0.241 OA
ATOM     15  HN  UNL d   1      -2.188   0.644  -0.859  1.00  0.00     0.196 HD
ATOM     16  C   UNL d   1      -2.581  -2.555  -0.740  0.00  0.00     0.075 A 
ATOM     17  C   UNL d   1      -1.231  -2.467  -0.975  0.00  0.00     0.079 A 
ATOM     18  C   UNL d   1      -3.518  -3.672  -0.524  0.00  0.00     0.079 C 
ENDBRANCH  10  12
ENDBRANCH   7  10
ENDBRANCH   1   7
BRANCH   4  19
ATOM     19  N   UNL d   1      -0.878   5.648   0.543  0.00  0.00    -0.281 N 
ATOM     20  H   UNL d   1      -1.679   5.822  -0.063  0.00  0.00     0.179 HD
BRANCH  19  21
ATOM     21  S   UNL d   1      -0.746   6.703   1.835  0.00  0.00     0.263 S 
ATOM     22  O   UNL d   1      -1.554   7.854   1.497  0.00  0.00    -0.200 OA
ATOM     23  O   UNL d   1      -0.949   5.985   3.075  0.00  0.00    -0.200 OA
BRANCH  21  24
ATOM     24  C   UNL d   1       0.958   7.214   1.742  0.00  0.00     0.080 A 
ATOM     25  C   UNL d   1       1.337   8.164   0.784  0.00  0.00     0.027 A 
ATOM     26  C   UNL d   1       2.665   8.600   0.743  0.00  0.00     0.025 A 
ATOM     27  C   UNL d   1       3.593   8.095   1.656  0.00  0.00     0.034 A 
ATOM     28  C   UNL d   1       3.206   7.154   2.613  0.00  0.00     0.025 A 
ATOM     29 CL   UNL d   1       5.220   8.647   1.613  0.00  0.00    -0.084 Cl
ATOM     30  C   UNL d   1       1.881   6.710   2.658  0.00  0.00     0.027 A 
ENDBRANCH  21  24
ENDBRANCH  19  21
ENDBRANCH   4  19
TORSDOF 6
