REMARK  2 active torsions:
REMARK  status: ('A' for Active; 'I' for Inactive)
REMARK    1  A    between atoms: C_3  and  N_1 
REMARK    2  A    between atoms: N_6  and  C_2 
ROOT
ATOM      1  C   UNL d   1      -1.204  -1.929   3.055  0.00  0.00     0.082 A 
ATOM      2  C   UNL d   1       0.252  -0.618   1.016  0.00  0.00     0.106 A 
ATOM      3  C   UNL d   1      -0.003  -1.239   3.344  0.00  0.00     0.065 A 
ATOM      4  C   UNL d   1      -1.649  -1.951   1.712  0.00  0.00     0.065 A 
ATOM      5  C   UNL d   1       0.708  -0.574   2.332  0.00  0.00     0.062 A 
ATOM      6  C   UNL d   1      -0.913  -1.312   0.700  0.00  0.00     0.062 A 
ATOM      7 CL   UNL d   1       0.800  -1.253   4.882  0.00  0.00    -0.082 Cl
ATOM      8 CL   UNL d   1      -3.167  -2.600   1.181  0.00  0.00    -0.082 Cl
ENDROOT
BRANCH   1   9
ATOM      9  N   UNL d   1      -1.947  -2.580   4.092  0.00  0.00    -0.330 N 
ATOM     10  C   UNL d   1      -2.617  -3.788   4.003  0.00  0.00     0.097 A 
ATOM     11  C   UNL d   1      -3.217  -4.075   5.210  0.00  0.00     0.019 A 
ATOM     12  C   UNL d   1      -2.895  -3.028   6.092  0.00  0.00     0.019 A 
ATOM     13  C   UNL d   1      -2.140  -2.119   5.383  0.00  0.00     0.097 A 
ENDBRANCH   1   9
BRANCH   2  14
ATOM     14  N   UNL d   1       1.004   0.072  -0.041  0.00  0.00    -0.116 N 
ATOM     15  O   UNL d   1       2.005   0.718   0.294  0.00  0.00    -0.532 OA
ATOM     16  O   UNL d   1       0.589  -0.036  -1.203  0.00  0.00    -0.532 OA
ENDBRANCH   2  14
TORSDOF 2
