REMARK  4 active torsions:
REMARK  status: ('A' for Active; 'I' for Inactive)
REMARK    1  A    between atoms: C_10  and  N_1 
REMARK    2  A    between atoms: C_9  and  C_11 
REMARK    3  A    between atoms: O_18  and  C_9 
REMARK    4  A    between atoms: C_19  and  O_18 
ROOT
ATOM      1  N   UNL d   1       0.939  -0.652   0.029  0.00  0.00    -0.239 N 
ATOM      2  C   UNL d   1      -0.353  -0.912  -0.454  0.00  0.00     0.143 A 
ATOM      3  N   UNL d   1       1.000   0.560   0.651  0.00  0.00    -0.302 N 
ATOM      4  HN  UNL d   1       1.783   0.955   1.173  1.00  0.00     0.186 HD
ATOM      5  C   UNL d   1      -1.066   0.249  -0.238  0.00  0.00     0.106 A 
ATOM      6  C   UNL d   1      -0.190   1.115   0.426  0.00  0.00     0.134 A 
ATOM      7  C   UNL d   1      -2.431   0.490  -0.551  0.00  0.00     0.104 C 
ATOM      8  N   UNL d   1      -3.552   0.676  -0.791  0.00  0.00    -0.191 NA
ATOM      9  N   UNL d   1      -0.769  -2.111  -0.959  0.00  0.00    -0.383 N 
ATOM     10  H   UNL d   1      -0.286  -2.968  -0.694  0.00  0.00     0.157 HD
ATOM     11  H   UNL d   1      -1.765  -2.281  -1.099  0.00  0.00     0.157 HD
ENDROOT
BRANCH   1  12
ATOM     12  C   UNL d   1       2.107  -1.464  -0.039  0.00  0.00     0.058 A 
ATOM     13  C   UNL d   1       2.272  -2.419  -1.050  0.00  0.00     0.032 A 
ATOM     14  C   UNL d   1       3.431  -3.200  -1.094  0.00  0.00     0.020 A 
ATOM     15  C   UNL d   1       4.436  -3.029  -0.133  0.00  0.00     0.039 A 
ATOM     16  C   UNL d   1       4.273  -2.068   0.872  0.00  0.00     0.020 A 
ATOM     17  C   UNL d   1       3.122  -1.278   0.910  0.00  0.00     0.032 A 
BRANCH  15  18
ATOM     18  C   UNL d   1       5.727  -3.765  -0.190  0.00  0.00     0.293 C 
ATOM     19  O   UNL d   1       6.635  -3.597   0.607  0.00  0.00    -0.259 OA
BRANCH  18  20
ATOM     20  O   UNL d   1       5.771  -4.532  -1.307  0.00  0.00    -0.318 OA
BRANCH  20  21
ATOM     21  C   UNL d   1       7.084  -4.922  -1.729  0.00  0.00     0.174 C 
ATOM     22  C   UNL d   1       7.620  -3.836  -2.645  0.00  0.00     0.034 C 
ENDBRANCH  20  21
ENDBRANCH  18  20
ENDBRANCH  15  18
ENDBRANCH   1  12
TORSDOF 4
