REMARK  7 active torsions:
REMARK  status: ('A' for Active; 'I' for Inactive)
REMARK    1  A    between atoms: C_2  and  N_1 
REMARK    2  A    between atoms: C_15  and  C_9 
REMARK    3  A    between atoms: N_14  and  C_20 
REMARK    4  A    between atoms: C_22  and  N_14 
REMARK    5  A    between atoms: O_18  and  C_15 
REMARK    6  A    between atoms: C_20  and  C_15 
REMARK    7  A    between atoms: C_16  and  C_22 
ROOT
ATOM      1  C   UNL d   1       1.153   0.519  -4.778  0.00  0.00     0.306 C 
ENDROOT
BRANCH   1   2
ATOM      2  N   UNL d   1       1.531   0.134  -6.161  0.00  0.00     0.090 N 
ATOM      3  H   UNL d   1       1.946   0.951  -6.612  0.00  0.00     0.316 HD
BRANCH   2   4
ATOM      4  C   UNL d   1       2.556  -0.916  -6.088  0.00  0.00     0.308 C 
BRANCH   4   5
ATOM      5  C   UNL d   1       3.222  -1.307  -7.390  0.00  0.00    -0.028 A 
ATOM      6  C   UNL d   1       4.232  -2.288  -7.307  0.00  0.00     0.048 A 
ATOM      7  C   UNL d   1       4.939  -2.611  -8.443  0.00  0.00     0.105 A 
ATOM      8  O   UNL d   1       5.970  -3.494  -8.509  0.00  0.00    -0.323 OA
ATOM      9  C   UNL d   1       4.667  -2.023  -9.652  0.00  0.00     0.105 A 
ATOM     10  C   UNL d   1       6.392  -3.304  -9.874  0.00  0.00     0.352 C 
ATOM     11  O   UNL d   1       5.502  -2.459 -10.634  0.00  0.00    -0.323 OA
ATOM     12  C   UNL d   1       3.661  -1.092  -9.792  0.00  0.00     0.040 A 
ATOM     13  C   UNL d   1       2.933  -0.731  -8.646  0.00  0.00     0.012 A 
ENDBRANCH   4   5
ENDBRANCH   2   4
ENDBRANCH   1   2
BRANCH   1  14
ATOM     14  C   UNL d   1       0.019   1.573  -4.741  0.00  0.00     0.179 C 
BRANCH  14  15
ATOM     15  C   UNL d   1       0.466   2.942  -5.217  0.00  0.00    -0.026 A 
ATOM     16  C   UNL d   1       0.206   3.385  -6.523  0.00  0.00     0.045 A 
ATOM     17  C   UNL d   1       0.656   4.644  -6.943  0.00  0.00     0.103 A 
ATOM     18  C   UNL d   1       1.365   5.476  -6.068  0.00  0.00     0.036 A 
ATOM     19  C   UNL d   1       1.624   5.041  -4.768  0.00  0.00     0.003 A 
ATOM     20  C   UNL d   1       1.179   3.785  -4.347  0.00  0.00     0.010 A 
BRANCH  17  21
ATOM     21  N   UNL d   1       0.391   5.087  -8.314  0.00  0.00    -0.116 N 
ATOM     22  O   UNL d   1      -0.044   4.248  -9.119  0.00  0.00    -0.532 OA
ATOM     23  O   UNL d   1       0.630   6.269  -8.595  0.00  0.00    -0.532 OA
ENDBRANCH  17  21
ENDBRANCH  14  15
BRANCH  14  24
ATOM     24  O   UNL d   1      -1.089   1.109  -5.515  0.00  0.00    -0.389 OA
ATOM     25  H   UNL d   1      -0.712   0.451  -6.133  0.00  0.00     0.210 HD
ENDBRANCH  14  24
ENDBRANCH   1  14
TORSDOF 7
