REMARK  3 active torsions:
REMARK  status: ('A' for Active; 'I' for Inactive)
REMARK       I    between atoms: N_2  and  C_1 
REMARK    1  A    between atoms: C_3  and  C_1 
REMARK    2  A    between atoms: C_5  and  N_2 
REMARK    3  A    between atoms: O_13  and  C_8 
ROOT
ATOM      1  C   UNL d   1       0.974  -1.873   1.490  0.00  0.00     0.035 A 
ATOM      2  C   UNL d   1       1.999  -3.789   3.281  0.00  0.00     0.068 A 
ATOM      3  C   UNL d   1       2.125  -1.608   2.232  0.00  0.00     0.032 A 
ATOM      4  C   UNL d   1       0.315  -3.092   1.682  0.00  0.00     0.032 A 
ATOM      5  C   UNL d   1       0.824  -4.041   2.574  0.00  0.00     0.039 A 
ATOM      6  C   UNL d   1       2.635  -2.560   3.125  0.00  0.00     0.039 A 
ENDROOT
BRANCH   1   7
ATOM      7  N   UNL d   1       0.421  -0.983   0.547  0.00  0.00    -0.325 N 
ATOM      8  C   UNL d   1       0.961   0.212   0.087  0.00  0.00     0.255 C 
ATOM      9  O   UNL d   1       2.035   0.696   0.446  0.00  0.00    -0.270 OA
ATOM     10  H   UNL d   1      -0.441  -1.284   0.102  0.00  0.00     0.169 HD
BRANCH   8  11
ATOM     11  C   UNL d   1       0.094   0.944  -0.938  0.00  0.00     0.270 C 
ATOM     12 CL   UNL d   1      -0.352  -0.162  -2.259  0.00  0.00    -0.098 Cl
ATOM     13 CL   UNL d   1      -1.363   1.560  -0.130  0.00  0.00    -0.098 Cl
ENDBRANCH   8  11
ENDBRANCH   1   7
BRANCH   2  14
ATOM     14  O   UNL d   1       2.415  -4.797   4.106  0.00  0.00    -0.356 OA
ATOM     15  C   UNL d   1       3.803  -4.801   4.421  0.00  0.00     0.210 C 
ENDBRANCH   2  14
TORSDOF 3
