REMARK  6 active torsions:
REMARK  status: ('A' for Active; 'I' for Inactive)
REMARK    1  A    between atoms: C_2  and  C_1 
REMARK       I    between atoms: N_4  and  C_1 
REMARK    2  A    between atoms: N_3  and  C_5 
REMARK    3  A    between atoms: C_6  and  N_4 
REMARK    4  A    between atoms: C_7  and  N_4 
REMARK    5  A    between atoms: C_9  and  C_7 
REMARK    6  A    between atoms: O_14  and  C_9 
ROOT
ATOM      1  C   UNL d   1       0.809   0.051  -0.133  0.00  0.00     0.257 C 
ATOM      2  N   UNL d   1       0.299   0.764  -1.246  0.00  0.00    -0.330 N 
ATOM      3  O   UNL d   1       2.014  -0.193  -0.012  0.00  0.00    -0.267 OA
ENDROOT
BRANCH   1   4
ATOM      4  C   UNL d   1      -0.009  -0.577   0.957  0.00  0.00     0.065 A 
ATOM      5  C   UNL d   1      -1.081  -0.044   1.671  0.00  0.00     0.118 A 
ATOM      6  C   UNL d   1      -1.736  -0.758   2.695  0.00  0.00     0.037 A 
ATOM      7  C   UNL d   1      -1.259  -2.002   3.094  0.00  0.00     0.002 A 
ATOM      8  C   UNL d   1      -0.134  -2.525   2.469  0.00  0.00     0.001 A 
ATOM      9  C   UNL d   1       0.467  -1.834   1.410  0.00  0.00     0.020 A 
BRANCH   5  10
ATOM     10  N   UNL d   1      -1.493   1.336   1.525  0.00  0.00    -0.115 N 
ATOM     11  O   UNL d   1      -0.625   2.200   1.690  0.00  0.00    -0.532 OA
ATOM     12  O   UNL d   1      -2.695   1.517   1.299  0.00  0.00    -0.532 OA
ENDBRANCH   5  10
ENDBRANCH   1   4
BRANCH   2  13
ATOM     13  C   UNL d   1       1.255   1.228  -2.354  0.00  0.00     0.025 C 
ATOM     14  C   UNL d   1       1.284   0.183  -3.494  0.00  0.00     0.037 C 
ATOM     15  C   UNL d   1       0.828   2.588  -2.954  0.00  0.00     0.037 C 
ATOM     16  C   UNL d   1       2.727   1.451  -1.914  0.00  0.00     0.037 C 
ENDBRANCH   2  13
BRANCH   2  17
ATOM     17  C   UNL d   1      -1.153   0.798  -1.578  0.00  0.00     0.238 C 
BRANCH  17  18
ATOM     18  C   UNL d   1      -1.866   2.155  -1.447  0.00  0.00     0.276 C 
ATOM     19  O   UNL d   1      -1.354   3.205  -1.084  0.00  0.00    -0.263 OA
BRANCH  18  20
ATOM     20  O   UNL d   1      -3.181   2.015  -1.786  0.00  0.00    -0.325 OA
ATOM     21  C   UNL d   1      -3.945   3.207  -1.585  0.00  0.00     0.213 C 
ENDBRANCH  18  20
ENDBRANCH  17  18
ENDBRANCH   2  17
TORSDOF 6
