REMARK  5 active torsions:
REMARK  status: ('A' for Active; 'I' for Inactive)
REMARK    1  A    between atoms: C_2  and  C_1 
REMARK       I    between atoms: N_5  and  C_1 
REMARK    2  A    between atoms: C_4  and  C_3 
REMARK    3  A    between atoms: O_14  and  C_4 
REMARK    4  A    between atoms: C_11  and  N_5 
REMARK    5  A    between atoms: C_7  and  C_8 
ROOT
ATOM      1  C   UNL d   1       0.942   0.219  -0.170  0.00  0.00     0.257 C 
ATOM      2  N   UNL d   1       0.164   1.001   0.664  0.00  0.00    -0.323 N 
ATOM      3  O   UNL d   1       0.521  -0.686  -0.883  0.00  0.00    -0.267 OA
ATOM      4  H   UNL d   1       0.562   1.829   1.093  0.00  0.00     0.169 HD
ENDROOT
BRANCH   1   5
ATOM      5  C   UNL d   1       2.403   0.512  -0.247  0.00  0.00     0.049 A 
ATOM      6  C   UNL d   1       3.019   1.766  -0.125  0.00  0.00     0.053 A 
ATOM      7  C   UNL d   1       4.425   1.853  -0.199  0.00  0.00     0.019 A 
ATOM      8  C   UNL d   1       5.210   0.721  -0.419  0.00  0.00     0.001 A 
ATOM      9  C   UNL d   1       4.603  -0.517  -0.570  0.00  0.00     0.001 A 
ATOM     10  C   UNL d   1       3.214  -0.620  -0.486  0.00  0.00     0.018 A 
BRANCH   6  11
ATOM     11  C   UNL d   1       2.334   3.058   0.121  0.00  0.00     0.177 C 
ATOM     12  O   UNL d   1       2.810   3.912   0.846  0.00  0.00    -0.646 OA
BRANCH  11  13
ATOM     13  O   UNL d   1       1.147   3.220  -0.496  0.00  0.00    -0.773 OA
ATOM     14  H   UNL d   1       0.868   2.541  -1.141  0.00  0.00     0.167 HD
ENDBRANCH  11  13
ENDBRANCH   6  11
ENDBRANCH   1   5
BRANCH   2  15
ATOM     15  C   UNL d   1      -1.206   0.797   0.945  0.00  0.00     0.035 A 
ATOM     16  C   UNL d   1      -1.864  -0.409   0.700  0.00  0.00     0.030 A 
ATOM     17  C   UNL d   1      -3.200  -0.575   1.074  0.00  0.00     0.017 A 
ATOM     18  C   UNL d   1      -3.894   0.464   1.698  0.00  0.00     0.009 A 
ATOM     19  C   UNL d   1      -3.258   1.691   1.903  0.00  0.00     0.017 A 
ATOM     20  C   UNL d   1      -1.914   1.850   1.538  0.00  0.00     0.030 A 
BRANCH  18  21
ATOM     21  C   UNL d   1      -5.293   0.198   2.128  0.00  0.00     0.155 C 
ATOM     22  O   UNL d   1      -5.967  -0.627   1.512  0.00  0.00    -0.293 OA
ATOM     23  C   UNL d   1      -5.839   0.885   3.351  0.00  0.00     0.096 C 
ENDBRANCH  18  21
ENDBRANCH   2  15
TORSDOF 5
