REMARK  3 active torsions:
REMARK  status: ('A' for Active; 'I' for Inactive)
REMARK    1  A    between atoms: O_20  and  C_7 
REMARK    2  A    between atoms: C_13  and  C_18 
REMARK    3  A    between atoms: N_16  and  O_20 
ROOT
ATOM      1  C   UNL d   1      -0.443   0.931  -0.639  0.00  0.00     0.080 A 
ATOM      2  C   UNL d   1      -0.051  -0.394  -0.549  0.00  0.00     0.139 A 
ATOM      3  N   UNL d   1       1.460   0.657  -1.891  0.00  0.00    -0.307 N 
ATOM      4  HN  UNL d   1       2.259   0.830  -2.501  1.00  0.00     0.186 HD
ATOM      5  N   UNL d   1       1.089  -0.501  -1.299  0.00  0.00    -0.281 N 
ATOM      6  C   UNL d   1       0.522   1.521  -1.482  0.00  0.00     0.127 A 
ATOM      7  C   UNL d   1      -1.592   1.289   0.070  0.00  0.00     0.186 A 
ATOM      8  N   UNL d   1      -0.667  -1.370   0.141  0.00  0.00    -0.337 N 
ATOM      9  HN  UNL d   1      -0.340  -2.335   0.186  1.00  0.00     0.168 HD
ATOM     10  N   UNL d   1      -2.263   0.334   0.765  0.00  0.00    -0.330 N 
ATOM     11  HN  UNL d   1      -3.118   0.559   1.275  1.00  0.00     0.168 HD
ATOM     12  C   UNL d   1      -1.768  -0.916   0.764  0.00  0.00     0.184 A 
ATOM     13  C   UNL d   1       1.888  -1.685  -1.494  0.00  0.00     0.179 C 
ENDROOT
BRANCH   7  14
ATOM     14  O   UNL d   1      -2.147   2.561   0.151  0.00  0.00    -0.219 OA
BRANCH  14  15
ATOM     15  N   UNL d   1      -1.188   3.550  -0.123  0.00  0.00    -0.270 N 
ATOM     16  C   UNL d   1      -1.477   4.605   0.570  0.00  0.00     0.127 C 
ATOM     17  HN  UNL d   1      -0.398   3.453  -0.761  1.00  0.00     0.194 HD
BRANCH  16  18
ATOM     18  C   UNL d   1      -0.630   5.812   0.514  0.00  0.00     0.003 A 
ATOM     19  C   UNL d   1      -0.604   6.737   1.565  0.00  0.00     0.047 A 
ATOM     20  C   UNL d   1       0.221   7.864   1.484  0.00  0.00     0.048 A 
ATOM     21 CL   UNL d   1      -1.528   6.532   3.011  0.00  0.00    -0.083 Cl
ATOM     22  C   UNL d   1       1.010   8.066   0.352  0.00  0.00     0.035 A 
ATOM     23  C   UNL d   1       0.989   7.151  -0.699  0.00  0.00     0.025 A 
ATOM     24 CL   UNL d   1       2.020   9.454   0.254  0.00  0.00    -0.084 Cl
ATOM     25  C   UNL d   1       0.173   6.022  -0.617  0.00  0.00     0.016 A 
ENDBRANCH  16  18
ENDBRANCH  14  15
ENDBRANCH   7  14
TORSDOF 3
