REMARK  6 active torsions:
REMARK  status: ('A' for Active; 'I' for Inactive)
REMARK    1  A    between atoms: N_5  and  C_1 
REMARK       I    between atoms: C_4  and  N_5 
REMARK       I    between atoms: N_9  and  C_4 
REMARK    2  A    between atoms: O_17  and  C_8 
REMARK    3  A    between atoms: C_11  and  N_9 
REMARK    4  A    between atoms: C_19  and  C_14 
REMARK    5  A    between atoms: S_16  and  C_15 
REMARK    6  A    between atoms: O_18  and  C_19 
ROOT
ATOM      1  C   UNL d   1       2.921  -2.331  -0.535  0.00  0.00     0.691 C 
ATOM      2  N   UNL d   1       1.594  -2.033  -0.604  0.00  0.00    -0.022 N 
ATOM      3  N   UNL d   1       3.680  -1.193  -0.653  0.00  0.00    -0.190 N 
ATOM      4  N   UNL d   1       3.420  -3.513  -0.399  0.00  0.00    -0.234 N 
ATOM      5  HN  UNL d   1       4.415  -3.736  -0.371  1.00  0.00     0.174 HD
ATOM      6  H   UNL d   1       1.317  -1.389  -1.328  0.00  0.00     0.203 HD
ATOM      7  H   UNL d   1       3.370  -0.388  -0.126  0.00  0.00     0.184 HD
ATOM      8  H   UNL d   1       2.655  -4.190  -0.322  0.00  0.00     0.174 HD
ENDROOT
BRANCH   2   9
ATOM      9  C   UNL d   1       0.545  -2.887  -0.295  0.00  0.00     0.699 A 
ATOM     10  N   UNL d   1       0.699  -3.819   0.655  0.00  0.00    -0.170 N 
ATOM     11  C   UNL d   1      -0.388  -4.522   0.973  0.00  0.00     0.157 A 
ATOM     12  HN  UNL d   1       1.598  -3.981   1.110  1.00  0.00     0.186 HD
ATOM     13  C   UNL d   1      -1.612  -4.402   0.378  0.00  0.00     0.084 A 
ATOM     14  C   UNL d   1      -1.671  -3.459  -0.623  0.00  0.00     0.054 A 
ATOM     15  N   UNL d   1      -0.613  -2.678  -0.947  0.00  0.00    -0.193 N 
ATOM     16  HN  UNL d   1      -0.692  -1.954  -1.661  1.00  0.00     0.184 HD
BRANCH  11  17
ATOM     17  O   UNL d   1      -0.207  -5.392   1.997  0.00  0.00    -0.346 OA
ATOM     18  H   UNL d   1       0.723  -5.211   2.228  0.00  0.00     0.219 HD
ENDBRANCH  11  17
BRANCH  14  19
ATOM     19  C   UNL d   1      -2.972  -3.215  -1.354  0.00  0.00     0.224 C 
BRANCH  19  20
ATOM     20  O   UNL d   1      -3.965  -2.588  -0.537  0.00  0.00    -0.390 OA
ATOM     21  C   UNL d   1      -3.589  -1.282  -0.119  0.00  0.00     0.201 C 
ENDBRANCH  19  20
ENDBRANCH  14  19
ENDBRANCH   2   9
BRANCH   3  22
ATOM     22  C   UNL d   1       5.052  -1.161  -0.985  0.00  0.00     0.066 A 
ATOM     23  C   UNL d   1       5.982  -0.357  -0.294  0.00  0.00     0.027 A 
ATOM     24  C   UNL d   1       7.319  -0.323  -0.735  0.00  0.00     0.021 A 
ATOM     25  C   UNL d   1       7.737  -1.075  -1.836  0.00  0.00     0.002 A 
ATOM     26  C   UNL d   1       6.827  -1.890  -2.497  0.00  0.00     0.002 A 
ATOM     27  C   UNL d   1       5.506  -1.947  -2.061  0.00  0.00     0.031 A 
BRANCH  23  28
ATOM     28  S   UNL d   1       5.582   0.740   1.075  0.00  0.00    -0.132 SA
ATOM     29  C   UNL d   1       4.693  -0.350   2.224  0.00  0.00     0.095 C 
ENDBRANCH  23  28
ENDBRANCH   3  22
TORSDOF 6
