REMARK  4 active torsions:
REMARK  status: ('A' for Active; 'I' for Inactive)
REMARK    1  A    between atoms: C_7  and  C_1 
REMARK    2  A    between atoms: C_6  and  C_7 
REMARK       I    between atoms: N_8  and  C_6 
REMARK    3  A    between atoms: C_14  and  N_8 
REMARK    4  A    between atoms: C_9  and  C_10 
ROOT
ATOM      1  C   UNL d   1       3.082  -2.467   0.618  0.00  0.00     0.226 C 
ATOM      2  N   UNL d   1       3.737  -1.295   0.974  0.00  0.00    -0.327 N 
ATOM      3  O   UNL d   1       1.905  -2.551   0.259  0.00  0.00    -0.273 OA
ATOM      4  H   UNL d   1       4.743  -1.331   1.075  0.00  0.00     0.169 HD
ENDROOT
BRANCH   1   5
ATOM      5  C   UNL d   1       3.943  -3.731   0.693  0.00  0.00     0.145 C 
BRANCH   5   6
ATOM      6  C   UNL d   1       3.801  -4.396   2.025  0.00  0.00    -0.007 C 
ATOM      7  C   UNL d   1       2.632  -4.833   2.632  0.00  0.00     0.057 C 
ATOM      8  O   UNL d   1       2.871  -5.181   3.927  0.00  0.00    -0.314 OA
ATOM      9  C   UNL d   1       1.229  -4.961   2.180  0.00  0.00     0.077 C 
ATOM     10  C   UNL d   1       4.212  -5.086   4.126  0.00  0.00     0.086 A 
ATOM     11  C   UNL d   1       4.846  -4.720   2.945  0.00  0.00     0.007 A 
ATOM     12  C   UNL d   1       4.872  -5.328   5.328  0.00  0.00     0.038 A 
ATOM     13  C   UNL d   1       6.253  -4.712   2.922  0.00  0.00     0.015 A 
ATOM     14  C   UNL d   1       6.950  -5.004   4.104  0.00  0.00     0.001 A 
ATOM     15  C   UNL d   1       6.268  -5.269   5.295  0.00  0.00     0.003 A 
ENDBRANCH   5   6
ENDBRANCH   1   5
BRANCH   2  16
ATOM     16  C   UNL d   1       3.136  -0.027   1.180  0.00  0.00     0.034 A 
ATOM     17  C   UNL d   1       1.762   0.159   1.311  0.00  0.00     0.030 A 
ATOM     18  C   UNL d   1       1.226   1.428   1.585  0.00  0.00     0.010 A 
ATOM     19  C   UNL d   1       2.042   2.564   1.732  0.00  0.00    -0.051 A 
ATOM     20  C   UNL d   1       3.422   2.369   1.567  0.00  0.00     0.010 A 
ATOM     21  C   UNL d   1       3.962   1.094   1.309  0.00  0.00     0.030 A 
BRANCH  19  22
ATOM     22  C   UNL d   1       1.413   3.921   2.113  0.00  0.00    -0.024 C 
ATOM     23  C   UNL d   1       2.436   5.071   2.251  0.00  0.00     0.019 C 
ATOM     24  C   UNL d   1       0.378   4.359   1.054  0.00  0.00     0.019 C 
ATOM     25  C   UNL d   1       0.700   3.784   3.478  0.00  0.00     0.019 C 
ENDBRANCH  19  22
ENDBRANCH   2  16
TORSDOF 4
