REMARK  5 active torsions:
REMARK  status: ('A' for Active; 'I' for Inactive)
REMARK       I    between atoms: C_8  and  N_2 
REMARK    1  A    between atoms: C_9  and  C_8 
REMARK    2  A    between atoms: C_16  and  C_12 
REMARK    3  A    between atoms: C_19  and  C_16 
REMARK    4  A    between atoms: C_21  and  C_19 
REMARK    5  A    between atoms: C_20  and  C_21 
ROOT
ATOM      1  C   UNL d   1      -2.427   0.072  -0.148  0.00  0.00     0.686 A 
ATOM      2  N   UNL d   1      -3.694  -0.007  -0.373  0.00  0.00    -0.148 N 
ATOM      3  HN  UNL d   1      -4.173  -0.907  -0.364  1.00  0.00     0.188 HD
ATOM      4  N   UNL d   1      -1.612  -1.052  -0.009  0.00  0.00    -0.189 N 
ATOM      5  N   UNL d   1      -1.577   1.173  -0.056  0.00  0.00    -0.189 N 
ATOM      6  C   UNL d   1      -0.274  -0.663   0.085  0.00  0.00     0.077 A 
ATOM      7  C   UNL d   1      -0.255   0.741   0.086  0.00  0.00     0.077 A 
ATOM      8  C   UNL d   1      -4.382   1.158  -0.624  0.00  0.00     0.314 C 
ATOM      9  C   UNL d   1       0.887  -1.401   0.013  0.00  0.00     0.039 A 
ATOM     10  C   UNL d   1       0.924   1.445   0.012  0.00  0.00     0.039 A 
ATOM     11  C   UNL d   1       2.111  -0.707  -0.067  0.00  0.00    -0.054 A 
ATOM     12  C   UNL d   1       2.129   0.720  -0.066  0.00  0.00    -0.054 A 
ATOM     13  O   UNL d   1      -4.093   2.263  -0.168  0.00  0.00    -0.257 OA
ATOM     14  C   UNL d   1       3.425   1.476  -0.208  0.00  0.00     0.049 C 
ATOM     15  C   UNL d   1       3.394  -1.487  -0.208  0.00  0.00     0.049 C 
ATOM     16  H   UNL d   1      -1.959  -1.990   0.057  0.00  0.00     0.184 HD
ATOM     17  H   UNL d   1      -1.905   2.111   0.117  0.00  0.00     0.184 HD
ENDROOT
BRANCH   8  18
ATOM     18  C   UNL d   1      -5.540   1.070  -1.505  0.00  0.00    -0.005 C 
ATOM     19  C   UNL d   1      -6.492   0.999  -2.245  0.00  0.00    -0.096 C 
BRANCH  19  20
ATOM     20  C   UNL d   1      -7.641   0.872  -3.163  0.00  0.00     0.094 C 
BRANCH  20  21
ATOM     21  C   UNL d   1      -8.571   2.084  -3.099  0.00  0.00     0.012 C 
BRANCH  21  22
ATOM     22  C   UNL d   1      -9.761   1.924  -4.051  0.00  0.00     0.000 C 
BRANCH  22  23
ATOM     23  C   UNL d   1     -10.699   3.130  -3.989  0.00  0.00    -0.005 C 
ATOM     24  C   UNL d   1     -11.879   2.965  -4.934  0.00  0.00     0.005 C 
ENDBRANCH  22  23
ENDBRANCH  21  22
ENDBRANCH  20  21
ENDBRANCH  19  20
ENDBRANCH   8  18
TORSDOF 5
