REMARK  4 active torsions:
REMARK  status: ('A' for Active; 'I' for Inactive)
REMARK    1  A    between atoms: N_2  and  C_1 
REMARK    2  A    between atoms: N_7  and  C_3 
REMARK    3  A    between atoms: S_9  and  C_5 
REMARK       I    between atoms: C_10  and  N_7 
REMARK    4  A    between atoms: C_14  and  S_9 
ROOT
ATOM      1  C   UNL d   1      -1.318   1.189   0.023  0.00  0.00     0.132 A 
ATOM      2  C   UNL d   1      -1.993  -0.045  -0.023  0.00  0.00     0.069 A 
ATOM      3  C   UNL d   1       0.085   1.234  -0.040  0.00  0.00     0.082 A 
ATOM      4  C   UNL d   1       0.162  -1.197  -0.103  0.00  0.00     0.046 A 
ATOM      5  C   UNL d   1      -1.241  -1.231  -0.091  0.00  0.00     0.054 A 
ATOM      6  C   UNL d   1       0.805   0.044  -0.092  0.00  0.00     0.136 A 
ATOM      7  F   UNL d   1       2.144   0.119  -0.118  0.00  0.00    -0.205 F 
ENDROOT
BRANCH   4   8
ATOM      8  S   UNL d   1       1.093  -2.713   0.016  0.00  0.00    -0.087 SA
BRANCH   8   9
ATOM      9  C   UNL d   1       1.264  -3.181  -1.693  0.00  0.00     0.005 A 
ATOM     10  C   UNL d   1       2.031  -2.418  -2.581  0.00  0.00     0.020 A 
ATOM     11  C   UNL d   1       2.207  -2.838  -3.902  0.00  0.00     0.025 A 
ATOM     12  C   UNL d   1       1.625  -4.029  -4.334  0.00  0.00     0.034 A 
ATOM     13  C   UNL d   1       0.865  -4.800  -3.458  0.00  0.00     0.025 A 
ATOM     14 CL   UNL d   1       1.863  -4.559  -5.954  0.00  0.00    -0.084 Cl
ATOM     15  C   UNL d   1       0.686  -4.376  -2.138  0.00  0.00     0.020 A 
ENDBRANCH   8   9
ENDBRANCH   4   8
BRANCH   2  16
ATOM     16  N   UNL d   1      -3.406  -0.126   0.055  0.00  0.00    -0.325 N 
ATOM     17  C   UNL d   1      -4.154  -0.895  -0.811  0.00  0.00     0.218 C 
ATOM     18  O   UNL d   1      -3.701  -1.600  -1.704  0.00  0.00    -0.274 OA
ATOM     19  C   UNL d   1      -5.643  -0.760  -0.595  0.00  0.00     0.117 C 
ATOM     20  H   UNL d   1      -3.886   0.707   0.396  0.00  0.00     0.169 HD
ENDBRANCH   2  16
BRANCH   1  21
ATOM     21  N   UNL d   1      -2.046   2.466   0.089  0.00  0.00    -0.113 N 
ATOM     22  O   UNL d   1      -3.277   2.431   0.265  0.00  0.00    -0.532 OA
ATOM     23  O   UNL d   1      -1.392   3.506  -0.027  0.00  0.00    -0.532 OA
ENDBRANCH   1  21
TORSDOF 4
