REMARK  3 active torsions:
REMARK  status: ('A' for Active; 'I' for Inactive)
REMARK    1  A    between atoms: C_8  and  C_3 
REMARK    2  A    between atoms: C_11  and  C_4 
REMARK    3  A    between atoms: C_6  and  C_10 
ROOT
ATOM      1  N   UNL d   1       1.365  -0.626   0.134  0.00  0.00    -0.349 N 
ATOM      2  HN  UNL d   1       2.235  -1.148   0.238  1.00  0.00     0.166 HD
ATOM      3  C   UNL d   1       1.286   0.753   0.022  0.00  0.00     0.050 A 
ATOM      4  C   UNL d   1       0.167  -1.171   0.086  0.00  0.00     0.084 A 
ATOM      5  S   UNL d   1      -1.130  -0.043  -0.043  0.00  0.00    -0.081 SA
ATOM      6  C   UNL d   1      -0.003   1.244  -0.065  0.00  0.00     0.082 A 
ENDROOT
BRANCH   4   7
ATOM      7  C   UNL d   1      -0.080  -2.622   0.069  0.00  0.00    -0.002 A 
ATOM      8  C   UNL d   1      -1.254  -3.197   0.580  0.00  0.00     0.015 A 
ATOM      9  C   UNL d   1      -1.455  -4.582   0.535  0.00  0.00     0.017 A 
ATOM     10  C   UNL d   1      -0.488  -5.428  -0.020  0.00  0.00     0.048 A 
ATOM     11  C   UNL d   1       0.690  -4.864  -0.528  0.00  0.00     0.017 A 
ATOM     12  C   UNL d   1       0.891  -3.479  -0.478  0.00  0.00     0.015 A 
BRANCH  10  13
ATOM     13  C   UNL d   1      -0.698  -6.922  -0.069  0.00  0.00     0.417 C 
ATOM     14  F   UNL d   1      -1.885  -7.323   0.467  0.00  0.00    -0.166 F 
ATOM     15  F   UNL d   1      -0.682  -7.410  -1.341  0.00  0.00    -0.166 F 
ATOM     16  F   UNL d   1       0.265  -7.609   0.607  0.00  0.00    -0.166 F 
ENDBRANCH  10  13
ENDBRANCH   4   7
BRANCH   3  17
ATOM     17  C   UNL d   1       2.480   1.603  -0.009  0.00  0.00    -0.003 A 
ATOM     18  C   UNL d   1       3.687   1.204  -0.622  0.00  0.00    -0.049 A 
ATOM     19  C   UNL d   1       4.792   2.082  -0.598  0.00  0.00     0.014 A 
ATOM     20  C   UNL d   1       3.908  -0.119  -1.308  0.00  0.00     0.049 C 
ATOM     21  C   UNL d   1       4.719   3.346  -0.005  0.00  0.00    -0.061 A 
ATOM     22  C   UNL d   1       3.522   3.740   0.587  0.00  0.00     0.007 A 
ATOM     23  C   UNL d   1       5.916   4.248  -0.015  0.00  0.00     0.048 C 
ATOM     24  C   UNL d   1       2.422   2.877   0.592  0.00  0.00     0.015 A 
ENDBRANCH   3  17
TORSDOF 3
