REMARK  3 active torsions:
REMARK  status: ('A' for Active; 'I' for Inactive)
REMARK    1  A    between atoms: C_2  and  N_1 
REMARK    2  A    between atoms: O_7  and  C_3 
REMARK    3  A    between atoms: C_4  and  O_7 
ROOT
ATOM      1  C   UNL d   1       0.284  -2.438   0.277  0.00  0.00     0.092 C 
ATOM      2  N   UNL d   1       1.581  -2.785  -2.156  0.00  0.00    -0.359 N 
ATOM      3  HN  UNL d   1       2.053  -2.880  -3.055  1.00  0.00     0.166 HD
ATOM      4  C   UNL d   1       1.683  -2.607   0.251  0.00  0.00     0.025 A 
ATOM      5  C   UNL d   1       2.288  -2.700  -1.017  0.00  0.00     0.045 A 
ATOM      6  C   UNL d   1      -0.449  -2.500  -0.907  0.00  0.00     0.062 C 
ATOM      7  C   UNL d   1       0.232  -2.742  -2.089  0.00  0.00     0.008 C 
ATOM      8  C   UNL d   1       2.492  -2.673   1.408  0.00  0.00     0.016 A 
ATOM      9  C   UNL d   1       3.675  -2.690  -1.091  0.00  0.00     0.030 A 
ATOM     10  C   UNL d   1      -0.525  -2.935  -3.369  0.00  0.00     0.068 C 
ATOM     11  C   UNL d   1       3.881  -2.726   1.308  0.00  0.00     0.001 A 
ATOM     12  C   UNL d   1       4.476  -2.683   0.053  0.00  0.00     0.002 A 
ENDROOT
BRANCH   1  13
ATOM     13  O   UNL d   1      -0.288  -2.059   1.477  0.00  0.00    -0.290 OA
BRANCH  13  14
ATOM     14  C   UNL d   1      -1.585  -2.452   1.737  0.00  0.00     0.181 A 
ATOM     15  C   UNL d   1      -2.481  -1.571   2.319  0.00  0.00     0.154 A 
ATOM     16  C   UNL d   1      -3.751  -2.010   2.696  0.00  0.00     0.042 A 
ATOM     17  C   UNL d   1      -4.086  -3.341   2.462  0.00  0.00     0.020 A 
ATOM     18  C   UNL d   1      -3.137  -4.163   1.868  0.00  0.00     0.090 A 
ATOM     19  N   UNL d   1      -1.895  -3.762   1.512  0.00  0.00    -0.345 N 
ATOM     20  HN  UNL d   1      -1.223  -4.406   1.096  1.00  0.00     0.167 HD
BRANCH  15  21
ATOM     21  N   UNL d   1      -2.139  -0.185   2.473  0.00  0.00    -0.111 N 
ATOM     22  O   UNL d   1      -1.893   0.455   1.444  0.00  0.00    -0.532 OA
ATOM     23  O   UNL d   1      -2.185   0.277   3.624  0.00  0.00    -0.532 OA
ENDBRANCH  15  21
ENDBRANCH  13  14
ENDBRANCH   1  13
TORSDOF 3
