REMARK  5 active torsions:
REMARK  status: ('A' for Active; 'I' for Inactive)
REMARK    1  A    between atoms: N_3  and  C_1 
REMARK    2  A    between atoms: C_4  and  C_1 
REMARK       I    between atoms: C_2  and  N_3 
REMARK    3  A    between atoms: O_7  and  C_2 
REMARK    4  A    between atoms: O_11  and  C_4 
REMARK    5  A    between atoms: C_10  and  O_7 
ROOT
ATOM      1  C   UNL d   1      -0.131   2.292   1.851  0.00  0.00     0.362 C 
ATOM      2  N   UNL d   1      -0.054   2.276   0.488  0.00  0.00    -0.318 N 
ATOM      3  O   UNL d   1      -0.299   3.355   2.432  0.00  0.00    -0.238 OA
ATOM      4  H   UNL d   1      -0.230   3.193   0.093  0.00  0.00     0.166 HD
ENDROOT
BRANCH   2   5
ATOM      5  C   UNL d   1      -0.225   1.160  -0.407  0.00  0.00     0.120 A 
ATOM      6  C   UNL d   1       0.714   1.153  -1.612  0.00  0.00     0.045 A 
ATOM      7  C   UNL d   1       0.838   0.088  -0.570  0.00  0.00     0.045 A 
BRANCH   5   8
ATOM      8  C   UNL d   1      -1.663   0.777  -0.669  0.00  0.00     0.169 C 
ATOM      9  O   UNL d   1      -2.311   1.251  -1.590  0.00  0.00    -0.648 OA
BRANCH   8  10
ATOM     10  O   UNL d   1      -2.152  -0.102   0.235  0.00  0.00    -0.775 OA
ATOM     11  H   UNL d   1      -1.491  -0.305   0.923  0.00  0.00     0.167 HD
ENDBRANCH   8  10
ENDBRANCH   5   8
ENDBRANCH   2   5
BRANCH   1  12
ATOM     12  O   UNL d   1       0.005   1.077   2.446  0.00  0.00    -0.294 OA
BRANCH  12  13
ATOM     13  C   UNL d   1      -0.004   1.014   3.908  0.00  0.00     0.061 C 
ATOM     14  C   UNL d   1      -1.403   1.339   4.447  0.00  0.00     0.046 C 
ATOM     15  C   UNL d   1       0.332  -0.441   4.278  0.00  0.00     0.046 C 
ATOM     16  C   UNL d   1       1.071   1.908   4.551  0.00  0.00     0.046 C 
ENDBRANCH  12  13
ENDBRANCH   1  12
TORSDOF 5
