REMARK  2 active torsions:
REMARK  status: ('A' for Active; 'I' for Inactive)
REMARK    1  A    between atoms: C_2  and  C_1 
REMARK       I    between atoms: N_8  and  C_2 
REMARK    2  A    between atoms: O_9  and  C_3 
ROOT
ATOM      1  C   UNL d   1       1.516   0.823  -0.013  0.00  0.00     0.072 A 
ATOM      2  C   UNL d   1       1.511  -0.629  -0.007  0.00  0.00     0.090 A 
ATOM      3  S   UNL d   1      -0.976   0.059  -0.002  0.00  0.00    -0.110 SA
ATOM      4  C   UNL d   1       0.202   1.288  -0.024  0.00  0.00     0.069 A 
ATOM      5  C   UNL d   1       0.228  -1.139   0.001  0.00  0.00     0.087 A 
ENDROOT
BRANCH   1   6
ATOM      6  C   UNL d   1       2.631   1.771  -0.047  0.00  0.00     0.252 C 
ATOM      7  O   UNL d   1       3.712   1.571  -0.589  0.00  0.00    -0.268 OA
ATOM      8  N   UNL d   1       2.417   2.970   0.577  0.00  0.00    -0.366 N 
ATOM      9  H   UNL d   1       1.615   3.155   1.161  0.00  0.00     0.159 HD
ATOM     10  H   UNL d   1       3.197   3.614   0.608  0.00  0.00     0.159 HD
ENDBRANCH   1   6
BRANCH   2  11
ATOM     11  O   UNL d   1       2.488  -1.573   0.024  0.00  0.00    -0.354 OA
ATOM     12  C   UNL d   1       3.832  -1.141  -0.007  0.00  0.00     0.210 C 
ENDBRANCH   2  11
TORSDOF 2
