REMARK  2 active torsions:
REMARK  status: ('A' for Active; 'I' for Inactive)
REMARK    1  A    between atoms: C_11  and  C_8 
REMARK    2  A    between atoms: O_14  and  C_11 
ROOT
ATOM      1  N   UNL d   1      -0.241  -0.250  -0.007  0.00  0.00    -0.255 N 
ATOM      2  C   UNL d   1      -0.488   1.083  -0.008  0.00  0.00     0.160 A 
ATOM      3  C   UNL d   1      -2.557  -0.234  -0.006  0.00  0.00     0.082 A 
ATOM      4  C   UNL d   1      -1.333  -1.096  -0.013  0.00  0.00     0.271 A 
ATOM      5  N   UNL d   1       0.581   1.828  -0.014  0.00  0.00    -0.334 N 
ATOM      6  HN  UNL d   1       0.645   2.846  -0.020  1.00  0.00     0.168 HD
ATOM      7  S   UNL d   1      -2.159   1.467  -0.008  0.00  0.00    -0.048 SA
ATOM      8  C   UNL d   1      -3.777  -0.787  -0.014  0.00  0.00     0.106 C 
ATOM      9  C   UNL d   1       1.123  -0.412  -0.002  0.00  0.00     0.071 A 
ATOM     10  C   UNL d   1       1.605   0.905  -0.010  0.00  0.00     0.061 A 
ATOM     11  O   UNL d   1      -1.237  -2.309  -0.018  0.00  0.00    -0.266 OA
ATOM     12  C   UNL d   1       1.968  -1.526   0.009  0.00  0.00     0.032 A 
ATOM     13  C   UNL d   1       2.988   1.132  -0.012  0.00  0.00     0.032 A 
ATOM     14  C   UNL d   1       3.347  -1.273   0.007  0.00  0.00     0.002 A 
ATOM     15  C   UNL d   1       3.851   0.031  -0.004  0.00  0.00     0.002 A 
ENDROOT
BRANCH   8  16
ATOM     16  C   UNL d   1      -5.029  -0.005   0.035  0.00  0.00     0.283 C 
ATOM     17  O   UNL d   1      -5.136   1.141   0.432  0.00  0.00    -0.260 OA
BRANCH  16  18
ATOM     18  O   UNL d   1      -6.042  -0.778  -0.430  0.00  0.00    -0.323 OA
ATOM     19  C   UNL d   1      -7.298  -0.094  -0.453  0.00  0.00     0.213 C 
ENDBRANCH  16  18
ENDBRANCH   8  16
TORSDOF 2
