REMARK  4 active torsions:
REMARK  status: ('A' for Active; 'I' for Inactive)
REMARK    1  A    between atoms: N_9  and  S_1 
REMARK    2  A    between atoms: C_12  and  S_1 
REMARK    3  A    between atoms: C_2  and  C_7 
REMARK    4  A    between atoms: C_11  and  N_9 
ROOT
ATOM      1  C   UNL d   1       2.049   2.106   2.164  0.00  0.00     0.037 A 
ATOM      2  C   UNL d   1       0.763   2.051   1.589  0.00  0.00     0.037 A 
ATOM      3  C   UNL d   1       2.215   2.629   3.457  0.00  0.00     0.017 A 
ATOM      4  C   UNL d   1      -0.327   2.570   2.294  0.00  0.00     0.025 A 
ATOM      5  C   UNL d   1       1.113   3.110   4.165  0.00  0.00     0.001 A 
ATOM      6  C   UNL d   1      -0.152   3.087   3.581  0.00  0.00     0.002 A 
ENDROOT
BRANCH   1   7
ATOM      7  C   UNL d   1       3.218   1.597   1.417  0.00  0.00     0.164 A 
ATOM      8  N   UNL d   1       3.122   0.651   0.539  0.00  0.00    -0.335 N 
ATOM      9  C   UNL d   1       4.282   0.330  -0.160  0.00  0.00     0.050 A 
ATOM     10  HN  UNL d   1       2.241   0.166   0.367  1.00  0.00     0.168 HD
ATOM     11  C   UNL d   1       4.233  -0.654  -1.148  0.00  0.00     0.030 A 
ATOM     12  C   UNL d   1       5.478   0.991   0.078  0.00  0.00     0.066 A 
ATOM     13  C   UNL d   1       5.372  -0.958  -1.898  0.00  0.00     0.002 A 
ATOM     14  C   UNL d   1       6.568  -0.282  -1.658  0.00  0.00     0.001 A 
ATOM     15  C   UNL d   1       6.627   0.693  -0.663  0.00  0.00     0.020 A 
ATOM     16  C   UNL d   1       5.499   2.014   1.130  0.00  0.00     0.302 A 
ATOM     17  O   UNL d   1       4.330   2.283   1.756  0.00  0.00    -0.256 OA
ATOM     18  O   UNL d   1       6.539   2.589   1.429  0.00  0.00    -0.259 OA
ENDBRANCH   1   7
BRANCH   2  19
ATOM     19  N   UNL d   1       0.534   1.528   0.258  0.00  0.00    -0.180 NA
ATOM     20  H   UNL d   1       1.275   0.845   0.036  0.00  0.00     0.146 HD
BRANCH  19  21
ATOM     21  S   UNL d   1       0.571   2.711  -0.974  0.00  0.00     0.245 S 
ATOM     22  O   UNL d   1       1.945   3.140  -1.120  0.00  0.00    -0.206 OA
ATOM     23  O   UNL d   1      -0.505   3.654  -0.764  0.00  0.00    -0.206 OA
BRANCH  21  24
ATOM     24  C   UNL d   1       0.141   1.736  -2.403  0.00  0.00     0.075 A 
ATOM     25  C   UNL d   1      -1.128   1.147  -2.464  0.00  0.00     0.028 A 
ATOM     26  C   UNL d   1      -1.489   0.406  -3.590  0.00  0.00     0.044 A 
ATOM     27  C   UNL d   1      -0.587   0.267  -4.642  0.00  0.00     0.116 A 
ATOM     28  C   UNL d   1       0.674   0.854  -4.588  0.00  0.00     0.044 A 
ATOM     29  F   UNL d   1      -0.940  -0.439  -5.723  0.00  0.00    -0.206 F 
ATOM     30  C   UNL d   1       1.046   1.595  -3.463  0.00  0.00     0.028 A 
ENDBRANCH  21  24
ENDBRANCH  19  21
ENDBRANCH   2  19
TORSDOF 4
