REMARK  2 active torsions:
REMARK  status: ('A' for Active; 'I' for Inactive)
REMARK    1  A    between atoms: C_8  and  N_1 
REMARK    2  A    between atoms: C_16  and  C_8 
ROOT
ATOM      1  N   UNL d   1       2.768   0.037  -0.055  0.00  0.00    -0.276 N 
ATOM      2  C   UNL d   1       2.087   1.240  -0.212  0.00  0.00     0.261 C 
ATOM      3  C   UNL d   1       2.153  -1.206   0.040  0.00  0.00     0.261 C 
ATOM      4  C   UNL d   1       0.612   1.200  -0.095  0.00  0.00     0.044 A 
ATOM      5  C   UNL d   1      -0.053  -0.029  -0.021  0.00  0.00     0.007 A 
ATOM      6  C   UNL d   1       0.670  -1.230   0.011  0.00  0.00     0.044 A 
ATOM      7  C   UNL d   1      -1.475  -0.058   0.014  0.00  0.00    -0.006 A 
ATOM      8  C   UNL d   1      -0.098   2.407  -0.085  0.00  0.00     0.019 A 
ATOM      9  O   UNL d   1       2.766  -2.269   0.132  0.00  0.00    -0.267 OA
ATOM     10  O   UNL d   1       2.630   2.314  -0.462  0.00  0.00    -0.267 OA
ATOM     11  C   UNL d   1      -2.171   1.179   0.020  0.00  0.00     0.022 A 
ATOM     12  C   UNL d   1      -1.486   2.396  -0.018  0.00  0.00     0.021 A 
ATOM     13  C   UNL d   1       0.012  -2.465   0.037  0.00  0.00     0.018 A 
ATOM     14 BR   UNL d   1      -4.073   1.286   0.080  0.00  0.00    -0.050 Br
ATOM     15  C   UNL d   1      -2.108  -1.324   0.038  0.00  0.00     0.014 A 
ATOM     16  C   UNL d   1      -1.376  -2.511   0.040  0.00  0.00     0.002 A 
ENDROOT
BRANCH   1  17
ATOM     17  C   UNL d   1       4.228   0.084  -0.031  0.00  0.00     0.174 C 
BRANCH  17  18
ATOM     18  C   UNL d   1       4.755   0.403   1.353  0.00  0.00    -0.040 A 
ATOM     19  C   UNL d   1       5.042  -0.623   2.264  0.00  0.00     0.009 A 
ATOM     20  C   UNL d   1       5.464  -0.320   3.561  0.00  0.00     0.001 A 
ATOM     21  C   UNL d   1       5.597   1.008   3.962  0.00  0.00     0.000 A 
ATOM     22  C   UNL d   1       5.327   2.036   3.062  0.00  0.00     0.001 A 
ATOM     23  C   UNL d   1       4.912   1.736   1.764  0.00  0.00     0.009 A 
ENDBRANCH  17  18
ENDBRANCH   1  17
TORSDOF 2
