REMARK  7 active torsions:
REMARK  status: ('A' for Active; 'I' for Inactive)
REMARK    1  A    between atoms: N_2  and  C_1 
REMARK    2  A    between atoms: N_9  and  C_1 
REMARK    3  A    between atoms: C_3  and  N_2 
REMARK    4  A    between atoms: C_6  and  C_8 
REMARK    5  A    between atoms: O_15  and  C_6 
REMARK    6  A    between atoms: C_8  and  C_14 
REMARK    7  A    between atoms: C_14  and  N_9 
ROOT
ATOM      1  C   UNL d   1       1.065   0.094  -0.123  0.00  0.00     0.172 C 
ATOM      2  S   UNL d   1       0.392  -1.022   0.918  0.00  0.00    -0.041 SA
ENDROOT
BRANCH   1   3
ATOM      3  N   UNL d   1       0.407   0.996  -0.915  0.00  0.00    -0.331 N 
ATOM      4  H   UNL d   1       0.747   1.036  -1.871  0.00  0.00     0.168 HD
BRANCH   3   5
ATOM      5  C   UNL d   1      -0.806   1.674  -0.681  0.00  0.00     0.073 A 
ATOM      6  C   UNL d   1      -1.516   2.154  -1.789  0.00  0.00     0.145 A 
ATOM      7  C   UNL d   1      -2.681   2.897  -1.640  0.00  0.00     0.086 A 
ATOM      8  F   UNL d   1      -1.069   1.889  -3.027  0.00  0.00    -0.204 F 
ATOM      9  C   UNL d   1      -3.123   3.189  -0.358  0.00  0.00     0.119 A 
ATOM     10  C   UNL d   1      -2.425   2.745   0.762  0.00  0.00     0.044 A 
ATOM     11  F   UNL d   1      -4.229   3.925  -0.194  0.00  0.00    -0.206 F 
ATOM     12  C   UNL d   1      -1.264   1.983   0.602  0.00  0.00     0.036 A 
ENDBRANCH   3   5
ENDBRANCH   1   3
BRANCH   1  13
ATOM     13  N   UNL d   1       2.430   0.086  -0.289  0.00  0.00    -0.366 N 
ATOM     14  H   UNL d   1       2.863  -0.628   0.290  0.00  0.00     0.161 HD
BRANCH  13  15
ATOM     15  C   UNL d   1       3.206   1.319  -0.418  0.00  0.00     0.132 C 
BRANCH  15  16
ATOM     16  C   UNL d   1       4.350   1.172  -1.407  0.00  0.00     0.129 C 
BRANCH  16  17
ATOM     17  C   UNL d   1       5.170   2.437  -1.441  0.00  0.00     0.140 C 
ATOM     18  O   UNL d   1       4.999   3.404  -0.717  0.00  0.00    -0.650 OA
BRANCH  17  19
ATOM     19  O   UNL d   1       6.151   2.397  -2.371  0.00  0.00    -0.776 OA
ATOM     20  H   UNL d   1       6.184   1.567  -2.883  0.00  0.00     0.167 HD
ENDBRANCH  17  19
ENDBRANCH  16  17
ENDBRANCH  15  16
ENDBRANCH  13  15
ENDBRANCH   1  13
TORSDOF 7
