REMARK  4 active torsions:
REMARK  status: ('A' for Active; 'I' for Inactive)
REMARK    1  A    between atoms: C_2  and  C_1 
REMARK       I    between atoms: N_4  and  C_2 
REMARK    2  A    between atoms: C_8  and  N_4 
REMARK    3  A    between atoms: O_15  and  C_5 
REMARK    4  A    between atoms: O_18  and  C_12 
ROOT
ATOM      1  C   UNL d   1       4.030  -1.312  -0.616  0.00  0.00     0.066 A 
ATOM      2  C   UNL d   1       2.737  -1.774  -0.348  0.00  0.00     0.032 A 
ATOM      3  C   UNL d   1       4.254   0.048  -0.858  0.00  0.00     0.084 A 
ATOM      4  C   UNL d   1       1.665  -0.866  -0.262  0.00  0.00    -0.024 A 
ATOM      5  C   UNL d   1       3.208   0.961  -0.734  0.00  0.00     0.050 A 
ATOM      6  C   UNL d   1       1.911   0.519  -0.442  0.00  0.00    -0.023 A 
ATOM      7  C   UNL d   1       0.354  -1.296  -0.001  0.00  0.00     0.031 A 
ATOM      8  C   UNL d   1       0.849   1.434  -0.340  0.00  0.00     0.013 A 
ATOM      9  C   UNL d   1      -0.689  -0.371   0.083  0.00  0.00     0.011 A 
ATOM     10  C   UNL d   1      -0.447   0.990  -0.079  0.00  0.00     0.020 A 
ATOM     11 BR   UNL d   1      -2.451  -0.972   0.411  0.00  0.00    -0.051 Br
ENDROOT
BRANCH   1  12
ATOM     12  C   UNL d   1       5.153  -2.275  -0.664  0.00  0.00     0.259 C 
ATOM     13  N   UNL d   1       6.178  -1.971   0.203  0.00  0.00    -0.320 N 
ATOM     14  H   UNL d   1       6.005  -1.270   0.918  0.00  0.00     0.169 HD
ATOM     15  O   UNL d   1       5.085  -3.232  -1.423  0.00  0.00    -0.267 OA
BRANCH  13  16
ATOM     16  C   UNL d   1       7.499  -2.455   0.169  0.00  0.00     0.068 A 
ATOM     17  C   UNL d   1       8.311  -2.240   1.295  0.00  0.00     0.095 A 
ATOM     18  C   UNL d   1       9.677  -2.524   1.258  0.00  0.00     0.039 A 
ATOM     19  C   UNL d   1      10.236  -3.062   0.101  0.00  0.00     0.003 A 
ATOM     20  C   UNL d   1       9.429  -3.322  -1.008  0.00  0.00     0.002 A 
ATOM     21  C   UNL d   1       8.061  -3.027  -0.971  0.00  0.00     0.032 A 
BRANCH  17  22
ATOM     22  O   UNL d   1       7.804  -1.725   2.465  0.00  0.00    -0.354 OA
ATOM     23  C   UNL d   1       6.999  -2.704   3.133  0.00  0.00     0.210 C 
ENDBRANCH  17  22
ENDBRANCH  13  16
ENDBRANCH   1  12
BRANCH   3  24
ATOM     24  O   UNL d   1       5.481   0.560  -1.182  0.00  0.00    -0.355 OA
ATOM     25  C   UNL d   1       5.902   0.150  -2.489  0.00  0.00     0.210 C 
ENDBRANCH   3  24
TORSDOF 4
