REMARK  6 active torsions:
REMARK  status: ('A' for Active; 'I' for Inactive)
REMARK    1  A    between atoms: C_5  and  N_1 
REMARK    2  A    between atoms: C_2  and  C_3 
REMARK    3  A    between atoms: C_3  and  O_6 
REMARK    4  A    between atoms: O_7  and  C_4 
REMARK    5  A    between atoms: O_6  and  C_15 
REMARK    6  A    between atoms: C_16  and  O_7 
ROOT
ATOM      1  C   UNL d   1      -0.320  -4.371   4.235  0.00  0.00     0.091 A 
ATOM      2  C   UNL d   1       0.712  -5.277   4.462  0.00  0.00     0.164 A 
ATOM      3  N   UNL d   1       1.927  -4.892   4.938  0.00  0.00    -0.346 N 
ATOM      4  HN  UNL d   1       2.692  -5.562   5.020  1.00  0.00     0.167 HD
ATOM      5  C   UNL d   1      -0.120  -3.043   4.641  0.00  0.00     0.023 A 
ATOM      6  C   UNL d   1       2.097  -3.604   5.299  0.00  0.00     0.090 A 
ATOM      7  C   UNL d   1       1.099  -2.658   5.195  0.00  0.00     0.018 A 
ENDROOT
BRANCH   1   8
ATOM      8  C   UNL d   1      -1.581  -4.676   3.532  0.00  0.00     0.302 C 
ATOM      9  O   UNL d   1      -2.631  -4.077   3.725  0.00  0.00    -0.259 OA
BRANCH   8  10
ATOM     10  O   UNL d   1      -1.303  -5.552   2.493  0.00  0.00    -0.275 OA
BRANCH  10  11
ATOM     11  C   UNL d   1      -1.683  -5.295   1.153  0.00  0.00     0.079 A 
ATOM     12  C   UNL d   1      -2.530  -4.267   0.737  0.00  0.00     0.040 A 
ATOM     13  C   UNL d   1      -2.655  -3.987  -0.631  0.00  0.00     0.039 A 
ATOM     14  C   UNL d   1      -1.927  -4.740  -1.564  0.00  0.00     0.103 A 
ATOM     15  C   UNL d   1      -1.127  -5.811  -1.147  0.00  0.00     0.039 A 
ATOM     16  C   UNL d   1      -1.012  -6.088   0.216  0.00  0.00     0.040 A 
BRANCH  14  17
ATOM     17  N   UNL d   1      -1.958  -4.373  -2.987  0.00  0.00    -0.116 N 
ATOM     18  O   UNL d   1      -1.248  -5.026  -3.766  0.00  0.00    -0.532 OA
ATOM     19  O   UNL d   1      -2.677  -3.422  -3.322  0.00  0.00    -0.532 OA
ENDBRANCH  14  17
ENDBRANCH  10  11
ENDBRANCH   8  10
ENDBRANCH   1   8
BRANCH   2  20
ATOM     20  O   UNL d   1       0.502  -6.634   4.240  0.00  0.00    -0.293 OA
BRANCH  20  21
ATOM     21  C   UNL d   1       1.291  -7.522   4.948  0.00  0.00     0.077 A 
ATOM     22  C   UNL d   1       1.602  -7.361   6.303  0.00  0.00     0.037 A 
ATOM     23  C   UNL d   1       2.455  -8.260   6.945  0.00  0.00     0.003 A 
ATOM     24  C   UNL d   1       2.955  -9.359   6.250  0.00  0.00     0.000 A 
ATOM     25  C   UNL d   1       2.592  -9.564   4.919  0.00  0.00     0.003 A 
ATOM     26  C   UNL d   1       1.757  -8.649   4.266  0.00  0.00     0.037 A 
ENDBRANCH  20  21
ENDBRANCH   2  20
TORSDOF 6
