REMARK  3 active torsions:
REMARK  status: ('A' for Active; 'I' for Inactive)
REMARK    1  A    between atoms: C_17  and  N_9 
REMARK    2  A    between atoms: C_18  and  C_17 
REMARK    3  A    between atoms: C_19  and  C_18 
ROOT
ATOM      1  C   UNL d   1       0.076  -0.748   0.080  0.00  0.00     0.101 A 
ATOM      2  C   UNL d   1       0.061   0.596   0.099  0.00  0.00     0.077 A 
ATOM      3  N   UNL d   1       1.284  -1.409  -0.038  0.00  0.00    -0.293 N 
ATOM      4  N   UNL d   1       2.480   0.629   0.003  0.00  0.00    -0.270 N 
ATOM      5  C   UNL d   1       2.517  -0.753  -0.080  0.00  0.00     0.332 A 
ATOM      6  C   UNL d   1       1.318   1.363   0.076  0.00  0.00     0.262 A 
ATOM      7  N   UNL d   1      -1.142  -1.417   0.176  0.00  0.00    -0.252 NA
ATOM      8  C   UNL d   1      -1.208   1.401   0.103  0.00  0.00     0.321 C 
ATOM      9  N   UNL d   1      -2.399   0.642  -0.332  0.00  0.00     0.106 N 
ATOM     10  C   UNL d   1      -2.370  -0.653   0.339  0.00  0.00     0.368 C 
ATOM     11  O   UNL d   1       3.578  -1.374  -0.179  0.00  0.00    -0.246 OA
ATOM     12  O   UNL d   1       1.289   2.591   0.135  0.00  0.00    -0.267 OA
ATOM     13  C   UNL d   1       1.352  -2.863  -0.080  0.00  0.00     0.162 C 
ATOM     14  C   UNL d   1       3.723   1.375   0.012  0.00  0.00     0.164 C 
ATOM     15  H   UNL d   1      -1.228  -2.119  -0.552  0.00  0.00     0.130 HD
ENDROOT
BRANCH   9  16
ATOM     16  C   UNL d   1      -3.650   1.370  -0.072  0.00  0.00     0.279 C 
BRANCH  16  17
ATOM     17  C   UNL d   1      -3.747   2.674  -0.885  0.00  0.00     0.069 C 
BRANCH  17  18
ATOM     18  C   UNL d   1      -5.043   3.407  -0.657  0.00  0.00    -0.054 A 
ATOM     19  C   UNL d   1      -5.169   4.317   0.396  0.00  0.00     0.024 A 
ATOM     20  C   UNL d   1      -6.374   4.982   0.557  0.00  0.00     0.088 A 
ATOM     21  N   UNL d   1      -7.446   4.798  -0.242  0.00  0.00    -0.375 N 
ATOM     22  C   UNL d   1      -7.303   3.913  -1.251  0.00  0.00     0.088 A 
ATOM     23  HN  UNL d   1      -8.320   5.303  -0.091  1.00  0.00     0.164 HD
ATOM     24  C   UNL d   1      -6.140   3.199  -1.494  0.00  0.00     0.024 A 
ENDBRANCH  17  18
ENDBRANCH  16  17
ENDBRANCH   9  16
TORSDOF 3
