REMARK  8 active torsions:
REMARK  status: ('A' for Active; 'I' for Inactive)
REMARK    1  A    between atoms: C_4  and  C_1 
REMARK    2  A    between atoms: O_6  and  C_2 
REMARK    3  A    between atoms: C_3  and  N_7 
REMARK    4  A    between atoms: N_11  and  C_3 
REMARK    5  A    between atoms: O_24  and  C_4 
REMARK    6  A    between atoms: N_7  and  C_5 
REMARK    7  A    between atoms: C_9  and  O_6 
REMARK    8  A    between atoms: C_17  and  N_11 
ROOT
ATOM      1  C   UNL d   1       3.426   3.411  -1.290  0.00  0.00     0.070 C 
ATOM      2  C   UNL d   1       2.044   3.346  -1.045  0.00  0.00     0.102 C 
ATOM      3  C   UNL d   1       4.087   4.621  -1.053  0.00  0.00     0.056 C 
ATOM      4  C   UNL d   1       1.425   4.331  -0.271  0.00  0.00     0.041 C 
ATOM      5  C   UNL d   1       3.435   5.647  -0.368  0.00  0.00     0.036 C 
ATOM      6  C   UNL d   1       2.131   5.477   0.090  0.00  0.00     0.026 C 
ATOM      7 CL   UNL d   1       4.265   7.119  -0.047  0.00  0.00    -0.084 Cl
ENDROOT
BRANCH   1   8
ATOM      8  N   UNL d   1       4.235   2.333  -1.724  0.00  0.00    -0.331 N 
ATOM      9  H   UNL d   1       5.109   2.572  -2.180  0.00  0.00     0.168 HD
BRANCH   8  10
ATOM     10  C   UNL d   1       4.137   0.976  -1.475  0.00  0.00     0.176 C 
ATOM     11  S   UNL d   1       5.237   0.020  -2.290  0.00  0.00    -0.041 SA
BRANCH  10  12
ATOM     12  N   UNL d   1       3.193   0.605  -0.547  0.00  0.00    -0.333 N 
ATOM     13  H   UNL d   1       2.790   1.389  -0.063  0.00  0.00     0.168 HD
BRANCH  12  14
ATOM     14  C   UNL d   1       2.513  -0.607  -0.287  0.00  0.00     0.035 A 
ATOM     15  C   UNL d   1       2.874  -1.869  -0.763  0.00  0.00     0.055 A 
ATOM     16  C   UNL d   1       2.026  -2.968  -0.576  0.00  0.00     0.058 A 
ATOM     17 CL   UNL d   1       2.540  -4.495  -1.209  0.00  0.00    -0.082 Cl
ATOM     18  C   UNL d   1       0.800  -2.813   0.083  0.00  0.00     0.055 A 
ATOM     19  C   UNL d   1       0.452  -1.569   0.593  0.00  0.00     0.028 A 
ATOM     20 CL   UNL d   1      -0.330  -4.105   0.265  0.00  0.00    -0.083 Cl
ATOM     21  C   UNL d   1       1.312  -0.482   0.430  0.00  0.00     0.031 A 
ENDBRANCH  12  14
ENDBRANCH  10  12
ENDBRANCH   8  10
ENDBRANCH   1   8
BRANCH   2  22
ATOM     22  O   UNL d   1       1.202   2.365  -1.522  0.00  0.00    -0.307 OA
BRANCH  22  23
ATOM     23  C   UNL d   1       1.250   1.900  -2.804  0.00  0.00     0.099 A 
ATOM     24  C   UNL d   1       1.610   2.594  -3.950  0.00  0.00     0.114 A 
ATOM     25  S   UNL d   1       1.655   1.535  -5.316  0.00  0.00    -0.093 SA
ATOM     26  C   UNL d   1       1.085   0.212  -4.410  0.00  0.00     0.053 A 
ATOM     27  C   UNL d   1       0.864   0.555  -3.098  0.00  0.00     0.046 A 
BRANCH  24  28
ATOM     28  C   UNL d   1       1.881   4.002  -4.147  0.00  0.00     0.302 C 
ATOM     29  O   UNL d   1       1.375   4.923  -3.517  0.00  0.00    -0.259 OA
BRANCH  28  30
ATOM     30  O   UNL d   1       2.800   4.188  -5.144  0.00  0.00    -0.322 OA
ATOM     31  C   UNL d   1       3.096   5.554  -5.434  0.00  0.00     0.213 C 
ENDBRANCH  28  30
ENDBRANCH  24  28
ENDBRANCH  22  23
ENDBRANCH   2  22
TORSDOF 8
