REMARK  2 active torsions:
REMARK  status: ('A' for Active; 'I' for Inactive)
REMARK    1  A    between atoms: C_3  and  C_4 
REMARK       I    between atoms: N_5  and  C_3 
REMARK    2  A    between atoms: C_7  and  N_5 
ROOT
ATOM      1  N   UNL d   1       6.632  -0.924  -2.581  0.00  0.00    -0.197 NA
ATOM      2  C   UNL d   1       6.324  -1.795  -1.879  0.00  0.00     0.068 C 
ATOM      3  C   UNL d   1       5.864  -2.854  -0.986  0.00  0.00     0.226 C 
ENDROOT
BRANCH   3   4
ATOM      4  C   UNL d   1       4.382  -3.169  -1.102  0.00  0.00     0.235 C 
ATOM      5  N   UNL d   1       3.568  -2.167  -1.607  0.00  0.00    -0.326 N 
ATOM      6  H   UNL d   1       4.008  -1.353  -2.025  0.00  0.00     0.169 HD
ATOM      7  O   UNL d   1       3.983  -4.257  -0.684  0.00  0.00    -0.272 OA
BRANCH   5   8
ATOM      8  C   UNL d   1       2.154  -2.148  -1.644  0.00  0.00     0.034 A 
ATOM      9  C   UNL d   1       1.340  -3.121  -1.056  0.00  0.00     0.032 A 
ATOM     10  C   UNL d   1      -0.054  -2.993  -1.084  0.00  0.00     0.044 A 
ATOM     11  C   UNL d   1      -0.632  -1.894  -1.705  0.00  0.00     0.116 A 
ATOM     12  C   UNL d   1       0.154  -0.926  -2.312  0.00  0.00     0.044 A 
ATOM     13  F   UNL d   1      -1.965  -1.764  -1.713  0.00  0.00    -0.206 F 
ATOM     14  C   UNL d   1       1.547  -1.053  -2.281  0.00  0.00     0.032 A 
ENDBRANCH   5   8
ENDBRANCH   3   4
TORSDOF 2
