REMARK  2 active torsions:
REMARK  status: ('A' for Active; 'I' for Inactive)
REMARK    1  A    between atoms: C_4  and  C_1 
REMARK    2  A    between atoms: C_11  and  C_6 
ROOT
ATOM      1  C   UNL d   1      -3.736  -0.025  -0.008  0.00  0.00     0.089 C 
ATOM      2  C   UNL d   1      -4.417   1.141  -0.022  0.00  0.00     0.038 C 
ATOM      3  C   UNL d   1      -2.306  -0.055  -0.015  0.00  0.00     0.103 C 
ATOM      4  N   UNL d   1      -1.151  -0.167  -0.020  0.00  0.00    -0.191 NA
ENDROOT
BRANCH   1   5
ATOM      5  C   UNL d   1      -4.501  -1.235   0.003  0.00  0.00     0.127 A 
ATOM      6  N   UNL d   1      -5.813  -1.409   0.007  0.00  0.00    -0.339 N 
ATOM      7  C   UNL d   1      -6.024  -2.765  -0.009  0.00  0.00     0.060 A 
ATOM      8  HN  UNL d   1      -6.526  -0.680   0.020  1.00  0.00     0.167 HD
ATOM      9  C   UNL d   1      -7.226  -3.487  -0.022  0.00  0.00     0.032 A 
ATOM     10  C   UNL d   1      -4.818  -3.452  -0.015  0.00  0.00     0.060 A 
ATOM     11  C   UNL d   1      -7.168  -4.886  -0.044  0.00  0.00     0.002 A 
ATOM     12  C   UNL d   1      -5.940  -5.551  -0.051  0.00  0.00     0.002 A 
ATOM     13  C   UNL d   1      -4.730  -4.846  -0.036  0.00  0.00     0.032 A 
ATOM     14  N   UNL d   1      -3.866  -2.463  -0.001  0.00  0.00    -0.339 N 
ATOM     15  H   UNL d   1      -2.867  -2.622  -0.003  0.00  0.00     0.167 HD
ENDBRANCH   1   5
BRANCH   2  16
ATOM     16  C   UNL d   1      -3.803   2.472  -0.058  0.00  0.00    -0.035 A 
ATOM     17  C   UNL d   1      -3.510   3.076  -1.286  0.00  0.00     0.011 A 
ATOM     18  C   UNL d   1      -2.898   4.331  -1.322  0.00  0.00     0.001 A 
ATOM     19  C   UNL d   1      -2.584   4.989  -0.133  0.00  0.00     0.000 A 
ATOM     20  C   UNL d   1      -2.887   4.396   1.092  0.00  0.00     0.001 A 
ATOM     21  C   UNL d   1      -3.495   3.140   1.131  0.00  0.00     0.011 A 
ENDBRANCH   2  16
TORSDOF 2
