REMARK  3 active torsions:
REMARK  status: ('A' for Active; 'I' for Inactive)
REMARK    1  A    between atoms: C_4  and  C_1 
REMARK    2  A    between atoms: C_12  and  C_6 
REMARK    3  A    between atoms: C_15  and  C_11 
ROOT
ATOM      1  C   UNL d   1      -5.568   0.775  -0.733  0.00  0.00     0.089 C 
ATOM      2  C   UNL d   1      -4.477   1.135  -0.006  0.00  0.00     0.038 C 
ATOM      3  C   UNL d   1      -6.176   1.706  -1.708  0.00  0.00     0.103 C 
ATOM      4  N   UNL d   1      -6.654   2.433  -2.474  0.00  0.00    -0.191 NA
ENDROOT
BRANCH   1   5
ATOM      5  C   UNL d   1      -6.077  -0.559  -0.468  0.00  0.00     0.127 A 
ATOM      6  N   UNL d   1      -5.641  -1.500   0.363  0.00  0.00    -0.339 N 
ATOM      7  C   UNL d   1      -6.514  -2.557   0.242  0.00  0.00     0.060 A 
ATOM      8  HN  UNL d   1      -4.823  -1.449   0.970  1.00  0.00     0.167 HD
ATOM      9  C   UNL d   1      -6.522  -3.794   0.900  0.00  0.00     0.032 A 
ATOM     10  C   UNL d   1      -7.506  -2.270  -0.686  0.00  0.00     0.060 A 
ATOM     11  C   UNL d   1      -7.540  -4.707   0.598  0.00  0.00     0.002 A 
ATOM     12  C   UNL d   1      -8.527  -4.392  -0.339  0.00  0.00     0.002 A 
ATOM     13  C   UNL d   1      -8.533  -3.161  -1.007  0.00  0.00     0.032 A 
ATOM     14  N   UNL d   1      -7.204  -1.004  -1.126  0.00  0.00    -0.339 N 
ATOM     15  H   UNL d   1      -7.737  -0.488  -1.811  0.00  0.00     0.167 HD
ENDBRANCH   1   5
BRANCH   2  16
ATOM     16  C   UNL d   1      -3.832   2.453  -0.082  0.00  0.00    -0.035 A 
ATOM     17  C   UNL d   1      -4.233   3.475   0.781  0.00  0.00     0.012 A 
ATOM     18  C   UNL d   1      -3.590   4.718   0.756  0.00  0.00     0.008 A 
ATOM     19  C   UNL d   1      -2.532   4.964  -0.131  0.00  0.00    -0.055 A 
ATOM     20  C   UNL d   1      -2.159   3.942  -1.018  0.00  0.00     0.008 A 
ATOM     21  C   UNL d   1      -2.806   2.699  -0.997  0.00  0.00     0.012 A 
BRANCH  19  22
ATOM     22  C   UNL d   1      -1.795   6.295  -0.139  0.00  0.00     0.010 C 
ATOM     23  C   UNL d   1      -2.732   7.462  -0.463  0.00  0.00     0.015 C 
ATOM     24  C   UNL d   1      -1.067   6.556   1.184  0.00  0.00     0.015 C 
ENDBRANCH  19  22
ENDBRANCH   2  16
TORSDOF 3
