REMARK  4 active torsions:
REMARK  status: ('A' for Active; 'I' for Inactive)
REMARK    1  A    between atoms: S_10  and  C_1 
REMARK    2  A    between atoms: C_6  and  N_2 
REMARK    3  A    between atoms: C_8  and  C_11 
REMARK    4  A    between atoms: C_11  and  S_10 
ROOT
ATOM      1  C   UNL d   1       0.888   0.988  -0.098  0.00  0.00     0.148 C 
ATOM      2  N   UNL d   1       1.437  -0.319   0.015  0.00  0.00    -0.297 N 
ATOM      3  N   UNL d   1      -0.370   1.284  -0.068  0.00  0.00    -0.358 N 
ATOM      4  HN  UNL d   1      -0.670   2.251  -0.193  1.00  0.00     0.162 HD
ATOM      5  C   UNL d   1       0.514  -1.385  -0.124  0.00  0.00     0.014 C 
ATOM      6  C   UNL d   1      -0.808  -1.145  -0.068  0.00  0.00     0.028 C 
ATOM      7  C   UNL d   1      -1.363   0.233   0.144  0.00  0.00     0.044 C 
ATOM      8  C   UNL d   1       0.954  -2.795  -0.434  0.00  0.00     0.068 C 
ATOM      9  C   UNL d   1      -1.900   0.385   1.572  0.00  0.00     0.042 C 
ATOM     10  C   UNL d   1      -2.493   0.481  -0.864  0.00  0.00     0.042 C 
ENDROOT
BRANCH   1  11
ATOM     11  S   UNL d   1       1.918   2.412  -0.369  0.00  0.00    -0.089 SA
BRANCH  11  12
ATOM     12  C   UNL d   1       0.705   3.733  -0.650  0.00  0.00     0.126 C 
BRANCH  12  13
ATOM     13  C   UNL d   1       1.360   4.981  -1.189  0.00  0.00     0.012 A 
ATOM     14  C   UNL d   1       1.296   5.248  -2.565  0.00  0.00     0.125 A 
ATOM     15  F   UNL d   1       0.646   4.400  -3.377  0.00  0.00    -0.205 F 
ATOM     16  C   UNL d   1       1.882   6.377  -3.128  0.00  0.00     0.043 A 
ATOM     17  C   UNL d   1       2.566   7.278  -2.320  0.00  0.00     0.005 A 
ATOM     18  C   UNL d   1       2.655   7.035  -0.947  0.00  0.00     0.024 A 
ATOM     19  C   UNL d   1       2.057   5.895  -0.386  0.00  0.00     0.044 A 
ATOM     20 CL   UNL d   1       2.209   5.685   1.322  0.00  0.00    -0.084 Cl
ENDBRANCH  12  13
ENDBRANCH  11  12
ENDBRANCH   1  11
BRANCH   2  21
ATOM     21  C   UNL d   1       2.753  -0.584   0.561  0.00  0.00     0.044 A 
ATOM     22  C   UNL d   1       2.926  -1.555   1.573  0.00  0.00     0.054 A 
ATOM     23  C   UNL d   1       4.186  -1.849   2.105  0.00  0.00     0.037 A 
ATOM     24 CL   UNL d   1       4.349  -3.113   3.261  0.00  0.00    -0.084 Cl
ATOM     25  C   UNL d   1       5.307  -1.139   1.704  0.00  0.00     0.048 A 
ATOM     26  C   UNL d   1       5.162  -0.169   0.722  0.00  0.00     0.037 A 
ATOM     27  C   UNL d   1       3.918   0.070   0.125  0.00  0.00     0.054 A 
ATOM     28 CL   UNL d   1       6.532   0.751   0.231  0.00  0.00    -0.084 Cl
ENDBRANCH   2  21
TORSDOF 4
