REMARK  7 active torsions:
REMARK  status: ('A' for Active; 'I' for Inactive)
REMARK    1  A    between atoms: C_5  and  C_1 
REMARK    2  A    between atoms: O_7  and  C_2 
REMARK    3  A    between atoms: C_3  and  C_10 
REMARK       I    between atoms: C_4  and  N_8 
REMARK       I    between atoms: N_15  and  C_4 
REMARK    4  A    between atoms: O_23  and  C_5 
REMARK    5  A    between atoms: N_8  and  C_6 
REMARK    6  A    between atoms: C_11  and  O_7 
REMARK    7  A    between atoms: C_24  and  N_15 
ROOT
ATOM      1  C   UNL d   1       1.989   3.452   0.698  0.00  0.00     0.071 C 
ATOM      2  C   UNL d   1       2.347   5.787   0.072  0.00  0.00     0.050 C 
ATOM      3  C   UNL d   1       2.167   3.085  -0.643  0.00  0.00     0.102 C 
ATOM      4  C   UNL d   1       2.025   4.811   1.032  0.00  0.00     0.048 C 
ATOM      5  C   UNL d   1       2.643   5.382  -1.237  0.00  0.00     0.019 C 
ATOM      6  C   UNL d   1       2.556   4.038  -1.592  0.00  0.00     0.040 C 
ENDROOT
BRANCH   1   7
ATOM      7  N   UNL d   1       1.702   2.546   1.735  0.00  0.00    -0.306 N 
ATOM      8  C   UNL d   1       2.288   1.348   2.067  0.00  0.00     0.325 C 
ATOM      9  N   UNL d   1       3.427   1.007   1.387  0.00  0.00    -0.309 N 
ATOM     10  O   UNL d   1       1.830   0.761   3.045  0.00  0.00    -0.247 OA
ATOM     11  H   UNL d   1       3.644   1.566   0.578  0.00  0.00     0.170 HD
ATOM     12  H   UNL d   1       1.179   2.894   2.529  0.00  0.00     0.171 HD
BRANCH   9  13
ATOM     13  C   UNL d   1       4.377   0.019   1.727  0.00  0.00     0.036 A 
ATOM     14  C   UNL d   1       4.238  -0.870   2.796  0.00  0.00     0.029 A 
ATOM     15  C   UNL d   1       5.249  -1.792   3.091  0.00  0.00     0.002 A 
ATOM     16  C   UNL d   1       6.409  -1.834   2.322  0.00  0.00     0.000 A 
ATOM     17  C   UNL d   1       6.558  -0.956   1.253  0.00  0.00     0.002 A 
ATOM     18  C   UNL d   1       5.546  -0.036   0.958  0.00  0.00     0.029 A 
ENDBRANCH   9  13
ENDBRANCH   1   7
BRANCH   3  19
ATOM     19  O   UNL d   1       1.896   1.798  -1.053  0.00  0.00    -0.307 OA
BRANCH  19  20
ATOM     20  C   UNL d   1       0.992   1.582  -2.056  0.00  0.00     0.099 A 
ATOM     21  C   UNL d   1       0.990   0.409  -2.789  0.00  0.00     0.114 A 
ATOM     22  S   UNL d   1      -0.242   0.436  -3.994  0.00  0.00    -0.093 SA
ATOM     23  C   UNL d   1      -0.776   1.986  -3.527  0.00  0.00     0.053 A 
ATOM     24  C   UNL d   1      -0.062   2.470  -2.456  0.00  0.00     0.046 A 
BRANCH  21  25
ATOM     25  C   UNL d   1       1.835  -0.766  -2.712  0.00  0.00     0.302 C 
ATOM     26  O   UNL d   1       1.599  -1.855  -3.222  0.00  0.00    -0.259 OA
BRANCH  25  27
ATOM     27  O   UNL d   1       2.970  -0.486  -2.008  0.00  0.00    -0.322 OA
ATOM     28  C   UNL d   1       3.885  -1.571  -1.859  0.00  0.00     0.213 C 
ENDBRANCH  25  27
ENDBRANCH  21  25
ENDBRANCH  19  20
ENDBRANCH   3  19
BRANCH   2  29
ATOM     29  C   UNL d   1       2.391   7.253   0.428  0.00  0.00     0.417 C 
ATOM     30  F   UNL d   1       1.976   7.517   1.697  0.00  0.00    -0.166 F 
ATOM     31  F   UNL d   1       3.644   7.774   0.325  0.00  0.00    -0.166 F 
ATOM     32  F   UNL d   1       1.602   8.005  -0.388  0.00  0.00    -0.166 F 
ENDBRANCH   2  29
TORSDOF 7
