REMARK  6 active torsions:
REMARK  status: ('A' for Active; 'I' for Inactive)
REMARK    1  A    between atoms: C_4  and  C_1 
REMARK    2  A    between atoms: C_5  and  C_2 
REMARK    3  A    between atoms: O_13  and  C_4 
REMARK    4  A    between atoms: O_14  and  C_5 
REMARK    5  A    between atoms: C_7  and  C_6 
REMARK    6  A    between atoms: O_15  and  C_7 
ROOT
ATOM      1  C   UNL d   1       1.407  -0.316   0.124  0.00  0.00     0.055 A 
ATOM      2  C   UNL d   1       0.502  -1.366  -0.106  0.00  0.00     0.054 A 
ATOM      3  C   UNL d   1       0.903   0.998   0.249  0.00  0.00     0.037 A 
ATOM      4  C   UNL d   1      -0.464   1.262   0.112  0.00  0.00     0.038 A 
ATOM      5  C   UNL d   1      -0.873  -1.096  -0.240  0.00  0.00     0.020 A 
ATOM      6  C   UNL d   1      -1.352   0.209  -0.119  0.00  0.00     0.019 A 
ENDROOT
BRANCH   1   7
ATOM      7  C   UNL d   1       2.875  -0.443   0.350  0.00  0.00     0.177 C 
ATOM      8  O   UNL d   1       3.441   0.337   1.103  0.00  0.00    -0.646 OA
BRANCH   7   9
ATOM      9  O   UNL d   1       3.557  -1.334  -0.383  0.00  0.00    -0.773 OA
ATOM     10  H   UNL d   1       3.056  -2.008  -0.902  0.00  0.00     0.167 HD
ENDBRANCH   7   9
ENDBRANCH   1   7
BRANCH   2  11
ATOM     11  C   UNL d   1       0.941  -2.759  -0.278  0.00  0.00     0.177 C 
ATOM     12  O   UNL d   1       1.886  -3.038  -0.999  0.00  0.00    -0.646 OA
BRANCH  11  13
ATOM     13  O   UNL d   1       0.215  -3.664   0.401  0.00  0.00    -0.773 OA
ATOM     14  H   UNL d   1      -0.456  -3.313   1.020  0.00  0.00     0.167 HD
ENDBRANCH  11  13
ENDBRANCH   2  11
BRANCH   4  15
ATOM     15  C   UNL d   1      -1.022   2.629   0.254  0.00  0.00     0.176 C 
ATOM     16  O   UNL d   1      -2.122   2.833   0.737  0.00  0.00    -0.646 OA
BRANCH  15  17
ATOM     17  O   UNL d   1      -0.235   3.600  -0.249  0.00  0.00    -0.773 OA
ATOM     18  H   UNL d   1       0.555   3.313  -0.739  0.00  0.00     0.167 HD
ENDBRANCH  15  17
ENDBRANCH   4  15
TORSDOF 6
