REMARK  4 active torsions:
REMARK  status: ('A' for Active; 'I' for Inactive)
REMARK    1  A    between atoms: N_2  and  S_1 
REMARK    2  A    between atoms: C_3  and  S_1 
REMARK    3  A    between atoms: N_4  and  N_2 
REMARK    4  A    between atoms: C_6  and  C_10 
ROOT
ATOM      1  S   UNL d   1       1.000  -0.105   0.018  0.00  0.00     0.276 S 
ATOM      2  O   UNL d   1       0.323  -0.945  -0.948  0.00  0.00    -0.199 OA
ATOM      3  O   UNL d   1       2.445   0.003   0.047  0.00  0.00    -0.199 OA
ENDROOT
BRANCH   1   4
ATOM      4  N   UNL d   1       0.454  -0.527   1.575  0.00  0.00    -0.223 N 
ATOM      5  H   UNL d   1      -0.181   0.116   2.048  0.00  0.00     0.200 HD
BRANCH   4   6
ATOM      6  N   UNL d   1       0.780  -1.839   2.066  0.00  0.00    -0.301 N 
ATOM      7  C   UNL d   1       0.321  -2.156   3.234  0.00  0.00     0.126 C 
ATOM      8  HN  UNL d   1       1.345  -2.489   1.519  1.00  0.00     0.186 HD
BRANCH   7   9
ATOM      9  C   UNL d   1       0.604  -3.457   3.789  0.00  0.00     0.021 A 
ATOM     10  S   UNL d   1      -0.002  -3.866   5.335  0.00  0.00    -0.101 SA
ATOM     11  C   UNL d   1       0.702  -5.425   5.269  0.00  0.00     0.050 A 
ATOM     12  C   UNL d   1       1.388  -5.632   4.093  0.00  0.00     0.008 A 
ATOM     13  C   UNL d   1       1.332  -4.494   3.238  0.00  0.00     0.021 A 
ENDBRANCH   7   9
ENDBRANCH   4   6
ENDBRANCH   1   4
BRANCH   1  14
ATOM     14  C   UNL d   1       0.355   1.544  -0.172  0.00  0.00     0.081 A 
ATOM     15  C   UNL d   1       1.113   2.632   0.270  0.00  0.00     0.026 A 
ATOM     16  C   UNL d   1       0.678   3.931  -0.004  0.00  0.00     0.008 A 
ATOM     17  C   UNL d   1      -0.504   4.148  -0.726  0.00  0.00    -0.062 A 
ATOM     18  C   UNL d   1      -1.260   3.048  -1.152  0.00  0.00     0.008 A 
ATOM     19  C   UNL d   1      -0.918   5.549  -1.075  0.00  0.00     0.048 C 
ATOM     20  C   UNL d   1      -0.833   1.746  -0.879  0.00  0.00     0.026 A 
ENDBRANCH   1  14
TORSDOF 4
