REMARK  3 active torsions:
REMARK  status: ('A' for Active; 'I' for Inactive)
REMARK    1  A    between atoms: C_3  and  C_1 
REMARK    2  A    between atoms: N_4  and  C_2 
REMARK       I    between atoms: C_5  and  N_6 
REMARK    3  A    between atoms: C_9  and  C_5 
ROOT
ATOM      1  N   UNL d   1      -1.180   2.499   0.488  0.00  0.00    -0.266 NA
ATOM      2  C   UNL d   1      -3.886   5.769   0.711  0.00  0.00     0.253 C 
ATOM      3  N   UNL d   1      -2.946   4.748   0.620  0.00  0.00    -0.346 N 
ATOM      4  C   UNL d   1      -1.303   3.399  -0.680  0.00  0.00     0.117 C 
ATOM      5  C   UNL d   1      -2.462   2.389   1.227  0.00  0.00     0.117 C 
ATOM      6  C   UNL d   1      -2.885   3.783   1.726  0.00  0.00     0.141 C 
ATOM      7  C   UNL d   1      -1.714   4.804  -0.188  0.00  0.00     0.141 C 
ATOM      8  O   UNL d   1      -4.577   5.949   1.713  0.00  0.00    -0.267 OA
ENDROOT
BRANCH   1   9
ATOM      9  C   UNL d   1      -0.628   1.249   0.198  0.00  0.00     0.097 A 
ATOM     10  C   UNL d   1       0.086   0.545   1.167  0.00  0.00     0.086 A 
ATOM     11  C   UNL d   1       0.606  -0.720   0.828  0.00  0.00     0.021 A 
ATOM     12  C   UNL d   1       0.423  -1.234  -0.447  0.00  0.00     0.018 A 
ATOM     13  C   UNL d   1      -0.274  -0.463  -1.347  0.00  0.00     0.089 A 
ATOM     14  N   UNL d   1      -0.793   0.751  -1.052  0.00  0.00    -0.356 N 
ATOM     15  HN  UNL d   1      -1.301   1.283  -1.759  1.00  0.00     0.166 HD
BRANCH  10  16
ATOM     16  C   UNL d   1       0.340   1.063   2.554  0.00  0.00     0.420 C 
ATOM     17  F   UNL d   1       0.046   2.370   2.795  0.00  0.00    -0.166 F 
ATOM     18  F   UNL d   1      -0.367   0.358   3.488  0.00  0.00    -0.166 F 
ATOM     19  F   UNL d   1       1.650   0.923   2.921  0.00  0.00    -0.166 F 
ENDBRANCH  10  16
ENDBRANCH   1   9
BRANCH   2  20
ATOM     20  C   UNL d   1      -4.140   6.647  -0.463  0.00  0.00     0.032 A 
ATOM     21  C   UNL d   1      -4.147   6.142  -1.767  0.00  0.00     0.017 A 
ATOM     22  C   UNL d   1      -4.461   6.978  -2.840  0.00  0.00     0.007 A 
ATOM     23  C   UNL d   1      -4.817   8.314  -2.619  0.00  0.00    -0.062 A 
ATOM     24  C   UNL d   1      -4.837   8.809  -1.309  0.00  0.00     0.007 A 
ATOM     25  C   UNL d   1      -5.167   9.195  -3.781  0.00  0.00     0.048 C 
ATOM     26  C   UNL d   1      -4.504   7.979  -0.236  0.00  0.00     0.017 A 
ENDBRANCH   2  20
TORSDOF 3
