REMARK  4 active torsions:
REMARK  status: ('A' for Active; 'I' for Inactive)
REMARK    1  A    between atoms: C_9  and  C_3 
REMARK    2  A    between atoms: C_10  and  C_4 
REMARK    3  A    between atoms: O_14  and  C_5 
REMARK    4  A    between atoms: C_11  and  C_9 
ROOT
ATOM      1  N   UNL d   1      -0.693   1.169  -0.193  0.00  0.00    -0.322 N 
ATOM      2  HN  UNL d   1      -1.130   2.060  -0.431  1.00  0.00     0.169 HD
ATOM      3  C   UNL d   1       1.300  -0.168   0.115  0.00  0.00     0.019 A 
ATOM      4  C   UNL d   1      -1.415   0.084   0.111  0.00  0.00     0.117 A 
ATOM      5  C   UNL d   1       0.639   1.017  -0.167  0.00  0.00     0.150 A 
ATOM      6  N   UNL d   1      -0.882  -1.098   0.471  0.00  0.00    -0.345 N 
ATOM      7  HN  UNL d   1      -1.478  -1.885   0.727  1.00  0.00     0.167 HD
ATOM      8  C   UNL d   1       0.464  -1.213   0.483  0.00  0.00     0.017 A 
ATOM      9  C   UNL d   1       0.963  -2.575   0.863  0.00  0.00     0.069 C 
ENDROOT
BRANCH   4  10
ATOM     10  C   UNL d   1      -2.891   0.171   0.055  0.00  0.00     0.008 A 
ATOM     11  C   UNL d   1      -3.556   1.360  -0.299  0.00  0.00     0.017 A 
ATOM     12  C   UNL d   1      -4.956   1.434  -0.333  0.00  0.00     0.025 A 
ATOM     13  C   UNL d   1      -5.717   0.312  -0.016  0.00  0.00     0.034 A 
ATOM     14  C   UNL d   1      -5.093  -0.881   0.325  0.00  0.00     0.025 A 
ATOM     15 CL   UNL d   1      -7.434   0.403  -0.042  0.00  0.00    -0.084 Cl
ATOM     16  C   UNL d   1      -3.696  -0.949   0.357  0.00  0.00     0.017 A 
ENDBRANCH   4  10
BRANCH   5  17
ATOM     17  O   UNL d   1       1.322   2.163  -0.454  0.00  0.00    -0.346 OA
ATOM     18  H   UNL d   1       2.131   2.156   0.081  0.00  0.00     0.219 HD
ENDBRANCH   5  17
BRANCH   3  19
ATOM     19  C   UNL d   1       2.793  -0.309  -0.015  0.00  0.00     0.078 C 
BRANCH  19  20
ATOM     20  C   UNL d   1       3.640   0.004   1.204  0.00  0.00    -0.089 C 
ATOM     21  C   UNL d   1       3.178   0.360   2.412  0.00  0.00     0.014 C 
ATOM     22  C   UNL d   1       5.128  -0.132   0.979  0.00  0.00     0.043 C 
ENDBRANCH  19  20
ENDBRANCH   3  19
TORSDOF 4
