REMARK  7 active torsions:
REMARK  status: ('A' for Active; 'I' for Inactive)
REMARK    1  A    between atoms: C_7  and  C_1 
REMARK    2  A    between atoms: N_2  and  C_5 
REMARK    3  A    between atoms: S_6  and  C_3 
REMARK    4  A    between atoms: C_8  and  S_6 
REMARK    5  A    between atoms: O_15  and  C_7 
REMARK    6  A    between atoms: C_16  and  C_11 
REMARK    7  A    between atoms: O_17  and  C_16 
ROOT
ATOM      1  C   UNL d   1       0.123  -0.492   0.787  0.00  0.00     0.057 A 
ATOM      2  C   UNL d   1       0.661  -1.239  -0.281  0.00  0.00     0.022 A 
ATOM      3  C   UNL d   1      -0.274   0.848   0.576  0.00  0.00     0.055 A 
ATOM      4  C   UNL d   1      -0.140   1.440  -0.683  0.00  0.00     0.104 A 
ATOM      5  C   UNL d   1       0.763  -0.620  -1.546  0.00  0.00     0.022 A 
ATOM      6  C   UNL d   1       0.382   0.714  -1.748  0.00  0.00     0.037 A 
ENDROOT
BRANCH   2   7
ATOM      7  S   UNL d   1       1.101  -2.978  -0.226  0.00  0.00    -0.089 SA
BRANCH   7   8
ATOM      8  C   UNL d   1       2.858  -2.963   0.172  0.00  0.00     0.014 A 
ATOM      9  C   UNL d   1       3.410  -3.722   1.232  0.00  0.00    -0.018 A 
ATOM     10  C   UNL d   1       4.794  -3.619   1.489  0.00  0.00     0.011 A 
ATOM     11  C   UNL d   1       5.618  -2.803   0.717  0.00  0.00     0.001 A 
ATOM     12  C   UNL d   1       5.082  -2.099  -0.350  0.00  0.00     0.001 A 
ATOM     13  C   UNL d   1       3.717  -2.186  -0.625  0.00  0.00     0.019 A 
BRANCH   9  14
ATOM     14  C   UNL d   1       2.645  -4.713   2.082  0.00  0.00     0.204 C 
BRANCH  14  15
ATOM     15  O   UNL d   1       1.374  -4.203   2.439  0.00  0.00    -0.396 OA
ATOM     16  H   UNL d   1       1.254  -4.332   3.398  0.00  0.00     0.209 HD
ENDBRANCH  14  15
ENDBRANCH   9  14
ENDBRANCH   7   8
ENDBRANCH   2   7
BRANCH   1  17
ATOM     17  C   UNL d   1      -0.127  -0.971   2.172  0.00  0.00     0.177 C 
ATOM     18  O   UNL d   1      -1.031  -0.514   2.855  0.00  0.00    -0.646 OA
BRANCH  17  19
ATOM     19  O   UNL d   1       0.825  -1.758   2.691  0.00  0.00    -0.773 OA
ATOM     20  H   UNL d   1       1.183  -2.424   2.061  0.00  0.00     0.167 HD
ENDBRANCH  17  19
ENDBRANCH   1  17
BRANCH   4  21
ATOM     21  N   UNL d   1      -0.569   2.833  -0.886  0.00  0.00    -0.116 N 
ATOM     22  O   UNL d   1      -1.051   3.436   0.084  0.00  0.00    -0.532 OA
ATOM     23  O   UNL d   1      -0.413   3.318  -2.013  0.00  0.00    -0.532 OA
ENDBRANCH   4  21
TORSDOF 7
