REMARK  4 active torsions:
REMARK  status: ('A' for Active; 'I' for Inactive)
REMARK    1  A    between atoms: N_8  and  N_1 
REMARK    2  A    between atoms: C_9  and  C_3 
REMARK    3  A    between atoms: C_4  and  C_6 
REMARK    4  A    between atoms: C_5  and  C_4 
REMARK       I    between atoms: C_6  and  N_8 
ROOT
ATOM      1  C   UNL d   1       1.146  -0.468  -2.330  0.00  0.00     0.240 C 
ATOM      2  N   UNL d   1       0.286  -0.251  -1.257  0.00  0.00    -0.270 N 
ATOM      3  O   UNL d   1       2.363  -0.310  -2.304  0.00  0.00    -0.271 OA
ATOM      4  H   UNL d   1      -0.712  -0.333  -1.395  0.00  0.00     0.190 HD
ENDROOT
BRANCH   2   5
ATOM      5  N   UNL d   1       0.801   0.057  -0.031  0.00  0.00    -0.299 N 
ATOM      6  C   UNL d   1       0.007   0.270   0.977  0.00  0.00     0.067 C 
ATOM      7  C   UNL d   1      -1.499   0.236   0.991  0.00  0.00     0.074 C 
ATOM      8  HN  UNL d   1       1.811   0.121   0.094  1.00  0.00     0.186 HD
BRANCH   6   9
ATOM      9  C   UNL d   1       0.648   0.578   2.323  0.00  0.00     0.169 C 
ATOM     10  O   UNL d   1       0.050   0.254   3.344  0.00  0.00    -0.292 OA
ATOM     11  C   UNL d   1       1.984   1.258   2.334  0.00  0.00     0.098 C 
ENDBRANCH   6   9
ENDBRANCH   2   5
BRANCH   1  12
ATOM     12  C   UNL d   1       0.429  -0.972  -3.574  0.00  0.00     0.150 C 
BRANCH  12  13
ATOM     13  C   UNL d   1       0.142   0.151  -4.521  0.00  0.00    -0.009 A 
ATOM     14  S   UNL d   1      -1.401   0.895  -4.542  0.00  0.00    -0.106 SA
ATOM     15  C   UNL d   1      -0.967   1.906  -5.851  0.00  0.00     0.050 A 
ATOM     16  C   UNL d   1       0.332   1.700  -6.255  0.00  0.00     0.008 A 
ATOM     17  C   UNL d   1       0.976   0.692  -5.481  0.00  0.00     0.015 A 
ENDBRANCH  12  13
ENDBRANCH   1  12
TORSDOF 4
