REMARK  2 active torsions:
REMARK  status: ('A' for Active; 'I' for Inactive)
REMARK    1  A    between atoms: C_6  and  N_1 
REMARK    2  A    between atoms: N_5  and  C_7 
ROOT
ATOM      1  C   UNL d   1       1.392   2.243  -1.138  0.00  0.00     0.045 A 
ATOM      2  C   UNL d   1       2.522   4.325  -2.751  0.00  0.00     0.030 A 
ATOM      3  C   UNL d   1       1.995   1.973  -2.377  0.00  0.00     0.032 A 
ATOM      4  C   UNL d   1       1.387   3.578  -0.719  0.00  0.00     0.032 A 
ATOM      5  C   UNL d   1       2.536   2.992  -3.165  0.00  0.00     0.031 A 
ATOM      6  C   UNL d   1       1.962   4.596  -1.503  0.00  0.00     0.031 A 
ENDROOT
BRANCH   1   7
ATOM      7  N   UNL d   1       0.677   1.196  -0.457  0.00  0.00    -0.252 N 
ATOM      8  C   UNL d   1       0.996  -0.135  -0.733  0.00  0.00     0.239 C 
ATOM      9  C   UNL d   1      -0.222  -1.055  -0.842  0.00  0.00     0.035 C 
ATOM     10  O   UNL d   1       2.139  -0.557  -0.906  0.00  0.00    -0.272 OA
ATOM     11  C   UNL d   1      -0.988  -0.665  -2.119  0.00  0.00     0.025 C 
ATOM     12  C   UNL d   1       0.216  -2.523  -0.968  0.00  0.00     0.025 C 
ATOM     13  C   UNL d   1      -1.065  -0.885   0.424  0.00  0.00     0.028 C 
ATOM     14  C   UNL d   1      -1.364   0.572   0.719  0.00  0.00     0.105 C 
ATOM     15  C   UNL d   1      -0.126   1.443   0.651  0.00  0.00     0.231 C 
ATOM     16  O   UNL d   1       0.054   2.302   1.513  0.00  0.00    -0.273 OA
ENDBRANCH   1   7
BRANCH   2  17
ATOM     17  N   UNL d   1       3.076   5.296  -3.567  0.00  0.00    -0.377 N 
ATOM     18  C   UNL d   1       3.683   6.521  -3.026  0.00  0.00     0.149 C 
ATOM     19  C   UNL d   1       2.778   7.741  -3.242  0.00  0.00     0.187 C 
ATOM     20  O   UNL d   1       2.387   7.877  -4.619  0.00  0.00    -0.388 OA
ATOM     21  C   UNL d   1       1.673   6.705  -5.045  0.00  0.00     0.187 C 
ATOM     22  C   UNL d   1       2.541   5.441  -4.936  0.00  0.00     0.149 C 
ENDBRANCH   2  17
TORSDOF 2
