REMARK  3 active torsions:
REMARK  status: ('A' for Active; 'I' for Inactive)
REMARK    1  A    between atoms: C_4  and  C_1 
REMARK    2  A    between atoms: C_3  and  C_2 
REMARK    3  A    between atoms: C_13  and  C_4 
ROOT
ATOM      1  C   UNL d   1       0.582   1.129  -0.307  0.00  0.00     0.081 C 
ATOM      2  C   UNL d   1      -0.870   0.954   0.016  0.00  0.00     0.090 C 
ATOM      3  N   UNL d   1       1.224   0.048  -0.636  0.00  0.00    -0.321 N 
ATOM      4  HN  UNL d   1       2.219  -0.026  -0.846  1.00  0.00     0.180 HD
ATOM      5  N   UNL d   1       0.319  -0.960  -0.647  0.00  0.00    -0.239 NA
ATOM      6  C   UNL d   1      -0.993  -0.568  -0.131  0.00  0.00     0.126 C 
ATOM      7  H   UNL d   1       0.673  -1.825  -0.234  0.00  0.00     0.146 HD
ENDROOT
BRANCH   2   8
ATOM      8  C   UNL d   1      -1.359   1.517   1.355  0.00  0.00    -0.025 A 
ATOM      9  C   UNL d   1      -2.404   2.515   1.347  0.00  0.00    -0.018 A 
ATOM     10  C   UNL d   1      -2.946   2.943   2.582  0.00  0.00    -0.025 A 
ATOM     11  C   UNL d   1      -2.954   3.133   0.188  0.00  0.00     0.013 A 
ATOM     12  C   UNL d   1      -3.977   3.898   2.633  0.00  0.00     0.012 A 
ATOM     13  C   UNL d   1      -2.462   2.415   3.780  0.00  0.00     0.024 A 
ATOM     14  C   UNL d   1      -4.494   4.465   1.473  0.00  0.00     0.001 A 
ATOM     15  C   UNL d   1      -3.977   4.085   0.249  0.00  0.00     0.001 A 
ATOM     16  C   UNL d   1      -1.427   1.480   3.815  0.00  0.00    -0.025 A 
ATOM     17  C   UNL d   1      -0.836   1.027   2.612  0.00  0.00    -0.018 A 
ATOM     18  C   UNL d   1      -0.995   1.000   5.065  0.00  0.00     0.012 A 
ATOM     19  C   UNL d   1       0.233   0.102   2.770  0.00  0.00     0.013 A 
ATOM     20  C   UNL d   1       0.655  -0.375   4.015  0.00  0.00     0.001 A 
ATOM     21  C   UNL d   1       0.033   0.070   5.166  0.00  0.00     0.001 A 
ENDBRANCH   2   8
BRANCH   1  22
ATOM     22  C   UNL d   1       1.193   2.508  -0.372  0.00  0.00     0.206 C 
ATOM     23  O   UNL d   1       0.439   3.473  -0.311  0.00  0.00    -0.285 OA
BRANCH  22  24
ATOM     24  C   UNL d   1       2.643   2.716  -0.634  0.00  0.00     0.016 A 
ATOM     25  C   UNL d   1       3.034   3.918  -1.245  0.00  0.00     0.017 A 
ATOM     26  C   UNL d   1       4.372   4.145  -1.576  0.00  0.00     0.020 A 
ATOM     27  C   UNL d   1       5.327   3.173  -1.288  0.00  0.00     0.011 A 
ATOM     28  C   UNL d   1       4.958   1.988  -0.653  0.00  0.00     0.020 A 
ATOM     29 BR   UNL d   1       7.133   3.458  -1.764  0.00  0.00    -0.051 Br
ATOM     30  C   UNL d   1       3.619   1.764  -0.316  0.00  0.00     0.017 A 
ENDBRANCH  22  24
ENDBRANCH   1  22
TORSDOF 3
