REMARK  6 active torsions:
REMARK  status: ('A' for Active; 'I' for Inactive)
REMARK    1  A    between atoms: C_10  and  C_1 
REMARK    2  A    between atoms: N_16  and  C_2 
REMARK    3  A    between atoms: C_3  and  C_17 
REMARK    4  A    between atoms: O_20  and  C_10 
REMARK    5  A    between atoms: N_14  and  N_16 
REMARK    6  A    between atoms: C_24  and  O_20 
ROOT
ATOM      1  N   UNL d   1      -2.571   1.535  -0.161  0.00  0.00    -0.284 N 
ATOM      2  H   UNL d   1      -3.434   0.987  -0.093  0.00  0.00     0.188 HD
ENDROOT
BRANCH   1   3
ATOM      3  N   UNL d   1      -2.614   2.884  -0.237  0.00  0.00    -0.309 N 
ATOM      4  C   UNL d   1      -3.691   3.430  -0.707  0.00  0.00     0.124 C 
ATOM      5  HN  UNL d   1      -1.824   3.454   0.066  1.00  0.00     0.186 HD
BRANCH   4   6
ATOM      6  C   UNL d   1      -3.795   4.902  -0.837  0.00  0.00     0.054 A 
ATOM      7  C   UNL d   1      -4.927   5.575  -1.505  0.00  0.00     0.198 A 
ATOM      8  C   UNL d   1      -4.840   7.049  -1.595  0.00  0.00     0.049 A 
ATOM      9  O   UNL d   1      -5.872   4.949  -1.962  0.00  0.00    -0.286 OA
ATOM     10  C   UNL d   1      -5.832   7.789  -2.243  0.00  0.00     0.018 A 
ATOM     11  C   UNL d   1      -3.746   7.699  -1.022  0.00  0.00     0.089 A 
ATOM     12  C   UNL d   1      -5.724   9.181  -2.308  0.00  0.00     0.001 A 
ATOM     13  C   UNL d   1      -4.631   9.829  -1.727  0.00  0.00     0.003 A 
ATOM     14  C   UNL d   1      -3.640   9.089  -1.085  0.00  0.00     0.038 A 
ATOM     15  O   UNL d   1      -2.735   7.032  -0.383  0.00  0.00    -0.321 OA
ATOM     16  C   UNL d   1      -2.812   5.661  -0.340  0.00  0.00     0.159 A 
ENDBRANCH   4   6
ENDBRANCH   1   3
BRANCH   1  17
ATOM     17  C   UNL d   1      -1.374   0.920  -0.003  0.00  0.00     0.153 A 
ATOM     18  C   UNL d   1      -0.967  -0.383   0.205  0.00  0.00     0.109 A 
ATOM     19  C   UNL d   1       0.460  -0.304   0.209  0.00  0.00     0.042 A 
ATOM     20  N   UNL d   1       0.900   0.950   0.041  0.00  0.00    -0.302 N 
ATOM     21  C   UNL d   1       1.441  -1.411   0.346  0.00  0.00     0.071 C 
ATOM     22  N   UNL d   1      -0.229   1.661  -0.077  0.00  0.00    -0.283 N 
ATOM     23  HN  UNL d   1       1.864   1.283   0.011  1.00  0.00     0.186 HD
ATOM     24  H   UNL d   1      -0.186   2.659  -0.237  0.00  0.00     0.188 HD
BRANCH  18  25
ATOM     25  C   UNL d   1      -1.781  -1.572   0.323  0.00  0.00     0.299 C 
ATOM     26  O   UNL d   1      -1.311  -2.700   0.422  0.00  0.00    -0.259 OA
BRANCH  25  27
ATOM     27  O   UNL d   1      -3.120  -1.306   0.234  0.00  0.00    -0.318 OA
BRANCH  27  28
ATOM     28  C   UNL d   1      -3.943  -2.436  -0.083  0.00  0.00     0.174 C 
ATOM     29  C   UNL d   1      -4.019  -2.544  -1.595  0.00  0.00     0.034 C 
ENDBRANCH  27  28
ENDBRANCH  25  27
ENDBRANCH  18  25
ENDBRANCH   1  17
TORSDOF 6
