REMARK  9 active torsions:
REMARK  status: ('A' for Active; 'I' for Inactive)
REMARK    1  A    between atoms: C_3  and  C_1 
REMARK    2  A    between atoms: N_2  and  C_4 
REMARK    3  A    between atoms: C_19  and  N_7 
REMARK    4  A    between atoms: C_9  and  C_10 
REMARK    5  A    between atoms: C_25  and  C_19 
REMARK    6  A    between atoms: O_24  and  C_27 
REMARK    7  A    between atoms: C_26  and  O_24 
REMARK    8  A    between atoms: C_27  and  C_25 
REMARK    9  A    between atoms: O_30  and  C_25 
ROOT
ATOM      1  N   UNL d   1       1.354   2.409  -9.730  0.00  0.00    -0.364 N 
ATOM      2  N   UNL d   1      -0.960   1.878  -7.942  0.00  0.00     0.094 N 
ATOM      3  C   UNL d   1       1.165   3.188  -8.498  0.00  0.00     0.154 C 
ATOM      4  C   UNL d   1       0.187   1.684 -10.252  0.00  0.00     0.154 C 
ATOM      5  C   UNL d   1       0.349   2.401  -7.450  0.00  0.00     0.292 C 
ATOM      6  C   UNL d   1      -0.655   1.032  -9.122  0.00  0.00     0.292 C 
ENDROOT
BRANCH   2   7
ATOM      7  C   UNL d   1      -1.867   3.002  -8.241  0.00  0.00     0.306 C 
BRANCH   7   8
ATOM      8  C   UNL d   1      -3.308   2.699  -8.713  0.00  0.00     0.170 C 
BRANCH   8   9
ATOM      9  C   UNL d   1      -4.137   1.886  -7.707  0.00  0.00     0.209 C 
BRANCH   9  10
ATOM     10  O   UNL d   1      -5.442   1.645  -8.270  0.00  0.00    -0.349 OA
BRANCH  10  11
ATOM     11  C   UNL d   1      -6.317   0.901  -7.524  0.00  0.00     0.068 A 
ATOM     12  C   UNL d   1      -6.069   0.405  -6.243  0.00  0.00     0.037 A 
ATOM     13  C   UNL d   1      -7.031  -0.373  -5.596  0.00  0.00     0.018 A 
ATOM     14  C   UNL d   1      -8.260  -0.655  -6.203  0.00  0.00     0.009 A 
ATOM     15  C   UNL d   1      -8.517  -0.157  -7.481  0.00  0.00     0.018 A 
ATOM     16  C   UNL d   1      -7.548   0.623  -8.132  0.00  0.00     0.037 A 
BRANCH  14  17
ATOM     17  C   UNL d   1      -9.213  -1.527  -5.452  0.00  0.00     0.155 C 
ATOM     18  O   UNL d   1      -8.775  -2.285  -4.584  0.00  0.00    -0.293 OA
ATOM     19  C   UNL d   1     -10.692  -1.452  -5.720  0.00  0.00     0.096 C 
ENDBRANCH  14  17
ENDBRANCH  10  11
ENDBRANCH   9  10
ENDBRANCH   8   9
BRANCH   8  20
ATOM     20  O   UNL d   1      -3.944   3.971  -8.959  0.00  0.00    -0.392 OA
ATOM     21  H   UNL d   1      -4.099   4.397  -8.098  0.00  0.00     0.210 HD
ENDBRANCH   8  20
ENDBRANCH   7   8
ENDBRANCH   2   7
BRANCH   1  22
ATOM     22  C   UNL d   1       2.638   2.119 -10.132  0.00  0.00     0.103 A 
ATOM     23  C   UNL d   1       2.936   1.842 -11.468  0.00  0.00     0.049 A 
ATOM     24  C   UNL d   1       4.257   1.610 -11.859  0.00  0.00     0.021 A 
ATOM     25  C   UNL d   1       5.274   1.645 -10.910  0.00  0.00     0.063 A 
ATOM     26  C   UNL d   1       4.905   1.922  -9.608  0.00  0.00     0.106 A 
ATOM     27  N   UNL d   1       3.630   2.162  -9.218  0.00  0.00    -0.352 N 
ATOM     28  HN  UNL d   1       3.421   2.372  -8.242  1.00  0.00     0.166 HD
BRANCH  25  29
ATOM     29  C   UNL d   1       6.708   1.412 -11.271  0.00  0.00     0.418 C 
ATOM     30  F   UNL d   1       7.559   1.488 -10.210  0.00  0.00    -0.166 F 
ATOM     31  F   UNL d   1       7.171   2.310 -12.184  0.00  0.00    -0.166 F 
ATOM     32  F   UNL d   1       6.913   0.183 -11.822  0.00  0.00    -0.166 F 
ENDBRANCH  25  29
ENDBRANCH   1  22
TORSDOF 9
