REMARK  7 active torsions:
REMARK  status: ('A' for Active; 'I' for Inactive)
REMARK    1  A    between atoms: S_11  and  C_3 
REMARK       I    between atoms: N_4  and  C_7 
REMARK    2  A    between atoms: C_18  and  N_5 
REMARK    3  A    between atoms: O_20  and  C_6 
REMARK    4  A    between atoms: C_7  and  C_17 
REMARK    5  A    between atoms: C_17  and  S_11 
REMARK    6  A    between atoms: C_21  and  C_12 
REMARK    7  A    between atoms: C_24  and  C_21 
ROOT
ATOM      1  C   UNL d   1       3.508  -2.508   0.116  0.00  0.00     0.185 C 
ENDROOT
BRANCH   1   2
ATOM      2  C   UNL d   1       4.187  -3.860   0.315  0.00  0.00     0.229 C 
ATOM      3  N   UNL d   1       3.541  -5.018  -0.088  0.00  0.00    -0.348 N 
ATOM      4  C   UNL d   1       2.161  -5.132  -0.580  0.00  0.00     0.145 C 
ATOM      5  C   UNL d   1       4.172  -6.322   0.163  0.00  0.00     0.145 C 
ATOM      6  C   UNL d   1       1.284  -5.948   0.398  0.00  0.00     0.143 C 
ATOM      7  N   UNL d   1       1.925  -7.249   0.681  0.00  0.00    -0.378 N 
ATOM      8  C   UNL d   1       3.328  -7.172   1.133  0.00  0.00     0.143 C 
ATOM      9  O   UNL d   1       5.329  -3.899   0.784  0.00  0.00    -0.273 OA
BRANCH   7  10
ATOM     10  C   UNL d   1       1.294  -8.439   0.386  0.00  0.00     0.030 A 
ATOM     11  C   UNL d   1      -0.092  -8.596   0.559  0.00  0.00     0.029 A 
ATOM     12  C   UNL d   1      -0.747  -9.798   0.270  0.00  0.00     0.002 A 
ATOM     13  C   UNL d   1      -0.026 -10.887  -0.205  0.00  0.00     0.000 A 
ATOM     14  C   UNL d   1       1.346 -10.766  -0.388  0.00  0.00     0.002 A 
ATOM     15  C   UNL d   1       1.992  -9.560  -0.093  0.00  0.00     0.029 A 
ENDBRANCH   7  10
ENDBRANCH   1   2
BRANCH   1  16
ATOM     16  S   UNL d   1       2.056  -2.252   1.182  0.00  0.00    -0.085 SA
BRANCH  16  17
ATOM     17  C   UNL d   1       2.807  -2.666   2.725  0.00  0.00     0.146 A 
ATOM     18  N   UNL d   1       2.308  -3.722   3.381  0.00  0.00    -0.318 N 
ATOM     19  C   UNL d   1       2.977  -4.048   4.486  0.00  0.00     0.143 A 
ATOM     20  HN  UNL d   1       1.486  -4.234   3.062  1.00  0.00     0.170 HD
ATOM     21  C   UNL d   1       4.088  -3.408   4.965  0.00  0.00     0.081 A 
ATOM     22  C   UNL d   1       4.510  -2.327   4.223  0.00  0.00     0.015 A 
ATOM     23  N   UNL d   1       3.870  -1.940   3.101  0.00  0.00    -0.340 N 
ATOM     24  HN  UNL d   1       4.181  -1.132   2.562  1.00  0.00     0.167 HD
BRANCH  19  25
ATOM     25  O   UNL d   1       2.481  -5.130   5.141  0.00  0.00    -0.346 OA
ATOM     26  H   UNL d   1       1.729  -5.365   4.567  0.00  0.00     0.219 HD
ENDBRANCH  19  25
BRANCH  22  27
ATOM     27  C   UNL d   1       5.741  -1.551   4.606  0.00  0.00     0.057 C 
BRANCH  27  28
ATOM     28  C   UNL d   1       5.467  -0.075   4.911  0.00  0.00     0.002 C 
ATOM     29  C   UNL d   1       4.568   0.131   6.121  0.00  0.00     0.005 C 
ENDBRANCH  27  28
ENDBRANCH  22  27
ENDBRANCH  16  17
ENDBRANCH   1  16
TORSDOF 7
