REMARK  14 active torsions:
REMARK  status: ('A' for Active; 'I' for Inactive)
REMARK    1  A    between atoms: N_2  and  S_1 
REMARK    2  A    between atoms: C_5  and  S_1 
REMARK       I    between atoms: C_3  and  N_2 
REMARK       I    between atoms: N_10  and  C_3 
REMARK       I    between atoms: C1_29  and  N_4 
REMARK    3  A    between atoms: C_9  and  N_4 
REMARK    4  A    between atoms: O_16  and  C_6 
REMARK    5  A    between atoms: C_9  and  C_6 
REMARK    6  A    between atoms: C_9  and  C_20 
REMARK    7  A    between atoms: C_21  and  N_13 
REMARK    8  A    between atoms: C_20  and  C_23 
REMARK    9  A    between atoms: C_23  and  C_21 
REMARK   10  A    between atoms: O1_32  and  C1_29 
REMARK   11  A    between atoms: C3_30  and  C4_31 
REMARK   12  A    between atoms: C4_31  and  O1_32 
REMARK   13  A    between atoms: O7_39  and  C11_37 
REMARK   14  A    between atoms: O8_40  and  C12_38 
ROOT
ATOM      1  C   UNK d   1      -0.217  -7.030  -5.231  0.00  0.00     0.184 C 
ENDROOT
BRANCH   1   2
ATOM      2  C   UNK d   1       0.154  -5.534  -5.215  0.00  0.00     0.038 C 
BRANCH   2   3
ATOM      3  C   UNK d   1       1.660  -5.229  -5.258  0.00  0.00     0.023 C 
BRANCH   3   4
ATOM      4  C   UNK d   1       2.367  -5.806  -6.478  0.00  0.00     0.138 C 
BRANCH   4   5
ATOM      5  N   UNK d   1       1.825  -5.203  -7.682  0.00  0.00    -0.226 N 
ATOM      6  C   UNK d   1       2.171  -5.707  -8.890  0.00  0.00     0.681 C 
ATOM      7  N   UNK d   1       2.095  -4.768  -9.894  0.00  0.00    -0.113 N 
ATOM      8  N   UNK d   1       2.535  -6.913  -9.100  0.00  0.00    -0.234 N 
ATOM      9  H   UNK d   1       1.568  -3.915  -9.772  0.00  0.00     0.197 HD
ATOM     10  H   UNK d   1       2.681  -7.057 -10.112  0.00  0.00     0.174 HD
ATOM     11  HN  UNK d   1       2.662  -7.624  -8.380  1.00  0.00     0.174 HD
ATOM     12  H   UNK d   1       1.802  -4.194  -7.643  0.00  0.00     0.177 HD
BRANCH   7  13
ATOM     13  S   UNK d   1       2.992  -4.758 -11.300  0.00  0.00     0.276 S 
ATOM     14  O   UNK d   1       2.500  -3.649 -12.083  0.00  0.00    -0.200 OA
ATOM     15  O   UNK d   1       3.042  -6.107 -11.823  0.00  0.00    -0.200 OA
BRANCH  13  16
ATOM     16  C   UNK d   1       4.612  -4.333 -10.699  0.00  0.00     0.080 A 
ATOM     17  C   UNK d   1       5.489  -5.336 -10.277  0.00  0.00     0.026 A 
ATOM     18  C   UNK d   1       6.794  -5.001  -9.906  0.00  0.00     0.008 A 
ATOM     19  C   UNK d   1       7.233  -3.671  -9.963  0.00  0.00    -0.062 A 
ATOM     20  C   UNK d   1       6.335  -2.672 -10.365  0.00  0.00     0.008 A 
ATOM     21  C   UNK d   1       8.655  -3.335  -9.622  0.00  0.00     0.048 C 
ATOM     22  C   UNK d   1       5.031  -2.998 -10.733  0.00  0.00     0.026 A 
ENDBRANCH  13  16
ENDBRANCH   7  13
ENDBRANCH   4   5
ENDBRANCH   3   4
ENDBRANCH   2   3
ENDBRANCH   1   2
BRANCH   1  23
ATOM     23  C   UNK d   1       0.349  -7.676  -3.958  0.00  0.00     0.163 C 
ATOM     24  O   UNK d   1       1.513  -8.023  -3.826  0.00  0.00    -0.648 OA
BRANCH  23  25
ATOM     25  O   UNK d   1      -0.514  -7.644  -2.908  0.00  0.00    -0.775 OA
ATOM     26  H   UNK d   1      -1.392  -7.322  -3.191  0.00  0.00     0.167 HD
ENDBRANCH  23  25
ENDBRANCH   1  23
BRANCH   1  27
ATOM     27  N   UNK d   1      -1.679  -7.169  -5.241  0.00  0.00    -0.322 N 
ATOM     28  C1  <1> d   1      -2.398  -8.232  -5.723  0.00  0.00     0.362 C 
ATOM     29  O4  <1> d   1      -3.619  -8.217  -5.597  0.00  0.00    -0.238 OA
ATOM     30  H   UNK d   1      -2.264  -6.375  -5.014  0.00  0.00     0.165 HD
BRANCH  28  31
ATOM     31  O1  <1> d   1      -1.665  -9.201  -6.311  0.00  0.00    -0.289 OA
BRANCH  31  32
ATOM     32  C4  <1> d   1      -2.356 -10.341  -6.934  0.00  0.00     0.092 C 
ATOM     33  C18 <1> d   1      -3.329  -9.843  -8.040  0.00  0.00     0.052 C 
ATOM     34  C19 <1> d   1      -1.260 -11.144  -7.680  0.00  0.00     0.052 C 
BRANCH  32  35
ATOM     35  C3  <1> d   1      -2.903 -11.325  -5.878  0.00  0.00    -0.019 A 
ATOM     36  C8  <1> d   1      -4.029 -12.139  -6.112  0.00  0.00     0.047 A 
ATOM     37  C12 <1> d   1      -4.372 -13.175  -5.234  0.00  0.00     0.071 A 
ATOM     38  C10 <1> d   1      -3.600 -13.404  -4.094  0.00  0.00     0.073 A 
ATOM     39  C11 <1> d   1      -2.482 -12.620  -3.832  0.00  0.00     0.071 A 
ATOM     40  C9  <1> d   1      -2.151 -11.581  -4.712  0.00  0.00     0.047 A 
BRANCH  37  41
ATOM     41  O8  <1> d   1      -5.412 -14.053  -5.394  0.00  0.00    -0.356 OA
ATOM     42  C23 <1> d   1      -6.161 -13.959  -6.599  0.00  0.00     0.210 C 
ENDBRANCH  37  41
BRANCH  39  43
ATOM     43  O7  <1> d   1      -1.616 -12.790  -2.785  0.00  0.00    -0.356 OA
ATOM     44  C24 <1> d   1      -1.820 -13.934  -1.962  0.00  0.00     0.210 C 
ENDBRANCH  39  43
ENDBRANCH  32  35
ENDBRANCH  31  32
ENDBRANCH  28  31
ENDBRANCH   1  27
TORSDOF 14
