REMARK  5 active torsions:
REMARK  status: ('A' for Active; 'I' for Inactive)
REMARK    1  A    between atoms: C_8  and  C_1 
REMARK    2  A    between atoms: N_7  and  C_2 
REMARK    3  A    between atoms: C_9  and  C_4 
REMARK       I    between atoms: C_6  and  N_7 
REMARK       I    between atoms: N_10  and  C_6 
REMARK    4  A    between atoms: O_14  and  C_8 
REMARK    5  A    between atoms: C_13  and  N_10 
ROOT
ATOM      1  C   UNL d   1      -0.261   1.350  -0.067  0.00  0.00     0.107 C 
ATOM      2  C   UNL d   1       1.071   0.946  -0.074  0.00  0.00     0.060 C 
ATOM      3  S   UNL d   1      -1.288  -0.007  -0.448  0.00  0.00    -0.086 SA
ATOM      4  C   UNL d   1      -0.053  -1.160  -0.248  0.00  0.00    -0.007 C 
ATOM      5  C   UNL d   1       1.149  -0.501  -0.123  0.00  0.00     0.046 C 
ENDROOT
BRANCH   2   6
ATOM      6  N   UNL d   1       2.307   1.585   0.008  0.00  0.00    -0.307 N 
ATOM      7  C   UNL d   1       2.845   2.800  -0.251  0.00  0.00     0.325 C 
ATOM      8  N   UNL d   1       2.039   3.870  -0.440  0.00  0.00    -0.309 N 
ATOM      9  O   UNL d   1       4.080   2.833  -0.312  0.00  0.00    -0.247 OA
ATOM     10  H   UNL d   1       1.177   3.856   0.104  0.00  0.00     0.170 HD
ATOM     11  H   UNL d   1       3.091   0.944   0.086  0.00  0.00     0.170 HD
BRANCH   8  12
ATOM     12  C   UNL d   1       2.483   5.146  -0.862  0.00  0.00     0.036 A 
ATOM     13  C   UNL d   1       3.608   5.342  -1.672  0.00  0.00     0.031 A 
ATOM     14  C   UNL d   1       3.984   6.632  -2.066  0.00  0.00     0.026 A 
ATOM     15  C   UNL d   1       3.240   7.729  -1.641  0.00  0.00     0.034 A 
ATOM     16  C   UNL d   1       2.122   7.547  -0.832  0.00  0.00     0.026 A 
ATOM     17 CL   UNL d   1       3.697   9.317  -2.121  0.00  0.00    -0.084 Cl
ATOM     18  C   UNL d   1       1.737   6.257  -0.455  0.00  0.00     0.031 A 
ENDBRANCH   8  12
ENDBRANCH   2   6
BRANCH   1  19
ATOM     19  C   UNL d   1      -0.920   2.619   0.268  0.00  0.00     0.302 C 
ATOM     20  O   UNL d   1      -0.359   3.616   0.696  0.00  0.00    -0.259 OA
BRANCH  19  21
ATOM     21  O   UNL d   1      -2.284   2.536   0.109  0.00  0.00    -0.322 OA
ATOM     22  C   UNL d   1      -3.072   3.644   0.558  0.00  0.00     0.213 C 
ENDBRANCH  19  21
ENDBRANCH   1  19
BRANCH   4  23
ATOM     23  C   UNL d   1      -0.297  -2.675  -0.155  0.00  0.00    -0.018 C 
ATOM     24  C   UNL d   1       0.512  -3.450  -1.216  0.00  0.00     0.020 C 
ATOM     25  C   UNL d   1       0.175  -3.147   1.239  0.00  0.00     0.020 C 
ATOM     26  C   UNL d   1      -1.778  -3.069  -0.319  0.00  0.00     0.020 C 
ENDBRANCH   4  23
TORSDOF 5
