REMARK  4 active torsions:
REMARK  status: ('A' for Active; 'I' for Inactive)
REMARK    1  A    between atoms: C_16  and  C_6 
REMARK    2  A    between atoms: O_26  and  C_7 
REMARK    3  A    between atoms: C_9  and  C_14 
REMARK    4  A    between atoms: O_29  and  C_27 
ROOT
ATOM      1  C   UNL d   1       0.768  -0.238  -0.075  0.00  0.00     0.052 A 
ATOM      2  N   UNL d   1       1.436  -1.417  -0.072  0.00  0.00    -0.335 N 
ATOM      3  HN  UNL d   1       0.935  -2.302  -0.152  1.00  0.00     0.168 HD
ATOM      4  C   UNL d   1       1.433   1.001  -0.013  0.00  0.00    -0.017 A 
ATOM      5  C   UNL d   1       3.527  -0.218   0.145  0.00  0.00     0.107 A 
ATOM      6  C   UNL d   1       2.861   1.030   0.100  0.00  0.00     0.008 A 
ATOM      7  C   UNL d   1       2.779  -1.391   0.040  0.00  0.00     0.164 A 
ATOM      8  C   UNL d   1      -0.710  -0.336  -0.080  0.00  0.00    -0.002 A 
ATOM      9  C   UNL d   1      -1.500   0.825  -0.157  0.00  0.00    -0.043 A 
ATOM     10  C   UNL d   1       4.949  -0.338   0.344  0.00  0.00     0.104 C 
ATOM     11  N   UNL d   1       6.095  -0.415   0.494  0.00  0.00    -0.191 NA
ATOM     12  C   UNL d   1       0.593   2.258   0.056  0.00  0.00     0.046 C 
ATOM     13  C   UNL d   1      -1.385  -1.567   0.010  0.00  0.00     0.017 A 
ATOM     14  C   UNL d   1      -0.862   2.162  -0.395  0.00  0.00     0.044 C 
ATOM     15  C   UNL d   1      -2.905   0.752  -0.117  0.00  0.00     0.044 A 
ATOM     16  C   UNL d   1      -3.554  -0.474  -0.014  0.00  0.00     0.068 A 
ATOM     17  C   UNL d   1      -2.785  -1.635   0.039  0.00  0.00     0.037 A 
ENDROOT
BRANCH   6  18
ATOM     18  C   UNL d   1       3.627   2.318   0.189  0.00  0.00    -0.024 A 
ATOM     19  C   UNL d   1       4.759   2.569  -0.613  0.00  0.00     0.013 A 
ATOM     20  C   UNL d   1       5.498   3.758  -0.502  0.00  0.00     0.017 A 
ATOM     21  C   UNL d   1       5.095   4.768   0.377  0.00  0.00     0.048 A 
ATOM     22  C   UNL d   1       3.951   4.554   1.150  0.00  0.00     0.017 A 
ATOM     23  C   UNL d   1       3.266   3.335   1.089  0.00  0.00     0.013 A 
BRANCH  21  24
ATOM     24  C   UNL d   1       5.855   6.066   0.502  0.00  0.00     0.417 C 
ATOM     25  F   UNL d   1       7.109   6.019  -0.026  0.00  0.00    -0.166 F 
ATOM     26  F   UNL d   1       5.223   7.098  -0.122  0.00  0.00    -0.166 F 
ATOM     27  F   UNL d   1       6.011   6.456   1.798  0.00  0.00    -0.166 F 
ENDBRANCH  21  24
ENDBRANCH   6  18
BRANCH   7  28
ATOM     28  O   UNL d   1       3.462  -2.592   0.067  0.00  0.00    -0.340 OA
ATOM     29  C   UNL d   1       2.625  -3.743   0.006  0.00  0.00     0.211 C 
ENDBRANCH   7  28
BRANCH  16  30
ATOM     30  O   UNL d   1      -4.907  -0.659   0.028  0.00  0.00    -0.356 OA
ATOM     31  C   UNL d   1      -5.713   0.515   0.011  0.00  0.00     0.210 C 
ENDBRANCH  16  30
TORSDOF 4
