REMARK  5 active torsions:
REMARK  status: ('A' for Active; 'I' for Inactive)
REMARK    1  A    between atoms: C_10  and  C_3 
REMARK    2  A    between atoms: C_8  and  C_4 
REMARK    3  A    between atoms: C_6  and  C_9 
REMARK    4  A    between atoms: C_11  and  O_13 
REMARK    5  A    between atoms: O_13  and  C_14 
ROOT
ATOM      1  N   UNL d   1       1.386  -0.587  -0.047  0.00  0.00    -0.349 N 
ATOM      2  HN  UNL d   1       2.269  -1.090  -0.128  1.00  0.00     0.166 HD
ATOM      3  C   UNL d   1       0.198  -1.158   0.024  0.00  0.00     0.084 A 
ATOM      4  C   UNL d   1       1.265   0.796   0.003  0.00  0.00     0.050 A 
ATOM      5  S   UNL d   1      -1.126  -0.050   0.065  0.00  0.00    -0.081 SA
ATOM      6  C   UNL d   1      -0.032   1.260   0.052  0.00  0.00     0.082 A 
ENDROOT
BRANCH   3   7
ATOM      7  C   UNL d   1      -0.034  -2.616   0.020  0.00  0.00    -0.002 A 
ATOM      8  C   UNL d   1      -1.187  -3.199   0.567  0.00  0.00     0.015 A 
ATOM      9  C   UNL d   1      -1.378  -4.585   0.542  0.00  0.00     0.017 A 
ATOM     10  C   UNL d   1      -0.416  -5.428  -0.029  0.00  0.00     0.048 A 
ATOM     11  C   UNL d   1       0.745  -4.857  -0.566  0.00  0.00     0.017 A 
ATOM     12  C   UNL d   1       0.932  -3.468  -0.536  0.00  0.00     0.015 A 
BRANCH  10  13
ATOM     13  C   UNL d   1      -0.645  -6.920  -0.048  0.00  0.00     0.417 C 
ATOM     14  F   UNL d   1       0.356  -7.619  -0.650  0.00  0.00    -0.166 F 
ATOM     15  F   UNL d   1      -0.766  -7.442   1.204  0.00  0.00    -0.166 F 
ATOM     16  F   UNL d   1      -1.788  -7.261  -0.706  0.00  0.00    -0.166 F 
ENDBRANCH  10  13
ENDBRANCH   3   7
BRANCH   4  17
ATOM     17  C   UNL d   1       2.432   1.671  -0.054  0.00  0.00    -0.006 A 
ATOM     18  C   UNL d   1       3.572   1.252  -0.758  0.00  0.00     0.050 A 
ATOM     19  C   UNL d   1       4.676   2.099  -0.889  0.00  0.00     0.075 A 
ATOM     20  C   UNL d   1       4.662   3.350  -0.269  0.00  0.00     0.037 A 
ATOM     21  C   UNL d   1       3.546   3.769   0.453  0.00  0.00     0.004 A 
ATOM     22  C   UNL d   1       2.434   2.934   0.558  0.00  0.00     0.014 A 
BRANCH  19  23
ATOM     23  O   UNL d   1       5.822   1.809  -1.575  0.00  0.00    -0.290 OA
BRANCH  23  24
ATOM     24  C   UNL d   1       5.683   0.896  -2.652  0.00  0.00     0.505 C 
ATOM     25  F   UNL d   1       4.788   1.386  -3.546  0.00  0.00    -0.184 F 
ATOM     26  F   UNL d   1       6.879   0.844  -3.292  0.00  0.00    -0.184 F 
ENDBRANCH  23  24
ENDBRANCH  19  23
ENDBRANCH   4  17
TORSDOF 5
