REMARK  5 active torsions:
REMARK  status: ('A' for Active; 'I' for Inactive)
REMARK    1  A    between atoms: N_5  and  C_6 
REMARK    2  A    between atoms: C_7  and  N_5 
REMARK    3  A    between atoms: C_8  and  C_7 
REMARK    4  A    between atoms: C_9  and  C_8 
REMARK    5  A    between atoms: O_10  and  C_8 
ROOT
ATOM      1  N   UNL d   1       3.741  -0.002   0.093  0.00  0.00     0.091 N 
ATOM      2  H   UNL d   1       4.159  -0.826  -0.338  0.00  0.00     0.316 HD
ENDROOT
BRANCH   1   3
ATOM      3  C   UNL d   1       2.355   0.099  -0.372  0.00  0.00     0.229 C 
ATOM      4  C   UNL d   1       1.526   1.297   0.155  0.00  0.00     0.075 C 
ATOM      5  C   UNL d   1       0.134   0.753   0.039  0.00  0.00    -0.050 A 
ATOM      6  C   UNL d   1       0.151  -0.647  -0.004  0.00  0.00    -0.050 A 
ATOM      7  C   UNL d   1      -1.064   1.446   0.021  0.00  0.00     0.007 A 
ATOM      8  C   UNL d   1       1.556  -1.159   0.056  0.00  0.00     0.075 C 
ATOM      9  C   UNL d   1      -1.021  -1.381  -0.051  0.00  0.00     0.007 A 
ATOM     10  C   UNL d   1      -2.232  -0.689  -0.082  0.00  0.00     0.001 A 
ATOM     11  C   UNL d   1      -2.253   0.716  -0.053  0.00  0.00     0.001 A 
ENDBRANCH   1   3
BRANCH   1  12
ATOM     12  C   UNL d   1       4.570   1.172  -0.237  0.00  0.00     0.306 C 
BRANCH  12  13
ATOM     13  C   UNL d   1       6.026   1.018   0.306  0.00  0.00     0.179 C 
BRANCH  13  14
ATOM     14  C   UNL d   1       6.162   0.863   1.817  0.00  0.00    -0.028 A 
ATOM     15  C   UNL d   1       7.232   0.137   2.372  0.00  0.00     0.010 A 
ATOM     16  C   UNL d   1       7.345  -0.033   3.756  0.00  0.00     0.001 A 
ATOM     17  C   UNL d   1       6.403   0.535   4.611  0.00  0.00     0.000 A 
ATOM     18  C   UNL d   1       5.365   1.297   4.084  0.00  0.00     0.001 A 
ATOM     19  C   UNL d   1       5.254   1.466   2.701  0.00  0.00     0.010 A 
ENDBRANCH  13  14
BRANCH  13  20
ATOM     20  O   UNL d   1       6.601  -0.113  -0.367  0.00  0.00    -0.389 OA
ATOM     21  H   UNL d   1       6.193  -0.891   0.051  0.00  0.00     0.210 HD
ENDBRANCH  13  20
ENDBRANCH  12  13
ENDBRANCH   1  12
TORSDOF 5
