REMARK  2 active torsions:
REMARK  status: ('A' for Active; 'I' for Inactive)
REMARK    1  A    between atoms: C_3  and  C_1 
REMARK       I    between atoms: N_8  and  C_3 
REMARK    2  A    between atoms: N_9  and  N_8 
ROOT
ATOM      1  C   UNL d   1       2.163  -0.939   0.022  0.00  0.00     0.075 A 
ATOM      2  S   UNL d   1       1.795   0.729   0.004  0.00  0.00    -0.084 SA
ATOM      3  C   UNL d   1       1.012  -1.700  -0.002  0.00  0.00     0.037 A 
ATOM      4  C   UNL d   1       0.096   0.446  -0.005  0.00  0.00     0.016 A 
ATOM      5  C   UNL d   1      -0.191  -0.920  -0.011  0.00  0.00    -0.018 A 
ATOM      6  C   UNL d   1      -0.929   1.412  -0.004  0.00  0.00     0.019 A 
ATOM      7  C   UNL d   1      -1.548  -1.322  -0.018  0.00  0.00     0.013 A 
ATOM      8  C   UNL d   1      -2.260   0.986  -0.009  0.00  0.00     0.001 A 
ATOM      9  C   UNL d   1      -2.568  -0.367  -0.016  0.00  0.00     0.001 A 
ENDROOT
BRANCH   1  10
ATOM     10  C   UNL d   1       3.527  -1.444   0.073  0.00  0.00     0.272 C 
ATOM     11  O   UNL d   1       3.797  -2.646   0.132  0.00  0.00    -0.266 OA
ATOM     12  N   UNL d   1       4.544  -0.488   0.062  0.00  0.00    -0.289 N 
ATOM     13  H   UNL d   1       4.307   0.490  -0.091  0.00  0.00     0.183 HD
BRANCH  12  14
ATOM     14  N   UNL d   1       5.901  -0.887   0.075  0.00  0.00    -0.247 NA
ATOM     15  H   UNL d   1       5.909  -1.911  -0.051  0.00  0.00     0.143 HD
ATOM     16  H   UNL d   1       6.257  -0.755   1.026  0.00  0.00     0.143 HD
ENDBRANCH  12  14
ENDBRANCH   1  10
TORSDOF 2
