REMARK  6 active torsions:
REMARK  status: ('A' for Active; 'I' for Inactive)
REMARK    1  A    between atoms: C_2  and  C_1 
REMARK    2  A    between atoms: N_3  and  C_1 
REMARK    3  A    between atoms: C_4  and  C_1 
REMARK    4  A    between atoms: O_6  and  C_1 
REMARK       I    between atoms: C_5  and  N_3 
REMARK    5  A    between atoms: O_12  and  C_4 
REMARK    6  A    between atoms: C_15  and  O_12 
ROOT
ATOM      1  C   UNL d   1       0.864   0.048   0.046  0.00  0.00     0.326 C 
ENDROOT
BRANCH   1   2
ATOM      2  C   UNL d   1       0.304   0.459   1.447  0.00  0.00     0.448 C 
ATOM      3  F   UNL d   1      -0.128   1.748   1.431  0.00  0.00    -0.166 F 
ATOM      4  F   UNL d   1      -0.725  -0.297   1.883  0.00  0.00    -0.166 F 
ATOM      5  F   UNL d   1       1.267   0.411   2.410  0.00  0.00    -0.166 F 
ENDBRANCH   1   2
BRANCH   1   6
ATOM      6  N   UNL d   1       0.398   0.840  -1.097  0.00  0.00    -0.314 N 
ATOM      7  C   UNL d   1      -0.945   1.005  -1.331  0.00  0.00     0.216 C 
ATOM      8  O   UNL d   1      -1.794   0.523  -0.599  0.00  0.00    -0.274 OA
ATOM      9  C   UNL d   1      -1.276   1.832  -2.541  0.00  0.00     0.117 C 
ATOM     10  H   UNL d   1       1.075   1.087  -1.792  0.00  0.00     0.166 HD
ENDBRANCH   1   6
BRANCH   1  11
ATOM     11  C   UNL d   1       0.588  -1.457  -0.090  0.00  0.00     0.325 C 
ATOM     12  O   UNL d   1       0.796  -2.295   0.794  0.00  0.00    -0.259 OA
BRANCH  11  13
ATOM     13  O   UNL d   1       0.306  -1.796  -1.393  0.00  0.00    -0.318 OA
BRANCH  13  14
ATOM     14  C   UNL d   1       0.390  -3.193  -1.701  0.00  0.00     0.174 C 
ATOM     15  C   UNL d   1       1.840  -3.555  -1.978  0.00  0.00     0.034 C 
ENDBRANCH  13  14
ENDBRANCH  11  13
ENDBRANCH   1  11
BRANCH   1  16
ATOM     16  O   UNL d   1       2.312   0.032  -0.076  0.00  0.00    -0.350 OA
ATOM     17  C   UNL d   1       3.002   1.241   0.192  0.00  0.00     0.206 C 
ENDBRANCH   1  16
TORSDOF 6
