REMARK  4 active torsions:
REMARK  status: ('A' for Active; 'I' for Inactive)
REMARK    1  A    between atoms: N_3  and  C_1 
REMARK    2  A    between atoms: N_4  and  C_2 
REMARK    3  A    between atoms: O_17  and  C_5 
REMARK    4  A    between atoms: C_6  and  C_7 
ROOT
ATOM      1  C   UNL d   1       1.400  -0.194   0.085  0.00  0.00     0.139 A 
ATOM      2  C   UNL d   1      -0.785  -1.110   0.028  0.00  0.00     0.139 A 
ATOM      3  C   UNL d   1       0.605  -1.343   0.022  0.00  0.00     0.134 A 
ATOM      4  C   UNL d   1      -0.541   1.301   0.182  0.00  0.00     0.052 A 
ATOM      5  C   UNL d   1      -1.361   0.173   0.113  0.00  0.00     0.055 A 
ATOM      6  C   UNL d   1       0.847   1.108   0.156  0.00  0.00     0.055 A 
ENDROOT
BRANCH   4   7
ATOM      7  C   UNL d   1      -1.120   2.693   0.299  0.00  0.00     0.417 C 
ATOM      8  F   UNL d   1      -2.478   2.710   0.339  0.00  0.00    -0.166 F 
ATOM      9  F   UNL d   1      -0.698   3.327   1.426  0.00  0.00    -0.166 F 
ATOM     10  F   UNL d   1      -0.759   3.488  -0.742  0.00  0.00    -0.166 F 
ENDBRANCH   4   7
BRANCH   1  11
ATOM     11  N   UNL d   1       2.844  -0.234   0.122  0.00  0.00    -0.113 N 
ATOM     12  O   UNL d   1       3.369  -0.607   1.178  0.00  0.00    -0.532 OA
ATOM     13  O   UNL d   1       3.438   0.162  -0.887  0.00  0.00    -0.532 OA
ENDBRANCH   1  11
BRANCH   2  14
ATOM     14  N   UNL d   1      -1.707  -2.232  -0.051  0.00  0.00    -0.113 N 
ATOM     15  O   UNL d   1      -1.695  -2.907  -1.088  0.00  0.00    -0.532 OA
ATOM     16  O   UNL d   1      -2.488  -2.376   0.900  0.00  0.00    -0.532 OA
ENDBRANCH   2  14
BRANCH   3  17
ATOM     17  O   UNL d   1       0.953  -2.658  -0.015  0.00  0.00    -0.351 OA
ATOM     18  C   UNL d   1       2.288  -3.108  -0.173  0.00  0.00     0.210 C 
ENDBRANCH   3  17
TORSDOF 4
