REMARK  6 active torsions:
REMARK  status: ('A' for Active; 'I' for Inactive)
REMARK       I    between atoms: C_4  and  N_1 
REMARK    1  A    between atoms: N_2  and  C_3 
REMARK    2  A    between atoms: C_8  and  C_4 
REMARK    3  A    between atoms: C_5  and  C_9 
REMARK    4  A    between atoms: C_16  and  C_6 
REMARK    5  A    between atoms: C_7  and  O_15 
REMARK    6  A    between atoms: O_15  and  C_16 
ROOT
ATOM      1  N   UNL d   1      -1.339  -0.515   0.227  0.00  0.00    -0.332 N 
ATOM      2  C   UNL d   1      -2.436  -1.240   0.678  0.00  0.00     0.254 C 
ATOM      3  C   UNL d   1      -0.184  -1.243  -0.301  0.00  0.00     0.173 C 
ATOM      4  S   UNL d   1       1.230  -0.136   0.035  0.00  0.00    -0.140 SA
ATOM      5  O   UNL d   1      -2.403  -2.462   0.802  0.00  0.00    -0.267 OA
ATOM      6  C   UNL d   1      -1.212   0.940   0.145  0.00  0.00     0.137 C 
ATOM      7  C   UNL d   1       0.239   1.362  -0.066  0.00  0.00     0.096 C 
ENDROOT
BRANCH   2   8
ATOM      8  C   UNL d   1      -3.719  -0.554   1.010  0.00  0.00     0.032 A 
ATOM      9  C   UNL d   1      -4.267   0.424   0.175  0.00  0.00     0.018 A 
ATOM     10  C   UNL d   1      -5.505   0.998   0.471  0.00  0.00     0.017 A 
ATOM     11  C   UNL d   1      -6.253   0.557   1.573  0.00  0.00     0.048 A 
ATOM     12  C   UNL d   1      -5.719  -0.449   2.391  0.00  0.00     0.017 A 
ATOM     13  C   UNL d   1      -4.460  -1.001   2.111  0.00  0.00     0.018 A 
BRANCH  11  14
ATOM     14  C   UNL d   1      -7.618   1.152   1.825  0.00  0.00     0.417 C 
ATOM     15  F   UNL d   1      -8.311   0.538   2.822  0.00  0.00    -0.166 F 
ATOM     16  F   UNL d   1      -7.554   2.469   2.163  0.00  0.00    -0.166 F 
ATOM     17  F   UNL d   1      -8.417   1.091   0.722  0.00  0.00    -0.166 F 
ENDBRANCH  11  14
ENDBRANCH   2   8
BRANCH   3  18
ATOM     18  C   UNL d   1      -0.368  -1.481  -1.818  0.00  0.00     0.212 C 
BRANCH  18  19
ATOM     19  O   UNL d   1       0.783  -2.075  -2.430  0.00  0.00    -0.346 OA
BRANCH  19  20
ATOM     20  C   UNL d   1       0.733  -2.202  -3.795  0.00  0.00     0.101 A 
ATOM     21  C   UNL d   1       1.424  -3.254  -4.406  0.00  0.00     0.136 A 
ATOM     22  C   UNL d   1       1.450  -3.422  -5.805  0.00  0.00     0.045 A 
ATOM     23  C   UNL d   1       0.780  -2.511  -6.622  0.00  0.00    -0.059 A 
ATOM     24  C   UNL d   1       0.108  -1.440  -6.027  0.00  0.00     0.009 A 
ATOM     25  C   UNL d   1       0.780  -2.679  -8.112  0.00  0.00     0.048 C 
ATOM     26  C   UNL d   1       0.093  -1.283  -4.634  0.00  0.00     0.040 A 
BRANCH  21  27
ATOM     27  N   UNL d   1       2.134  -4.228  -3.602  0.00  0.00    -0.113 N 
ATOM     28  O   UNL d   1       1.476  -4.882  -2.780  0.00  0.00    -0.532 OA
ATOM     29  O   UNL d   1       3.338  -4.389  -3.848  0.00  0.00    -0.532 OA
ENDBRANCH  21  27
ENDBRANCH  19  20
ENDBRANCH  18  19
ENDBRANCH   3  18
TORSDOF 6
