REMARK  8 active torsions:
REMARK  status: ('A' for Active; 'I' for Inactive)
REMARK    1  A    between atoms: N_2  and  C_1 
REMARK    2  A    between atoms: C_3  and  C_1 
REMARK    3  A    between atoms: C_5  and  C_1 
REMARK    4  A    between atoms: N_6  and  C_1 
REMARK       I    between atoms: C_4  and  N_2 
REMARK       I    between atoms: N_7  and  C_4 
REMARK    5  A    between atoms: O_15  and  C_5 
REMARK    6  A    between atoms: C_9  and  N_6 
REMARK    7  A    between atoms: C_16  and  N_7 
REMARK    8  A    between atoms: C_21  and  O_15 
ROOT
ATOM      1  C   UNL d   1       0.864  -0.190  -0.012  0.00  0.00     0.298 C 
ENDROOT
BRANCH   1   2
ATOM      2  N   UNL d   1       0.590   0.866  -0.999  0.00  0.00    -0.300 N 
ATOM      3  C   UNL d   1       0.358   0.940  -2.325  0.00  0.00     0.323 C 
ATOM      4  N   UNL d   1       0.262  -0.212  -3.040  0.00  0.00    -0.309 N 
ATOM      5  O   UNL d   1       0.217   2.080  -2.766  0.00  0.00    -0.247 OA
ATOM      6  H   UNL d   1       0.337  -1.085  -2.547  0.00  0.00     0.170 HD
ATOM      7  H   UNL d   1       0.560   1.801  -0.610  0.00  0.00     0.167 HD
BRANCH   4   8
ATOM      8  C   UNL d   1      -0.162  -0.334  -4.388  0.00  0.00     0.036 A 
ATOM      9  C   UNL d   1      -0.427   0.750  -5.232  0.00  0.00     0.029 A 
ATOM     10  C   UNL d   1      -0.924   0.546  -6.525  0.00  0.00     0.002 A 
ATOM     11  C   UNL d   1      -1.151  -0.744  -6.994  0.00  0.00     0.000 A 
ATOM     12  C   UNL d   1      -0.862  -1.833  -6.176  0.00  0.00     0.002 A 
ATOM     13  C   UNL d   1      -0.367  -1.629  -4.884  0.00  0.00     0.029 A 
ENDBRANCH   4   8
ENDBRANCH   1   2
BRANCH   1  14
ATOM     14  C   UNL d   1      -0.039  -1.473  -0.076  0.00  0.00     0.442 C 
ATOM     15  F   UNL d   1      -0.982  -1.399  -1.046  0.00  0.00    -0.166 F 
ATOM     16  F   UNL d   1       0.720  -2.561  -0.400  0.00  0.00    -0.166 F 
ATOM     17  F   UNL d   1      -0.682  -1.782   1.071  0.00  0.00    -0.166 F 
ENDBRANCH   1  14
BRANCH   1  18
ATOM     18  C   UNL d   1       0.495   0.393   1.376  0.00  0.00     0.318 C 
ATOM     19  O   UNL d   1      -0.383   1.237   1.539  0.00  0.00    -0.260 OA
BRANCH  18  20
ATOM     20  O   UNL d   1       1.241  -0.134   2.390  0.00  0.00    -0.318 OA
BRANCH  20  21
ATOM     21  C   UNL d   1       0.984   0.387   3.704  0.00  0.00     0.174 C 
ATOM     22  C   UNL d   1       1.598   1.765   3.887  0.00  0.00     0.034 C 
ENDBRANCH  20  21
ENDBRANCH  18  20
ENDBRANCH   1  18
BRANCH   1  23
ATOM     23  N   UNL d   1       2.308  -0.512  -0.142  0.00  0.00    -0.348 N 
ATOM     24  H   UNL d   1       2.503  -1.363  -0.662  0.00  0.00     0.163 HD
BRANCH  23  25
ATOM     25  C   UNL d   1       3.412   0.270   0.138  0.00  0.00     0.030 A 
ATOM     26  C   UNL d   1       3.366   1.627   0.471  0.00  0.00     0.036 A 
ATOM     27  C   UNL d   1       4.528   2.356   0.786  0.00  0.00    -0.060 A 
ATOM     28  C   UNL d   1       4.457   3.828   1.065  0.00  0.00     0.048 C 
ATOM     29  C   UNL d   1       5.764   1.706   0.790  0.00  0.00     0.007 A 
ATOM     30  C   UNL d   1       5.832   0.349   0.503  0.00  0.00     0.003 A 
ATOM     31  C   UNL d   1       4.668  -0.357   0.186  0.00  0.00     0.029 A 
ENDBRANCH  23  25
ENDBRANCH   1  23
TORSDOF 8
