REMARK  2 active torsions:
REMARK  status: ('A' for Active; 'I' for Inactive)
REMARK    1  A    between atoms: C_15  and  C_5 
REMARK    2  A    between atoms: C_12  and  C_8 
ROOT
ATOM      1  N   UNL d   1      -0.222  -0.656   0.022  0.00  0.00    -0.243 N 
ATOM      2  C   UNL d   1      -0.200   0.745   0.019  0.00  0.00     0.129 A 
ATOM      3  N   UNL d   1      -1.500  -1.123   0.004  0.00  0.00    -0.296 N 
ATOM      4  HN  UNL d   1      -1.807  -2.096   0.001  1.00  0.00     0.187 HD
ATOM      5  C   UNL d   1       2.156  -0.745   0.061  0.00  0.00     0.049 A 
ATOM      6  C   UNL d   1       0.974  -1.406   0.036  0.00  0.00     0.047 A 
ATOM      7  C   UNL d   1      -1.512   1.155  -0.011  0.00  0.00     0.077 A 
ATOM      8  C   UNL d   1      -2.261  -0.029  -0.010  0.00  0.00     0.034 A 
ATOM      9  N   UNL d   1       0.959   1.457   0.053  0.00  0.00    -0.350 N 
ATOM     10  HN  UNL d   1       0.973   2.477   0.055  1.00  0.00     0.166 HD
ATOM     11  C   UNL d   1       2.045   0.748   0.084  0.00  0.00     0.107 A 
ATOM     12  C   UNL d   1       0.785  -2.901   0.005  0.00  0.00     0.071 C 
ENDROOT
BRANCH   5  13
ATOM     13  C   UNL d   1       3.498  -1.410   0.083  0.00  0.00     0.159 C 
ATOM     14  O   UNL d   1       3.660  -2.501   0.628  0.00  0.00    -0.293 OA
ATOM     15  C   UNL d   1       4.673  -0.711  -0.554  0.00  0.00     0.097 C 
ENDBRANCH   5  13
BRANCH   8  16
ATOM     16  C   UNL d   1      -3.783  -0.045  -0.023  0.00  0.00     0.037 A 
ATOM     17  C   UNL d   1      -4.510  -1.136   0.737  0.00  0.00     0.011 A 
ATOM     18  C   UNL d   1      -4.493  -1.166  -0.752  0.00  0.00     0.011 A 
ENDBRANCH   8  16
TORSDOF 2
