REMARK  6 active torsions:
REMARK  status: ('A' for Active; 'I' for Inactive)
REMARK    1  A    between atoms: C_8  and  N_1 
REMARK    2  A    between atoms: S_7  and  C_2 
REMARK    3  A    between atoms: C_12  and  S_7 
REMARK    4  A    between atoms: C_9  and  C_12 
REMARK    5  A    between atoms: C_10  and  C_9 
REMARK    6  A    between atoms: N_13  and  C_11 
ROOT
ATOM      1  N   UNL d   1      -0.285  -1.363  -0.071  0.00  0.00    -0.219 N 
ATOM      2  C   UNL d   1       0.953  -0.729  -0.033  0.00  0.00     0.177 A 
ATOM      3  N   UNL d   1       0.774   0.570   0.005  0.00  0.00    -0.264 N 
ATOM      4  HN  UNL d   1       1.493   1.290   0.079  1.00  0.00     0.186 HD
ATOM      5  N   UNL d   1      -0.584   0.760  -0.075  0.00  0.00    -0.006 NA
ATOM      6  N   UNL d   1      -1.223  -0.396  -0.189  0.00  0.00     0.001 NA
ENDROOT
BRANCH   1   7
ATOM      7  C   UNL d   1      -0.629  -2.740  -0.025  0.00  0.00     0.057 A 
ATOM      8  C   UNL d   1       0.181  -3.655   0.639  0.00  0.00     0.033 A 
ATOM      9  C   UNL d   1      -0.130  -5.021   0.616  0.00  0.00     0.031 A 
ATOM     10  C   UNL d   1      -1.235  -5.529  -0.080  0.00  0.00     0.029 A 
ATOM     11  C   UNL d   1      -2.075  -4.579  -0.679  0.00  0.00     0.031 A 
ATOM     12  C   UNL d   1      -1.793  -3.195  -0.645  0.00  0.00     0.033 A 
BRANCH  10  13
ATOM     13  N   UNL d   1      -1.485  -6.898  -0.086  0.00  0.00    -0.390 N 
ATOM     14  C   UNL d   1      -0.353  -7.814  -0.269  0.00  0.00     0.149 C 
ATOM     15  C   UNL d   1      -2.759  -7.421  -0.570  0.00  0.00     0.149 C 
ENDBRANCH  10  13
ENDBRANCH   1   7
BRANCH   2  16
ATOM     16  S   UNL d   1       2.460  -1.548  -0.257  0.00  0.00    -0.084 SA
BRANCH  16  17
ATOM     17  C   UNL d   1       3.690  -0.222  -0.313  0.00  0.00     0.161 C 
BRANCH  17  18
ATOM     18  C   UNL d   1       5.021  -0.770  -0.841  0.00  0.00     0.144 C 
ATOM     19  O   UNL d   1       5.121  -1.903  -1.323  0.00  0.00    -0.296 OA
BRANCH  18  20
ATOM     20  C   UNL d   1       6.280   0.112  -0.718  0.00  0.00     0.010 C 
ATOM     21  C   UNL d   1       6.916  -0.155   0.651  0.00  0.00     0.022 C 
ATOM     22  C   UNL d   1       7.269  -0.294  -1.829  0.00  0.00     0.022 C 
ATOM     23  C   UNL d   1       5.968   1.605  -0.872  0.00  0.00     0.022 C 
ENDBRANCH  18  20
ENDBRANCH  17  18
ENDBRANCH  16  17
ENDBRANCH   2  16
TORSDOF 6
