REMARK  5 active torsions:
REMARK  status: ('A' for Active; 'I' for Inactive)
REMARK    1  A    between atoms: C_10  and  C_3 
REMARK    2  A    between atoms: C_11  and  C_4 
REMARK    3  A    between atoms: C_8  and  N_5 
REMARK    4  A    between atoms: N_9  and  C_11 
REMARK    5  A    between atoms: O_23  and  C_14 
ROOT
ATOM      1  N   UNL d   1       3.665  -1.898   0.420  0.00  0.00    -0.375 N 
ATOM      2  N   UNL d   1       1.018  -3.160  -0.015  0.00  0.00     0.097 N 
ATOM      3  C   UNL d   1       3.238  -2.205  -0.960  0.00  0.00     0.153 C 
ATOM      4  C   UNL d   1       2.540  -1.550   1.295  0.00  0.00     0.153 C 
ATOM      5  C   UNL d   1       2.170  -3.335  -0.942  0.00  0.00     0.292 C 
ATOM      6  C   UNL d   1       1.527  -2.722   1.309  0.00  0.00     0.292 C 
ENDROOT
BRANCH   2   7
ATOM      7  C   UNL d   1       0.012  -2.213  -0.523  0.00  0.00     0.337 C 
BRANCH   7   8
ATOM      8  C   UNL d   1      -0.786  -2.709  -1.707  0.00  0.00     0.079 A 
ATOM      9  N   UNL d   1      -0.678  -2.212  -2.922  0.00  0.00    -0.351 N 
ATOM     10  C   UNL d   1      -1.684  -2.708  -3.733  0.00  0.00     0.049 A 
ATOM     11  HN  UNL d   1       0.042  -1.555  -3.222  1.00  0.00     0.166 HD
ATOM     12  C   UNL d   1      -2.498  -3.657  -3.144  0.00  0.00     0.081 A 
ATOM     13  S   UNL d   1      -2.020  -3.897  -1.512  0.00  0.00    -0.085 SA
BRANCH  10  14
ATOM     14  C   UNL d   1      -1.851  -2.198  -5.085  0.00  0.00    -0.009 A 
ATOM     15  C   UNL d   1      -0.714  -1.888  -5.844  0.00  0.00     0.015 A 
ATOM     16  C   UNL d   1      -0.837  -1.296  -7.103  0.00  0.00     0.020 A 
ATOM     17  C   UNL d   1      -2.103  -1.004  -7.605  0.00  0.00     0.011 A 
ATOM     18  C   UNL d   1      -3.245  -1.317  -6.869  0.00  0.00     0.020 A 
ATOM     19 BR   UNL d   1      -2.272  -0.150  -9.283  0.00  0.00    -0.051 Br
ATOM     20  C   UNL d   1      -3.120  -1.917  -5.612  0.00  0.00     0.015 A 
ENDBRANCH  10  14
ENDBRANCH   7   8
ENDBRANCH   2   7
BRANCH   1  21
ATOM     21  C   UNL d   1       4.893  -1.235   0.563  0.00  0.00     0.064 A 
ATOM     22  C   UNL d   1       6.118  -1.868   0.217  0.00  0.00     0.094 A 
ATOM     23  C   UNL d   1       7.341  -1.199   0.392  0.00  0.00     0.039 A 
ATOM     24  C   UNL d   1       7.379   0.077   0.949  0.00  0.00     0.003 A 
ATOM     25  C   UNL d   1       6.196   0.703   1.315  0.00  0.00     0.002 A 
ATOM     26  C   UNL d   1       4.969   0.053   1.121  0.00  0.00     0.032 A 
BRANCH  22  27
ATOM     27  O   UNL d   1       6.040  -3.152  -0.274  0.00  0.00    -0.354 OA
ATOM     28  C   UNL d   1       7.210  -3.953  -0.150  0.00  0.00     0.210 C 
ENDBRANCH  22  27
ENDBRANCH   1  21
TORSDOF 5
