REMARK  7 active torsions:
REMARK  status: ('A' for Active; 'I' for Inactive)
REMARK    1  A    between atoms: C_10  and  C_1 
REMARK    2  A    between atoms: N_8  and  C_2 
REMARK    3  A    between atoms: C_9  and  C_3 
REMARK    4  A    between atoms: N_4  and  N_8 
REMARK    5  A    between atoms: N_7  and  C_6 
REMARK    6  A    between atoms: O_19  and  C_9 
REMARK    7  A    between atoms: C_25  and  O_19 
ROOT
ATOM      1  C   UNL d   1      -1.536  -0.554   1.069  0.00  0.00     0.054 A 
ATOM      2  C   UNL d   1      -1.144   0.778   0.740  0.00  0.00     0.053 A 
ATOM      3  C   UNL d   1       0.426  -1.450  -0.085  0.00  0.00     0.049 A 
ATOM      4  C   UNL d   1      -0.759  -1.643   0.640  0.00  0.00     0.043 A 
ATOM      5  C   UNL d   1       0.063   0.951   0.042  0.00  0.00     0.032 A 
ATOM      6  C   UNL d   1       0.834  -0.142  -0.367  0.00  0.00     0.018 A 
ENDROOT
BRANCH   1   7
ATOM      7  N   UNL d   1      -2.735  -0.765   1.818  0.00  0.00    -0.203 NA
ATOM      8  H   UNL d   1      -3.518  -0.569   1.197  0.00  0.00     0.153 HD
BRANCH   7   9
ATOM      9  N   UNL d   1      -2.856  -1.924   2.523  0.00  0.00    -0.315 N 
ATOM     10  C   UNL d   1      -3.663  -1.856   3.546  0.00  0.00     0.092 C 
ATOM     11  C   UNL d   1      -4.473  -0.658   3.977  0.00  0.00     0.076 C 
ATOM     12  HN  UNL d   1      -2.356  -2.777   2.271  1.00  0.00     0.181 HD
BRANCH  10  13
ATOM     13  C   UNL d   1      -3.784  -3.053   4.476  0.00  0.00     0.306 C 
ATOM     14  O   UNL d   1      -4.809  -3.256   5.106  0.00  0.00    -0.258 OA
BRANCH  13  15
ATOM     15  O   UNL d   1      -2.591  -3.652   4.630  0.00  0.00    -0.317 OA
BRANCH  15  16
ATOM     16  C   UNL d   1      -2.434  -4.369   5.860  0.00  0.00     0.175 C 
ATOM     17  C   UNL d   1      -1.866  -3.399   6.882  0.00  0.00     0.034 C 
ENDBRANCH  15  16
ENDBRANCH  13  15
ENDBRANCH  10  13
ENDBRANCH   7   9
ENDBRANCH   1   7
BRANCH   2  18
ATOM     18  N   UNL d   1      -1.907   1.869   1.174  0.00  0.00    -0.375 N 
ATOM     19  C   UNL d   1      -1.237   3.147   1.478  0.00  0.00     0.149 C 
ATOM     20  C   UNL d   1      -2.175   3.988   2.362  0.00  0.00     0.187 C 
ATOM     21  O   UNL d   1      -3.452   4.203   1.729  0.00  0.00    -0.388 OA
ATOM     22  C   UNL d   1      -4.079   2.945   1.419  0.00  0.00     0.187 C 
ATOM     23  C   UNL d   1      -3.195   2.094   0.492  0.00  0.00     0.149 C 
ENDBRANCH   2  18
BRANCH   3  24
ATOM     24  C   UNL d   1       1.248  -2.621  -0.554  0.00  0.00     0.417 C 
ATOM     25  F   UNL d   1       0.734  -3.834  -0.212  0.00  0.00    -0.166 F 
ATOM     26  F   UNL d   1       2.518  -2.601  -0.059  0.00  0.00    -0.166 F 
ATOM     27  F   UNL d   1       1.382  -2.645  -1.911  0.00  0.00    -0.166 F 
ENDBRANCH   3  24
TORSDOF 7
