REMARK  3 active torsions:
REMARK  status: ('A' for Active; 'I' for Inactive)
REMARK       I    between atoms: N_2  and  C_1 
REMARK    1  A    between atoms: C_3  and  C_1 
REMARK    2  A    between atoms: C_7  and  N_2 
REMARK    3  A    between atoms: C_4  and  C_5 
ROOT
ATOM      1  C   UNL d   1       2.116   3.538  -3.772  0.00  0.00    -0.051 A 
ATOM      2  C   UNL d   1       0.887   1.868  -1.813  0.00  0.00     0.034 A 
ATOM      3  C   UNL d   1       0.975   3.947  -3.064  0.00  0.00     0.010 A 
ATOM      4  C   UNL d   1       2.644   2.277  -3.452  0.00  0.00     0.010 A 
ATOM      5  C   UNL d   1       0.373   3.128  -2.103  0.00  0.00     0.030 A 
ATOM      6  C   UNL d   1       2.046   1.459  -2.479  0.00  0.00     0.030 A 
ENDROOT
BRANCH   2   7
ATOM      7  N   UNL d   1       0.309   0.993  -0.866  0.00  0.00    -0.327 N 
ATOM      8  C   UNL d   1      -0.965   1.105  -0.331  0.00  0.00     0.229 C 
ATOM      9  O   UNL d   1      -1.803   1.930  -0.693  0.00  0.00    -0.272 OA
ATOM     10  H   UNL d   1       0.843   0.165  -0.643  0.00  0.00     0.169 HD
BRANCH   8  11
ATOM     11  C   UNL d   1      -1.300   0.087   0.781  0.00  0.00     0.030 C 
ATOM     12  C   UNL d   1      -0.337   0.264   1.962  0.00  0.00     0.025 C 
ATOM     13  C   UNL d   1      -2.737   0.353   1.276  0.00  0.00     0.025 C 
ATOM     14  C   UNL d   1      -1.228  -1.350   0.248  0.00  0.00     0.025 C 
ENDBRANCH   8  11
ENDBRANCH   2   7
BRANCH   1  15
ATOM     15  C   UNL d   1       2.719   4.464  -4.842  0.00  0.00    -0.024 C 
ATOM     16  C   UNL d   1       3.963   3.877  -5.543  0.00  0.00     0.019 C 
ATOM     17  C   UNL d   1       1.667   4.746  -5.939  0.00  0.00     0.019 C 
ATOM     18  C   UNL d   1       3.142   5.802  -4.197  0.00  0.00     0.019 C 
ENDBRANCH   1  15
TORSDOF 3
