REMARK  9 active torsions:
REMARK  status: ('A' for Active; 'I' for Inactive)
REMARK    1  A    between atoms: C_7  and  C_1 
REMARK    2  A    between atoms: C_8  and  C_2 
REMARK    3  A    between atoms: N_9  and  C_3 
REMARK       I    between atoms: C_13  and  N_9 
REMARK    4  A    between atoms: C_10  and  C_11 
REMARK    5  A    between atoms: C_27  and  C_13 
REMARK    6  A    between atoms: C_14  and  C_28 
REMARK    7  A    between atoms: O_25  and  C_14 
REMARK    8  A    between atoms: S_23  and  C_27 
REMARK    9  A    between atoms: C_28  and  S_23 
ROOT
ATOM      1  C   UNL d   1       1.323   0.654   0.006  0.00  0.00     0.147 A 
ATOM      2  C   UNL d   1       1.378  -0.784   0.036  0.00  0.00     0.053 A 
ATOM      3  C   UNL d   1       0.045  -1.187   0.006  0.00  0.00     0.138 A 
ATOM      4  N   UNL d   1       0.045   1.082  -0.038  0.00  0.00    -0.292 N 
ATOM      5  HN  UNL d   1      -0.286   2.047  -0.036  1.00  0.00     0.187 HD
ATOM      6  N   UNL d   1      -0.698  -0.034  -0.086  0.00  0.00    -0.280 N 
ATOM      7  C   UNL d   1      -2.135   0.110  -0.059  0.00  0.00     0.179 C 
ENDROOT
BRANCH   3   8
ATOM      8  N   UNL d   1      -0.413  -2.498   0.073  0.00  0.00    -0.310 N 
ATOM      9  C   UNL d   1      -1.279  -3.060  -0.925  0.00  0.00     0.232 C 
ATOM     10  O   UNL d   1      -1.693  -2.356  -1.838  0.00  0.00    -0.272 OA
ATOM     11  H   UNL d   1      -0.009  -3.122   0.761  0.00  0.00     0.170 HD
BRANCH   9  12
ATOM     12  C   UNL d   1      -1.589  -4.535  -0.759  0.00  0.00     0.177 C 
BRANCH  12  13
ATOM     13  S   UNL d   1      -3.107  -4.720   0.234  0.00  0.00    -0.149 SA
BRANCH  13  14
ATOM     14  C   UNL d   1      -3.320  -6.536   0.166  0.00  0.00     0.184 C 
BRANCH  14  15
ATOM     15  C   UNL d   1      -2.220  -7.292   0.884  0.00  0.00     0.149 C 
ATOM     16  O   UNL d   1      -1.163  -6.811   1.264  0.00  0.00    -0.649 OA
BRANCH  15  17
ATOM     17  O   UNL d   1      -2.492  -8.611   1.026  0.00  0.00    -0.776 OA
ATOM     18  H   UNL d   1      -3.363  -8.907   0.695  0.00  0.00     0.167 HD
ENDBRANCH  15  17
ENDBRANCH  14  15
ENDBRANCH  13  14
ENDBRANCH  12  13
ENDBRANCH   9  12
ENDBRANCH   3   8
BRANCH   2  19
ATOM     19  C   UNL d   1       2.521  -1.689  -0.095  0.00  0.00    -0.019 A 
ATOM     20  C   UNL d   1       2.622  -2.874   0.647  0.00  0.00     0.028 A 
ATOM     21  C   UNL d   1       3.658  -3.799   0.411  0.00  0.00     0.048 A 
ATOM     22  C   UNL d   1       4.664  -3.476  -0.508  0.00  0.00     0.016 A 
ATOM     23  C   UNL d   1       4.607  -2.278  -1.214  0.00  0.00     0.002 A 
ATOM     24  C   UNL d   1       3.526  -1.411  -1.034  0.00  0.00     0.012 A 
BRANCH  21  25
ATOM     25  C   UNL d   1       3.675  -5.141   1.103  0.00  0.00     0.417 C 
ATOM     26  F   UNL d   1       2.587  -5.333   1.900  0.00  0.00    -0.166 F 
ATOM     27  F   UNL d   1       3.669  -6.172   0.216  0.00  0.00    -0.166 F 
ATOM     28  F   UNL d   1       4.763  -5.318   1.893  0.00  0.00    -0.166 F 
ENDBRANCH  21  25
ENDBRANCH   2  19
BRANCH   1  29
ATOM     29  C   UNL d   1       2.452   1.663   0.007  0.00  0.00     0.434 C 
ATOM     30  F   UNL d   1       3.678   1.098   0.161  0.00  0.00    -0.165 F 
ATOM     31  F   UNL d   1       2.499   2.364  -1.158  0.00  0.00    -0.165 F 
ATOM     32  F   UNL d   1       2.329   2.570   1.013  0.00  0.00    -0.165 F 
ENDBRANCH   1  29
TORSDOF 9
