REMARK  4 active torsions:
REMARK  status: ('A' for Active; 'I' for Inactive)
REMARK    1  A    between atoms: S_9  and  C_1 
REMARK    2  A    between atoms: C_11  and  N_2 
REMARK    3  A    between atoms: C_7  and  C_10 
REMARK    4  A    between atoms: C_10  and  S_9 
ROOT
ATOM      1  C   UNL d   1       0.915   0.965  -0.154  0.00  0.00     0.148 C 
ATOM      2  N   UNL d   1       1.434  -0.354  -0.009  0.00  0.00    -0.297 N 
ATOM      3  N   UNL d   1      -0.335   1.292  -0.120  0.00  0.00    -0.358 N 
ATOM      4  HN  UNL d   1      -0.613   2.263  -0.259  1.00  0.00     0.162 HD
ATOM      5  C   UNL d   1       0.483  -1.394  -0.139  0.00  0.00     0.014 C 
ATOM      6  C   UNL d   1      -0.835  -1.124  -0.081  0.00  0.00     0.028 C 
ATOM      7  C   UNL d   1      -1.352   0.266   0.120  0.00  0.00     0.044 C 
ATOM      8  C   UNL d   1       0.873  -2.824  -0.448  0.00  0.00     0.068 C 
ATOM      9  C   UNL d   1      -1.877   0.440   1.549  0.00  0.00     0.042 C 
ATOM     10  C   UNL d   1      -2.486   0.519  -0.882  0.00  0.00     0.042 C 
ENDROOT
BRANCH   1  11
ATOM     11  S   UNL d   1       1.969   2.355  -0.511  0.00  0.00    -0.089 SA
BRANCH  11  12
ATOM     12  C   UNL d   1       0.798   3.735  -0.669  0.00  0.00     0.124 C 
BRANCH  12  13
ATOM     13  C   UNL d   1       1.475   4.981  -1.209  0.00  0.00    -0.005 A 
ATOM     14  C   UNL d   1       1.428   5.313  -2.579  0.00  0.00     0.042 A 
ATOM     15 CL   UNL d   1       0.614   4.322  -3.743  0.00  0.00    -0.084 Cl
ATOM     16  C   UNL d   1       2.049   6.468  -3.073  0.00  0.00     0.024 A 
ATOM     17  C   UNL d   1       2.744   7.316  -2.215  0.00  0.00     0.003 A 
ATOM     18  C   UNL d   1       2.820   7.001  -0.863  0.00  0.00     0.024 A 
ATOM     19  C   UNL d   1       2.197   5.849  -0.364  0.00  0.00     0.042 A 
ATOM     20 CL   UNL d   1       2.362   5.553   1.334  0.00  0.00    -0.084 Cl
ENDBRANCH  12  13
ENDBRANCH  11  12
ENDBRANCH   1  11
BRANCH   2  21
ATOM     21  C   UNL d   1       2.760  -0.656   0.496  0.00  0.00     0.041 A 
ATOM     22  C   UNL d   1       2.941  -1.678   1.460  0.00  0.00     0.032 A 
ATOM     23  C   UNL d   1       4.210  -2.065   1.917  0.00  0.00     0.026 A 
ATOM     24  C   UNL d   1       5.336  -1.385   1.478  0.00  0.00     0.034 A 
ATOM     25  C   UNL d   1       5.200  -0.346   0.569  0.00  0.00     0.026 A 
ATOM     26 CL   UNL d   1       6.896  -1.843   2.038  0.00  0.00    -0.084 Cl
ATOM     27  C   UNL d   1       3.932  -0.017   0.060  0.00  0.00     0.032 A 
ENDBRANCH   2  21
TORSDOF 4
