REMARK  4 active torsions:
REMARK  status: ('A' for Active; 'I' for Inactive)
REMARK    1  A    between atoms: C_2  and  N_1 
REMARK    2  A    between atoms: N_5  and  N_15 
REMARK    3  A    between atoms: N_15  and  C_8 
REMARK    4  A    between atoms: C_16  and  C_17 
ROOT
ATOM      1  N   UNL d   1      -1.936  -2.724   3.885  0.00  0.00    -0.286 N 
ATOM      2  H   UNL d   1      -2.712  -3.262   3.511  0.00  0.00     0.188 HD
ENDROOT
BRANCH   1   3
ATOM      3  N   UNL d   1      -1.572  -2.664   5.181  0.00  0.00    -0.309 N 
ATOM      4  C   UNL d   1      -2.280  -3.350   6.019  0.00  0.00     0.118 C 
ATOM      5  HN  UNL d   1      -0.776  -2.104   5.488  1.00  0.00     0.186 HD
BRANCH   4   6
ATOM      6  C   UNL d   1      -1.936  -3.330   7.456  0.00  0.00    -0.016 A 
ATOM      7  C   UNL d   1      -0.839  -2.582   7.902  0.00  0.00     0.036 A 
ATOM      8  C   UNL d   1      -0.520  -2.564   9.256  0.00  0.00     0.036 A 
ATOM      9 CL   UNL d   1       0.827  -1.644   9.802  0.00  0.00    -0.084 Cl
ATOM     10  C   UNL d   1      -1.284  -3.284  10.171  0.00  0.00     0.047 A 
ATOM     11  C   UNL d   1      -2.374  -4.026   9.717  0.00  0.00     0.036 A 
ATOM     12  C   UNL d   1      -2.709  -4.056   8.362  0.00  0.00     0.036 A 
ATOM     13 CL   UNL d   1      -3.320  -4.917  10.845  0.00  0.00    -0.084 Cl
ENDBRANCH   4   6
ENDBRANCH   1   3
BRANCH   1  14
ATOM     14  C   UNL d   1      -1.236  -1.984   2.926  0.00  0.00     0.119 A 
ATOM     15  C   UNL d   1      -0.151  -1.178   3.287  0.00  0.00     0.052 A 
ATOM     16  C   UNL d   1       0.524  -0.436   2.321  0.00  0.00     0.041 A 
ATOM     17  C   UNL d   1       0.092  -0.525   1.002  0.00  0.00     0.118 A 
ATOM     18  C   UNL d   1      -0.982  -1.348   0.704  0.00  0.00     0.125 A 
ATOM     19  N   UNL d   1      -1.650  -2.075   1.640  0.00  0.00    -0.349 N 
ATOM     20  HN  UNL d   1      -2.438  -2.669   1.381  1.00  0.00     0.167 HD
BRANCH  17  21
ATOM     21  N   UNL d   1       0.748   0.236  -0.051  0.00  0.00    -0.114 N 
ATOM     22  O   UNL d   1       0.316   0.112  -1.205  0.00  0.00    -0.532 OA
ATOM     23  O   UNL d   1       1.698   0.964   0.271  0.00  0.00    -0.532 OA
ENDBRANCH  17  21
ENDBRANCH   1  14
TORSDOF 4
