REMARK  5 active torsions:
REMARK  status: ('A' for Active; 'I' for Inactive)
REMARK    1  A    between atoms: N_4  and  C_1 
REMARK    2  A    between atoms: N_6  and  C_1 
REMARK    3  A    between atoms: C_7  and  N_4 
REMARK    4  A    between atoms: C_13  and  N_6 
REMARK    5  A    between atoms: C_12  and  C_13 
ROOT
ATOM      1  C   UNL d   1       1.070   0.045   0.009  0.00  0.00     0.172 C 
ATOM      2  S   UNL d   1       0.304   0.550  -1.388  0.00  0.00    -0.041 SA
ENDROOT
BRANCH   1   3
ATOM      3  N   UNL d   1       0.484  -0.389   1.175  0.00  0.00    -0.333 N 
ATOM      4  H   UNL d   1       0.896   0.024   2.005  0.00  0.00     0.168 HD
BRANCH   3   5
ATOM      5  C   UNL d   1      -0.809  -0.934   1.322  0.00  0.00     0.036 A 
ATOM      6  C   UNL d   1      -1.550  -0.619   2.464  0.00  0.00     0.056 A 
ATOM      7  C   UNL d   1      -2.842  -1.132   2.617  0.00  0.00     0.074 A 
ATOM      8 CL   UNL d   1      -3.777  -0.678   3.990  0.00  0.00    -0.081 Cl
ATOM      9  C   UNL d   1      -3.369  -1.995   1.656  0.00  0.00     0.138 A 
ATOM     10  C   UNL d   1      -2.616  -2.358   0.547  0.00  0.00     0.046 A 
ATOM     11  F   UNL d   1      -4.607  -2.494   1.786  0.00  0.00    -0.204 F 
ATOM     12  C   UNL d   1      -1.336  -1.828   0.381  0.00  0.00     0.032 A 
ENDBRANCH   3   5
ENDBRANCH   1   3
BRANCH   1  13
ATOM     13  N   UNL d   1       2.435   0.137   0.042  0.00  0.00    -0.363 N 
ATOM     14  H   UNL d   1       2.832   0.502  -0.818  0.00  0.00     0.162 HD
BRANCH  13  15
ATOM     15  C   UNL d   1       3.321  -0.692   0.838  0.00  0.00     0.162 C 
BRANCH  15  16
ATOM     16  C   UNL d   1       4.250   0.078   1.731  0.00  0.00    -0.025 A 
ATOM     17  C   UNL d   1       5.299  -0.600   2.349  0.00  0.00     0.096 A 
ATOM     18  N   UNL d   1       6.172  -0.035   3.212  0.00  0.00    -0.375 N 
ATOM     19  C   UNL d   1       5.999   1.275   3.477  0.00  0.00     0.087 A 
ATOM     20  HN  UNL d   1       6.925  -0.573   3.641  1.00  0.00     0.164 HD
ATOM     21  C   UNL d   1       4.996   2.045   2.915  0.00  0.00     0.018 A 
ATOM     22  C   UNL d   1       4.108   1.435   2.031  0.00  0.00     0.011 A 
ENDBRANCH  15  16
ENDBRANCH  13  15
ENDBRANCH   1  13
TORSDOF 5
