REMARK  6 active torsions:
REMARK  status: ('A' for Active; 'I' for Inactive)
REMARK    1  A    between atoms: C_6  and  C_1 
REMARK    2  A    between atoms: C_11  and  C_2 
REMARK    3  A    between atoms: C_7  and  C_5 
REMARK    4  A    between atoms: N_13  and  C_5 
REMARK    5  A    between atoms: N_8  and  O_14 
REMARK    6  A    between atoms: O_14  and  C_11 
ROOT
ATOM      1  C   UNL d   1      -1.237  -1.349  -0.167  0.00  0.00     0.320 C 
ATOM      2  O   UNL d   1      -0.592  -1.543  -1.192  0.00  0.00    -0.257 OA
ENDROOT
BRANCH   1   3
ATOM      3  C   UNL d   1      -1.063  -0.174   0.659  0.00  0.00     0.102 A 
ATOM      4  C   UNL d   1      -0.871   1.191   0.285  0.00  0.00     0.087 A 
ATOM      5  N   UNL d   1      -0.772   1.966   1.378  0.00  0.00    -0.259 N 
ATOM      6  O   UNL d   1      -0.848   1.127   2.462  0.00  0.00    -0.241 OA
ATOM      7  HN  UNL d   1      -0.663   2.980   1.399  1.00  0.00     0.195 HD
ATOM      8  C   UNL d   1      -1.030  -0.149   2.041  0.00  0.00     0.091 A 
ATOM      9  C   UNL d   1      -1.100  -1.159   3.115  0.00  0.00     0.080 C 
BRANCH   4  10
ATOM     10  C   UNL d   1      -0.854   1.819  -1.036  0.00  0.00     0.037 A 
ATOM     11  C   UNL d   1      -1.983   1.776  -1.875  0.00  0.00     0.048 A 
ATOM     12 CL   UNL d   1      -3.445   0.951  -1.443  0.00  0.00    -0.083 Cl
ATOM     13  C   UNL d   1      -1.998   2.463  -3.098  0.00  0.00     0.025 A 
ATOM     14  C   UNL d   1      -0.901   3.221  -3.494  0.00  0.00     0.003 A 
ATOM     15  C   UNL d   1       0.223   3.279  -2.677  0.00  0.00     0.025 A 
ATOM     16  C   UNL d   1       0.255   2.577  -1.463  0.00  0.00     0.048 A 
ATOM     17 CL   UNL d   1       1.723   2.695  -0.547  0.00  0.00    -0.083 Cl
ENDBRANCH   4  10
ENDBRANCH   1   3
BRANCH   1  18
ATOM     18  O   UNL d   1      -2.242  -2.147   0.321  0.00  0.00    -0.193 OA
BRANCH  18  19
ATOM     19  N   UNL d   1      -2.062  -3.506  -0.015  0.00  0.00    -0.240 N 
ATOM     20  C   UNL d   1      -3.157  -4.175   0.231  0.00  0.00     0.137 C 
ATOM     21  HN  UNL d   1      -1.204  -3.906  -0.394  1.00  0.00     0.196 HD
BRANCH  20  22
ATOM     22  C   UNL d   1      -3.010  -5.665   0.380  0.00  0.00     0.053 A 
ATOM     23  C   UNL d   1      -2.068  -6.188   1.288  0.00  0.00     0.049 A 
ATOM     24 CL   UNL d   1      -1.065  -5.206   2.303  0.00  0.00    -0.083 Cl
ATOM     25  C   UNL d   1      -1.941  -7.575   1.466  0.00  0.00     0.025 A 
ATOM     26  C   UNL d   1      -2.759  -8.456   0.767  0.00  0.00     0.003 A 
ATOM     27  C   UNL d   1      -3.695  -7.952  -0.131  0.00  0.00     0.025 A 
ATOM     28  C   UNL d   1      -3.813  -6.567  -0.338  0.00  0.00     0.049 A 
ATOM     29 CL   UNL d   1      -4.971  -6.088  -1.530  0.00  0.00    -0.083 Cl
ENDBRANCH  20  22
BRANCH  20  30
ATOM     30  N   UNL d   1      -4.407  -3.591   0.387  0.00  0.00    -0.365 N 
ATOM     31  C   UNL d   1      -4.971  -2.676  -0.605  0.00  0.00     0.124 C 
ATOM     32  C   UNL d   1      -6.163  -2.064   0.112  0.00  0.00     0.021 C 
ATOM     33  C   UNL d   1      -6.675  -3.224   0.948  0.00  0.00     0.021 C 
ATOM     34  C   UNL d   1      -5.403  -3.952   1.387  0.00  0.00     0.124 C 
ENDBRANCH  20  30
ENDBRANCH  18  19
ENDBRANCH   1  18
TORSDOF 6
