REMARK  5 active torsions:
REMARK  status: ('A' for Active; 'I' for Inactive)
REMARK    1  A    between atoms: N_4  and  C_1 
REMARK    2  A    between atoms: C_6  and  N_4 
REMARK    3  A    between atoms: C_17  and  N_10 
REMARK    4  A    between atoms: C_12  and  C_16 
REMARK    5  A    between atoms: C_16  and  C_17 
ROOT
ATOM      1  C   UNL d   1       1.184   0.140   0.186  0.00  0.00     0.172 C 
ATOM      2  S   UNL d   1       0.303  -1.174  -0.343  0.00  0.00    -0.041 SA
ATOM      3  N   UNL d   1       2.535   0.102   0.089  0.00  0.00    -0.367 N 
ATOM      4  H   UNL d   1       2.886  -0.694  -0.432  0.00  0.00     0.161 HD
ENDROOT
BRANCH   1   5
ATOM      5  N   UNL d   1       0.549   1.177   0.785  0.00  0.00    -0.333 N 
ATOM      6  H   UNL d   1      -0.361   0.945   1.168  0.00  0.00     0.168 HD
BRANCH   5   7
ATOM      7  C   UNL d   1       0.884   2.545   0.767  0.00  0.00     0.036 A 
ATOM      8  C   UNL d   1       0.386   3.355   1.792  0.00  0.00     0.056 A 
ATOM      9  C   UNL d   1       0.790   4.689   1.876  0.00  0.00     0.074 A 
ATOM     10 CL   UNL d   1       0.257   5.648   3.203  0.00  0.00    -0.081 Cl
ATOM     11  C   UNL d   1       1.640   5.224   0.911  0.00  0.00     0.138 A 
ATOM     12  C   UNL d   1       2.075   4.446  -0.155  0.00  0.00     0.046 A 
ATOM     13  F   UNL d   1       2.060   6.496   0.994  0.00  0.00    -0.204 F 
ATOM     14  C   UNL d   1       1.694   3.106  -0.229  0.00  0.00     0.032 A 
ENDBRANCH   5   7
ENDBRANCH   1   5
BRANCH   3  15
ATOM     15  C   UNL d   1       3.520   0.812   0.911  0.00  0.00     0.128 C 
BRANCH  15  16
ATOM     16  C   UNL d   1       4.434  -0.139   1.685  0.00  0.00     0.076 C 
BRANCH  16  17
ATOM     17  C   UNL d   1       5.417   0.636   2.528  0.00  0.00     0.010 A 
ATOM     18  N   UNL d   1       6.173   1.563   1.889  0.00  0.00    -0.369 N 
ATOM     19  C   UNL d   1       7.052   2.272   2.629  0.00  0.00     0.088 A 
ATOM     20  HN  UNL d   1       6.081   1.719   0.885  1.00  0.00     0.165 HD
ATOM     21  C   UNL d   1       7.227   2.100   3.990  0.00  0.00     0.017 A 
ATOM     22  C   UNL d   1       6.453   1.139   4.631  0.00  0.00     0.003 A 
ATOM     23  C   UNL d   1       5.537   0.394   3.894  0.00  0.00     0.025 A 
ENDBRANCH  16  17
ENDBRANCH  15  16
ENDBRANCH   3  15
TORSDOF 5
