REMARK  3 active torsions:
REMARK  status: ('A' for Active; 'I' for Inactive)
REMARK    1  A    between atoms: C_10  and  C_3 
REMARK    2  A    between atoms: C_8  and  C_4 
REMARK    3  A    between atoms: C_6  and  C_9 
ROOT
ATOM      1  N   UNL d   1       1.400  -0.604  -0.077  0.00  0.00    -0.349 N 
ATOM      2  HN  UNL d   1       2.279  -1.118  -0.141  1.00  0.00     0.166 HD
ATOM      3  C   UNL d   1       0.205  -1.163  -0.022  0.00  0.00     0.084 A 
ATOM      4  C   UNL d   1       1.294   0.779  -0.034  0.00  0.00     0.050 A 
ATOM      5  S   UNL d   1      -1.108  -0.040  -0.021  0.00  0.00    -0.081 SA
ATOM      6  C   UNL d   1      -0.000   1.260  -0.020  0.00  0.00     0.082 A 
ENDROOT
BRANCH   3   7
ATOM      7  C   UNL d   1      -0.044  -2.616  -0.007  0.00  0.00    -0.002 A 
ATOM      8  C   UNL d   1      -1.193  -3.176   0.577  0.00  0.00     0.015 A 
ATOM      9  C   UNL d   1      -1.409  -4.558   0.568  0.00  0.00     0.017 A 
ATOM     10  C   UNL d   1      -0.479  -5.422  -0.021  0.00  0.00     0.048 A 
ATOM     11  C   UNL d   1       0.681  -4.873  -0.590  0.00  0.00     0.017 A 
ATOM     12  C   UNL d   1       0.895  -3.490  -0.576  0.00  0.00     0.015 A 
BRANCH  10  13
ATOM     13  C   UNL d   1      -0.712  -6.913  -0.049  0.00  0.00     0.417 C 
ATOM     14  F   UNL d   1      -1.883  -7.291   0.537  0.00  0.00    -0.166 F 
ATOM     15  F   UNL d   1      -0.755  -7.410  -1.316  0.00  0.00    -0.166 F 
ATOM     16  F   UNL d   1       0.266  -7.608   0.594  0.00  0.00    -0.166 F 
ENDBRANCH  10  13
ENDBRANCH   3   7
BRANCH   4  17
ATOM     17  C   UNL d   1       2.473   1.638  -0.036  0.00  0.00    -0.006 A 
ATOM     18  C   UNL d   1       3.640   1.211  -0.678  0.00  0.00     0.056 A 
ATOM     19  C   UNL d   1       4.760   2.037  -0.703  0.00  0.00     0.117 A 
ATOM     20  F   UNL d   1       5.868   1.627  -1.333  0.00  0.00    -0.206 F 
ATOM     21  C   UNL d   1       4.749   3.284  -0.088  0.00  0.00     0.042 A 
ATOM     22  C   UNL d   1       3.600   3.713   0.570  0.00  0.00     0.004 A 
ATOM     23  C   UNL d   1       2.468   2.893   0.597  0.00  0.00     0.014 A 
ENDBRANCH   4  17
TORSDOF 3
