REMARK  4 active torsions:
REMARK  status: ('A' for Active; 'I' for Inactive)
REMARK    1  A    between atoms: C_2  and  S_1 
REMARK    2  A    between atoms: N_8  and  S_1 
REMARK    3  A    between atoms: C_6  and  C_3 
REMARK       I    between atoms: N_9  and  C_6 
REMARK    4  A    between atoms: C_16  and  N_9 
ROOT
ATOM      1  C   UNL d   1       0.482   1.579  -0.277  0.00  0.00     0.186 A 
ATOM      2  C   UNL d   1       0.396   3.853  -0.453  0.00  0.00     0.065 A 
ATOM      3  C   UNL d   1       1.027   2.761   0.208  0.00  0.00     0.070 A 
ATOM      4  O   UNL d   1      -0.526   1.911  -1.155  0.00  0.00    -0.301 OA
ATOM      5  C   UNL d   1      -0.589   3.268  -1.235  0.00  0.00     0.066 A 
ATOM      6  C   UNL d   1      -1.651   3.826  -2.105  0.00  0.00     0.078 C 
ENDROOT
BRANCH   2   7
ATOM      7  C   UNL d   1       0.641   5.292  -0.365  0.00  0.00     0.258 C 
ATOM      8  N   UNL d   1       1.703   5.637   0.451  0.00  0.00    -0.323 N 
ATOM      9  H   UNL d   1       2.265   4.887   0.823  0.00  0.00     0.169 HD
ATOM     10  O   UNL d   1      -0.057   6.081  -0.996  0.00  0.00    -0.267 OA
BRANCH   8  11
ATOM     11  C   UNL d   1       2.073   6.937   0.863  0.00  0.00     0.037 A 
ATOM     12  C   UNL d   1       1.347   8.084   0.532  0.00  0.00     0.069 A 
ATOM     13  C   UNL d   1       1.741   9.284   1.086  0.00  0.00     0.107 A 
ATOM     14  O   UNL d   1       1.113  10.478   0.906  0.00  0.00    -0.323 OA
ATOM     15  C   UNL d   1       2.825   9.382   1.922  0.00  0.00     0.105 A 
ATOM     16  C   UNL d   1       1.885  11.322   1.784  0.00  0.00     0.352 A 
ATOM     17  O   UNL d   1       3.013  10.647   2.381  0.00  0.00    -0.323 OA
ATOM     18  C   UNL d   1       3.591   8.283   2.239  0.00  0.00     0.042 A 
ATOM     19  C   UNL d   1       3.205   7.048   1.703  0.00  0.00     0.032 A 
ENDBRANCH   8  11
ENDBRANCH   2   7
BRANCH   1  20
ATOM     20  S   UNL d   1       0.929  -0.121   0.102  0.00  0.00     0.266 S 
ATOM     21  O   UNL d   1       0.386  -0.338   1.428  0.00  0.00    -0.204 OA
ATOM     22  O   UNL d   1       2.360  -0.156  -0.135  0.00  0.00    -0.204 OA
BRANCH  20  23
ATOM     23  N   UNL d   1       0.164  -1.175  -0.995  0.00  0.00    -0.205 NA
ATOM     24  C   UNL d   1       0.661  -1.099  -2.392  0.00  0.00     0.107 C 
ATOM     25  C   UNL d   1       0.123  -2.274  -3.202  0.00  0.00     0.015 C 
ATOM     26  C   UNL d   1      -1.399  -2.330  -3.146  0.00  0.00     0.002 C 
ATOM     27  C   UNL d   1      -1.868  -2.392  -1.697  0.00  0.00     0.015 C 
ATOM     28  C   UNL d   1      -1.317  -1.221  -0.889  0.00  0.00     0.107 C 
ENDBRANCH  20  23
ENDBRANCH   1  20
TORSDOF 4
