REMARK  3 active torsions:
REMARK  status: ('A' for Active; 'I' for Inactive)
REMARK    1  A    between atoms: N_2  and  C_1 
REMARK       I    between atoms: C_3  and  N_2 
REMARK    2  A    between atoms: C_7  and  N_2 
REMARK       I    between atoms: N_8  and  C_3 
REMARK    3  A    between atoms: C_13  and  N_8 
ROOT
ATOM      1  N   UNL d   1       2.116   1.414  -0.232  0.00  0.00    -0.244 N 
ATOM      2  C   UNL d   1       3.487   0.977  -0.308  0.00  0.00     0.333 C 
ATOM      3  N   UNL d   1       3.632  -0.367  -0.617  0.00  0.00    -0.308 N 
ATOM      4  O   UNL d   1       4.450   1.722  -0.122  0.00  0.00    -0.246 OA
ATOM      5  H   UNL d   1       2.798  -0.927  -0.506  0.00  0.00     0.170 HD
ENDROOT
BRANCH   1   6
ATOM      6  C   UNL d   1       0.995   0.589   0.018  0.00  0.00     0.151 C 
ATOM      7  N   UNL d   1      -0.228   0.898  -0.287  0.00  0.00    -0.369 N 
ATOM      8  C   UNL d   1      -1.159  -0.191   0.045  0.00  0.00     0.137 C 
ATOM      9  HN  UNL d   1      -0.509   1.786  -0.705  1.00  0.00     0.161 HD
ATOM     10  C   UNL d   1      -0.573  -1.075   1.137  0.00  0.00     0.069 C 
ATOM     11  S   UNL d   1       1.195  -0.970   0.799  0.00  0.00    -0.087 SA
ATOM     12  C   UNL d   1      -0.855  -0.563   2.543  0.00  0.00     0.023 C 
ENDBRANCH   1   6
BRANCH   1  13
ATOM     13  C   UNL d   1       1.871   2.854  -0.360  0.00  0.00     0.046 A 
ATOM     14  C   UNL d   1       2.698   3.680  -1.146  0.00  0.00     0.037 A 
ATOM     15  C   UNL d   1       2.459   5.063  -1.275  0.00  0.00    -0.060 A 
ATOM     16  C   UNL d   1       3.353   5.926  -2.116  0.00  0.00     0.048 C 
ATOM     17  C   UNL d   1       1.358   5.631  -0.632  0.00  0.00     0.007 A 
ATOM     18  C   UNL d   1       0.529   4.841   0.153  0.00  0.00     0.003 A 
ATOM     19  C   UNL d   1       0.791   3.475   0.295  0.00  0.00     0.030 A 
ENDBRANCH   1  13
BRANCH   3  20
ATOM     20  C   UNL d   1       4.799  -1.110  -0.877  0.00  0.00     0.036 A 
ATOM     21  C   UNL d   1       6.059  -0.553  -1.086  0.00  0.00     0.029 A 
ATOM     22  C   UNL d   1       7.145  -1.376  -1.411  0.00  0.00     0.002 A 
ATOM     23  C   UNL d   1       6.980  -2.757  -1.519  0.00  0.00     0.000 A 
ATOM     24  C   UNL d   1       5.731  -3.322  -1.287  0.00  0.00     0.002 A 
ATOM     25  C   UNL d   1       4.647  -2.502  -0.968  0.00  0.00     0.029 A 
ENDBRANCH   3  20
TORSDOF 3
