REMARK  9 active torsions:
REMARK  status: ('A' for Active; 'I' for Inactive)
REMARK    1  A    between atoms: N_8  and  C_1 
REMARK    2  A    between atoms: N_5  and  C_2 
REMARK    3  A    between atoms: N_4  and  C_3 
REMARK    4  A    between atoms: C_6  and  C_7 
REMARK    5  A    between atoms: N_16  and  N_8 
REMARK    6  A    between atoms: O_27  and  C_11 
REMARK    7  A    between atoms: C_12  and  C_13 
REMARK       I    between atoms: C_13  and  N_16 
REMARK    8  A    between atoms: O_28  and  C_14 
REMARK    9  A    between atoms: O_29  and  C_15 
ROOT
ATOM      1  N   UNL d   1       2.504  -2.784   0.634  0.00  0.00    -0.198 NA
ATOM      2  H   UNL d   1       2.952  -3.584   0.150  0.00  0.00     0.153 HD
ENDROOT
BRANCH   1   3
ATOM      3  C   UNL d   1       1.210  -2.505   0.128  0.00  0.00     0.093 A 
ATOM      4  C   UNL d   1       0.883  -1.570  -0.873  0.00  0.00     0.129 A 
ATOM      5  C   UNL d   1      -0.446  -1.327  -1.292  0.00  0.00     0.054 A 
ATOM      6  C   UNL d   1      -1.509  -2.045  -0.737  0.00  0.00     0.052 A 
ATOM      7  C   UNL d   1      -1.217  -3.031   0.212  0.00  0.00     0.054 A 
ATOM      8  C   UNL d   1       0.116  -3.255   0.609  0.00  0.00     0.129 A 
BRANCH   4   9
ATOM      9  N   UNL d   1       1.900  -0.782  -1.532  0.00  0.00    -0.114 N 
ATOM     10  O   UNL d   1       2.631  -1.360  -2.344  0.00  0.00    -0.532 OA
ATOM     11  O   UNL d   1       1.925   0.428  -1.265  0.00  0.00    -0.532 OA
ENDBRANCH   4   9
BRANCH   6  12
ATOM     12  C   UNL d   1      -2.945  -1.774  -1.132  0.00  0.00     0.417 C 
ATOM     13  F   UNL d   1      -3.069  -0.776  -2.047  0.00  0.00    -0.166 F 
ATOM     14  F   UNL d   1      -3.545  -2.866  -1.674  0.00  0.00    -0.166 F 
ATOM     15  F   UNL d   1      -3.707  -1.408  -0.067  0.00  0.00    -0.166 F 
ENDBRANCH   6  12
BRANCH   8  16
ATOM     16  N   UNL d   1       0.335  -4.279   1.616  0.00  0.00    -0.114 N 
ATOM     17  O   UNL d   1       1.002  -5.265   1.279  0.00  0.00    -0.532 OA
ATOM     18  O   UNL d   1      -0.217  -4.110   2.711  0.00  0.00    -0.532 OA
ENDBRANCH   8  16
ENDBRANCH   1   3
BRANCH   1  19
ATOM     19  N   UNL d   1       3.385  -1.694   0.678  0.00  0.00    -0.282 N 
ATOM     20  C   UNL d   1       4.728  -1.978   0.447  0.00  0.00     0.266 C 
ATOM     21  O   UNL d   1       5.134  -3.083   0.104  0.00  0.00    -0.266 OA
ATOM     22  H   UNL d   1       3.161  -0.966   1.353  0.00  0.00     0.184 HD
BRANCH  20  23
ATOM     23  C   UNL d   1       5.654  -0.836   0.652  0.00  0.00     0.038 A 
ATOM     24  C   UNL d   1       6.941  -1.057   1.139  0.00  0.00     0.057 A 
ATOM     25  C   UNL d   1       7.829   0.014   1.331  0.00  0.00     0.105 A 
ATOM     26  C   UNL d   1       7.419   1.321   0.999  0.00  0.00     0.135 A 
ATOM     27  C   UNL d   1       6.145   1.527   0.422  0.00  0.00     0.105 A 
ATOM     28  C   UNL d   1       5.258   0.455   0.299  0.00  0.00     0.057 A 
BRANCH  25  29
ATOM     29  O   UNL d   1       9.027  -0.408   1.845  0.00  0.00    -0.353 OA
ATOM     30  C   UNL d   1      10.057   0.539   2.081  0.00  0.00     0.210 C 
ENDBRANCH  25  29
BRANCH  26  31
ATOM     31  O   UNL d   1       8.313   2.357   1.112  0.00  0.00    -0.351 OA
ATOM     32  C   UNL d   1       7.852   3.470   1.879  0.00  0.00     0.210 C 
ENDBRANCH  26  31
BRANCH  27  33
ATOM     33  O   UNL d   1       5.839   2.793  -0.016  0.00  0.00    -0.353 OA
ATOM     34  C   UNL d   1       4.762   2.911  -0.943  0.00  0.00     0.210 C 
ENDBRANCH  27  33
ENDBRANCH  20  23
ENDBRANCH   1  19
TORSDOF 9
