REMARK  9 active torsions:
REMARK  status: ('A' for Active; 'I' for Inactive)
REMARK    1  A    between atoms: N_2  and  C_1 
REMARK    2  A    between atoms: C_3  and  C_1 
REMARK    3  A    between atoms: C_4  and  C_1 
REMARK    4  A    between atoms: N_11  and  C_1 
REMARK       I    between atoms: C_6  and  N_2 
REMARK    5  A    between atoms: O_20  and  C_6 
REMARK    6  A    between atoms: C_7  and  C_19 
REMARK    7  A    between atoms: C_21  and  N_11 
REMARK    8  A    between atoms: C_19  and  C_21 
REMARK    9  A    between atoms: C_24  and  O_20 
ROOT
ATOM      1  C   UNL d   1       0.908   0.092   0.168  0.00  0.00     0.427 C 
ENDROOT
BRANCH   1   2
ATOM      2  N   UNL d   1       0.529   1.506   0.074  0.00  0.00    -0.286 N 
ATOM      3  C   UNL d   1      -0.769   1.887  -0.028  0.00  0.00     0.363 C 
ATOM      4  O   UNL d   1      -1.700   1.116   0.003  0.00  0.00    -0.238 OA
ATOM      5  H   UNL d   1       1.238   2.216   0.063  0.00  0.00     0.168 HD
BRANCH   3   6
ATOM      6  O   UNL d   1      -0.815   3.221  -0.251  0.00  0.00    -0.304 OA
BRANCH   6   7
ATOM      7  C   UNL d   1      -2.077   3.701  -0.729  0.00  0.00     0.176 C 
ATOM      8  C   UNL d   1      -2.126   3.523  -2.237  0.00  0.00     0.034 C 
ENDBRANCH   6   7
ENDBRANCH   3   6
ENDBRANCH   1   2
BRANCH   1   9
ATOM      9  C   UNL d   1       0.276  -0.821  -0.959  0.00  0.00     0.452 C 
ATOM     10  F   UNL d   1      -0.032  -0.084  -2.062  0.00  0.00    -0.166 F 
ATOM     11  F   UNL d   1       1.185  -1.746  -1.378  0.00  0.00    -0.166 F 
ATOM     12  F   UNL d   1      -0.835  -1.504  -0.633  0.00  0.00    -0.166 F 
ENDBRANCH   1   9
BRANCH   1  13
ATOM     13  C   UNL d   1       0.482  -0.541   1.555  0.00  0.00     0.452 C 
ATOM     14  F   UNL d   1      -0.042   0.396   2.391  0.00  0.00    -0.166 F 
ATOM     15  F   UNL d   1      -0.391  -1.561   1.511  0.00  0.00    -0.166 F 
ATOM     16  F   UNL d   1       1.581  -1.028   2.203  0.00  0.00    -0.166 F 
ENDBRANCH   1  13
BRANCH   1  17
ATOM     17  N   UNL d   1       2.429   0.220   0.098  0.00  0.00     0.132 N 
ATOM     18  H   UNL d   1       2.810  -0.707   0.324  0.00  0.00     0.320 HD
BRANCH  17  19
ATOM     19  C   UNL d   1       2.962   0.632  -1.207  0.00  0.00     0.279 C 
BRANCH  19  20
ATOM     20  C   UNL d   1       4.505   0.609  -1.209  0.00  0.00     0.087 C 
BRANCH  20  21
ATOM     21  C   UNL d   1       5.006   1.131  -2.513  0.00  0.00     0.012 A 
ATOM     22  N   UNL d   1       5.283   2.464  -2.705  0.00  0.00    -0.359 N 
ATOM     23  C   UNL d   1       5.520   2.715  -4.037  0.00  0.00     0.042 A 
ATOM     24  H   UNL d   1       5.238   3.180  -1.993  0.00  0.00     0.166 HD
ATOM     25  C   UNL d   1       5.744   3.926  -4.700  0.00  0.00     0.030 A 
ATOM     26  C   UNL d   1       5.488   1.488  -4.696  0.00  0.00    -0.008 A 
ATOM     27  C   UNL d   1       5.923   3.877  -6.086  0.00  0.00     0.002 A 
ATOM     28  C   UNL d   1       5.898   2.665  -6.772  0.00  0.00     0.001 A 
ATOM     29  C   UNL d   1       5.690   1.462  -6.089  0.00  0.00     0.014 A 
ATOM     30  C   UNL d   1       5.203   0.494  -3.721  0.00  0.00     0.038 A 
ENDBRANCH  20  21
ENDBRANCH  19  20
ENDBRANCH  17  19
ENDBRANCH   1  17
TORSDOF 9
