REMARK  5 active torsions:
REMARK  status: ('A' for Active; 'I' for Inactive)
REMARK    1  A    between atoms: S_8  and  C_2 
REMARK    2  A    between atoms: C_6  and  C_3 
REMARK    3  A    between atoms: O_14  and  C_6 
REMARK    4  A    between atoms: C_13  and  S_8 
REMARK    5  A    between atoms: C_16  and  O_14 
ROOT
ATOM      1  C   UNL d   1       1.008  -0.127   0.089  0.00  0.00     0.094 A 
ATOM      2  C   UNL d   1       0.292   1.066   0.003  0.00  0.00     0.097 A 
ATOM      3  C   UNL d   1       0.279  -1.321   0.007  0.00  0.00     0.065 A 
ATOM      4  N   UNL d   1      -1.064   1.104  -0.086  0.00  0.00    -0.353 N 
ATOM      5  HN  UNL d   1      -1.553   1.997  -0.147  1.00  0.00     0.166 HD
ATOM      6  C   UNL d   1       2.414  -0.112   0.349  0.00  0.00     0.103 C 
ATOM      7  N   UNL d   1       3.548  -0.101   0.602  0.00  0.00    -0.191 NA
ATOM      8  C   UNL d   1      -1.120  -1.284  -0.068  0.00  0.00     0.043 A 
ATOM      9  C   UNL d   1      -1.755  -0.055  -0.090  0.00  0.00     0.007 A 
ATOM     10  C   UNL d   1      -3.250   0.051  -0.082  0.00  0.00     0.068 C 
ENDROOT
BRANCH   2  11
ATOM     11  S   UNL d   1       1.058   2.680   0.085  0.00  0.00    -0.071 SA
BRANCH  11  12
ATOM     12  C   UNL d   1       1.429   2.997  -1.632  0.00  0.00     0.007 A 
ATOM     13  C   UNL d   1       0.427   3.036  -2.608  0.00  0.00     0.019 A 
ATOM     14  C   UNL d   1       0.746   3.329  -3.938  0.00  0.00     0.001 A 
ATOM     15  C   UNL d   1       2.066   3.595  -4.298  0.00  0.00     0.000 A 
ATOM     16  C   UNL d   1       3.068   3.572  -3.330  0.00  0.00     0.001 A 
ATOM     17  C   UNL d   1       2.750   3.277  -2.001  0.00  0.00     0.019 A 
ENDBRANCH  11  12
ENDBRANCH   2  11
BRANCH   3  18
ATOM     18  C   UNL d   1       0.886  -2.675   0.027  0.00  0.00     0.295 C 
ATOM     19  O   UNL d   1       0.304  -3.655   0.462  0.00  0.00    -0.259 OA
BRANCH  18  20
ATOM     20  O   UNL d   1       2.089  -2.662  -0.586  0.00  0.00    -0.318 OA
BRANCH  20  21
ATOM     21  C   UNL d   1       2.762  -3.927  -0.696  0.00  0.00     0.174 C 
ATOM     22  C   UNL d   1       3.446  -4.297   0.607  0.00  0.00     0.034 C 
ENDBRANCH  20  21
ENDBRANCH  18  20
ENDBRANCH   3  18
TORSDOF 5
