REMARK  7 active torsions:
REMARK  status: ('A' for Active; 'I' for Inactive)
REMARK    1  A    between atoms: C_7  and  C_1 
REMARK    2  A    between atoms: O_9  and  C_2 
REMARK    3  A    between atoms: C_3  and  C_11 
REMARK       I    between atoms: C_4  and  N_5 
REMARK    4  A    between atoms: C_8  and  C_4 
REMARK    5  A    between atoms: N_5  and  C_6 
REMARK    6  A    between atoms: O_27  and  C_7 
REMARK    7  A    between atoms: C_12  and  O_9 
ROOT
ATOM      1  C   UNL d   1       1.982   3.241   0.964  0.00  0.00     0.070 C 
ATOM      2  C   UNL d   1       2.513   5.446   0.071  0.00  0.00     0.050 C 
ATOM      3  C   UNL d   1       2.212   2.689  -0.305  0.00  0.00     0.102 C 
ATOM      4  C   UNL d   1       2.061   4.626   1.125  0.00  0.00     0.048 C 
ATOM      5  C   UNL d   1       2.921   4.849  -1.129  0.00  0.00     0.019 C 
ATOM      6  C   UNL d   1       2.755   3.481  -1.321  0.00  0.00     0.040 C 
ENDROOT
BRANCH   3   7
ATOM      7  O   UNL d   1       1.903   1.409  -0.686  0.00  0.00    -0.307 OA
BRANCH   7   8
ATOM      8  C   UNL d   1       0.727   0.763  -0.447  0.00  0.00     0.099 A 
ATOM      9  C   UNL d   1      -0.505   1.263  -0.049  0.00  0.00     0.114 A 
ATOM     10  S   UNL d   1      -1.620  -0.024   0.262  0.00  0.00    -0.093 SA
ATOM     11  C   UNL d   1      -0.520  -1.209  -0.263  0.00  0.00     0.053 A 
ATOM     12  C   UNL d   1       0.687  -0.658  -0.617  0.00  0.00     0.046 A 
BRANCH   9  13
ATOM     13  C   UNL d   1      -1.020   2.596   0.188  0.00  0.00     0.302 C 
ATOM     14  O   UNL d   1      -1.757   2.924   1.111  0.00  0.00    -0.259 OA
BRANCH  13  15
ATOM     15  O   UNL d   1      -0.617   3.450  -0.799  0.00  0.00    -0.322 OA
ATOM     16  C   UNL d   1      -1.075   4.797  -0.649  0.00  0.00     0.213 C 
ENDBRANCH  13  15
ENDBRANCH   9  13
ENDBRANCH   7   8
ENDBRANCH   3   7
BRANCH   1  17
ATOM     17  N   UNL d   1       1.610   2.466   2.079  0.00  0.00    -0.319 N 
ATOM     18  C   UNL d   1       2.182   1.239   2.379  0.00  0.00     0.280 C 
ATOM     19  O   UNL d   1       3.204   0.810   1.848  0.00  0.00    -0.265 OA
ATOM     20  H   UNL d   1       1.039   2.878   2.808  0.00  0.00     0.169 HD
BRANCH  18  21
ATOM     21  C   UNL d   1       1.484   0.511   3.417  0.00  0.00     0.142 A 
ATOM     22  O   UNL d   1       0.273   0.968   3.867  0.00  0.00    -0.317 OA
ATOM     23  C   UNL d   1      -0.198   0.046   4.746  0.00  0.00     0.143 A 
ATOM     24  C   UNL d   1       0.705  -0.979   4.901  0.00  0.00     0.027 A 
ATOM     25  C   UNL d   1       1.796  -0.674   4.054  0.00  0.00     0.045 A 
ENDBRANCH  18  21
ENDBRANCH   1  17
BRANCH   2  26
ATOM     26  C   UNL d   1       2.549   6.946   0.210  0.00  0.00     0.417 C 
ATOM     27  F   UNL d   1       1.948   7.399   1.345  0.00  0.00    -0.166 F 
ATOM     28  F   UNL d   1       3.811   7.449   0.220  0.00  0.00    -0.166 F 
ATOM     29  F   UNL d   1       1.903   7.566  -0.819  0.00  0.00    -0.166 F 
ENDBRANCH   2  26
TORSDOF 7
