REMARK  2 active torsions:
REMARK  status: ('A' for Active; 'I' for Inactive)
REMARK    1  A    between atoms: N_8  and  C_1 
REMARK       I    between atoms: C_9  and  N_8 
REMARK    2  A    between atoms: C_10  and  C_9 
ROOT
ATOM      1  C   UNL d   1       2.081   0.576   0.215  0.00  0.00     0.155 C 
ATOM      2  C   UNL d   1      -0.464  -0.535   0.054  0.00  0.00     0.089 A 
ATOM      3  S   UNL d   1       2.078  -1.132   0.542  0.00  0.00    -0.010 SA
ATOM      4  C   UNL d   1       0.508  -1.572  -0.081  0.00  0.00     0.235 C 
ATOM      5  N   UNL d   1       1.067   1.372   0.090  0.00  0.00    -0.335 N 
ATOM      6  HN  UNL d   1       1.192   2.373  -0.063  1.00  0.00     0.168 HD
ATOM      7  C   UNL d   1      -0.204   0.801   0.173  0.00  0.00     0.056 A 
ATOM      8  S   UNL d   1      -2.136  -0.863   0.081  0.00  0.00    -0.095 SA
ATOM      9  C   UNL d   1      -1.377   1.583   0.320  0.00  0.00     0.038 A 
ATOM     10  C   UNL d   1      -2.510   0.796   0.302  0.00  0.00     0.053 A 
ATOM     11  O   UNL d   1       0.307  -2.700  -0.515  0.00  0.00    -0.279 OA
ENDROOT
BRANCH   1  12
ATOM     12  N   UNL d   1       3.312   1.195   0.080  0.00  0.00    -0.301 N 
ATOM     13  C   UNL d   1       4.617   0.712   0.153  0.00  0.00     0.281 C 
ATOM     14  O   UNL d   1       4.923  -0.424   0.500  0.00  0.00    -0.265 OA
ATOM     15  H   UNL d   1       3.234   2.175  -0.160  0.00  0.00     0.171 HD
BRANCH  13  16
ATOM     16  C   UNL d   1       5.622   1.693  -0.197  0.00  0.00     0.142 A 
ATOM     17  O   UNL d   1       5.246   2.953  -0.582  0.00  0.00    -0.317 OA
ATOM     18  C   UNL d   1       6.387   3.640  -0.857  0.00  0.00     0.143 A 
ATOM     19  C   UNL d   1       7.492   2.847  -0.653  0.00  0.00     0.027 A 
ATOM     20  C   UNL d   1       7.001   1.592  -0.229  0.00  0.00     0.045 A 
ENDBRANCH  13  16
ENDBRANCH   1  12
TORSDOF 2
