REMARK  2 active torsions:
REMARK  status: ('A' for Active; 'I' for Inactive)
REMARK       I    between atoms: N_3  and  C_1 
REMARK    1  A    between atoms: C_6  and  C_1 
REMARK    2  A    between atoms: C_2  and  N_4 
REMARK       I    between atoms: C_5  and  N_3 
REMARK       I    between atoms: N_4  and  C_5 
ROOT
ATOM      1  C   UNL d   1       0.944   0.205   0.001  0.00  0.00     0.263 C 
ATOM      2  N   UNL d   1       0.333  -0.809  -0.727  0.00  0.00    -0.275 N 
ATOM      3  N   UNL d   1       2.274  -1.806  -1.528  0.00  0.00    -0.293 N 
ATOM      4  C   UNL d   1       0.906  -1.811  -1.487  0.00  0.00     0.328 C 
ATOM      5  O   UNL d   1       2.162   0.310   0.078  0.00  0.00    -0.267 OA
ATOM      6  O   UNL d   1       0.157  -2.612  -2.041  0.00  0.00    -0.247 OA
ATOM      7  H   UNL d   1      -0.676  -0.831  -0.787  0.00  0.00     0.173 HD
ATOM      8  H   UNL d   1       2.729  -1.235  -0.816  0.00  0.00     0.172 HD
ENDROOT
BRANCH   1   9
ATOM      9  C   UNL d   1       0.039   1.157   0.723  0.00  0.00     0.075 A 
ATOM     10  C   UNL d   1       0.397   1.637   2.000  0.00  0.00     0.051 A 
ATOM     11 CL   UNL d   1       1.808   1.126   2.864  0.00  0.00    -0.083 Cl
ATOM     12  C   UNL d   1      -0.428   2.547   2.682  0.00  0.00     0.025 A 
ATOM     13  C   UNL d   1      -1.622   2.982   2.118  0.00  0.00     0.003 A 
ATOM     14  C   UNL d   1      -1.992   2.516   0.862  0.00  0.00     0.025 A 
ATOM     15  C   UNL d   1      -1.166   1.622   0.161  0.00  0.00     0.051 A 
ATOM     16 CL   UNL d   1      -1.723   1.183  -1.419  0.00  0.00    -0.083 Cl
ENDBRANCH   1   9
BRANCH   3  17
ATOM     17  C   UNL d   1       3.068  -2.700  -2.227  0.00  0.00     0.126 A 
ATOM     18  N   UNL d   1       2.778  -3.439  -3.356  0.00  0.00    -0.281 N 
ATOM     19  N   UNL d   1       3.793  -4.259  -3.723  0.00  0.00    -0.308 N 
ATOM     20  C   UNL d   1       1.674  -3.326  -4.279  0.00  0.00     0.179 C 
ATOM     21  C   UNL d   1       4.768  -3.974  -2.860  0.00  0.00     0.111 A 
ATOM     22  HN  UNL d   1       3.808  -4.937  -4.484  1.00  0.00     0.186 HD
ATOM     23  C   UNL d   1       4.386  -2.996  -1.935  0.00  0.00     0.068 A 
ENDBRANCH   3  17
TORSDOF 2
