REMARK  13 active torsions:
REMARK  status: ('A' for Active; 'I' for Inactive)
REMARK    1  A    between atoms: C_7  and  C_1 
REMARK    2  A    between atoms: O_18  and  C_1 
REMARK    3  A    between atoms: C_8  and  C_2 
REMARK    4  A    between atoms: O_17  and  C_2 
REMARK    5  A    between atoms: C_10  and  C_4 
REMARK    6  A    between atoms: C_11  and  C_5 
REMARK    7  A    between atoms: C_9  and  C_6 
REMARK    8  A    between atoms: O_30  and  C_10 
REMARK    9  A    between atoms: O_29  and  C_11 
REMARK   10  A    between atoms: O_28  and  C_12 
REMARK   11  A    between atoms: O_31  and  C_14 
REMARK   12  A    between atoms: C_32  and  O_29 
REMARK   13  A    between atoms: C_33  and  O_30 
ROOT
ATOM      1  C   UNL d   1       0.744   1.325  -0.356  0.00  0.00     0.371 C 
ATOM      2  C   UNL d   1       0.785  -1.160  -0.168  0.00  0.00     0.371 C 
ATOM      3  N   UNL d   1       1.443   0.128   0.137  0.00  0.00     0.174 N 
ATOM      4  C   UNL d   1      -0.645  -1.176   0.424  0.00  0.00     0.170 C 
ATOM      5  C   UNL d   1      -0.719   1.381   0.167  0.00  0.00     0.170 C 
ATOM      6  C   UNL d   1      -1.472   0.052  -0.080  0.00  0.00     0.056 C 
ATOM      7  H   UNL d   1       2.370   0.127  -0.298  0.00  0.00     0.324 HD
ENDROOT
BRANCH   6   8
ATOM      8  C   UNL d   1      -2.933  -0.004   0.363  0.00  0.00    -0.048 A 
ATOM      9  C   UNL d   1      -3.851  -0.712  -0.435  0.00  0.00     0.028 A 
ATOM     10  C   UNL d   1      -5.219  -0.716  -0.134  0.00  0.00     0.043 A 
ATOM     11  I   UNL d   1      -6.512  -1.721  -1.435  0.00  0.00    -0.042 I 
ATOM     12  C   UNL d   1      -5.689  -0.011   0.974  0.00  0.00     0.115 A 
ATOM     13  C   UNL d   1      -4.783   0.642   1.815  0.00  0.00     0.103 A 
ATOM     14  C   UNL d   1      -3.417   0.653   1.504  0.00  0.00     0.047 A 
BRANCH  12  15
ATOM     15  O   UNL d   1      -7.035   0.097   1.195  0.00  0.00    -0.357 OA
ATOM     16  H   UNL d   1      -7.169   0.951   1.642  0.00  0.00     0.218 HD
ENDBRANCH  12  15
BRANCH  13  17
ATOM     17  O   UNL d   1      -5.170   1.395   2.894  0.00  0.00    -0.353 OA
ATOM     18  C   UNL d   1      -5.903   0.663   3.878  0.00  0.00     0.210 C 
ENDBRANCH  13  17
ENDBRANCH   6   8
BRANCH   4  19
ATOM     19  C   UNL d   1      -0.567  -1.203   1.947  0.00  0.00     0.269 C 
ATOM     20  O   UNL d   1      -0.588  -0.209   2.663  0.00  0.00    -0.265 OA
BRANCH  19  21
ATOM     21  O   UNL d   1      -0.462  -2.477   2.419  0.00  0.00    -0.321 OA
BRANCH  21  22
ATOM     22  C   UNL d   1      -0.229  -2.578   3.833  0.00  0.00     0.174 C 
ATOM     23  C   UNL d   1       1.226  -2.294   4.166  0.00  0.00     0.034 C 
ENDBRANCH  21  22
ENDBRANCH  19  21
ENDBRANCH   4  19
BRANCH   5  24
ATOM     24  C   UNL d   1      -1.417   2.536  -0.515  0.00  0.00     0.269 C 
ATOM     25  O   UNL d   1      -1.443   2.672  -1.735  0.00  0.00    -0.265 OA
BRANCH  24  26
ATOM     26  O   UNL d   1      -1.926   3.413   0.384  0.00  0.00    -0.321 OA
BRANCH  26  27
ATOM     27  C   UNL d   1      -2.573   4.567  -0.173  0.00  0.00     0.174 C 
ATOM     28  C   UNL d   1      -1.546   5.600  -0.601  0.00  0.00     0.034 C 
ENDBRANCH  26  27
ENDBRANCH  24  26
ENDBRANCH   5  24
BRANCH   2  29
ATOM     29  C   UNL d   1       0.748  -1.647  -1.699  0.00  0.00     0.449 C 
ATOM     30  F   UNL d   1       1.858  -1.241  -2.364  0.00  0.00    -0.166 F 
ATOM     31  F   UNL d   1       0.759  -3.005  -1.750  0.00  0.00    -0.166 F 
ATOM     32  F   UNL d   1      -0.337  -1.247  -2.388  0.00  0.00    -0.166 F 
ENDBRANCH   2  29
BRANCH   2  33
ATOM     33  O   UNL d   1       1.580  -2.126   0.545  0.00  0.00    -0.355 OA
ATOM     34  H   UNL d   1       2.352  -2.349  -0.003  0.00  0.00     0.213 HD
ENDBRANCH   2  33
BRANCH   1  35
ATOM     35  C   UNL d   1       1.490   2.663   0.088  0.00  0.00     0.449 C 
ATOM     36  F   UNL d   1       2.823   2.463   0.228  0.00  0.00    -0.166 F 
ATOM     37  F   UNL d   1       1.328   3.631  -0.845  0.00  0.00    -0.166 F 
ATOM     38  F   UNL d   1       1.027   3.151   1.259  0.00  0.00    -0.166 F 
ENDBRANCH   1  35
BRANCH   1  39
ATOM     39  O   UNL d   1       0.777   1.185  -1.782  0.00  0.00    -0.355 OA
ATOM     40  H   UNL d   1       0.326   1.963  -2.178  0.00  0.00     0.213 HD
ENDBRANCH   1  39
TORSDOF 13
