REMARK  6 active torsions:
REMARK  status: ('A' for Active; 'I' for Inactive)
REMARK    1  A    between atoms: N_4  and  C_1 
REMARK    2  A    between atoms: N_5  and  C_2 
REMARK    3  A    between atoms: O_11  and  C_3 
REMARK    4  A    between atoms: C_6  and  C_7 
REMARK    5  A    between atoms: C_8  and  C_14 
REMARK    6  A    between atoms: C_25  and  O_11 
ROOT
ATOM      1  C   UNL d   1       1.440  -0.044  -0.051  0.00  0.00     0.140 A 
ATOM      2  C   UNL d   1      -0.713  -1.060  -0.025  0.00  0.00     0.140 A 
ATOM      3  C   UNL d   1       0.682  -1.221  -0.092  0.00  0.00     0.142 A 
ATOM      4  C   UNL d   1      -0.554   1.362   0.116  0.00  0.00     0.052 A 
ATOM      5  C   UNL d   1       0.840   1.231   0.029  0.00  0.00     0.055 A 
ATOM      6  C   UNL d   1      -1.335   0.200   0.081  0.00  0.00     0.055 A 
ENDROOT
BRANCH   3   7
ATOM      7  O   UNL d   1       1.152  -2.506  -0.009  0.00  0.00    -0.306 OA
BRANCH   7   8
ATOM      8  C   UNL d   1       2.213  -2.967  -0.747  0.00  0.00     0.076 A 
ATOM      9  C   UNL d   1       2.840  -4.097  -0.212  0.00  0.00     0.038 A 
ATOM     10  C   UNL d   1       3.938  -4.674  -0.853  0.00  0.00     0.019 A 
ATOM     11  C   UNL d   1       4.430  -4.122  -2.043  0.00  0.00     0.048 A 
ATOM     12  C   UNL d   1       3.789  -2.993  -2.579  0.00  0.00     0.019 A 
ATOM     13  C   UNL d   1       2.663  -2.442  -1.956  0.00  0.00     0.038 A 
BRANCH  11  14
ATOM     14  C   UNL d   1       5.606  -4.738  -2.762  0.00  0.00     0.417 C 
ATOM     15  F   UNL d   1       6.075  -5.872  -2.172  0.00  0.00    -0.166 F 
ATOM     16  F   UNL d   1       5.299  -5.086  -4.043  0.00  0.00    -0.166 F 
ATOM     17  F   UNL d   1       6.670  -3.893  -2.850  0.00  0.00    -0.166 F 
ENDBRANCH  11  14
ENDBRANCH   7   8
ENDBRANCH   3   7
BRANCH   2  18
ATOM     18  N   UNL d   1      -1.578  -2.228  -0.043  0.00  0.00    -0.113 N 
ATOM     19  O   UNL d   1      -1.515  -2.963  -1.035  0.00  0.00    -0.532 OA
ATOM     20  O   UNL d   1      -2.356  -2.361   0.912  0.00  0.00    -0.532 OA
ENDBRANCH   2  18
BRANCH   1  21
ATOM     21  N   UNL d   1       2.886  -0.051  -0.025  0.00  0.00    -0.113 N 
ATOM     22  O   UNL d   1       3.428  -0.593   0.946  0.00  0.00    -0.532 OA
ATOM     23  O   UNL d   1       3.463   0.547  -0.941  0.00  0.00    -0.532 OA
ENDBRANCH   1  21
BRANCH   4  24
ATOM     24  C   UNL d   1      -1.199   2.721   0.280  0.00  0.00     0.417 C 
ATOM     25  F   UNL d   1      -0.296   3.736   0.333  0.00  0.00    -0.166 F 
ATOM     26  F   UNL d   1      -2.046   3.016  -0.739  0.00  0.00    -0.166 F 
ATOM     27  F   UNL d   1      -1.929   2.805   1.424  0.00  0.00    -0.166 F 
ENDBRANCH   4  24
TORSDOF 6
