REMARK  6 active torsions:
REMARK  status: ('A' for Active; 'I' for Inactive)
REMARK    1  A    between atoms: C_3  and  C_1 
REMARK    2  A    between atoms: N_4  and  C_2 
REMARK    3  A    between atoms: O_20  and  C_3 
REMARK       I    between atoms: C_6  and  N_12 
REMARK    4  A    between atoms: C_10  and  C_6 
REMARK    5  A    between atoms: C_11  and  C_10 
REMARK    6  A    between atoms: N_12  and  C_13 
ROOT
ATOM      1  C   UNL d   1       1.532  -0.194   0.111  0.00  0.00     0.066 A 
ATOM      2  C   UNL d   1       0.781  -1.313  -0.305  0.00  0.00     0.047 A 
ATOM      3  C   UNL d   1       0.902   1.056   0.323  0.00  0.00     0.050 A 
ATOM      4  C   UNL d   1      -0.574  -1.086  -0.608  0.00  0.00     0.033 A 
ATOM      5  C   UNL d   1      -0.447   1.253   0.035  0.00  0.00     0.036 A 
ATOM      6  C   UNL d   1      -1.171   0.177  -0.470  0.00  0.00     0.032 A 
ENDROOT
BRANCH   5   7
ATOM      7  N   UNL d   1      -1.121   2.471   0.283  0.00  0.00    -0.324 N 
ATOM      8  C   UNL d   1      -0.575   3.596   0.871  0.00  0.00     0.245 C 
ATOM      9  O   UNL d   1       0.609   3.787   1.123  0.00  0.00    -0.268 OA
ATOM     10  H   UNL d   1      -2.110   2.477   0.075  0.00  0.00     0.169 HD
BRANCH   8  11
ATOM     11  C   UNL d   1      -1.598   4.620   1.237  0.00  0.00     0.075 C 
BRANCH  11  12
ATOM     12  C   UNL d   1      -1.190   5.704   1.911  0.00  0.00     0.024 C 
ATOM     13  C   UNL d   1      -2.090   6.693   2.414  0.00  0.00     0.004 A 
ATOM     14  S   UNL d   1      -1.423   8.135   3.097  0.00  0.00    -0.102 SA
ATOM     15  C   UNL d   1      -3.470   6.716   2.504  0.00  0.00     0.019 A 
ATOM     16  C   UNL d   1      -2.959   8.733   3.534  0.00  0.00     0.050 A 
ATOM     17  C   UNL d   1      -3.970   7.881   3.159  0.00  0.00     0.008 A 
ENDBRANCH  11  12
ENDBRANCH   8  11
ENDBRANCH   5   7
BRANCH   1  18
ATOM     18  C   UNL d   1       2.976  -0.266   0.467  0.00  0.00     0.178 C 
ATOM     19  O   UNL d   1       3.509  -1.184   1.065  0.00  0.00    -0.646 OA
BRANCH  18  20
ATOM     20  O   UNL d   1       3.685   0.814   0.036  0.00  0.00    -0.773 OA
ATOM     21  H   UNL d   1       3.176   1.491  -0.448  0.00  0.00     0.167 HD
ENDBRANCH  18  20
ENDBRANCH   1  18
BRANCH   2  22
ATOM     22  N   UNL d   1       1.300  -2.584  -0.383  0.00  0.00    -0.380 N 
ATOM     23  C   UNL d   1       0.578  -3.782   0.025  0.00  0.00     0.123 C 
ATOM     24  C   UNL d   1       1.700  -4.810   0.094  0.00  0.00     0.021 C 
ATOM     25  C   UNL d   1       2.621  -4.427  -1.062  0.00  0.00     0.021 C 
ATOM     26  C   UNL d   1       2.353  -2.938  -1.329  0.00  0.00     0.123 C 
ENDBRANCH   2  22
TORSDOF 6
