REMARK  6 active torsions:
REMARK  status: ('A' for Active; 'I' for Inactive)
REMARK    1  A    between atoms: C_13  and  N_1 
REMARK    2  A    between atoms: S_11  and  C_2 
REMARK    3  A    between atoms: C_7  and  C_10 
REMARK    4  A    between atoms: C_10  and  C_15 
REMARK    5  A    between atoms: C_15  and  S_11 
REMARK    6  A    between atoms: O_22  and  C_19 
ROOT
ATOM      1  N   UNL d   1       0.597   0.506   0.178  0.00  0.00    -0.219 N 
ATOM      2  C   UNL d   1       1.123  -0.786   0.187  0.00  0.00     0.177 A 
ATOM      3  N   UNL d   1       0.136  -1.655   0.225  0.00  0.00    -0.264 N 
ATOM      4  HN  UNL d   1       0.217  -2.672   0.216  1.00  0.00     0.186 HD
ATOM      5  N   UNL d   1      -1.018  -0.927   0.279  0.00  0.00    -0.006 NA
ATOM      6  N   UNL d   1      -0.758   0.369   0.275  0.00  0.00     0.001 NA
ENDROOT
BRANCH   2   7
ATOM      7  S   UNL d   1       2.791  -1.244   0.231  0.00  0.00    -0.083 SA
BRANCH   7   8
ATOM      8  C   UNL d   1       2.686  -3.062   0.107  0.00  0.00     0.168 C 
BRANCH   8   9
ATOM      9  C   UNL d   1       4.060  -3.714   0.237  0.00  0.00     0.192 C 
ATOM     10  O   UNL d   1       5.077  -3.081   0.552  0.00  0.00    -0.289 OA
BRANCH   9  11
ATOM     11  C   UNL d   1       4.124  -5.128  -0.067  0.00  0.00     0.123 A 
ATOM     12  O   UNL d   1       2.967  -5.844  -0.194  0.00  0.00    -0.306 OA
ATOM     13  C   UNL d   1       3.310  -7.079  -0.656  0.00  0.00     0.086 A 
ATOM     14  C   UNL d   1       2.415  -8.087  -1.004  0.00  0.00     0.038 A 
ATOM     15  C   UNL d   1       4.689  -7.178  -0.794  0.00  0.00     0.001 A 
ATOM     16  C   UNL d   1       2.964  -9.216  -1.621  0.00  0.00     0.003 A 
ATOM     17  C   UNL d   1       4.345  -9.345  -1.797  0.00  0.00     0.001 A 
ATOM     18  C   UNL d   1       5.228  -8.352  -1.349  0.00  0.00     0.014 A 
ATOM     19  C   UNL d   1       5.210  -5.942  -0.333  0.00  0.00     0.055 A 
ENDBRANCH   9  11
ENDBRANCH   8   9
ENDBRANCH   7   8
ENDBRANCH   2   7
BRANCH   1  20
ATOM     20  C   UNL d   1       1.156   1.817   0.060  0.00  0.00     0.057 A 
ATOM     21  C   UNL d   1       2.509   2.052  -0.201  0.00  0.00     0.034 A 
ATOM     22  C   UNL d   1       2.981   3.364  -0.364  0.00  0.00     0.039 A 
ATOM     23  C   UNL d   1       2.107   4.438  -0.272  0.00  0.00     0.065 A 
ATOM     24  C   UNL d   1       0.766   4.235   0.005  0.00  0.00     0.039 A 
ATOM     25  C   UNL d   1       0.292   2.930   0.172  0.00  0.00     0.034 A 
BRANCH  23  26
ATOM     26  O   UNL d   1       2.615   5.687  -0.476  0.00  0.00    -0.361 OA
ATOM     27  H   UNL d   1       1.884   6.325  -0.470  0.00  0.00     0.217 HD
ENDBRANCH  23  26
ENDBRANCH   1  20
TORSDOF 6
