REMARK  5 active torsions:
REMARK  status: ('A' for Active; 'I' for Inactive)
REMARK    1  A    between atoms: C_3  and  C_1 
REMARK    2  A    between atoms: N_2  and  C_4 
REMARK    3  A    between atoms: C_7  and  C_13 
REMARK    4  A    between atoms: C_10  and  C_7 
REMARK    5  A    between atoms: C_13  and  N_8 
ROOT
ATOM      1  N   UNL d   1      -0.444   3.317  -4.266  0.00  0.00    -0.364 N 
ATOM      2  N   UNL d   1      -0.807   3.847  -7.159  0.00  0.00     0.099 N 
ATOM      3  C   UNL d   1      -1.710   2.988  -4.934  0.00  0.00     0.154 C 
ATOM      4  C   UNL d   1       0.460   4.250  -4.959  0.00  0.00     0.154 C 
ATOM      5  C   UNL d   1       0.504   4.002  -6.487  0.00  0.00     0.292 C 
ATOM      6  C   UNL d   1      -1.533   2.760  -6.451  0.00  0.00     0.292 C 
ENDROOT
BRANCH   2   7
ATOM      7  C   UNL d   1      -1.621   5.082  -7.163  0.00  0.00     0.356 C 
BRANCH   7   8
ATOM      8  C   UNL d   1      -0.923   6.269  -7.813  0.00  0.00     0.187 C 
ATOM      9  O   UNL d   1      -0.593   7.245  -7.133  0.00  0.00    -0.290 OA
BRANCH   8  10
ATOM     10  C   UNL d   1      -0.632   6.280  -9.277  0.00  0.00     0.014 A 
ATOM     11  C   UNL d   1      -0.724   5.134 -10.071  0.00  0.00     0.054 A 
ATOM     12  C   UNL d   1      -0.264   5.170 -11.387  0.00  0.00     0.103 A 
ATOM     13  O   UNL d   1      -0.257   3.978 -12.067  0.00  0.00    -0.346 OA
ATOM     14  C   UNL d   1       0.209   6.361 -11.948  0.00  0.00     0.102 A 
ATOM     15  C   UNL d   1       0.738   4.014 -13.096  0.00  0.00     0.202 C 
ATOM     16  C   UNL d   1       0.533   5.242 -13.968  0.00  0.00     0.202 C 
ATOM     17  O   UNL d   1       0.705   6.453 -13.222  0.00  0.00    -0.346 OA
ATOM     18  C   UNL d   1       0.240   7.521 -11.181  0.00  0.00     0.040 A 
ATOM     19  C   UNL d   1      -0.167   7.478  -9.846  0.00  0.00     0.018 A 
ENDBRANCH   8  10
ENDBRANCH   7   8
ENDBRANCH   2   7
BRANCH   1  20
ATOM     20  C   UNL d   1       0.092   2.373  -3.407  0.00  0.00     0.103 A 
ATOM     21  C   UNL d   1       0.973   2.763  -2.396  0.00  0.00     0.049 A 
ATOM     22  C   UNL d   1       1.447   1.827  -1.478  0.00  0.00     0.021 A 
ATOM     23  C   UNL d   1       1.042   0.495  -1.582  0.00  0.00     0.063 A 
ATOM     24  C   UNL d   1       0.175   0.185  -2.613  0.00  0.00     0.106 A 
ATOM     25  N   UNL d   1      -0.302   1.087  -3.504  0.00  0.00    -0.352 N 
ATOM     26  HN  UNL d   1      -0.949   0.798  -4.238  1.00  0.00     0.166 HD
BRANCH  23  27
ATOM     27  C   UNL d   1       1.513  -0.550  -0.623  0.00  0.00     0.418 C 
ATOM     28  F   UNL d   1       1.018  -1.793  -0.881  0.00  0.00    -0.166 F 
ATOM     29  F   UNL d   1       1.162  -0.272   0.664  0.00  0.00    -0.166 F 
ATOM     30  F   UNL d   1       2.867  -0.682  -0.618  0.00  0.00    -0.166 F 
ENDBRANCH  23  27
ENDBRANCH   1  20
TORSDOF 5
