REMARK  3 active torsions:
REMARK  status: ('A' for Active; 'I' for Inactive)
REMARK    1  A    between atoms: N_5  and  C_4 
REMARK    2  A    between atoms: C_10  and  N_5 
REMARK    3  A    between atoms: C_9  and  C_10 
ROOT
ATOM      1  C   UNL d   1      -0.413   0.293   0.191  0.00  0.00     0.109 A 
ATOM      2  C   UNL d   1      -1.816   0.267   0.468  0.00  0.00     0.105 C 
ATOM      3  N   UNL d   1      -2.955   0.268   0.701  0.00  0.00    -0.191 NA
ATOM      4  C   UNL d   1       0.328   1.474  -0.026  0.00  0.00     0.052 A 
ATOM      5  C   UNL d   1       0.230  -0.955   0.182  0.00  0.00     0.139 A 
ATOM      6  F   UNL d   1      -0.471  -2.077   0.407  0.00  0.00    -0.204 F 
ATOM      7  C   UNL d   1       2.338   0.068  -0.294  0.00  0.00     0.005 A 
ATOM      8  C   UNL d   1       1.712   1.319  -0.281  0.00  0.00     0.031 A 
ATOM      9  C   UNL d   1       1.592  -1.076  -0.059  0.00  0.00     0.044 A 
ENDROOT
BRANCH   4  10
ATOM     10  N   UNL d   1      -0.157   2.781  -0.145  0.00  0.00    -0.384 N 
ATOM     11  H   UNL d   1       0.494   3.485   0.200  0.00  0.00     0.160 HD
BRANCH  10  12
ATOM     12  C   UNL d   1      -1.553   3.163   0.026  0.00  0.00     0.160 C 
BRANCH  12  13
ATOM     13  C   UNL d   1      -1.746   4.639  -0.200  0.00  0.00    -0.025 A 
ATOM     14  C   UNL d   1      -2.377   5.423   0.762  0.00  0.00     0.096 A 
ATOM     15  N   UNL d   1      -2.655   6.738   0.611  0.00  0.00    -0.375 N 
ATOM     16  C   UNL d   1      -2.302   7.302  -0.563  0.00  0.00     0.087 A 
ATOM     17  HN  UNL d   1      -3.109   7.277   1.349  1.00  0.00     0.164 HD
ATOM     18  C   UNL d   1      -1.671   6.614  -1.586  0.00  0.00     0.018 A 
ATOM     19  C   UNL d   1      -1.389   5.264  -1.399  0.00  0.00     0.011 A 
ENDBRANCH  12  13
ENDBRANCH  10  12
ENDBRANCH   4  10
TORSDOF 3
