REMARK  1 active torsions:
REMARK  status: ('A' for Active; 'I' for Inactive)
REMARK    1  A    between atoms: C_12  and  C_8 
ROOT
ATOM      1  N   UNL d   1      -0.280  -0.599  -0.003  0.00  0.00    -0.204 N 
ATOM      2  C   UNL d   1      -0.252   0.787   0.002  0.00  0.00     0.133 A 
ATOM      3  C   UNL d   1       0.865  -1.412  -0.009  0.00  0.00     0.270 A 
ATOM      4  C   UNL d   1       2.148  -0.660  -0.006  0.00  0.00     0.106 A 
ATOM      5  N   UNL d   1       0.947   1.413   0.000  0.00  0.00    -0.340 N 
ATOM      6  N   UNL d   1      -1.551  -1.082  -0.002  0.00  0.00    -0.294 N 
ATOM      7  HN  UNL d   1      -1.851  -2.057  -0.006  1.00  0.00     0.187 HD
ATOM      8  C   UNL d   1       2.123   0.686  -0.001  0.00  0.00     0.049 A 
ATOM      9  C   UNL d   1      -1.555   1.209   0.008  0.00  0.00     0.076 A 
ATOM     10  C   UNL d   1      -2.320   0.014   0.004  0.00  0.00     0.026 A 
ATOM     11  O   UNL d   1       0.805  -2.635  -0.014  0.00  0.00    -0.266 OA
ATOM     12  C   UNL d   1      -3.799  -0.105   0.003  0.00  0.00     0.070 C 
ATOM     13  H   UNL d   1       1.040   2.427  -0.000  0.00  0.00     0.167 HD
ENDROOT
BRANCH   8  14
ATOM     14  C   UNL d   1       3.395   1.418   0.015  0.00  0.00    -0.009 A 
ATOM     15  C   UNL d   1       4.020   1.781  -1.184  0.00  0.00     0.013 A 
ATOM     16  C   UNL d   1       5.271   2.401  -1.166  0.00  0.00     0.001 A 
ATOM     17  C   UNL d   1       5.906   2.659   0.049  0.00  0.00     0.000 A 
ATOM     18  C   UNL d   1       5.282   2.317   1.248  0.00  0.00     0.001 A 
ATOM     19  C   UNL d   1       4.027   1.704   1.233  0.00  0.00     0.013 A 
ENDBRANCH   8  14
TORSDOF 1
