REMARK  10 active torsions:
REMARK  status: ('A' for Active; 'I' for Inactive)
REMARK    1  A    between atoms: C_8  and  S_1 
REMARK    2  A    between atoms: N_9  and  S_1 
REMARK    3  A    between atoms: C_2  and  C_6 
REMARK    4  A    between atoms: C_3  and  C_5 
REMARK    5  A    between atoms: C_4  and  C_14 
REMARK       I    between atoms: N_7  and  C_4 
REMARK    6  A    between atoms: C_10  and  N_7 
REMARK    7  A    between atoms: C_28  and  N_9 
REMARK    8  A    between atoms: C_29  and  N_9 
REMARK    9  A    between atoms: C_30  and  C_28 
REMARK   10  A    between atoms: C_31  and  C_29 
ROOT
ATOM      1  C   UNL d   1      -1.108   2.064  -5.258  0.00  0.00     0.256 C 
ATOM      2  N   UNL d   1      -0.964   3.412  -5.570  0.00  0.00    -0.323 N 
ATOM      3  O   UNL d   1      -1.511   1.198  -6.032  0.00  0.00    -0.267 OA
ATOM      4  H   UNL d   1      -0.488   4.006  -4.908  0.00  0.00     0.169 HD
ENDROOT
BRANCH   1   5
ATOM      5  C   UNL d   1      -0.641   1.604  -3.916  0.00  0.00     0.032 A 
ATOM      6  C   UNL d   1      -0.291   2.469  -2.872  0.00  0.00     0.018 A 
ATOM      7  C   UNL d   1       0.239   1.952  -1.687  0.00  0.00     0.026 A 
ATOM      8  C   UNL d   1       0.427   0.571  -1.546  0.00  0.00     0.074 A 
ATOM      9  C   UNL d   1       0.012  -0.309  -2.544  0.00  0.00     0.026 A 
ATOM     10  C   UNL d   1      -0.517   0.213  -3.724  0.00  0.00     0.018 A 
BRANCH   8  11
ATOM     11  S   UNL d   1       1.159  -0.067  -0.063  0.00  0.00     0.243 S 
ATOM     12  O   UNL d   1       0.523  -1.346   0.199  0.00  0.00    -0.206 OA
ATOM     13  O   UNL d   1       1.132   0.987   0.931  0.00  0.00    -0.206 OA
BRANCH  11  14
ATOM     14  N   UNL d   1       2.827  -0.329  -0.490  0.00  0.00    -0.206 NA
BRANCH  14  15
ATOM     15  C   UNL d   1       3.486   0.907  -1.047  0.00  0.00     0.107 C 
BRANCH  15  16
ATOM     16  C   UNL d   1       4.944   0.738  -1.488  0.00  0.00     0.011 C 
ATOM     17  C   UNL d   1       5.162  -0.382  -2.493  0.00  0.00     0.006 C 
ENDBRANCH  15  16
ENDBRANCH  14  15
BRANCH  14  18
ATOM     18  C   UNL d   1       3.608  -0.929   0.649  0.00  0.00     0.107 C 
BRANCH  18  19
ATOM     19  C   UNL d   1       3.251  -2.386   0.940  0.00  0.00     0.011 C 
ATOM     20  C   UNL d   1       3.354  -3.285  -0.283  0.00  0.00     0.006 C 
ENDBRANCH  18  19
ENDBRANCH  14  18
ENDBRANCH  11  14
ENDBRANCH   8  11
ENDBRANCH   1   5
BRANCH   2  21
ATOM     21  C   UNL d   1      -1.113   3.950  -6.872  0.00  0.00     0.036 A 
ATOM     22  C   UNL d   1      -1.744   3.259  -7.907  0.00  0.00     0.045 A 
ATOM     23  C   UNL d   1      -1.647   3.689  -9.236  0.00  0.00     0.050 A 
ATOM     24  C   UNL d   1      -0.985   4.891  -9.512  0.00  0.00     0.032 A 
ATOM     25  C   UNL d   1      -0.404   5.642  -8.478  0.00  0.00     0.050 A 
ATOM     26  C   UNL d   1      -0.496   5.173  -7.154  0.00  0.00     0.045 A 
BRANCH  23  27
ATOM     27  C   UNL d   1      -2.172   2.793 -10.331  0.00  0.00     0.417 C 
ATOM     28  F   UNL d   1      -1.850   3.231 -11.581  0.00  0.00    -0.166 F 
ATOM     29  F   UNL d   1      -1.672   1.528 -10.247  0.00  0.00    -0.166 F 
ATOM     30  F   UNL d   1      -3.526   2.668 -10.312  0.00  0.00    -0.166 F 
ENDBRANCH  23  27
BRANCH  25  31
ATOM     31  C   UNL d   1       0.397   6.886  -8.784  0.00  0.00     0.417 C 
ATOM     32  F   UNL d   1       0.551   7.119 -10.116  0.00  0.00    -0.166 F 
ATOM     33  F   UNL d   1      -0.159   8.012  -8.264  0.00  0.00    -0.166 F 
ATOM     34  F   UNL d   1       1.658   6.819  -8.271  0.00  0.00    -0.166 F 
ENDBRANCH  25  31
ENDBRANCH   2  21
TORSDOF 10
