REMARK  3 active torsions:
REMARK  status: ('A' for Active; 'I' for Inactive)
REMARK    1  A    between atoms: C_6  and  C_1 
REMARK       I    between atoms: N_8  and  C_6 
REMARK    2  A    between atoms: N_10  and  N_8 
REMARK    3  A    between atoms: C_9  and  N_10 
ROOT
ATOM      1  C   UNL d   1      -3.107  -0.781   0.021  0.00  0.00     0.284 C 
ATOM      2  N   UNL d   1      -3.455  -2.123  -0.037  0.00  0.00    -0.281 N 
ATOM      3  O   UNL d   1      -3.930   0.128   0.092  0.00  0.00    -0.265 OA
ATOM      4  H   UNL d   1      -2.734  -2.774  -0.332  0.00  0.00     0.184 HD
ENDROOT
BRANCH   2   5
ATOM      5  N   UNL d   1      -4.818  -2.453  -0.214  0.00  0.00    -0.200 NA
ATOM      6  H   UNL d   1      -5.423  -1.721   0.184  0.00  0.00     0.153 HD
BRANCH   5   7
ATOM      7  C   UNL d   1      -5.188  -3.733   0.281  0.00  0.00     0.066 A 
ATOM      8  C   UNL d   1      -6.471  -3.923   0.831  0.00  0.00     0.142 A 
ATOM      9  C   UNL d   1      -6.925  -5.178   1.232  0.00  0.00     0.086 A 
ATOM     10  F   UNL d   1      -7.286  -2.868   0.982  0.00  0.00    -0.204 F 
ATOM     11  C   UNL d   1      -6.094  -6.274   1.062  0.00  0.00     0.119 A 
ATOM     12  C   UNL d   1      -4.832  -6.132   0.497  0.00  0.00     0.044 A 
ATOM     13  F   UNL d   1      -6.518  -7.489   1.430  0.00  0.00    -0.206 F 
ATOM     14  C   UNL d   1      -4.385  -4.867   0.098  0.00  0.00     0.031 A 
ENDBRANCH   5   7
ENDBRANCH   2   5
BRANCH   1  15
ATOM     15  C   UNL d   1      -1.652  -0.549   0.012  0.00  0.00     0.119 A 
ATOM     16  N   UNL d   1      -0.750  -1.553  -0.045  0.00  0.00    -0.294 N 
ATOM     17  N   UNL d   1       0.444  -0.929   0.051  0.00  0.00    -0.301 N 
ATOM     18  HN  UNL d   1      -0.930  -2.553  -0.138  1.00  0.00     0.187 HD
ATOM     19  C   UNL d   1       1.662  -1.710   0.074  0.00  0.00     0.177 C 
ATOM     20  C   UNL d   1       0.348   0.435   0.141  0.00  0.00     0.026 A 
ATOM     21  C   UNL d   1      -1.001   0.708   0.092  0.00  0.00     0.063 A 
ATOM     22  C   UNL d   1       1.515   1.340   0.286  0.00  0.00     0.070 C 
ENDBRANCH   1  15
TORSDOF 3
