REMARK  5 active torsions:
REMARK  status: ('A' for Active; 'I' for Inactive)
REMARK    1  A    between atoms: C_4  and  N_1 
REMARK    2  A    between atoms: C_2  and  O_3 
REMARK    3  A    between atoms: C_13  and  C_2 
REMARK    4  A    between atoms: O_3  and  C_7 
REMARK    5  A    between atoms: C_7  and  C_9 
ROOT
ATOM      1  N   UNL d   1       2.482  -2.139   4.618  0.00  0.00    -0.194 NA
ATOM      2  C   UNL d   1       1.516  -2.618   4.182  0.00  0.00     0.097 C 
ATOM      3  C   UNL d   1       0.284  -3.219   3.626  0.00  0.00     0.271 C 
ENDROOT
BRANCH   3   4
ATOM      4  O   UNL d   1       0.468  -4.624   3.355  0.00  0.00    -0.292 OA
BRANCH   4   5
ATOM      5  C   UNL d   1       0.352  -5.420   4.445  0.00  0.00     0.294 C 
ATOM      6  O   UNL d   1       0.116  -5.034   5.577  0.00  0.00    -0.259 OA
BRANCH   5   7
ATOM      7  C   UNL d   1       0.509  -6.851   4.073  0.00  0.00     0.039 A 
ATOM      8  C   UNL d   1       0.430  -7.813   5.090  0.00  0.00     0.017 A 
ATOM      9  C   UNL d   1       0.501  -9.172   4.778  0.00  0.00     0.001 A 
ATOM     10  C   UNL d   1       0.656  -9.575   3.452  0.00  0.00     0.000 A 
ATOM     11  C   UNL d   1       0.760  -8.623   2.439  0.00  0.00     0.001 A 
ATOM     12  C   UNL d   1       0.692  -7.263   2.746  0.00  0.00     0.017 A 
ENDBRANCH   5   7
ENDBRANCH   4   5
ENDBRANCH   3   4
BRANCH   3  13
ATOM     13  C   UNL d   1      -0.136  -2.529   2.329  0.00  0.00    -0.013 A 
ATOM     14  C   UNL d   1       0.325  -2.954   1.069  0.00  0.00     0.046 A 
ATOM     15  C   UNL d   1      -0.094  -2.289  -0.096  0.00  0.00     0.103 A 
ATOM     16  C   UNL d   1      -0.971  -1.200  -0.021  0.00  0.00     0.036 A 
ATOM     17  C   UNL d   1      -1.412  -0.762   1.227  0.00  0.00     0.003 A 
ATOM     18  C   UNL d   1      -0.993  -1.414   2.389  0.00  0.00     0.011 A 
BRANCH  15  19
ATOM     19  N   UNL d   1       0.396  -2.732  -1.409  0.00  0.00    -0.116 N 
ATOM     20  O   UNL d   1       1.190  -3.683  -1.435  0.00  0.00    -0.532 OA
ATOM     21  O   UNL d   1      -0.016  -2.131  -2.412  0.00  0.00    -0.532 OA
ENDBRANCH  15  19
ENDBRANCH   3  13
TORSDOF 5
