REMARK  8 active torsions:
REMARK  status: ('A' for Active; 'I' for Inactive)
REMARK    1  A    between atoms: O_13  and  C_1 
REMARK    2  A    between atoms: C_2  and  N_12 
REMARK    3  A    between atoms: C_9  and  C_3 
REMARK    4  A    between atoms: O_16  and  C_5 
REMARK    5  A    between atoms: C_20  and  N_6 
REMARK    6  A    between atoms: O_17  and  C_8 
REMARK    7  A    between atoms: N_12  and  C_22 
REMARK    8  A    between atoms: C_22  and  C_20 
ROOT
ATOM      1  N   UNL d   1       2.217   2.645   0.298  0.00  0.00    -0.397 N 
ATOM      2  HN  UNL d   1       2.657   1.868  -0.195  1.00  0.00     0.158 HD
ATOM      3  C   UNL d   1       1.042   2.537   0.816  0.00  0.00     0.097 C 
ENDROOT
BRANCH   1   4
ATOM      4  C   UNL d   1       2.894   3.945   0.451  0.00  0.00     0.133 C 
BRANCH   4   5
ATOM      5  C   UNL d   1       4.398   3.645   0.564  0.00  0.00     0.112 C 
BRANCH   5   6
ATOM      6  N   UNL d   1       5.228   4.847   0.687  0.00  0.00    -0.289 NA
ATOM      7  H   UNL d   1       4.929   5.450   1.453  0.00  0.00     0.127 HD
BRANCH   6   8
ATOM      8  C   UNL d   1       6.630   4.667   0.787  0.00  0.00     0.043 A 
ATOM      9  C   UNL d   1       7.218   3.386   0.697  0.00  0.00     0.050 A 
ATOM     10  C   UNL d   1       8.592   3.192   0.842  0.00  0.00     0.035 A 
ATOM     11 CL   UNL d   1       9.232   1.593   0.833  0.00  0.00    -0.084 Cl
ATOM     12  C   UNL d   1       9.438   4.273   1.025  0.00  0.00     0.026 A 
ATOM     13  C   UNL d   1       8.894   5.554   1.084  0.00  0.00     0.040 A 
ATOM     14  C   UNL d   1       7.507   5.762   0.969  0.00  0.00     0.089 A 
BRANCH  14  15
ATOM     15  O   UNL d   1       7.150   7.071   1.178  0.00  0.00    -0.354 OA
ATOM     16  C   UNL d   1       6.135   7.609   0.342  0.00  0.00     0.210 C 
ENDBRANCH  14  15
ENDBRANCH   6   8
ENDBRANCH   5   6
ENDBRANCH   4   5
ENDBRANCH   1   4
BRANCH   3  17
ATOM     17  C   UNL d   1       0.322   1.239   0.769  0.00  0.00     0.015 A 
ATOM     18  C   UNL d   1       0.903   0.080   0.212  0.00  0.00     0.110 A 
ATOM     19  C   UNL d   1       0.191  -1.126   0.213  0.00  0.00     0.102 A 
ATOM     20  C   UNL d   1      -1.093  -1.149   0.769  0.00  0.00     0.040 A 
ATOM     21  C   UNL d   1      -1.672  -0.004   1.319  0.00  0.00     0.004 A 
ATOM     22  C   UNL d   1      -0.963   1.196   1.322  0.00  0.00     0.016 A 
BRANCH  18  23
ATOM     23  O   UNL d   1       2.166   0.133  -0.325  0.00  0.00    -0.357 OA
ATOM     24  H   UNL d   1       2.475   1.063  -0.253  0.00  0.00     0.217 HD
ENDBRANCH  18  23
BRANCH  19  25
ATOM     25  O   UNL d   1       0.576  -2.349  -0.270  0.00  0.00    -0.353 OA
ATOM     26  C   UNL d   1       1.865  -2.473  -0.853  0.00  0.00     0.210 C 
ENDBRANCH  19  25
ENDBRANCH   3  17
TORSDOF 8
