REMARK  5 active torsions:
REMARK  status: ('A' for Active; 'I' for Inactive)
REMARK    1  A    between atoms: C_2  and  C_1 
REMARK    2  A    between atoms: O_5  and  C_1 
REMARK    3  A    between atoms: C_4  and  C_2 
REMARK    4  A    between atoms: O_6  and  C_4 
REMARK    5  A    between atoms: C_7  and  O_6 
ROOT
ATOM      1  O   UNL d   1       0.591  -0.697  -3.570  0.00  0.00    -0.351 OA
ENDROOT
BRANCH   1   2
ATOM      2  C   UNL d   1       0.987  -1.321  -2.346  0.00  0.00     0.186 C 
BRANCH   2   3
ATOM      3  C   UNL d   1       0.063  -0.838  -1.238  0.00  0.00     0.136 C 
BRANCH   3   4
ATOM      4  C   UNL d   1       0.444  -1.469   0.073  0.00  0.00     0.141 C 
ATOM      5  O   UNL d   1       1.362  -2.258   0.233  0.00  0.00    -0.650 OA
BRANCH   4   6
ATOM      6  O   UNL d   1      -0.351  -1.070   1.093  0.00  0.00    -0.776 OA
ATOM      7  H   UNL d   1      -1.046  -0.439   0.828  0.00  0.00     0.167 HD
ENDBRANCH   4   6
ENDBRANCH   3   4
ENDBRANCH   2   3
ENDBRANCH   1   2
BRANCH   1   8
ATOM      8  C   UNL d   1       1.296  -1.059  -4.689  0.00  0.00     0.068 A 
ATOM      9  C   UNL d   1       2.386  -1.932  -4.720  0.00  0.00     0.037 A 
ATOM     10  C   UNL d   1       3.018  -2.227  -5.932  0.00  0.00     0.003 A 
ATOM     11  C   UNL d   1       2.568  -1.650  -7.116  0.00  0.00     0.000 A 
ATOM     12  C   UNL d   1       1.485  -0.774  -7.091  0.00  0.00     0.003 A 
ATOM     13  C   UNL d   1       0.853  -0.480  -5.881  0.00  0.00     0.037 A 
ENDBRANCH   1   8
TORSDOF 5
