REMARK  6 active torsions:
REMARK  status: ('A' for Active; 'I' for Inactive)
REMARK    1  A    between atoms: C8_7  and  C1_1 
REMARK    2  A    between atoms: C6_6  and  O1_8 
REMARK       I    between atoms: N_18  and  C6_6 
REMARK    3  A    between atoms: O1_8  and  C8_7 
REMARK    4  A    between atoms: CA_20  and  N_18 
REMARK    5  A    between atoms: C_19  and  CA_20 
REMARK    6  A    between atoms: OXT_22  and  C_19 
ROOT
ATOM      1  C1  <1> d   1      -0.104   1.750   0.052  0.00  0.00     0.078 A 
ATOM      2  C2  <1> d   1      -0.788  -0.564  -0.092  0.00  0.00    -0.018 A 
ATOM      3  C3  <1> d   1       0.659  -0.538  -0.075  0.00  0.00    -0.018 A 
ATOM      4  C4  <1> d   1      -1.268   0.765  -0.066  0.00  0.00    -0.036 A 
ATOM      5  C5  <1> d   1       1.093   0.805  -0.034  0.00  0.00    -0.036 A 
ATOM      6  C10 <1> d   1       1.579  -1.573  -0.086  0.00  0.00     0.013 A 
ATOM      7  C11 <1> d   1      -1.671  -1.634  -0.116  0.00  0.00     0.013 A 
ATOM      8  C12 <1> d   1      -2.627   1.037  -0.112  0.00  0.00     0.009 A 
ATOM      9  C13 <1> d   1       2.442   1.127  -0.043  0.00  0.00     0.009 A 
ATOM     10  C15 <1> d   1       2.940  -1.254  -0.061  0.00  0.00     0.001 A 
ATOM     11  C16 <1> d   1       3.368   0.083  -0.048  0.00  0.00     0.001 A 
ATOM     12  C17 <1> d   1      -3.516  -0.043  -0.134  0.00  0.00     0.001 A 
ATOM     13  C18 <1> d   1      -3.042  -1.365  -0.126  0.00  0.00     0.001 A 
ENDROOT
BRANCH   1  14
ATOM     14  C8  <1> d   1      -0.141   2.481   1.409  0.00  0.00     0.194 C 
BRANCH  14  15
ATOM     15  O1  <1> d   1       0.943   3.436   1.556  0.00  0.00    -0.303 OA
BRANCH  15  16
ATOM     16  C6  <1> d   1       0.610   4.737   1.363  0.00  0.00     0.361 C 
ATOM     17  N   ALA d   1       1.687   5.576   1.349  0.00  0.00    -0.323 N 
ATOM     18  H   ALA d   1       1.371   6.502   1.085  0.00  0.00     0.165 HD
ATOM     19  O2  <1> d   1      -0.505   5.150   1.113  0.00  0.00    -0.239 OA
BRANCH  17  20
ATOM     20  CA  ALA d   1       2.738   5.592   2.379  0.00  0.00     0.180 C 
ATOM     21  CB  ALA d   1       2.368   6.580   3.482  0.00  0.00     0.043 C 
BRANCH  20  22
ATOM     22  C   ALA d   1       4.070   5.994   1.727  0.00  0.00     0.163 C 
ATOM     23  O   ALA d   1       5.003   6.545   2.299  0.00  0.00    -0.648 OA
BRANCH  22  24
ATOM     24  OXT ALA d   1       4.151   5.585   0.435  0.00  0.00    -0.775 OA
ATOM     25  HXT ALA d   1       3.316   5.134   0.180  0.00  0.00     0.167 HD
ENDBRANCH  22  24
ENDBRANCH  20  22
ENDBRANCH  17  20
ENDBRANCH  15  16
ENDBRANCH  14  15
ENDBRANCH   1  14
TORSDOF 6
