REMARK  7 active torsions:
REMARK  status: ('A' for Active; 'I' for Inactive)
REMARK    1  A    between atoms: C_2  and  S_1 
REMARK    2  A    between atoms: N_6  and  S_1 
REMARK    3  A    between atoms: C_8  and  C_3 
REMARK    4  A    between atoms: C_9  and  N_6 
REMARK    5  A    between atoms: O_15  and  C_8 
REMARK    6  A    between atoms: C_13  and  C_9 
REMARK    7  A    between atoms: C_14  and  C_9 
ROOT
ATOM      1  N   UNL d   1       0.699   1.657   0.659  0.00  0.00    -0.202 NA
ATOM      2  H   UNL d   1      -0.273   1.989   0.632  0.00  0.00     0.141 HD
ENDROOT
BRANCH   1   3
ATOM      3  S   UNL d   1       0.770   0.105   0.045  0.00  0.00     0.246 S 
ATOM      4  O   UNL d   1       0.413   0.204  -1.352  0.00  0.00    -0.206 OA
ATOM      5  O   UNL d   1       1.990  -0.540   0.476  0.00  0.00    -0.206 OA
BRANCH   3   6
ATOM      6  C   UNL d   1      -0.449  -0.957   0.648  0.00  0.00     0.122 A 
ATOM      7  C   UNL d   1      -1.514  -0.726   1.575  0.00  0.00     0.094 A 
ATOM      8  C   UNL d   1      -2.136  -1.959   1.736  0.00  0.00     0.067 A 
ATOM      9  C   UNL d   1      -3.278  -2.474   2.526  0.00  0.00     0.078 C 
ATOM     10  O   UNL d   1      -1.561  -2.888   0.927  0.00  0.00    -0.318 OA
ATOM     11  C   UNL d   1      -0.552  -2.280   0.253  0.00  0.00     0.073 A 
ATOM     12  C   UNL d   1       0.166  -3.141  -0.711  0.00  0.00     0.078 C 
BRANCH   7  13
ATOM     13  C   UNL d   1      -1.927   0.513   2.198  0.00  0.00     0.297 C 
ATOM     14  O   UNL d   1      -1.737   1.601   1.677  0.00  0.00    -0.259 OA
BRANCH  13  15
ATOM     15  O   UNL d   1      -2.516   0.318   3.408  0.00  0.00    -0.322 OA
ATOM     16  C   UNL d   1      -3.012   1.472   4.090  0.00  0.00     0.213 C 
ENDBRANCH  13  15
ENDBRANCH   7  13
ENDBRANCH   3   6
ENDBRANCH   1   3
BRANCH   1  17
ATOM     17  C   UNL d   1       1.313   1.980   1.965  0.00  0.00     0.137 C 
BRANCH  17  18
ATOM     18  C   UNL d   1       2.834   1.901   2.017  0.00  0.00    -0.035 A 
ATOM     19  C   UNL d   1       3.647   2.630   1.134  0.00  0.00     0.009 A 
ATOM     20  C   UNL d   1       5.040   2.606   1.264  0.00  0.00     0.001 A 
ATOM     21  C   UNL d   1       5.638   1.846   2.268  0.00  0.00     0.000 A 
ATOM     22  C   UNL d   1       4.846   1.107   3.142  0.00  0.00     0.001 A 
ATOM     23  C   UNL d   1       3.457   1.134   3.018  0.00  0.00     0.009 A 
ENDBRANCH  17  18
BRANCH  17  24
ATOM     24  C   UNL d   1       0.849   3.365   2.454  0.00  0.00    -0.035 A 
ATOM     25  C   UNL d   1       0.790   3.638   3.831  0.00  0.00     0.009 A 
ATOM     26  C   UNL d   1       0.399   4.897   4.294  0.00  0.00     0.001 A 
ATOM     27  C   UNL d   1       0.062   5.903   3.390  0.00  0.00     0.000 A 
ATOM     28  C   UNL d   1       0.123   5.655   2.022  0.00  0.00     0.001 A 
ATOM     29  C   UNL d   1       0.521   4.399   1.557  0.00  0.00     0.009 A 
ENDBRANCH  17  24
ENDBRANCH   1  17
TORSDOF 7
