REMARK  3 active torsions:
REMARK  status: ('A' for Active; 'I' for Inactive)
REMARK    1  A    between atoms: C_3  and  C_1 
REMARK       I    between atoms: N_7  and  C_3 
REMARK    2  A    between atoms: C_9  and  C_5 
REMARK    3  A    between atoms: C_8  and  N_7 
ROOT
ATOM      1  C   UNL d   1      -0.181  -1.242   0.269  0.00  0.00     0.064 A 
ATOM      2  C   UNL d   1      -1.487  -0.672   0.388  0.00  0.00     0.057 A 
ATOM      3  C   UNL d   1       0.662  -0.169   0.032  0.00  0.00     0.065 A 
ATOM      4  C   UNL d   1      -1.358   0.694   0.232  0.00  0.00     0.087 A 
ATOM      5  O   UNL d   1      -0.048   0.994  -0.001  0.00  0.00    -0.314 OA
ATOM      6  C   UNL d   1       2.120  -0.020  -0.178  0.00  0.00     0.077 C 
ENDROOT
BRANCH   1   7
ATOM      7  C   UNL d   1       0.231  -2.627   0.423  0.00  0.00     0.258 C 
ATOM      8  N   UNL d   1      -0.785  -3.540   0.204  0.00  0.00    -0.321 N 
ATOM      9  H   UNL d   1      -1.577  -3.229  -0.347  0.00  0.00     0.169 HD
ATOM     10  O   UNL d   1       1.389  -2.930   0.698  0.00  0.00    -0.267 OA
BRANCH   8  11
ATOM     11  C   UNL d   1      -0.724  -4.929   0.465  0.00  0.00     0.056 A 
ATOM     12  C   UNL d   1      -1.600  -5.798  -0.205  0.00  0.00     0.060 A 
ATOM     13 CL   UNL d   1      -2.714  -5.202  -1.387  0.00  0.00    -0.082 Cl
ATOM     14  C   UNL d   1      -1.570  -7.173   0.043  0.00  0.00     0.026 A 
ATOM     15  C   UNL d   1      -0.687  -7.689   0.990  0.00  0.00     0.002 A 
ATOM     16  C   UNL d   1       0.167  -6.833   1.681  0.00  0.00     0.002 A 
ATOM     17  C   UNL d   1       0.154  -5.462   1.417  0.00  0.00     0.031 A 
ENDBRANCH   8  11
ENDBRANCH   1   7
BRANCH   4  18
ATOM     18  C   UNL d   1      -2.285   1.821   0.288  0.00  0.00    -0.002 A 
ATOM     19  C   UNL d   1      -3.641   1.615   0.591  0.00  0.00     0.016 A 
ATOM     20  C   UNL d   1      -4.536   2.688   0.650  0.00  0.00     0.024 A 
ATOM     21  C   UNL d   1      -4.083   3.982   0.409  0.00  0.00     0.034 A 
ATOM     22  C   UNL d   1      -2.743   4.211   0.112  0.00  0.00     0.024 A 
ATOM     23 CL   UNL d   1      -5.183   5.301   0.484  0.00  0.00    -0.084 Cl
ATOM     24  C   UNL d   1      -1.851   3.136   0.052  0.00  0.00     0.016 A 
ENDBRANCH   4  18
TORSDOF 3
