REMARK  8 active torsions:
REMARK  status: ('A' for Active; 'I' for Inactive)
REMARK    1  A    between atoms: C_3  and  C_1 
REMARK    2  A    between atoms: N_5  and  C_2 
REMARK    3  A    between atoms: O_14  and  C_3 
REMARK       I    between atoms: C_8  and  N_5 
REMARK    4  A    between atoms: C_16  and  C_8 
REMARK    5  A    between atoms: C_9  and  C_17 
REMARK    6  A    between atoms: O_15  and  C_9 
REMARK    7  A    between atoms: S_13  and  C_16 
REMARK    8  A    between atoms: C_17  and  S_13 
ROOT
ATOM      1  N   UNL d   1       2.773   1.598   0.040  0.00  0.00    -0.325 N 
ATOM      2  C   UNL d   1       2.804   2.912   0.478  0.00  0.00     0.231 C 
ATOM      3  O   UNL d   1       1.956   3.426   1.207  0.00  0.00    -0.272 OA
ATOM      4  H   UNL d   1       3.652   1.140  -0.182  0.00  0.00     0.169 HD
ENDROOT
BRANCH   1   5
ATOM      5  C   UNL d   1       1.672   0.775   0.268  0.00  0.00     0.058 A 
ATOM      6  C   UNL d   1       1.753  -0.584   0.540  0.00  0.00     0.106 A 
ATOM      7  S   UNL d   1       0.182  -1.269   0.752  0.00  0.00    -0.094 SA
ATOM      8  C   UNL d   1      -0.594   0.219   0.476  0.00  0.00     0.053 A 
ATOM      9  C   UNL d   1       0.310   1.224   0.230  0.00  0.00     0.038 A 
BRANCH   6  10
ATOM     10  C   UNL d   1       2.889  -1.467   0.759  0.00  0.00     0.302 C 
ATOM     11  O   UNL d   1       2.833  -2.640   1.109  0.00  0.00    -0.259 OA
BRANCH  10  12
ATOM     12  O   UNL d   1       4.069  -0.799   0.560  0.00  0.00    -0.322 OA
ATOM     13  C   UNL d   1       5.239  -1.563   0.878  0.00  0.00     0.213 C 
ENDBRANCH  10  12
ENDBRANCH   6  10
ENDBRANCH   1   5
BRANCH   2  14
ATOM     14  C   UNL d   1       4.000   3.710  -0.006  0.00  0.00     0.177 C 
BRANCH  14  15
ATOM     15  S   UNL d   1       3.513   4.838  -1.359  0.00  0.00    -0.150 SA
BRANCH  15  16
ATOM     16  C   UNL d   1       2.289   5.902  -0.504  0.00  0.00     0.185 C 
BRANCH  16  17
ATOM     17  C   UNL d   1       2.870   6.707   0.643  0.00  0.00     0.267 C 
ATOM     18  O   UNL d   1       4.028   6.696   1.028  0.00  0.00    -0.264 OA
BRANCH  17  19
ATOM     19  O   UNL d   1       1.884   7.485   1.185  0.00  0.00    -0.326 OA
ATOM     20  C   UNL d   1       2.321   8.299   2.275  0.00  0.00     0.213 C 
ENDBRANCH  17  19
ENDBRANCH  16  17
ENDBRANCH  15  16
ENDBRANCH  14  15
ENDBRANCH   2  14
TORSDOF 8
