REMARK  6 active torsions:
REMARK  status: ('A' for Active; 'I' for Inactive)
REMARK    1  A    between atoms: N_5  and  C_1 
REMARK       I    between atoms: C_8  and  N_5 
REMARK    2  A    between atoms: C_13  and  C_8 
REMARK    3  A    between atoms: C_9  and  C_14 
REMARK    4  A    between atoms: O_12  and  C_9 
REMARK    5  A    between atoms: C_15  and  C_13 
REMARK    6  A    between atoms: C_14  and  C_15 
ROOT
ATOM      1  N   UNL d   1      -2.413  -1.687  -0.024  0.00  0.00    -0.312 N 
ATOM      2  C   UNL d   1      -2.339  -3.064  -0.036  0.00  0.00     0.223 C 
ATOM      3  O   UNL d   1      -1.314  -3.738  -0.119  0.00  0.00    -0.273 OA
ATOM      4  H   UNL d   1      -3.315  -1.231  -0.006  0.00  0.00     0.170 HD
ENDROOT
BRANCH   1   5
ATOM      5  C   UNL d   1      -1.293  -0.873  -0.023  0.00  0.00     0.130 A 
ATOM      6  N   UNL d   1      -0.030  -1.308  -0.006  0.00  0.00    -0.245 N 
ATOM      7  O   UNL d   1       0.774  -0.194  -0.020  0.00  0.00    -0.241 OA
ATOM      8  HN  UNL d   1       0.278  -2.280   0.014  1.00  0.00     0.196 HD
ATOM      9  C   UNL d   1      -0.000   0.919  -0.035  0.00  0.00     0.076 A 
ATOM     10  C   UNL d   1      -1.323   0.545  -0.026  0.00  0.00     0.084 A 
ATOM     11  C   UNL d   1       0.728   2.198  -0.061  0.00  0.00     0.079 C 
ENDBRANCH   1   5
BRANCH   2  12
ATOM     12  C   UNL d   1      -3.691  -3.745   0.068  0.00  0.00     0.103 C 
BRANCH  12  13
ATOM     13  C   UNL d   1      -3.577  -5.103   0.779  0.00  0.00     0.019 C 
BRANCH  13  14
ATOM     14  C   UNL d   1      -3.096  -4.995   2.231  0.00  0.00     0.110 C 
BRANCH  14  15
ATOM     15  C   UNL d   1      -4.056  -4.210   3.091  0.00  0.00     0.139 C 
ATOM     16  O   UNL d   1      -5.262  -4.152   2.909  0.00  0.00    -0.650 OA
BRANCH  15  17
ATOM     17  O   UNL d   1      -3.449  -3.557   4.107  0.00  0.00    -0.776 OA
ATOM     18  H   UNL d   1      -2.482  -3.688   4.144  0.00  0.00     0.167 HD
ENDBRANCH  15  17
ENDBRANCH  14  15
ENDBRANCH  13  14
ENDBRANCH  12  13
ENDBRANCH   2  12
TORSDOF 6
