REMARK  3 active torsions:
REMARK  status: ('A' for Active; 'I' for Inactive)
REMARK    1  A    between atoms: N_2  and  N_1 
REMARK       I    between atoms: C_7  and  N_2 
REMARK    2  A    between atoms: C_9  and  C_7 
REMARK    3  A    between atoms: O_19  and  C_14 
ROOT
ATOM      1  N   UNL d   1      -1.553   2.123  -0.489  0.00  0.00    -0.259 N 
ATOM      2  C   UNL d   1      -2.601   2.350   0.402  0.00  0.00     0.270 C 
ATOM      3  O   UNL d   1      -3.053   1.513   1.176  0.00  0.00    -0.266 OA
ATOM      4  H   UNL d   1      -1.136   2.866  -1.026  0.00  0.00     0.191 HD
ENDROOT
BRANCH   1   5
ATOM      5  N   UNL d   1      -0.684   1.022  -0.283  0.00  0.00    -0.262 N 
ATOM      6  C   UNL d   1      -1.137  -0.302  -0.451  0.00  0.00     0.034 A 
ATOM      7  C   UNL d   1      -0.344  -1.362  -0.208  0.00  0.00     0.081 A 
ATOM      8  C   UNL d   1      -2.537  -0.582  -0.934  0.00  0.00     0.070 C 
ATOM      9  C   UNL d   1       1.046  -1.147   0.233  0.00  0.00     0.175 A 
ATOM     10  C   UNL d   1       1.530   0.245   0.282  0.00  0.00     0.081 A 
ATOM     11  O   UNL d   1       1.785  -2.086   0.503  0.00  0.00    -0.288 OA
ATOM     12  C   UNL d   1       0.677   1.253   0.013  0.00  0.00     0.034 A 
ATOM     13  C   UNL d   1       1.247   2.651  -0.008  0.00  0.00     0.070 C 
ENDBRANCH   1   5
BRANCH   2  14
ATOM     14  C   UNL d   1      -3.193   3.734   0.415  0.00  0.00     0.033 A 
ATOM     15  C   UNL d   1      -2.788   4.766  -0.442  0.00  0.00     0.020 A 
ATOM     16  C   UNL d   1      -3.274   6.074  -0.268  0.00  0.00     0.038 A 
ATOM     17  C   UNL d   1      -4.180   6.359   0.751  0.00  0.00     0.068 A 
ATOM     18  C   UNL d   1      -4.659   5.320   1.546  0.00  0.00     0.038 A 
ATOM     19  C   UNL d   1      -4.168   4.019   1.384  0.00  0.00     0.020 A 
BRANCH  17  20
ATOM     20  O   UNL d   1      -4.671   7.599   1.049  0.00  0.00    -0.356 OA
ATOM     21  C   UNL d   1      -3.892   8.704   0.603  0.00  0.00     0.210 C 
ENDBRANCH  17  20
ENDBRANCH   2  14
TORSDOF 3
