REMARK  2 active torsions:
REMARK  status: ('A' for Active; 'I' for Inactive)
REMARK       I    between atoms: C_5  and  N_1 
REMARK    1  A    between atoms: C_6  and  C_4 
REMARK    2  A    between atoms: C_9  and  C_5 
ROOT
ATOM      1  N   UNL d   1       0.848  -0.702   0.082  0.00  0.00    -0.230 N 
ATOM      2  N   UNL d   1       0.902   0.657   0.174  0.00  0.00    -0.287 N 
ATOM      3  HN  UNL d   1       1.733   1.234   0.305  1.00  0.00     0.187 HD
ATOM      4  C   UNL d   1      -0.373   1.079   0.056  0.00  0.00     0.134 A 
ATOM      5  C   UNL d   1       2.015  -1.516   0.134  0.00  0.00     0.283 C 
ATOM      6  C   UNL d   1      -1.260  -0.020  -0.064  0.00  0.00     0.055 A 
ATOM      7  C   UNL d   1      -0.457  -1.132  -0.075  0.00  0.00     0.122 A 
ATOM      8  O   UNL d   1       1.840  -2.681  -0.222  0.00  0.00    -0.265 OA
ENDROOT
BRANCH   5   9
ATOM      9  C   UNL d   1       3.307  -1.020   0.618  0.00  0.00     0.074 A 
ATOM     10  S   UNL d   1       4.694  -2.026   0.441  0.00  0.00    -0.097 SA
ATOM     11  C   UNL d   1       5.698  -0.925   1.273  0.00  0.00     0.050 A 
ATOM     12  C   UNL d   1       5.013   0.200   1.666  0.00  0.00     0.009 A 
ATOM     13  C   UNL d   1       3.640   0.149   1.282  0.00  0.00     0.025 A 
ENDBRANCH   5   9
BRANCH   4  14
ATOM     14  C   UNL d   1      -0.765   2.536   0.059  0.00  0.00     0.434 C 
ATOM     15  F   UNL d   1       0.297   3.382   0.099  0.00  0.00    -0.165 F 
ATOM     16  F   UNL d   1      -1.482   2.860  -1.051  0.00  0.00    -0.165 F 
ATOM     17  F   UNL d   1      -1.550   2.840   1.127  0.00  0.00    -0.165 F 
ENDBRANCH   4  14
TORSDOF 2
