REMARK  5 active torsions:
REMARK  status: ('A' for Active; 'I' for Inactive)
REMARK    1  A    between atoms: C_5  and  S_1 
REMARK    2  A    between atoms: N_17  and  S_1 
REMARK    3  A    between atoms: N_3  and  C_2 
REMARK    4  A    between atoms: N_6  and  N_10 
REMARK    5  A    between atoms: N_10  and  C_8 
ROOT
ATOM      1  C   UNL d   1      -0.707   4.540   0.801  0.00  0.00     0.127 A 
ATOM      2  C   UNL d   1      -0.002   3.384   0.412  0.00  0.00     0.062 A 
ATOM      3  C   UNL d   1       1.188   3.512  -0.303  0.00  0.00     0.076 A 
ATOM      4  C   UNL d   1      -0.233   5.841   0.486  0.00  0.00     0.060 A 
ATOM      5  C   UNL d   1       1.627   4.772  -0.706  0.00  0.00     0.027 A 
ATOM      6  C   UNL d   1       0.907   5.915  -0.334  0.00  0.00     0.029 A 
ENDROOT
BRANCH   4   7
ATOM      7  N   UNL d   1      -0.698   7.019   1.165  0.00  0.00    -0.203 NA
ATOM      8  H   UNL d   1      -1.589   6.776   1.630  0.00  0.00     0.153 HD
BRANCH   7   9
ATOM      9  N   UNL d   1      -0.861   8.188   0.479  0.00  0.00    -0.319 N 
ATOM     10  C   UNL d   1       0.024   9.134   0.629  0.00  0.00     0.041 C 
ATOM     11  C   UNL d   1      -0.309  10.491   0.144  0.00  0.00    -0.005 A 
ATOM     12  C   UNL d   1       1.389   9.032   1.256  0.00  0.00     0.133 C 
ATOM     13  C   UNL d   1       0.628  11.233  -0.581  0.00  0.00    -0.037 A 
ATOM     14  C   UNL d   1      -1.548  11.042   0.502  0.00  0.00     0.014 A 
ATOM     15  C   UNL d   1       0.227  12.488  -1.076  0.00  0.00     0.009 A 
ATOM     16  C   UNL d   1       2.046  10.796  -0.825  0.00  0.00     0.113 C 
ATOM     17  C   UNL d   1      -1.018  13.030  -0.748  0.00  0.00     0.001 A 
ATOM     18  C   UNL d   1      -1.889  12.325   0.077  0.00  0.00     0.001 A 
ATOM     19  S   UNL d   1       2.635   9.263  -0.057  0.00  0.00    -0.158 SA
ATOM     20  HN  UNL d   1      -1.661   8.319  -0.140  1.00  0.00     0.181 HD
ENDBRANCH   7   9
ENDBRANCH   4   7
BRANCH   1  21
ATOM     21  N   UNL d   1      -1.974   4.345   1.519  0.00  0.00    -0.114 N 
ATOM     22  O   UNL d   1      -2.455   3.199   1.539  0.00  0.00    -0.532 OA
ATOM     23  O   UNL d   1      -2.507   5.327   2.051  0.00  0.00    -0.532 OA
ENDBRANCH   1  21
BRANCH   3  24
ATOM     24  S   UNL d   1       2.215   2.092  -0.546  0.00  0.00     0.239 S 
ATOM     25  O   UNL d   1       1.847   1.071   0.410  0.00  0.00    -0.206 OA
ATOM     26  O   UNL d   1       3.586   2.526  -0.711  0.00  0.00    -0.206 OA
BRANCH  24  27
ATOM     27  N   UNL d   1       1.722   1.530  -2.045  0.00  0.00    -0.225 NA
ATOM     28  H   UNL d   1       1.325   0.594  -1.945  0.00  0.00     0.136 HD
ATOM     29  H   UNL d   1       2.505   1.566  -2.697  0.00  0.00     0.136 HD
ENDBRANCH  24  27
ENDBRANCH   3  24
TORSDOF 5
