REMARK  4 active torsions:
REMARK  status: ('A' for Active; 'I' for Inactive)
REMARK    1  A    between atoms: C_2  and  C_1 
REMARK    2  A    between atoms: N_8  and  C_2 
REMARK    3  A    between atoms: C_7  and  C_3 
REMARK    4  A    between atoms: O_14  and  C_9 
ROOT
ATOM      1  C   UNL d   1       0.884   0.584  -0.469  0.00  0.00     0.082 C 
ATOM      2  C   UNL d   1       0.237   0.791   0.698  0.00  0.00     0.037 C 
ATOM      3  C   UNL d   1       0.164   0.392  -1.690  0.00  0.00     0.102 C 
ATOM      4  N   UNL d   1      -0.380   0.231  -2.702  0.00  0.00    -0.191 NA
ENDROOT
BRANCH   1   5
ATOM      5  C   UNL d   1       2.393   0.542  -0.489  0.00  0.00     0.115 C 
ATOM      6  S   UNL d   1       3.458   0.740   0.795  0.00  0.00    -0.059 SA
BRANCH   5   7
ATOM      7  N   UNL d   1       2.973   0.305  -1.707  0.00  0.00    -0.389 N 
ATOM      8  H   UNL d   1       2.477   0.160  -2.579  0.00  0.00     0.157 HD
ATOM      9  H   UNL d   1       3.987   0.263  -1.753  0.00  0.00     0.157 HD
ENDBRANCH   5   7
ENDBRANCH   1   5
BRANCH   2  10
ATOM     10  C   UNL d   1      -1.222   0.818   0.832  0.00  0.00    -0.035 A 
ATOM     11  C   UNL d   1      -1.918  -0.368   1.082  0.00  0.00     0.014 A 
ATOM     12  C   UNL d   1      -3.314  -0.365   1.151  0.00  0.00     0.037 A 
ATOM     13  C   UNL d   1      -4.019   0.825   0.973  0.00  0.00     0.068 A 
ATOM     14  C   UNL d   1      -3.320   2.016   0.764  0.00  0.00     0.037 A 
ATOM     15  C   UNL d   1      -1.925   2.015   0.685  0.00  0.00     0.014 A 
BRANCH  13  16
ATOM     16  O   UNL d   1      -5.380   0.947   1.027  0.00  0.00    -0.356 OA
ATOM     17  C   UNL d   1      -6.114  -0.195   0.597  0.00  0.00     0.210 C 
ENDBRANCH  13  16
ENDBRANCH   2  10
TORSDOF 4
