REMARK  5 active torsions:
REMARK  status: ('A' for Active; 'I' for Inactive)
REMARK    1  A    between atoms: C_6  and  N_1 
REMARK    2  A    between atoms: C_8  and  C_2 
REMARK    3  A    between atoms: C_15  and  C_3 
REMARK    4  A    between atoms: O_16  and  C_8 
REMARK    5  A    between atoms: C_21  and  O_16 
ROOT
ATOM      1  N   UNL d   1       0.950  -0.609   0.042  0.00  0.00    -0.260 N 
ATOM      2  C   UNL d   1      -0.324   1.210  -0.183  0.00  0.00     0.081 A 
ATOM      3  C   UNL d   1       1.008   0.788  -0.097  0.00  0.00     0.055 A 
ATOM      4  N   UNL d   1      -0.336  -1.030   0.182  0.00  0.00    -0.304 N 
ATOM      5  HN  UNL d   1      -0.657  -1.975   0.394  1.00  0.00     0.186 HD
ATOM      6  C   UNL d   1      -1.085   0.046  -0.016  0.00  0.00     0.127 A 
ENDROOT
BRANCH   1   7
ATOM      7  C   UNL d   1       1.967  -1.619   0.039  0.00  0.00     0.059 A 
ATOM      8  C   UNL d   1       1.658  -2.891   0.558  0.00  0.00     0.055 A 
ATOM      9  C   UNL d   1       2.595  -3.926   0.511  0.00  0.00     0.037 A 
ATOM     10 CL   UNL d   1       2.201  -5.469   1.163  0.00  0.00    -0.084 Cl
ATOM     11  C   UNL d   1       3.844  -3.725  -0.066  0.00  0.00     0.048 A 
ATOM     12  C   UNL d   1       4.153  -2.473  -0.580  0.00  0.00     0.037 A 
ATOM     13  C   UNL d   1       3.231  -1.423  -0.524  0.00  0.00     0.055 A 
ATOM     14 CL   UNL d   1       5.681  -2.212  -1.330  0.00  0.00    -0.084 Cl
ENDBRANCH   1   7
BRANCH   3  15
ATOM     15  C   UNL d   1       2.281   1.609  -0.040  0.00  0.00     0.031 C 
ATOM     16  C   UNL d   1       2.748   2.001  -1.444  0.00  0.00     0.016 C 
ATOM     17  C   UNL d   1       2.179   2.862   0.841  0.00  0.00     0.016 C 
ENDBRANCH   3  15
BRANCH   2  18
ATOM     18  C   UNL d   1      -0.839   2.558  -0.305  0.00  0.00     0.296 C 
ATOM     19  O   UNL d   1      -0.275   3.452  -0.925  0.00  0.00    -0.259 OA
BRANCH  18  20
ATOM     20  O   UNL d   1      -1.963   2.726   0.449  0.00  0.00    -0.318 OA
BRANCH  20  21
ATOM     21  C   UNL d   1      -2.230   4.071   0.870  0.00  0.00     0.174 C 
ATOM     22  C   UNL d   1      -1.625   4.255   2.252  0.00  0.00     0.034 C 
ENDBRANCH  20  21
ENDBRANCH  18  20
ENDBRANCH   2  18
TORSDOF 5
