REMARK  2 active torsions:
REMARK  status: ('A' for Active; 'I' for Inactive)
REMARK    1  A    between atoms: C_7  and  C_2 
REMARK    2  A    between atoms: O_8  and  C_6 
ROOT
ATOM      1  N   UNL d   1       0.559   1.132  -0.233  0.00  0.00     0.102 N 
ATOM      2  C   UNL d   1       1.844   0.732  -0.835  0.00  0.00     0.256 C 
ATOM      3  C   UNL d   1      -0.335   0.060   0.224  0.00  0.00     0.161 C 
ATOM      4  C   UNL d   1       2.588  -0.233   0.098  0.00  0.00     0.072 C 
ATOM      5  C   UNL d   1       0.417  -0.947   1.116  0.00  0.00     0.073 C 
ATOM      6  C   UNL d   1       1.726  -1.422   0.506  0.00  0.00     0.123 C 
ATOM      7  C   UNL d   1      -1.077  -0.609  -0.960  0.00  0.00     0.041 C 
ATOM      8  C   UNL d   1      -1.478   0.687   1.078  0.00  0.00     0.041 C 
ATOM      9  C   UNL d   1      -2.765   0.506   0.286  0.00  0.00     0.003 C 
ATOM     10  C   UNL d   1      -2.521  -0.765  -0.503  0.00  0.00     0.003 C 
ATOM     11  H   UNL d   1       0.062   1.764  -0.858  0.00  0.00     0.317 HD
ENDROOT
BRANCH   2  12
ATOM     12  C   UNL d   1       1.764   0.345  -2.312  0.00  0.00    -0.025 A 
ATOM     13  C   UNL d   1       1.288   1.287  -3.244  0.00  0.00     0.009 A 
ATOM     14  C   UNL d   1       1.259   1.005  -4.614  0.00  0.00     0.001 A 
ATOM     15  C   UNL d   1       1.713  -0.223  -5.085  0.00  0.00     0.000 A 
ATOM     16  C   UNL d   1       2.197  -1.167  -4.185  0.00  0.00     0.001 A 
ATOM     17  C   UNL d   1       2.228  -0.882  -2.816  0.00  0.00     0.009 A 
ENDBRANCH   2  12
BRANCH   6  18
ATOM     18  O   UNL d   1       2.438  -2.220   1.454  0.00  0.00    -0.395 OA
ATOM     19  H   UNL d   1       2.631  -1.661   2.226  0.00  0.00     0.210 HD
ENDBRANCH   6  18
TORSDOF 2
