REMARK  3 active torsions:
REMARK  status: ('A' for Active; 'I' for Inactive)
REMARK    1  A    between atoms: C_9  and  C_3 
REMARK    2  A    between atoms: C_10  and  C_6 
REMARK    3  A    between atoms: N_8  and  C_10 
ROOT
ATOM      1  N   UNL d   1      -0.623  -0.595  -0.996  0.00  0.00    -0.321 N 
ATOM      2  HN  UNL d   1      -0.629  -0.921  -1.962  1.00  0.00     0.169 HD
ATOM      3  C   UNL d   1      -1.339   0.439  -0.429  0.00  0.00     0.137 A 
ATOM      4  N   UNL d   1      -1.054   0.652   0.867  0.00  0.00    -0.242 N 
ATOM      5  HN  UNL d   1      -1.433   1.369   1.485  1.00  0.00     0.196 HD
ATOM      6  C   UNL d   1       0.069  -1.053   0.022  0.00  0.00     0.177 A 
ATOM      7  O   UNL d   1      -0.118  -0.340   1.169  0.00  0.00    -0.221 OA
ENDROOT
BRANCH   3   8
ATOM      8  C   UNL d   1      -2.383   1.135  -1.174  0.00  0.00     0.010 A 
ATOM      9  C   UNL d   1      -2.482   0.963  -2.563  0.00  0.00     0.017 A 
ATOM     10  C   UNL d   1      -3.529   1.544  -3.283  0.00  0.00     0.025 A 
ATOM     11  C   UNL d   1      -4.486   2.305  -2.618  0.00  0.00     0.034 A 
ATOM     12  C   UNL d   1      -4.395   2.500  -1.240  0.00  0.00     0.025 A 
ATOM     13 CL   UNL d   1      -5.798   2.988  -3.494  0.00  0.00    -0.084 Cl
ATOM     14  C   UNL d   1      -3.345   1.922  -0.520  0.00  0.00     0.017 A 
ENDBRANCH   3   8
BRANCH   6  15
ATOM     15  C   UNL d   1       0.872  -2.305   0.110  0.00  0.00     0.358 C 
BRANCH  15  16
ATOM     16  N   UNL d   1       2.339  -2.125   0.125  0.00  0.00     0.100 N 
ATOM     17  C   UNL d   1       2.866  -1.501  -1.111  0.00  0.00     0.299 C 
ATOM     18  C   UNL d   1       2.840  -2.417  -2.347  0.00  0.00     0.198 C 
ATOM     19  O   UNL d   1       3.523  -3.652  -2.098  0.00  0.00    -0.388 OA
ATOM     20  C   UNL d   1       2.972  -4.328  -0.964  0.00  0.00     0.198 C 
ATOM     21  C   UNL d   1       3.013  -3.437   0.292  0.00  0.00     0.299 C 
ENDBRANCH  15  16
ENDBRANCH   6  15
TORSDOF 3
