REMARK  2 active torsions:
REMARK  status: ('A' for Active; 'I' for Inactive)
REMARK    1  A    between atoms: C_11  and  C_6 
REMARK    2  A    between atoms: O_19  and  C_14 
ROOT
ATOM      1  C   UNL d   1       1.281   0.336  -0.017  0.00  0.00     0.058 C 
ATOM      2  C   UNL d   1      -1.285   0.357  -0.026  0.00  0.00     0.058 C 
ATOM      3  N   UNL d   1      -0.017  -1.649  -0.056  0.00  0.00    -0.361 N 
ATOM      4  C   UNL d   1      -1.240  -0.996  -0.010  0.00  0.00     0.023 C 
ATOM      5  C   UNL d   1       1.212  -1.014   0.008  0.00  0.00     0.023 C 
ATOM      6  C   UNL d   1       0.006   1.170  -0.170  0.00  0.00     0.110 C 
ATOM      7  C   UNL d   1      -2.514   1.079   0.072  0.00  0.00     0.098 C 
ATOM      8  C   UNL d   1       2.527   1.026   0.073  0.00  0.00     0.098 C 
ATOM      9  N   UNL d   1       3.542   1.582   0.154  0.00  0.00    -0.192 NA
ATOM     10  N   UNL d   1      -3.511   1.661   0.168  0.00  0.00    -0.192 NA
ATOM     11  C   UNL d   1       2.434  -1.896   0.093  0.00  0.00     0.069 C 
ATOM     12  C   UNL d   1      -2.455  -1.891   0.042  0.00  0.00     0.069 C 
ATOM     13  H   UNL d   1      -0.028  -2.666  -0.006  0.00  0.00     0.165 HD
ENDROOT
BRANCH   6  14
ATOM     14  C   UNL d   1       0.022   1.906  -1.513  0.00  0.00    -0.044 A 
ATOM     15  C   UNL d   1       0.094   3.306  -1.561  0.00  0.00     0.011 A 
ATOM     16  C   UNL d   1       0.134   3.963  -2.792  0.00  0.00     0.037 A 
ATOM     17  C   UNL d   1       0.103   3.229  -3.973  0.00  0.00     0.065 A 
ATOM     18  C   UNL d   1       0.025   1.843  -3.948  0.00  0.00     0.037 A 
ATOM     19  C   UNL d   1      -0.015   1.184  -2.721  0.00  0.00     0.011 A 
BRANCH  17  20
ATOM     20  O   UNL d   1       0.157   3.912  -5.151  0.00  0.00    -0.361 OA
ATOM     21  H   UNL d   1       0.159   3.269  -5.879  0.00  0.00     0.217 HD
ENDBRANCH  17  20
ENDBRANCH   6  14
TORSDOF 2
