REMARK  6 active torsions:
REMARK  status: ('A' for Active; 'I' for Inactive)
REMARK    1  A    between atoms: N_4  and  C_1 
REMARK    2  A    between atoms: N_6  and  C_1 
REMARK       I    between atoms: C_2  and  N_5 
REMARK    3  A    between atoms: O_7  and  C_2 
REMARK    4  A    between atoms: C_3  and  C_8 
REMARK    5  A    between atoms: C_13  and  N_6 
REMARK    6  A    between atoms: C_15  and  O_7 
ROOT
ATOM      1  C   UNL d   1      -2.467   3.863   2.255  0.00  0.00     0.363 C 
ATOM      2  N   UNL d   1       0.338   0.992   0.885  0.00  0.00    -0.356 N 
ATOM      3  N   UNL d   1      -1.948   2.883   1.413  0.00  0.00    -0.326 N 
ATOM      4  O   UNL d   1      -2.651   5.020   1.906  0.00  0.00    -0.238 OA
ATOM      5  C   UNL d   1      -0.712   0.724   1.881  0.00  0.00     0.145 C 
ATOM      6  C   UNL d   1      -2.049   1.446   1.688  0.00  0.00     0.148 C 
ATOM      7  C   UNL d   1      -0.022   3.219  -0.180  0.00  0.00     0.040 C 
ATOM      8  C   UNL d   1       0.809   2.376   0.776  0.00  0.00     0.127 C 
ATOM      9  C   UNL d   1      -1.531   3.247   0.064  0.00  0.00     0.129 C 
ENDROOT
BRANCH   2  10
ATOM     10  C   UNL d   1       0.846  -0.003   0.083  0.00  0.00     0.174 C 
ATOM     11  S   UNL d   1      -0.119  -0.913  -0.944  0.00  0.00    -0.041 SA
BRANCH  10  12
ATOM     12  N   UNL d   1       2.196  -0.226   0.052  0.00  0.00    -0.333 N 
ATOM     13  H   UNL d   1       2.481  -0.807  -0.729  0.00  0.00     0.168 HD
BRANCH  12  14
ATOM     14  C   UNL d   1       3.209   0.074   0.996  0.00  0.00     0.035 A 
ATOM     15  C   UNL d   1       2.950   0.572   2.268  0.00  0.00     0.045 A 
ATOM     16  C   UNL d   1       3.984   0.961   3.135  0.00  0.00     0.050 A 
ATOM     17  C   UNL d   1       5.306   0.745   2.741  0.00  0.00     0.016 A 
ATOM     18  C   UNL d   1       5.584   0.166   1.501  0.00  0.00     0.003 A 
ATOM     19  C   UNL d   1       4.538  -0.163   0.631  0.00  0.00     0.029 A 
BRANCH  16  20
ATOM     20  C   UNL d   1       3.652   1.632   4.443  0.00  0.00     0.417 C 
ATOM     21  F   UNL d   1       2.318   1.843   4.628  0.00  0.00    -0.166 F 
ATOM     22  F   UNL d   1       4.073   0.923   5.525  0.00  0.00    -0.166 F 
ATOM     23  F   UNL d   1       4.234   2.861   4.551  0.00  0.00    -0.166 F 
ENDBRANCH  16  20
ENDBRANCH  12  14
ENDBRANCH  10  12
ENDBRANCH   2  10
BRANCH   1  24
ATOM     24  O   UNL d   1      -2.757   3.392   3.499  0.00  0.00    -0.294 OA
BRANCH  24  25
ATOM     25  C   UNL d   1      -3.501   4.197   4.460  0.00  0.00     0.061 C 
ATOM     26  C   UNL d   1      -4.945   4.390   3.977  0.00  0.00     0.046 C 
ATOM     27  C   UNL d   1      -3.508   3.362   5.753  0.00  0.00     0.046 C 
ATOM     28  C   UNL d   1      -2.840   5.546   4.778  0.00  0.00     0.046 C 
ENDBRANCH  24  25
ENDBRANCH   1  24
TORSDOF 6
