REMARK  7 active torsions:
REMARK  status: ('A' for Active; 'I' for Inactive)
REMARK    1  A    between atoms: N_4  and  C_1 
REMARK    2  A    between atoms: C_9  and  C_2 
REMARK    3  A    between atoms: O_14  and  C_3 
REMARK       I    between atoms: C_6  and  N_4 
REMARK    4  A    between atoms: O_15  and  C_5 
REMARK    5  A    between atoms: C_10  and  C_6 
REMARK    6  A    between atoms: O_18  and  C_8 
REMARK    7  A    between atoms: O_17  and  C_9 
ROOT
ATOM      1  C   UNL d   1       1.243  -0.321   0.350  0.00  0.00     0.088 C 
ATOM      2  C   UNL d   1       0.357  -1.094  -0.420  0.00  0.00     0.071 C 
ATOM      3  C   UNL d   1       0.954   1.044   0.526  0.00  0.00     0.132 C 
ATOM      4  C   UNL d   1      -0.333   1.551   0.243  0.00  0.00     0.137 C 
ATOM      5  C   UNL d   1      -0.920  -0.589  -0.706  0.00  0.00     0.059 C 
ATOM      6  C   UNL d   1      -1.297   0.700  -0.313  0.00  0.00     0.105 C 
ENDROOT
BRANCH   1   7
ATOM      7  N   UNL d   1       2.432  -0.897   0.835  0.00  0.00    -0.320 N 
ATOM      8  C   UNL d   1       2.983  -0.992   2.100  0.00  0.00     0.256 C 
ATOM      9  O   UNL d   1       4.089  -1.540   2.161  0.00  0.00    -0.267 OA
ATOM     10  H   UNL d   1       2.833  -1.632   0.245  0.00  0.00     0.169 HD
BRANCH   8  11
ATOM     11  C   UNL d   1       2.319  -0.652   3.407  0.00  0.00     0.035 A 
ATOM     12  C   UNL d   1       1.269   0.236   3.625  0.00  0.00     0.059 A 
ATOM     13  C   UNL d   1       0.793   0.484   4.915  0.00  0.00     0.117 A 
ATOM     14  F   UNL d   1      -0.195   1.373   5.086  0.00  0.00    -0.206 F 
ATOM     15  C   UNL d   1       1.321  -0.161   6.022  0.00  0.00     0.042 A 
ATOM     16  C   UNL d   1       2.348  -1.075   5.836  0.00  0.00     0.004 A 
ATOM     17  C   UNL d   1       2.839  -1.311   4.547  0.00  0.00     0.017 A 
ENDBRANCH   8  11
ENDBRANCH   1   7
BRANCH   2  18
ATOM     18  C   UNL d   1       0.796  -2.399  -0.987  0.00  0.00     0.295 C 
ATOM     19  O   UNL d   1       1.969  -2.729  -1.060  0.00  0.00    -0.259 OA
BRANCH  18  20
ATOM     20  O   UNL d   1      -0.259  -3.100  -1.474  0.00  0.00    -0.322 OA
ATOM     21  C   UNL d   1       0.100  -4.254  -2.235  0.00  0.00     0.213 C 
ENDBRANCH  18  20
ENDBRANCH   2  18
BRANCH   3  22
ATOM     22  O   UNL d   1       1.906   1.907   1.022  0.00  0.00    -0.351 OA
ATOM     23  C   UNL d   1       3.070   1.982   0.189  0.00  0.00     0.210 C 
ENDBRANCH   3  22
BRANCH   4  24
ATOM     24  O   UNL d   1      -0.692   2.832   0.572  0.00  0.00    -0.351 OA
ATOM     25  C   UNL d   1       0.118   3.844  -0.018  0.00  0.00     0.210 C 
ENDBRANCH   4  24
BRANCH   6  26
ATOM     26  O   UNL d   1      -2.603   0.977  -0.616  0.00  0.00    -0.353 OA
ATOM     27  C   UNL d   1      -3.226   2.075   0.038  0.00  0.00     0.210 C 
ENDBRANCH   6  26
TORSDOF 7
