REMARK  2 active torsions:
REMARK  status: ('A' for Active; 'I' for Inactive)
REMARK    1  A    between atoms: C_2  and  S_1 
REMARK    2  A    between atoms: N_10  and  S_1 
ROOT
ATOM      1  C   UNL d   1       0.377   1.521   0.825  0.00  0.00     0.097 A 
ATOM      2  C   UNL d   1       0.889   2.725   0.317  0.00  0.00     0.052 A 
ATOM      3  C   UNL d   1      -0.473   1.532   1.934  0.00  0.00     0.058 A 
ATOM      4  C   UNL d   1      -0.813   2.753   2.529  0.00  0.00     0.051 A 
ATOM      5  C   UNL d   1       0.545   3.940   0.914  0.00  0.00     0.057 A 
ATOM      6  C   UNL d   1      -0.308   3.954   2.023  0.00  0.00     0.057 A 
ATOM      7 CL   UNL d   1      -1.164   0.114   2.638  0.00  0.00    -0.083 Cl
ATOM      8 CL   UNL d   1       1.205   5.384   0.237  0.00  0.00    -0.083 Cl
ATOM      9 CL   UNL d   1      -0.777   5.417   2.813  0.00  0.00    -0.082 Cl
ENDROOT
BRANCH   1  10
ATOM     10  S   UNL d   1       0.867   0.012   0.050  0.00  0.00     0.241 S 
ATOM     11  O   UNL d   1       1.417  -0.871   1.047  0.00  0.00    -0.206 OA
ATOM     12  O   UNL d   1       1.578   0.326  -1.168  0.00  0.00    -0.206 OA
BRANCH  10  13
ATOM     13  N   UNL d   1      -0.591  -0.645  -0.457  0.00  0.00    -0.225 NA
ATOM     14  H   UNL d   1      -0.828  -1.457   0.115  0.00  0.00     0.136 HD
ATOM     15  H   UNL d   1      -0.553  -0.845  -1.458  0.00  0.00     0.136 HD
ENDBRANCH  10  13
ENDBRANCH   1  10
TORSDOF 2
