REMARK  0 active torsions:
REMARK  status: ('A' for Active; 'I' for Inactive)
ROOT
ATOM      1  C   UNL d   1      -1.944  -0.015  -0.674  0.00  0.00     0.137 C 
ATOM      2  C   UNL d   1       1.883   0.012  -0.769  0.00  0.00     0.137 C 
ATOM      3  C   UNL d   1       1.274  -1.292  -0.244  0.00  0.00     0.161 C 
ATOM      4  C   UNL d   1      -1.224   1.288  -0.326  0.00  0.00     0.161 C 
ATOM      5  C   UNL d   1       0.005   1.231   0.567  0.00  0.00     0.061 C 
ATOM      6  C   UNL d   1      -0.001  -1.224   0.586  0.00  0.00     0.061 C 
ATOM      7  C   UNL d   1      -1.238  -1.333  -0.317  0.00  0.00     0.053 C 
ATOM      8  C   UNL d   1       1.287   1.337  -0.266  0.00  0.00     0.053 C 
ATOM      9  C   UNL d   1      -0.002   0.009   1.457  0.00  0.00     0.024 C 
ATOM     10  O   UNL d   1      -1.591   2.395  -0.738  0.00  0.00    -0.295 OA
ATOM     11  O   UNL d   1       1.720  -2.406  -0.535  0.00  0.00    -0.295 OA
ATOM     12 BR   UNL d   1      -3.653   0.089   0.302  0.00  0.00    -0.064 Br
ATOM     13 BR   UNL d   1      -2.264   0.028  -2.613  0.00  0.00    -0.064 Br
ATOM     14 BR   UNL d   1       1.696  -0.078  -2.723  0.00  0.00    -0.064 Br
ATOM     15 BR   UNL d   1       3.785  -0.058  -0.256  0.00  0.00    -0.064 Br
ENDROOT
TORSDOF 0
