REMARK  6 active torsions:
REMARK  status: ('A' for Active; 'I' for Inactive)
REMARK    1  A    between atoms: N_5  and  S_1 
REMARK    2  A    between atoms: C_10  and  S_1 
REMARK    3  A    between atoms: C_4  and  C_2 
REMARK    4  A    between atoms: C_3  and  N_5 
REMARK       I    between atoms: N_9  and  C_4 
REMARK    5  A    between atoms: C_16  and  N_9 
REMARK    6  A    between atoms: O_25  and  C_17 
ROOT
ATOM      1  C   UNL d   1       2.016  -2.650   0.217  0.00  0.00     0.067 C 
ATOM      2  C   UNL d   1       0.643  -2.172   0.138  0.00  0.00     0.046 C 
ATOM      3  S   UNL d   1       0.462  -4.733   0.259  0.00  0.00    -0.104 SA
ATOM      4  C   UNL d   1      -0.267  -3.204   0.252  0.00  0.00     0.075 C 
ATOM      5  C   UNL d   1       2.031  -4.050   0.208  0.00  0.00    -0.004 C 
ATOM      6  C   UNL d   1       3.185  -5.010   0.212  0.00  0.00     0.057 C 
ENDROOT
BRANCH   1   7
ATOM      7  C   UNL d   1       3.272  -1.875   0.377  0.00  0.00     0.259 C 
ATOM      8  N   UNL d   1       3.205  -0.531   0.072  0.00  0.00    -0.323 N 
ATOM      9  H   UNL d   1       2.316  -0.171  -0.255  0.00  0.00     0.169 HD
ATOM     10  O   UNL d   1       4.281  -2.424   0.810  0.00  0.00    -0.267 OA
BRANCH   8  11
ATOM     11  C   UNL d   1       4.206   0.441   0.296  0.00  0.00     0.035 A 
ATOM     12  C   UNL d   1       5.529   0.141   0.633  0.00  0.00     0.032 A 
ATOM     13  C   UNL d   1       6.432   1.160   0.958  0.00  0.00     0.039 A 
ATOM     14  C   UNL d   1       6.014   2.488   0.959  0.00  0.00     0.068 A 
ATOM     15  C   UNL d   1       4.724   2.802   0.540  0.00  0.00     0.039 A 
ATOM     16  C   UNL d   1       3.825   1.784   0.206  0.00  0.00     0.032 A 
BRANCH  14  17
ATOM     17  O   UNL d   1       6.806   3.541   1.326  0.00  0.00    -0.356 OA
ATOM     18  C   UNL d   1       7.620   3.273   2.466  0.00  0.00     0.210 C 
ENDBRANCH  14  17
ENDBRANCH   8  11
ENDBRANCH   1   7
BRANCH   2  19
ATOM     19  N   UNL d   1       0.218  -0.827   0.091  0.00  0.00    -0.180 NA
ATOM     20  H   UNL d   1      -0.624  -0.635   0.644  0.00  0.00     0.146 HD
BRANCH  19  21
ATOM     21  S   UNL d   1      -0.049  -0.035  -1.399  0.00  0.00     0.245 S 
ATOM     22  O   UNL d   1       1.228   0.502  -1.810  0.00  0.00    -0.206 OA
ATOM     23  O   UNL d   1      -1.190   0.831  -1.170  0.00  0.00    -0.206 OA
BRANCH  21  24
ATOM     24  C   UNL d   1      -0.535  -1.287  -2.560  0.00  0.00     0.074 A 
ATOM     25  C   UNL d   1      -1.888  -1.493  -2.841  0.00  0.00     0.025 A 
ATOM     26  C   UNL d   1      -2.258  -2.452  -3.788  0.00  0.00     0.008 A 
ATOM     27  C   UNL d   1      -1.282  -3.208  -4.452  0.00  0.00    -0.062 A 
ATOM     28  C   UNL d   1       0.071  -2.955  -4.197  0.00  0.00     0.008 A 
ATOM     29  C   UNL d   1      -1.684  -4.234  -5.473  0.00  0.00     0.048 C 
ATOM     30  C   UNL d   1       0.450  -1.994  -3.256  0.00  0.00     0.025 A 
ENDBRANCH  21  24
ENDBRANCH  19  21
ENDBRANCH   2  19
TORSDOF 6
