REMARK  7 active torsions:
REMARK  status: ('A' for Active; 'I' for Inactive)
REMARK    1  A    between atoms: C_2  and  C_1 
REMARK    2  A    between atoms: O_8  and  C_1 
REMARK    3  A    between atoms: C_3  and  C_4 
REMARK       I    between atoms: N_12  and  C_3 
REMARK    4  A    between atoms: C_4  and  C_7 
REMARK    5  A    between atoms: N_5  and  O_8 
REMARK    6  A    between atoms: N_21  and  C_7 
REMARK    7  A    between atoms: C_13  and  N_12 
ROOT
ATOM      1  N   UNL d   1      -1.765  -2.885  -0.378  0.00  0.00    -0.245 N 
ATOM      2  HN  UNL d   1      -1.579  -3.880  -0.508  1.00  0.00     0.196 HD
ATOM      3  C   UNL d   1      -1.677  -2.297   0.778  0.00  0.00     0.104 C 
ENDROOT
BRANCH   3   4
ATOM      4  C   UNL d   1      -1.008  -3.101   1.874  0.00  0.00     0.180 C 
BRANCH   4   5
ATOM      5  C   UNL d   1       0.498  -2.944   2.020  0.00  0.00     0.229 C 
ATOM      6  N   UNL d   1       1.184  -2.467   0.919  0.00  0.00    -0.327 N 
ATOM      7  H   UNL d   1       0.633  -2.093   0.145  0.00  0.00     0.169 HD
ATOM      8  O   UNL d   1       1.023  -3.296   3.078  0.00  0.00    -0.273 OA
BRANCH   6   9
ATOM      9  C   UNL d   1       2.586  -2.381   0.739  0.00  0.00     0.036 A 
ATOM     10  C   UNL d   1       3.528  -2.842   1.663  0.00  0.00     0.056 A 
ATOM     11  C   UNL d   1       4.896  -2.744   1.383  0.00  0.00     0.074 A 
ATOM     12 CL   UNL d   1       6.041  -3.326   2.532  0.00  0.00    -0.081 Cl
ATOM     13  C   UNL d   1       5.329  -2.186   0.183  0.00  0.00     0.138 A 
ATOM     14  C   UNL d   1       4.408  -1.719  -0.744  0.00  0.00     0.046 A 
ATOM     15  F   UNL d   1       6.635  -2.093  -0.103  0.00  0.00    -0.204 F 
ATOM     16  C   UNL d   1       3.043  -1.817  -0.463  0.00  0.00     0.032 A 
ENDBRANCH   6   9
ENDBRANCH   4   5
ENDBRANCH   3   4
BRANCH   3  17
ATOM     17  N   UNL d   1      -2.071  -1.017   1.071  0.00  0.00    -0.387 N 
ATOM     18  H   UNL d   1      -2.140  -0.741   2.046  0.00  0.00     0.157 HD
ATOM     19  H   UNL d   1      -2.778  -0.608   0.472  0.00  0.00     0.157 HD
ENDBRANCH   3  17
BRANCH   1  20
ATOM     20  O   UNL d   1      -2.143  -2.026  -1.447  0.00  0.00    -0.193 OA
BRANCH  20  21
ATOM     21  C   UNL d   1      -1.012  -1.390  -1.921  0.00  0.00     0.322 C 
ATOM     22  O   UNL d   1      -0.048  -1.110  -1.206  0.00  0.00    -0.257 OA
BRANCH  21  23
ATOM     23  C   UNL d   1      -1.059  -1.165  -3.350  0.00  0.00     0.082 A 
ATOM     24  S   UNL d   1       0.120  -0.110  -4.023  0.00  0.00    -0.096 SA
ATOM     25  C   UNL d   1      -0.362  -0.466  -5.617  0.00  0.00     0.050 A 
ATOM     26  C   UNL d   1      -1.430  -1.335  -5.648  0.00  0.00     0.009 A 
ATOM     27  C   UNL d   1      -1.854  -1.721  -4.337  0.00  0.00     0.026 A 
ENDBRANCH  21  23
ENDBRANCH  20  21
ENDBRANCH   1  20
TORSDOF 7
