REMARK  1 active torsions:
REMARK  status: ('A' for Active; 'I' for Inactive)
REMARK    1  A    between atoms: C_4  and  N_1 
ROOT
ATOM      1  N   UNL d   1       2.474  -0.004   0.189  0.00  0.00    -0.251 N 
ATOM      2  C   UNL d   1       1.691  -1.127  -0.020  0.00  0.00     0.236 C 
ATOM      3  C   UNL d   1       1.712   1.156   0.241  0.00  0.00     0.236 C 
ATOM      4  C   UNL d   1       0.316  -0.617  -0.331  0.00  0.00     0.092 C 
ATOM      5  C   UNL d   1       0.294   0.693   0.433  0.00  0.00     0.092 C 
ATOM      6  C   UNL d   1      -0.857   1.549  -0.054  0.00  0.00     0.015 C 
ATOM      7  O   UNL d   1       2.022  -2.302  -0.040  0.00  0.00    -0.272 OA
ATOM      8  O   UNL d   1       2.066   2.319   0.173  0.00  0.00    -0.272 OA
ATOM      9  C   UNL d   1      -0.902  -1.442   0.029  0.00  0.00     0.019 C 
ATOM     10  C   UNL d   1      -2.174   0.787   0.186  0.00  0.00     0.005 C 
ATOM     11  C   UNL d   1      -2.184  -0.664  -0.357  0.00  0.00    -0.018 C 
ATOM     12  C   UNL d   1      -2.401  -0.674  -1.875  0.00  0.00     0.010 C 
ENDROOT
BRANCH   1  13
ATOM     13  C   UNL d   1       3.886  -0.011   0.126  0.00  0.00     0.054 A 
ATOM     14  C   UNL d   1       4.505  -0.705  -0.926  0.00  0.00     0.073 A 
ATOM     15  C   UNL d   1       5.884  -0.662  -1.076  0.00  0.00     0.118 A 
ATOM     16  F   UNL d   1       6.455  -1.288  -2.115  0.00  0.00    -0.206 F 
ATOM     17  C   UNL d   1       6.679   0.035  -0.180  0.00  0.00     0.043 A 
ATOM     18  C   UNL d   1       6.082   0.694   0.893  0.00  0.00     0.012 A 
ATOM     19  C   UNL d   1       4.683   0.677   1.065  0.00  0.00    -0.034 A 
ATOM     20  C   UNL d   1       4.140   1.327   2.310  0.00  0.00     0.050 C 
ENDBRANCH   1  13
TORSDOF 1
