REMARK  7 active torsions:
REMARK  status: ('A' for Active; 'I' for Inactive)
REMARK    1  A    between atoms: C_2  and  C_1 
REMARK    2  A    between atoms: C_3  and  C_1 
REMARK    3  A    between atoms: C_4  and  C_1 
REMARK    4  A    between atoms: C_7  and  C_2 
REMARK    5  A    between atoms: C_5  and  C_3 
REMARK    6  A    between atoms: C_8  and  C_5 
REMARK    7  A    between atoms: S_20  and  C_18 
ROOT
ATOM      1  C   UNL d   1       1.084   0.135   0.221  0.00  0.00     0.107 C 
ENDROOT
BRANCH   1   2
ATOM      2  C   UNL d   1       0.819  -0.265   1.692  0.00  0.00     0.169 C 
ATOM      3  O   UNL d   1       1.228  -1.357   2.112  0.00  0.00    -0.292 OA
BRANCH   2   4
ATOM      4  C   UNL d   1       0.078   0.589   2.670  0.00  0.00     0.011 A 
ATOM      5  C   UNL d   1      -0.585  -0.051   3.730  0.00  0.00     0.016 A 
ATOM      6  C   UNL d   1      -1.286   0.683   4.698  0.00  0.00     0.019 A 
ATOM      7  C   UNL d   1      -1.355   2.074   4.614  0.00  0.00    -0.000 A 
ATOM      8  C   UNL d   1      -0.669   2.712   3.574  0.00  0.00     0.019 A 
ATOM      9  C   UNL d   1       0.061   1.981   2.627  0.00  0.00     0.016 A 
BRANCH   7  10
ATOM     10  S   UNL d   1      -2.198   3.118   5.792  0.00  0.00    -0.134 SA
ATOM     11  C   UNL d   1      -3.497   2.028   6.431  0.00  0.00     0.095 C 
ENDBRANCH   7  10
ENDBRANCH   2   4
ENDBRANCH   1   2
BRANCH   1  12
ATOM     12  C   UNL d   1       0.329   1.279  -0.478  0.00  0.00     0.101 C 
BRANCH  12  13
ATOM     13  C   UNL d   1      -1.176   1.111  -0.411  0.00  0.00     0.160 C 
ATOM     14  O   UNL d   1      -1.683   0.109   0.085  0.00  0.00    -0.292 OA
BRANCH  13  15
ATOM     15  C   UNL d   1      -2.068   2.166  -0.985  0.00  0.00     0.010 A 
ATOM     16  C   UNL d   1      -1.595   3.345  -1.574  0.00  0.00     0.017 A 
ATOM     17  C   UNL d   1      -2.499   4.266  -2.124  0.00  0.00     0.025 A 
ATOM     18  C   UNL d   1      -3.871   4.013  -2.085  0.00  0.00     0.034 A 
ATOM     19  C   UNL d   1      -4.351   2.853  -1.487  0.00  0.00     0.025 A 
ATOM     20 CL   UNL d   1      -4.972   5.131  -2.785  0.00  0.00    -0.084 Cl
ATOM     21  C   UNL d   1      -3.453   1.935  -0.937  0.00  0.00     0.017 A 
ENDBRANCH  13  15
ENDBRANCH  12  13
ENDBRANCH   1  12
BRANCH   1  22
ATOM     22  C   UNL d   1       2.583   0.273   0.012  0.00  0.00    -0.006 A 
ATOM     23  S   UNL d   1       3.494   1.486   0.815  0.00  0.00    -0.106 SA
ATOM     24  C   UNL d   1       4.945   0.992   0.059  0.00  0.00     0.050 A 
ATOM     25  C   UNL d   1       4.750  -0.075  -0.787  0.00  0.00     0.008 A 
ATOM     26  C   UNL d   1       3.390  -0.496  -0.807  0.00  0.00     0.016 A 
ENDBRANCH   1  22
TORSDOF 7
