REMARK  3 active torsions:
REMARK  status: ('A' for Active; 'I' for Inactive)
REMARK    1  A    between atoms: C_6  and  N_1 
REMARK    2  A    between atoms: C_9  and  C_6 
REMARK    3  A    between atoms: O_15  and  C_10 
ROOT
ATOM      1  C   UNL d   1      -1.413   2.907   0.038  0.00  0.00    -0.040 A 
ATOM      2  C   UNL d   1      -4.001   4.008   0.209  0.00  0.00     0.068 A 
ATOM      3  C   UNL d   1      -2.227   2.650   1.149  0.00  0.00     0.011 A 
ATOM      4  C   UNL d   1      -1.906   3.729  -0.983  0.00  0.00     0.011 A 
ATOM      5  C   UNL d   1      -3.511   3.202   1.236  0.00  0.00     0.037 A 
ATOM      6  C   UNL d   1      -3.188   4.275  -0.894  0.00  0.00     0.037 A 
ENDROOT
BRANCH   1   7
ATOM      7  C   UNL d   1      -0.049   2.270  -0.076  0.00  0.00     0.174 C 
BRANCH   7   8
ATOM      8  N   UNL d   1      -0.100   1.011  -0.784  0.00  0.00    -0.277 N 
ATOM      9  C   UNL d   1      -0.207  -0.205  -0.198  0.00  0.00     0.250 A 
ATOM     10  C   UNL d   1      -0.198  -1.204  -1.274  0.00  0.00     0.080 A 
ATOM     11  O   UNL d   1      -0.282  -0.486   0.984  0.00  0.00    -0.268 OA
ATOM     12  C   UNL d   1      -0.100  -0.550  -2.432  0.00  0.00     0.080 A 
ATOM     13  C   UNL d   1      -0.034   0.883  -2.131  0.00  0.00     0.250 A 
ATOM     14  O   UNL d   1       0.081   1.747  -2.981  0.00  0.00    -0.268 OA
ENDBRANCH   7   8
ENDBRANCH   1   7
BRANCH   2  15
ATOM     15  O   UNL d   1      -5.244   4.578   0.160  0.00  0.00    -0.356 OA
ATOM     16  C   UNL d   1      -6.127   4.278   1.232  0.00  0.00     0.210 C 
ENDBRANCH   2  15
TORSDOF 3
