REMARK  19 active torsions:
REMARK  status: ('A' for Active; 'I' for Inactive)
REMARK       I    between atoms: N_2  and  C_1 
REMARK    1  A    between atoms: O_5  and  C_1 
REMARK    2  A    between atoms: C_3  and  O_9 
REMARK       I    between atoms: N_14  and  C_3 
REMARK    3  A    between atoms: C_4  and  O_20 
REMARK       I    between atoms: N_15  and  C_4 
REMARK    4  A    between atoms: C_17  and  O_5 
REMARK    5  A    between atoms: O_9  and  C_18 
REMARK    6  A    between atoms: C_26  and  N_14 
REMARK    7  A    between atoms: C_27  and  N_15 
REMARK    8  A    between atoms: O_16  and  C_19 
REMARK    9  A    between atoms: C_21  and  O_16 
REMARK   10  A    between atoms: O_20  and  C_28 
REMARK   11  A    between atoms: C_31  and  C_26 
REMARK   12  A    between atoms: C_32  and  C_27 
REMARK   13  A    between atoms: C_28  and  C_33 
REMARK   14  A    between atoms: C_37  and  C_31 
REMARK   15  A    between atoms: C_36  and  C_32 
REMARK   16  A    between atoms: C_33  and  C_38 
REMARK   17  A    between atoms: C_34  and  C_35 
REMARK   18  A    between atoms: C_35  and  C_36 
REMARK   19  A    between atoms: C_38  and  C_37 
ROOT
ATOM      1  C   UNL d   1      -4.865   2.187  -6.681  0.00  0.00     0.368 C 
ATOM      2  N   UNL d   1      -4.429   2.775  -5.502  0.00  0.00    -0.328 N 
ATOM      3  O   UNL d   1      -6.040   2.169  -7.032  0.00  0.00    -0.238 OA
ATOM      4  C   UNL d   1      -5.366   3.520  -4.677  0.00  0.00     0.130 C 
ATOM      5  C   UNL d   1      -3.030   2.902  -5.114  0.00  0.00     0.130 C 
ATOM      6  C   UNL d   1      -2.840   2.475  -3.663  0.00  0.00     0.053 C 
ATOM      7  C   UNL d   1      -5.262   3.067  -3.226  0.00  0.00     0.053 C 
ATOM      8  C   UNL d   1      -3.823   3.162  -2.698  0.00  0.00     0.136 C 
ENDROOT
BRANCH   8   9
ATOM      9  O   UNL d   1      -3.519   4.560  -2.482  0.00  0.00    -0.299 OA
BRANCH   9  10
ATOM     10  C   UNL d   1      -2.401   4.817  -1.753  0.00  0.00     0.360 C 
ATOM     11  O   UNL d   1      -1.609   3.978  -1.349  0.00  0.00    -0.239 OA
ATOM     12  N   UNL d   1      -2.189   6.149  -1.523  0.00  0.00    -0.337 N 
ATOM     13  H   UNL d   1      -1.307   6.291  -1.050  0.00  0.00     0.164 HD
BRANCH  12  14
ATOM     14  C   UNL d   1      -3.253   7.064  -1.159  0.00  0.00     0.125 C 
BRANCH  14  15
ATOM     15  C   UNL d   1      -3.006   8.484  -1.664  0.00  0.00     0.020 C 
BRANCH  15  16
ATOM     16  C   UNL d   1      -3.059   8.560  -3.192  0.00  0.00     0.002 C 
BRANCH  16  17
ATOM     17  C   UNL d   1      -2.866   9.990  -3.704  0.00  0.00     0.002 C 
BRANCH  17  18
ATOM     18  C   UNL d   1      -2.888  10.030  -5.234  0.00  0.00     0.027 C 
BRANCH  18  19
ATOM     19  C   UNL d   1      -2.605  11.438  -5.777  0.00  0.00     0.180 C 
BRANCH  19  20
ATOM     20  O   UNL d   1      -2.593  11.493  -7.218  0.00  0.00    -0.304 OA
BRANCH  20  21
ATOM     21  C   UNL d   1      -1.565  10.847  -7.815  0.00  0.00     0.360 C 
ATOM     22  O   UNL d   1      -0.664  10.250  -7.233  0.00  0.00    -0.239 OA
ATOM     23  N   UNL d   1      -1.638  10.826  -9.176  0.00  0.00    -0.337 N 
ATOM     24  H   UNL d   1      -0.957  10.179  -9.548  0.00  0.00     0.164 HD
BRANCH  23  25
ATOM     25  C   UNL d   1      -1.880  12.002  -9.984  0.00  0.00     0.125 C 
BRANCH  25  26
ATOM     26  C   UNL d   1      -0.571  12.742 -10.306  0.00  0.00     0.020 C 
BRANCH  26  27
ATOM     27  C   UNL d   1       0.435  11.874 -11.082  0.00  0.00     0.002 C 
BRANCH  27  28
ATOM     28  C   UNL d   1       1.722  12.635 -11.413  0.00  0.00    -0.000 C 
BRANCH  28  29
ATOM     29  C   UNL d   1       2.726  11.739 -12.144  0.00  0.00    -0.005 C 
ATOM     30  C   UNL d   1       4.014  12.481 -12.464  0.00  0.00     0.005 C 
ENDBRANCH  28  29
ENDBRANCH  27  28
ENDBRANCH  26  27
ENDBRANCH  25  26
ENDBRANCH  23  25
ENDBRANCH  20  21
ENDBRANCH  19  20
ENDBRANCH  18  19
ENDBRANCH  17  18
ENDBRANCH  16  17
ENDBRANCH  15  16
ENDBRANCH  14  15
ENDBRANCH  12  14
ENDBRANCH   9  10
ENDBRANCH   8   9
BRANCH   1  31
ATOM     31  O   UNL d   1      -3.820   1.630  -7.418  0.00  0.00    -0.261 OA
BRANCH  31  32
ATOM     32  C   UNL d   1      -3.794   1.529  -8.830  0.00  0.00     0.081 C 
ATOM     33  C   UNL d   1      -2.558   1.145  -9.355  0.00  0.00     0.040 C 
ATOM     34  C   UNL d   1      -2.324   1.254 -10.724  0.00  0.00     0.040 C 
ATOM     35  C   UNL d   1      -3.309   1.797 -11.552  0.00  0.00     0.076 C 
ATOM     36  C   UNL d   1      -4.583   2.054 -11.044  0.00  0.00     0.040 C 
ATOM     37  C   UNL d   1      -4.829   1.922  -9.675  0.00  0.00     0.040 C 
BRANCH  35  38
ATOM     38  O   UNL d   1      -3.086   2.103 -12.876  0.00  0.00    -0.311 OA
BRANCH  38  39
ATOM     39  C   UNL d   1      -1.905   2.738 -13.211  0.00  0.00     0.076 A 
ATOM     40  C   UNL d   1      -1.434   2.510 -14.505  0.00  0.00     0.037 A 
ATOM     41  C   UNL d   1      -0.221   3.065 -14.918  0.00  0.00     0.003 A 
ATOM     42  C   UNL d   1       0.522   3.854 -14.041  0.00  0.00     0.000 A 
ATOM     43  C   UNL d   1       0.033   4.125 -12.765  0.00  0.00     0.003 A 
ATOM     44  C   UNL d   1      -1.192   3.592 -12.360  0.00  0.00     0.037 A 
ENDBRANCH  38  39
ENDBRANCH  35  38
ENDBRANCH  31  32
ENDBRANCH   1  31
TORSDOF 19
