REMARK  20 active torsions:
REMARK  status: ('A' for Active; 'I' for Inactive)
REMARK    1  A    between atoms: C_2  and  C_1 
REMARK    2  A    between atoms: C_3  and  C_1 
REMARK    3  A    between atoms: O_4  and  C_1 
REMARK    4  A    between atoms: C_5  and  C_1 
REMARK    5  A    between atoms: C_12  and  C_5 
REMARK    6  A    between atoms: C_26  and  C_12 
REMARK    7  A    between atoms: C_13  and  C_14 
REMARK    8  A    between atoms: C_14  and  C_25 
REMARK    9  A    between atoms: C_15  and  C_27 
REMARK   10  A    between atoms: C_16  and  C_15 
REMARK   11  A    between atoms: C_17  and  C_16 
REMARK   12  A    between atoms: C_18  and  C_17 
REMARK   13  A    between atoms: C_19  and  C_18 
REMARK   14  A    between atoms: C_20  and  C_19 
REMARK   15  A    between atoms: C_21  and  C_20 
REMARK   16  A    between atoms: C_22  and  C_21 
REMARK   17  A    between atoms: C_23  and  C_22 
REMARK   18  A    between atoms: C_24  and  C_23 
REMARK   19  A    between atoms: C_25  and  C_24 
REMARK   20  A    between atoms: C_27  and  C_26 
ROOT
ATOM      1  C   UNL d   1       5.197  -1.756   2.078  0.00  0.00     0.000 C 
ENDROOT
BRANCH   1   2
ATOM      2  C   UNL d   1       6.696  -1.827   2.164  0.00  0.00     0.000 C 
BRANCH   2   3
ATOM      3  C   UNL d   1       7.097  -2.754   3.296  0.00  0.00     0.000 C 
BRANCH   3   4
ATOM      4  C   UNL d   1       8.607  -2.795   3.351  0.00  0.00     0.000 C 
BRANCH   4   5
ATOM      5  C   UNL d   1       9.079  -3.700   4.466  0.00  0.00     0.000 C 
BRANCH   5   6
ATOM      6  C   UNL d   1      10.595  -3.702   4.471  0.00  0.00     0.000 C 
BRANCH   6   7
ATOM      7  C   UNL d   1      11.103  -4.603   5.574  0.00  0.00     0.000 C 
BRANCH   7   8
ATOM      8  C   UNL d   1      12.619  -4.602   5.570  0.00  0.00     0.000 C 
BRANCH   8   9
ATOM      9  C   UNL d   1      13.131  -5.500   6.681  0.00  0.00     0.000 C 
BRANCH   9  10
ATOM     10  C   UNL d   1      14.648  -5.501   6.682  0.00  0.00     0.000 C 
BRANCH  10  11
ATOM     11  C   UNL d   1      15.162  -6.398   7.795  0.00  0.00     0.000 C 
BRANCH  11  12
ATOM     12  C   UNL d   1      16.687  -6.407   7.804  0.00  0.00     0.000 C 
BRANCH  12  13
ATOM     13  C   UNL d   1      17.207  -7.306   8.924  0.00  0.00    -0.000 C 
BRANCH  13  14
ATOM     14  C   UNL d   1      18.724  -7.318   8.935  0.00  0.00    -0.005 C 
ATOM     15  C   UNL d   1      19.247  -8.214  10.051  0.00  0.00     0.005 C 
ENDBRANCH  13  14
ENDBRANCH  12  13
ENDBRANCH  11  12
ENDBRANCH  10  11
ENDBRANCH   9  10
ENDBRANCH   8   9
ENDBRANCH   7   8
ENDBRANCH   6   7
ENDBRANCH   5   6
ENDBRANCH   4   5
ENDBRANCH   3   4
ENDBRANCH   2   3
ENDBRANCH   1   2
BRANCH   1  16
ATOM     16  C   UNL d   1       4.746  -0.832   0.949  0.00  0.00     0.000 C 
BRANCH  16  17
ATOM     17  C   UNL d   1       3.246  -0.986   0.912  0.00  0.00     0.003 C 
BRANCH  17  18
ATOM     18  C   UNL d   1       2.471  -0.101  -0.013  0.00  0.00     0.039 C 
BRANCH  18  19
ATOM     19  C   UNL d   1       0.892  -0.202   0.152  0.00  0.00     0.071 C 
BRANCH  19  20
ATOM     20  C   UNL d   1       0.349  -1.730  -0.092  0.00  0.00    -0.019 C 
ATOM     21  C   UNL d   1      -1.173  -1.811  -0.372  0.00  0.00     0.017 C 
ATOM     22  C   UNL d   1       0.997  -2.334  -1.379  0.00  0.00     0.017 C 
ATOM     23  C   UNL d   1       0.576  -2.748   1.054  0.00  0.00     0.017 C 
ENDBRANCH  19  20
BRANCH  19  24
ATOM     24  C   UNL d   1       0.342   0.652   1.438  0.00  0.00    -0.019 C 
ATOM     25  C   UNL d   1       0.613   0.056   2.837  0.00  0.00     0.017 C 
ATOM     26  C   UNL d   1       0.975   2.079   1.469  0.00  0.00     0.017 C 
ATOM     27  C   UNL d   1      -1.182   0.914   1.393  0.00  0.00     0.017 C 
ENDBRANCH  19  24
BRANCH  19  28
ATOM     28  O   UNL d   1       0.494   0.561  -1.026  0.00  0.00    -0.388 OA
ATOM     29  H   UNL d   1      -0.468   0.575  -1.076  0.00  0.00     0.210 HD
ENDBRANCH  19  28
ENDBRANCH  18  19
ENDBRANCH  17  18
ENDBRANCH  16  17
ENDBRANCH   1  16
TORSDOF 20
