REMARK  2 active torsions:
REMARK  status: ('A' for Active; 'I' for Inactive)
REMARK    1  A    between atoms: C_6  and  C_4 
REMARK    2  A    between atoms: C_7  and  C_5 
ROOT
ATOM      1  C   UNL d   1      -0.605  -1.372   1.418  0.00  0.00     0.017 C 
ATOM      2  C   UNL d   1      -0.790   1.099   1.671  0.00  0.00     0.017 C 
ATOM      3  C   UNL d   1      -0.298  -0.178   2.252  0.00  0.00     0.188 C 
ATOM      4  C   UNL d   1      -0.949  -2.486   2.090  0.00  0.00     0.032 C 
ATOM      5  C   UNL d   1      -1.339   1.967   2.538  0.00  0.00     0.032 C 
ATOM      6  O   UNL d   1      -1.306   0.022  -0.397  0.00  0.00    -0.382 OA
ATOM      7  O   UNL d   1       0.243  -0.247   3.348  0.00  0.00    -0.287 OA
ATOM      8  C   UNL d   1      -0.722   1.188   0.181  0.00  0.00     0.210 C 
ATOM      9  C   UNL d   1      -0.571  -1.154  -0.060  0.00  0.00     0.210 C 
ENDROOT
BRANCH   4  10
ATOM     10  C   UNL d   1      -1.411  -3.654   1.430  0.00  0.00     0.005 A 
ATOM     11  S   UNL d   1      -0.315  -4.897   0.982  0.00  0.00    -0.102 SA
ATOM     12  C   UNL d   1      -1.569  -5.864   0.336  0.00  0.00     0.050 A 
ATOM     13  C   UNL d   1      -2.801  -5.264   0.458  0.00  0.00     0.008 A 
ATOM     14  C   UNL d   1      -2.708  -3.990   1.091  0.00  0.00     0.019 A 
ENDBRANCH   4  10
BRANCH   5  15
ATOM     15  C   UNL d   1      -2.092   3.081   2.085  0.00  0.00     0.005 A 
ATOM     16  S   UNL d   1      -1.353   4.591   1.748  0.00  0.00    -0.102 SA
ATOM     17  C   UNL d   1      -2.836   5.276   1.236  0.00  0.00     0.050 A 
ATOM     18  C   UNL d   1      -3.884   4.392   1.354  0.00  0.00     0.008 A 
ATOM     19  C   UNL d   1      -3.456   3.132   1.857  0.00  0.00     0.019 A 
ENDBRANCH   5  15
TORSDOF 2
