REMARK  4 active torsions:
REMARK  status: ('A' for Active; 'I' for Inactive)
REMARK    1  A    between atoms: C_2  and  C_1 
REMARK       I    between atoms: N_11  and  C_2 
REMARK    2  A    between atoms: N_15  and  C_3 
REMARK    3  A    between atoms: N_6  and  N_11 
REMARK    4  A    between atoms: C_10  and  C_14 
ROOT
ATOM      1  C   UNL d   1      -0.505  -2.622   0.049  0.00  0.00     0.289 C 
ATOM      2  N   UNL d   1       0.306  -3.754   0.009  0.00  0.00    -0.265 N 
ATOM      3  O   UNL d   1      -0.079  -1.476   0.196  0.00  0.00    -0.264 OA
ATOM      4  H   UNL d   1      -0.115  -4.677  -0.056  0.00  0.00     0.190 HD
ENDROOT
BRANCH   1   5
ATOM      5  C   UNL d   1      -1.972  -2.884  -0.046  0.00  0.00     0.140 A 
ATOM      6  C   UNL d   1      -2.882  -1.811  -0.103  0.00  0.00     0.110 A 
ATOM      7  N   UNL d   1      -4.215  -2.037  -0.084  0.00  0.00    -0.354 N 
ATOM      8  C   UNL d   1      -4.606  -3.329  -0.018  0.00  0.00     0.106 A 
ATOM      9  HN  UNL d   1      -4.890  -1.272  -0.118  1.00  0.00     0.166 HD
ATOM     10  C   UNL d   1      -3.706  -4.381   0.023  0.00  0.00     0.105 A 
ATOM     11  N   UNL d   1      -2.364  -4.197   0.017  0.00  0.00    -0.357 N 
ATOM     12  HN  UNL d   1      -1.700  -4.971   0.056  1.00  0.00     0.165 HD
BRANCH   6  13
ATOM     13  N   UNL d   1      -2.519  -0.484  -0.305  0.00  0.00    -0.287 NA
ATOM     14  H   UNL d   1      -1.658  -0.231   0.182  0.00  0.00     0.125 HD
ATOM     15  H   UNL d   1      -3.308   0.133  -0.154  0.00  0.00     0.125 HD
ENDBRANCH   6  13
ENDBRANCH   1   5
BRANCH   2  16
ATOM     16  N   UNL d   1       1.650  -3.578   0.111  0.00  0.00    -0.308 N 
ATOM     17  C   UNL d   1       2.406  -4.627   0.121  0.00  0.00     0.121 C 
ATOM     18  HN  UNL d   1       2.052  -2.643   0.177  1.00  0.00     0.186 HD
BRANCH  17  19
ATOM     19  C   UNL d   1       3.872  -4.470   0.230  0.00  0.00     0.019 A 
ATOM     20  C   UNL d   1       4.691  -5.595   0.245  0.00  0.00     0.128 A 
ATOM     21  F   UNL d   1       4.165  -6.825   0.157  0.00  0.00    -0.205 F 
ATOM     22  C   UNL d   1       6.076  -5.462   0.351  0.00  0.00     0.043 A 
ATOM     23  C   UNL d   1       6.647  -4.190   0.444  0.00  0.00     0.003 A 
ATOM     24  C   UNL d   1       5.832  -3.058   0.427  0.00  0.00     0.001 A 
ATOM     25  C   UNL d   1       4.447  -3.195   0.321  0.00  0.00     0.016 A 
ENDBRANCH  17  19
ENDBRANCH   2  16
TORSDOF 4
