REMARK  2 active torsions:
REMARK  status: ('A' for Active; 'I' for Inactive)
REMARK    1  A    between atoms: C_12  and  N_4 
REMARK    2  A    between atoms: C_14  and  C_15 
ROOT
ATOM      1  C   UNL d   1       0.607  -0.852  -0.721  0.00  0.00     0.139 A 
ATOM      2  C   UNL d   1       1.935  -0.264  -0.751  0.00  0.00     0.296 A 
ATOM      3  C   UNL d   1      -0.482  -0.205  -0.122  0.00  0.00     0.053 A 
ATOM      4  N   UNL d   1       1.976   1.002  -0.103  0.00  0.00    -0.219 N 
ATOM      5  N   UNL d   1       0.865   1.621   0.508  0.00  0.00    -0.294 N 
ATOM      6  HN  UNL d   1       0.991   2.518   0.976  1.00  0.00     0.187 HD
ATOM      7  N   UNL d   1       0.258  -2.038  -1.232  0.00  0.00    -0.255 N 
ATOM      8  HN  UNL d   1       0.859  -2.704  -1.718  1.00  0.00     0.195 HD
ATOM      9  C   UNL d   1      -0.317   1.077   0.489  0.00  0.00     0.037 A 
ATOM     10  O   UNL d   1      -1.095  -2.168  -0.961  0.00  0.00    -0.241 OA
ATOM     11  C   UNL d   1      -1.541  -1.062  -0.294  0.00  0.00     0.087 A 
ATOM     12  O   UNL d   1       2.886  -0.845  -1.262  0.00  0.00    -0.264 OA
ATOM     13  C   UNL d   1      -1.468   1.824   1.099  0.00  0.00     0.070 C 
ATOM     14  C   UNL d   1      -2.973  -1.081   0.053  0.00  0.00     0.080 C 
ENDROOT
BRANCH   4  15
ATOM     15  C   UNL d   1       3.162   1.808  -0.049  0.00  0.00     0.060 A 
ATOM     16  C   UNL d   1       4.192   1.696  -0.986  0.00  0.00     0.032 A 
ATOM     17  C   UNL d   1       5.324   2.524  -0.923  0.00  0.00     0.010 A 
ATOM     18  C   UNL d   1       5.484   3.481   0.094  0.00  0.00    -0.051 A 
ATOM     19  C   UNL d   1       4.452   3.580   1.036  0.00  0.00     0.010 A 
ATOM     20  C   UNL d   1       3.309   2.772   0.957  0.00  0.00     0.032 A 
BRANCH  18  21
ATOM     21  C   UNL d   1       6.743   4.363   0.145  0.00  0.00    -0.024 C 
ATOM     22  C   UNL d   1       6.755   5.340   1.343  0.00  0.00     0.019 C 
ATOM     23  C   UNL d   1       8.000   3.475   0.260  0.00  0.00     0.019 C 
ATOM     24  C   UNL d   1       6.846   5.214  -1.139  0.00  0.00     0.019 C 
ENDBRANCH  18  21
ENDBRANCH   4  15
TORSDOF 2
