REMARK  12 active torsions:
REMARK  status: ('A' for Active; 'I' for Inactive)
REMARK    1  A    between atoms: N_4  and  C_1 
REMARK    2  A    between atoms: N_5  and  C_1 
REMARK    3  A    between atoms: C_2  and  N_3 
REMARK    4  A    between atoms: N_6  and  C_2 
REMARK    5  A    between atoms: C_19  and  N_5 
REMARK    6  A    between atoms: C_20  and  N_6 
REMARK    7  A    between atoms: C_7  and  C_12 
REMARK    8  A    between atoms: O_26  and  C_7 
REMARK    9  A    between atoms: C_8  and  C_11 
REMARK   10  A    between atoms: O_25  and  C_8 
REMARK   11  A    between atoms: C_31  and  O_25 
REMARK   12  A    between atoms: C_32  and  O_26 
ROOT
ATOM      1  N   UNL d   1      -0.284   1.457  -3.647  0.00  0.00    -0.355 N 
ATOM      2  N   UNL d   1       0.306  -0.048  -1.292  0.00  0.00    -0.355 N 
ATOM      3  C   UNL d   1      -0.935   0.733  -1.358  0.00  0.00     0.145 C 
ATOM      4  C   UNL d   1       0.937   0.624  -3.620  0.00  0.00     0.145 C 
ATOM      5  C   UNL d   1       0.832  -0.505  -2.586  0.00  0.00     0.145 C 
ATOM      6  C   UNL d   1      -0.766   1.901  -2.333  0.00  0.00     0.145 C 
ENDROOT
BRANCH   1   7
ATOM      7  C   UNL d   1      -0.969   1.726  -4.806  0.00  0.00     0.174 C 
ATOM      8  S   UNL d   1      -2.608   1.404  -4.994  0.00  0.00    -0.041 SA
BRANCH   7   9
ATOM      9  N   UNL d   1      -0.290   2.209  -5.889  0.00  0.00    -0.333 N 
ATOM     10  H   UNL d   1      -0.818   2.142  -6.754  0.00  0.00     0.168 HD
BRANCH   9  11
ATOM     11  C   UNL d   1       0.917   2.932  -5.954  0.00  0.00     0.034 C 
ATOM     12  C   UNL d   1       1.549   3.467  -4.831  0.00  0.00     0.030 C 
ATOM     13  C   UNL d   1       2.814   4.039  -4.926  0.00  0.00     0.020 C 
ATOM     14  C   UNL d   1       3.441   4.144  -6.165  0.00  0.00     0.039 C 
ATOM     15  C   UNL d   1       2.758   3.734  -7.318  0.00  0.00     0.020 C 
ATOM     16  C   UNL d   1       1.498   3.133  -7.208  0.00  0.00     0.030 C 
BRANCH  14  17
ATOM     17  C   UNL d   1       4.806   4.720  -6.185  0.00  0.00     0.293 C 
ATOM     18  O   UNL d   1       5.385   5.106  -5.182  0.00  0.00    -0.259 OA
BRANCH  17  19
ATOM     19  O   UNL d   1       5.272   4.792  -7.454  0.00  0.00    -0.318 OA
BRANCH  19  20
ATOM     20  C   UNL d   1       6.463   5.573  -7.604  0.00  0.00     0.174 C 
ATOM     21  C   UNL d   1       6.062   7.031  -7.763  0.00  0.00     0.034 C 
ENDBRANCH  19  20
ENDBRANCH  17  19
ENDBRANCH  14  17
ENDBRANCH   9  11
ENDBRANCH   7   9
ENDBRANCH   1   7
BRANCH   2  22
ATOM     22  C   UNL d   1       0.955  -0.207  -0.082  0.00  0.00     0.174 C 
ATOM     23  S   UNL d   1       2.553   0.199   0.180  0.00  0.00    -0.041 SA
BRANCH  22  24
ATOM     24  N   UNL d   1       0.169  -0.620   0.966  0.00  0.00    -0.333 N 
ATOM     25  H   UNL d   1       0.521  -0.386   1.895  0.00  0.00     0.168 HD
BRANCH  24  26
ATOM     26  C   UNL d   1      -0.774  -1.673   0.921  0.00  0.00     0.034 A 
ATOM     27  C   UNL d   1      -0.798  -2.592  -0.132  0.00  0.00     0.030 A 
ATOM     28  C   UNL d   1      -1.676  -3.675  -0.121  0.00  0.00     0.020 A 
ATOM     29  C   UNL d   1      -2.542  -3.864   0.960  0.00  0.00     0.039 A 
ATOM     30  C   UNL d   1      -2.530  -2.941   2.015  0.00  0.00     0.020 A 
ATOM     31  C   UNL d   1      -1.641  -1.859   2.000  0.00  0.00     0.030 A 
BRANCH  29  32
ATOM     32  C   UNL d   1      -3.388  -5.082   1.073  0.00  0.00     0.293 C 
ATOM     33  O   UNL d   1      -4.096  -5.328   2.037  0.00  0.00    -0.259 OA
BRANCH  32  34
ATOM     34  O   UNL d   1      -3.142  -5.902   0.023  0.00  0.00    -0.318 OA
BRANCH  34  35
ATOM     35  C   UNL d   1      -3.497  -7.278   0.200  0.00  0.00     0.174 C 
ATOM     36  C   UNL d   1      -2.318  -7.993   0.840  0.00  0.00     0.034 C 
ENDBRANCH  34  35
ENDBRANCH  32  34
ENDBRANCH  29  32
ENDBRANCH  24  26
ENDBRANCH  22  24
ENDBRANCH   2  22
TORSDOF 12
