REMARK  6 active torsions:
REMARK  status: ('A' for Active; 'I' for Inactive)
REMARK    1  A    between atoms: O_6  and  N_1 
REMARK    2  A    between atoms: C_10  and  C_3 
REMARK    3  A    between atoms: N_21  and  C_3 
REMARK    4  A    between atoms: C_4  and  O_6 
REMARK    5  A    between atoms: C_5  and  C_4 
REMARK    6  A    between atoms: C_11  and  C_12 
ROOT
ATOM      1  N   UNL d   1       1.005   0.264  -0.068  0.00  0.00    -0.246 N 
ATOM      2  HN  UNL d   1       1.999   0.467   0.032  1.00  0.00     0.196 HD
ATOM      3  C   UNL d   1       0.298  -0.335   0.843  0.00  0.00     0.109 C 
ENDROOT
BRANCH   1   4
ATOM      4  O   UNL d   1       0.243   0.604  -1.221  0.00  0.00    -0.193 OA
BRANCH   4   5
ATOM      5  C   UNL d   1       1.079   1.182  -2.143  0.00  0.00     0.315 C 
ATOM      6  O   UNL d   1       2.279   1.384  -2.015  0.00  0.00    -0.257 OA
BRANCH   5   7
ATOM      7  C   UNL d   1       0.368   1.596  -3.393  0.00  0.00     0.042 A 
ATOM      8  C   UNL d   1       1.144   2.234  -4.384  0.00  0.00     0.027 A 
ATOM      9  C   UNL d   1       0.530   2.676  -5.545  0.00  0.00    -0.022 A 
ATOM     10  C   UNL d   1       1.115   3.336  -6.733  0.00  0.00     0.068 C 
ATOM     11  C   UNL d   1      -0.821   2.472  -5.748  0.00  0.00     0.075 A 
ATOM     12  C   UNL d   1      -0.177   3.772  -7.427  0.00  0.00     0.180 C 
ATOM     13  O   UNL d   1      -1.272   2.950  -6.951  0.00  0.00    -0.350 OA
ATOM     14  C   UNL d   1      -1.608   1.827  -4.812  0.00  0.00     0.038 A 
ATOM     15  C   UNL d   1      -1.008   1.392  -3.618  0.00  0.00     0.020 A 
ENDBRANCH   5   7
ENDBRANCH   4   5
ENDBRANCH   1   4
BRANCH   3  16
ATOM     16  C   UNL d   1       0.981  -0.768   2.112  0.00  0.00     0.004 A 
ATOM     17  C   UNL d   1       2.090  -0.081   2.610  0.00  0.00     0.015 A 
ATOM     18  C   UNL d   1       2.694  -0.485   3.815  0.00  0.00     0.009 A 
ATOM     19  C   UNL d   1       2.223  -1.596   4.543  0.00  0.00    -0.051 A 
ATOM     20  C   UNL d   1       1.111  -2.275   4.013  0.00  0.00     0.009 A 
ATOM     21  C   UNL d   1       0.499  -1.871   2.818  0.00  0.00     0.015 A 
BRANCH  19  22
ATOM     22  C   UNL d   1       2.925  -2.060   5.838  0.00  0.00    -0.024 C 
ATOM     23  C   UNL d   1       2.274  -3.317   6.462  0.00  0.00     0.019 C 
ATOM     24  C   UNL d   1       4.401  -2.407   5.542  0.00  0.00     0.019 C 
ATOM     25  C   UNL d   1       2.891  -0.956   6.916  0.00  0.00     0.019 C 
ENDBRANCH  19  22
ENDBRANCH   3  16
BRANCH   3  26
ATOM     26  N   UNL d   1      -1.053  -0.576   0.721  0.00  0.00    -0.286 NA
ATOM     27  H   UNL d   1      -1.477  -0.011  -0.004  0.00  0.00     0.125 HD
ATOM     28  H   UNL d   1      -1.574  -0.543   1.591  0.00  0.00     0.125 HD
ENDBRANCH   3  26
TORSDOF 6
