REMARK  2 active torsions:
REMARK  status: ('A' for Active; 'I' for Inactive)
REMARK    1  A    between atoms: N_8  and  C_1 
REMARK       I    between atoms: C_9  and  N_8 
REMARK    2  A    between atoms: C_10  and  C_9 
ROOT
ATOM      1  N   UNL d   1       3.272   1.250   0.134  0.00  0.00    -0.303 N 
ATOM      2  C   UNL d   1       4.569   0.759   0.046  0.00  0.00     0.259 C 
ATOM      3  O   UNL d   1       4.921  -0.382   0.320  0.00  0.00    -0.267 OA
ATOM      4  H   UNL d   1       3.140   2.242  -0.015  0.00  0.00     0.171 HD
ENDROOT
BRANCH   1   5
ATOM      5  C   UNL d   1       2.049   0.619   0.303  0.00  0.00     0.155 C 
ATOM      6  S   UNL d   1       2.054  -1.109   0.469  0.00  0.00    -0.010 SA
ATOM      7  C   UNL d   1       0.483  -1.464  -0.209  0.00  0.00     0.235 C 
ATOM      8  O   UNL d   1       0.289  -2.510  -0.816  0.00  0.00    -0.279 OA
ATOM      9  C   UNL d   1      -0.491  -0.466   0.089  0.00  0.00     0.089 A 
ATOM     10  C   UNL d   1      -0.231   0.846   0.376  0.00  0.00     0.056 A 
ATOM     11  S   UNL d   1      -2.161  -0.804   0.116  0.00  0.00    -0.095 SA
ATOM     12  N   UNL d   1       1.036   1.426   0.309  0.00  0.00    -0.335 N 
ATOM     13  C   UNL d   1      -1.400   1.593   0.663  0.00  0.00     0.038 A 
ATOM     14  HN  UNL d   1       1.159   2.438   0.266  1.00  0.00     0.168 HD
ATOM     15  C   UNL d   1      -2.531   0.808   0.572  0.00  0.00     0.053 A 
ENDBRANCH   1   5
BRANCH   2  16
ATOM     16  C   UNL d   1       5.608   1.701  -0.461  0.00  0.00     0.054 A 
ATOM     17  C   UNL d   1       5.638   3.082  -0.216  0.00  0.00     0.052 A 
ATOM     18  C   UNL d   1       6.644   3.873  -0.782  0.00  0.00     0.067 A 
ATOM     19 CL   UNL d   1       4.499   3.890   0.801  0.00  0.00    -0.083 Cl
ATOM     20  C   UNL d   1       7.622   3.285  -1.576  0.00  0.00     0.118 A 
ATOM     21  C   UNL d   1       7.627   1.918  -1.810  0.00  0.00     0.043 A 
ATOM     22  F   UNL d   1       8.576   4.051  -2.120  0.00  0.00    -0.206 F 
ATOM     23  C   UNL d   1       6.624   1.126  -1.251  0.00  0.00     0.022 A 
ENDBRANCH   2  16
TORSDOF 2
