REMARK  5 active torsions:
REMARK  status: ('A' for Active; 'I' for Inactive)
REMARK    1  A    between atoms: C_8  and  C_3 
REMARK    2  A    between atoms: C_12  and  C_4 
REMARK    3  A    between atoms: C_22  and  C_11 
REMARK    4  A    between atoms: O_23  and  C_19 
REMARK    5  A    between atoms: C_25  and  C_22 
ROOT
ATOM      1  N   UNL d   1       0.341   0.671  -0.021  0.00  0.00    -0.202 N 
ATOM      2  C   UNL d   1       0.316  -0.708   0.014  0.00  0.00     0.144 A 
ATOM      3  C   UNL d   1       2.402   0.069  -0.053  0.00  0.00     0.147 A 
ATOM      4  C   UNL d   1       1.629  -1.144   0.013  0.00  0.00     0.053 A 
ATOM      5  N   UNL d   1       1.603   1.159  -0.057  0.00  0.00    -0.284 N 
ATOM      6  HN  UNL d   1       1.889   2.138  -0.082  1.00  0.00     0.187 HD
ATOM      7  C   UNL d   1      -0.797   1.493  -0.016  0.00  0.00     0.270 A 
ATOM      8  N   UNL d   1      -0.895  -1.318   0.053  0.00  0.00    -0.344 N 
ATOM      9  C   UNL d   1      -2.087   0.747   0.006  0.00  0.00     0.101 A 
ATOM     10  C   UNL d   1      -2.084  -0.599   0.038  0.00  0.00     0.016 A 
ATOM     11  O   UNL d   1      -0.728   2.716  -0.033  0.00  0.00    -0.266 OA
ATOM     12  H   UNL d   1      -0.981  -2.329   0.138  0.00  0.00     0.167 HD
ENDROOT
BRANCH   4  13
ATOM     13  C   UNL d   1       2.021  -2.549   0.075  0.00  0.00    -0.020 A 
ATOM     14  C   UNL d   1       1.318  -3.530  -0.642  0.00  0.00     0.015 A 
ATOM     15  C   UNL d   1       1.667  -4.884  -0.553  0.00  0.00     0.037 A 
ATOM     16  C   UNL d   1       2.755  -5.272   0.224  0.00  0.00     0.068 A 
ATOM     17  C   UNL d   1       3.490  -4.303   0.903  0.00  0.00     0.037 A 
ATOM     18  C   UNL d   1       3.107  -2.958   0.858  0.00  0.00     0.015 A 
BRANCH  16  19
ATOM     19  O   UNL d   1       3.220  -6.553   0.329  0.00  0.00    -0.356 OA
ATOM     20  C   UNL d   1       2.213  -7.560   0.362  0.00  0.00     0.210 C 
ENDBRANCH  16  19
ENDBRANCH   4  13
BRANCH   3  21
ATOM     21  C   UNL d   1       3.901   0.242  -0.117  0.00  0.00     0.434 C 
ATOM     22  F   UNL d   1       4.576  -0.920  -0.322  0.00  0.00    -0.165 F 
ATOM     23  F   UNL d   1       4.283   1.072  -1.125  0.00  0.00    -0.165 F 
ATOM     24  F   UNL d   1       4.396   0.768   1.037  0.00  0.00    -0.165 F 
ENDBRANCH   3  21
BRANCH  10  25
ATOM     25  C   UNL d   1      -3.382  -1.380   0.030  0.00  0.00     0.057 C 
BRANCH  25  26
ATOM     26  C   UNL d   1      -3.571  -2.315   1.230  0.00  0.00     0.002 C 
ATOM     27  C   UNL d   1      -3.581  -1.587   2.565  0.00  0.00     0.005 C 
ENDBRANCH  25  26
ENDBRANCH  10  25
TORSDOF 5
