REMARK  7 active torsions:
REMARK  status: ('A' for Active; 'I' for Inactive)
REMARK    1  A    between atoms: N_4  and  S_1 
REMARK    2  A    between atoms: C_9  and  S_1 
REMARK    3  A    between atoms: C_2  and  N_5 
REMARK    4  A    between atoms: C_6  and  C_3 
REMARK       I    between atoms: N_5  and  C_7 
REMARK    5  A    between atoms: O_24  and  C_6 
REMARK    6  A    between atoms: C_7  and  C_17 
REMARK    7  A    between atoms: C_17  and  N_10 
ROOT
ATOM      1  N   UNL d   1      -0.124  -0.768  -0.119  0.00  0.00    -0.203 NA
ATOM      2  N   UNL d   1       0.262  -3.061  -2.037  0.00  0.00     0.099 N 
ATOM      3  C   UNL d   1       0.354  -2.097   0.349  0.00  0.00     0.138 C 
ATOM      4  C   UNL d   1      -1.034  -0.938  -1.285  0.00  0.00     0.138 C 
ATOM      5  C   UNL d   1       1.047  -2.876  -0.793  0.00  0.00     0.288 C 
ATOM      6  C   UNL d   1      -0.364  -1.755  -2.419  0.00  0.00     0.288 C 
ENDROOT
BRANCH   2   7
ATOM      7  C   UNL d   1      -0.749  -4.142  -1.934  0.00  0.00     0.375 C 
BRANCH   7   8
ATOM      8  C   UNL d   1      -0.194  -5.535  -1.522  0.00  0.00     0.251 C 
ATOM      9  N   UNL d   1       1.013  -5.892  -2.094  0.00  0.00    -0.319 N 
ATOM     10  H   UNL d   1       1.272  -5.410  -2.946  0.00  0.00     0.169 HD
ATOM     11  O   UNL d   1      -0.875  -6.280  -0.815  0.00  0.00    -0.271 OA
BRANCH   9  12
ATOM     12  C   UNL d   1       1.663  -7.093  -1.839  0.00  0.00     0.092 A 
ATOM     13  C   UNL d   1       1.894  -7.893  -0.727  0.00  0.00     0.073 A 
ATOM     14  C   UNL d   1       2.687  -9.048  -1.103  0.00  0.00     0.028 A 
ATOM     15  C   UNL d   1       3.013  -9.072  -2.438  0.00  0.00     0.053 A 
ATOM     16  S   UNL d   1       2.396  -7.710  -3.256  0.00  0.00    -0.083 SA
BRANCH  13  17
ATOM     17  C   UNL d   1       1.555  -7.628   0.674  0.00  0.00     0.295 C 
ATOM     18  O   UNL d   1       1.653  -8.478   1.549  0.00  0.00    -0.259 OA
BRANCH  17  19
ATOM     19  O   UNL d   1       1.277  -6.315   0.905  0.00  0.00    -0.322 OA
ATOM     20  C   UNL d   1       1.066  -5.928   2.261  0.00  0.00     0.213 C 
ENDBRANCH  17  19
ENDBRANCH  13  17
ENDBRANCH   9  12
ENDBRANCH   7   8
ENDBRANCH   2   7
BRANCH   1  21
ATOM     21  S   UNL d   1       1.043   0.476  -0.218  0.00  0.00     0.243 S 
ATOM     22  O   UNL d   1       0.521   1.523  -1.077  0.00  0.00    -0.206 OA
ATOM     23  O   UNL d   1       2.344  -0.104  -0.458  0.00  0.00    -0.206 OA
BRANCH  21  24
ATOM     24  C   UNL d   1       1.053   1.119   1.446  0.00  0.00     0.074 A 
ATOM     25  C   UNL d   1       1.860   0.524   2.420  0.00  0.00     0.025 A 
ATOM     26  C   UNL d   1       1.897   1.060   3.709  0.00  0.00     0.008 A 
ATOM     27  C   UNL d   1       1.155   2.207   4.025  0.00  0.00    -0.062 A 
ATOM     28  C   UNL d   1       0.372   2.810   3.033  0.00  0.00     0.008 A 
ATOM     29  C   UNL d   1       1.210   2.774   5.414  0.00  0.00     0.048 C 
ATOM     30  C   UNL d   1       0.322   2.271   1.744  0.00  0.00     0.025 A 
ENDBRANCH  21  24
ENDBRANCH   1  21
TORSDOF 7
