REMARK  3 active torsions:
REMARK  status: ('A' for Active; 'I' for Inactive)
REMARK    1  A    between atoms: C_4  and  C_1 
REMARK    2  A    between atoms: C_15  and  C_5 
REMARK    3  A    between atoms: C_8  and  C_12 
ROOT
ATOM      1  C   UNL d   1      -0.299  -0.525  -0.821  0.00  0.00     0.088 A 
ATOM      2  N   UNL d   1       0.642   0.360  -1.089  0.00  0.00    -0.349 N 
ATOM      3  HN  UNL d   1       0.885   0.677  -2.027  1.00  0.00     0.166 HD
ATOM      4  C   UNL d   1       1.259   0.802   0.071  0.00  0.00     0.050 A 
ATOM      5  S   UNL d   1      -0.463  -0.879   0.863  0.00  0.00    -0.081 SA
ATOM      6  C   UNL d   1       0.715   0.303   1.236  0.00  0.00     0.082 A 
ENDROOT
BRANCH   4   7
ATOM      7  C   UNL d   1       2.417   1.684   0.024  0.00  0.00    -0.008 A 
ATOM      8  C   UNL d   1       3.342   1.553  -1.022  0.00  0.00     0.022 A 
ATOM      9  C   UNL d   1       4.495   2.366  -1.124  0.00  0.00    -0.042 A 
ATOM     10  C   UNL d   1       5.470   2.140  -2.288  0.00  0.00    -0.020 C 
ATOM     11  C   UNL d   1       4.681   3.390  -0.170  0.00  0.00    -0.043 A 
ATOM     12  C   UNL d   1       6.794   2.914  -2.088  0.00  0.00     0.015 C 
ATOM     13  C   UNL d   1       4.781   2.587  -3.596  0.00  0.00     0.020 C 
ATOM     14  C   UNL d   1       5.863   0.649  -2.427  0.00  0.00     0.020 C 
ATOM     15  C   UNL d   1       6.568   4.337  -1.610  0.00  0.00     0.015 C 
ATOM     16  C   UNL d   1       5.831   4.400  -0.253  0.00  0.00    -0.020 C 
ATOM     17  C   UNL d   1       6.824   4.134   0.900  0.00  0.00     0.020 C 
ATOM     18  C   UNL d   1       5.299   5.848  -0.120  0.00  0.00     0.020 C 
ATOM     19  C   UNL d   1       3.766   3.481   0.903  0.00  0.00     0.009 A 
ATOM     20  C   UNL d   1       2.654   2.644   1.001  0.00  0.00     0.014 A 
ENDBRANCH   4   7
BRANCH   1  21
ATOM     21  C   UNL d   1      -1.078  -1.251  -1.850  0.00  0.00     0.041 A 
ATOM     22  C   UNL d   1      -0.436  -1.738  -3.014  0.00  0.00     0.049 A 
ATOM     23  C   UNL d   1      -1.149  -2.419  -4.014  0.00  0.00     0.041 A 
ATOM     24 CL   UNL d   1       1.269  -1.580  -3.302  0.00  0.00    -0.083 Cl
ATOM     25  C   UNL d   1      -2.516  -2.659  -3.892  0.00  0.00     0.051 A 
ATOM     26  C   UNL d   1      -3.169  -2.180  -2.751  0.00  0.00     0.041 A 
ATOM     27  C   UNL d   1      -2.469  -1.468  -1.760  0.00  0.00     0.049 A 
ATOM     28 CL   UNL d   1      -3.469  -0.842  -0.487  0.00  0.00    -0.083 Cl
BRANCH  25  29
ATOM     29  C   UNL d   1      -3.267  -3.399  -4.971  0.00  0.00     0.417 C 
ATOM     30  F   UNL d   1      -4.581  -3.598  -4.681  0.00  0.00    -0.166 F 
ATOM     31  F   UNL d   1      -3.239  -2.740  -6.161  0.00  0.00    -0.166 F 
ATOM     32  F   UNL d   1      -2.744  -4.633  -5.212  0.00  0.00    -0.166 F 
ENDBRANCH  25  29
ENDBRANCH   1  21
TORSDOF 3
