REMARK  1 active torsions:
REMARK  status: ('A' for Active; 'I' for Inactive)
REMARK    1  A    between atoms: C_6  and  N_1 
ROOT
ATOM      1  N   UNL d   1      -2.311  -0.056  -0.203  0.00  0.00    -0.249 N 
ATOM      2  C   UNL d   1      -1.524  -1.169  -0.018  0.00  0.00     0.236 C 
ATOM      3  C   UNL d   1      -1.552   1.089  -0.131  0.00  0.00     0.236 C 
ATOM      4  C   UNL d   1      -0.257  -0.754   0.696  0.00  0.00     0.096 C 
ATOM      5  C   UNL d   1      -0.286   0.768   0.635  0.00  0.00     0.095 C 
ATOM      6  C   UNL d   1       0.939   1.515   0.119  0.00  0.00     0.042 C 
ATOM      7  C   UNL d   1       0.977  -1.496   0.181  0.00  0.00     0.048 C 
ATOM      8  O   UNL d   1      -1.745  -2.311  -0.390  0.00  0.00    -0.272 OA
ATOM      9  O   UNL d   1      -1.836   2.217  -0.508  0.00  0.00    -0.272 OA
ATOM     10  C   UNL d   1       2.012   0.676  -0.486  0.00  0.00    -0.023 C 
ATOM     11  C   UNL d   1       2.048  -0.663  -0.457  0.00  0.00    -0.087 C 
ATOM     12  C   UNL d   1       3.220  -1.409  -1.033  0.00  0.00     0.043 C 
ENDROOT
BRANCH   1  13
ATOM     13  C   UNL d   1      -3.704  -0.105  -0.500  0.00  0.00     0.084 A 
ATOM     14  C   UNL d   1      -4.497  -1.167  -0.017  0.00  0.00     0.146 A 
ATOM     15  C   UNL d   1      -5.879  -1.199  -0.186  0.00  0.00     0.086 A 
ATOM     16  F   UNL d   1      -3.966  -2.129   0.752  0.00  0.00    -0.204 F 
ATOM     17  C   UNL d   1      -6.502  -0.149  -0.836  0.00  0.00     0.119 A 
ATOM     18  C   UNL d   1      -5.762   0.919  -1.325  0.00  0.00     0.045 A 
ATOM     19  F   UNL d   1      -7.835  -0.148  -0.967  0.00  0.00    -0.206 F 
ATOM     20  C   UNL d   1      -4.371   0.943  -1.157  0.00  0.00     0.036 A 
ENDBRANCH   1  13
TORSDOF 1
