REMARK  5 active torsions:
REMARK  status: ('A' for Active; 'I' for Inactive)
REMARK    1  A    between atoms: C_4  and  C_1 
REMARK    2  A    between atoms: N_2  and  C_3 
REMARK    3  A    between atoms: S_5  and  C_15 
REMARK    4  A    between atoms: C_8  and  S_5 
REMARK    5  A    between atoms: C_15  and  C_16 
ROOT
ATOM      1  S   UNL d   1      -2.247  -0.893  -3.822  0.00  0.00    -0.123 SA
ENDROOT
BRANCH   1   2
ATOM      2  C   UNL d   1      -2.890  -2.022  -2.540  0.00  0.00     0.118 C 
BRANCH   2   3
ATOM      3  C   UNL d   1      -4.354  -1.833  -2.223  0.00  0.00    -0.048 A 
ATOM      4  C   UNL d   1      -5.261  -2.887  -2.416  0.00  0.00     0.024 A 
ATOM      5  C   UNL d   1      -6.624  -2.734  -2.112  0.00  0.00     0.048 A 
ATOM      6  C   UNL d   1      -7.072  -1.507  -1.605  0.00  0.00     0.016 A 
ATOM      7  C   UNL d   1      -6.179  -0.456  -1.403  0.00  0.00     0.001 A 
ATOM      8  C   UNL d   1      -4.827  -0.620  -1.707  0.00  0.00     0.008 A 
BRANCH   5   9
ATOM      9  C   UNL d   1      -7.604  -3.861  -2.329  0.00  0.00     0.417 C 
ATOM     10  F   UNL d   1      -7.027  -5.002  -2.804  0.00  0.00    -0.166 F 
ATOM     11  F   UNL d   1      -8.581  -3.540  -3.222  0.00  0.00    -0.166 F 
ATOM     12  F   UNL d   1      -8.248  -4.221  -1.185  0.00  0.00    -0.166 F 
ENDBRANCH   5   9
ENDBRANCH   2   3
ENDBRANCH   1   2
BRANCH   1  13
ATOM     13  C   UNL d   1      -3.281  -1.293  -5.239  0.00  0.00     0.028 A 
ATOM     14  C   UNL d   1      -4.108  -0.392  -5.953  0.00  0.00     0.055 A 
ATOM     15  C   UNL d   1      -4.907  -0.898  -7.005  0.00  0.00     0.031 A 
ATOM     16  C   UNL d   1      -4.900  -2.252  -7.345  0.00  0.00     0.002 A 
ATOM     17  C   UNL d   1      -4.080  -3.129  -6.655  0.00  0.00     0.002 A 
ATOM     18  C   UNL d   1      -3.270  -2.650  -5.627  0.00  0.00     0.021 A 
BRANCH  14  19
ATOM     19  N   UNL d   1      -4.220   1.012  -5.669  0.00  0.00    -0.332 N 
ATOM     20  C   UNL d   1      -3.289   1.854  -5.093  0.00  0.00     0.096 A 
ATOM     21  C   UNL d   1      -3.839   3.102  -4.904  0.00  0.00     0.019 A 
ATOM     22  C   UNL d   1      -5.125   3.076  -5.467  0.00  0.00     0.019 A 
ATOM     23  C   UNL d   1      -5.320   1.807  -5.967  0.00  0.00     0.096 A 
ENDBRANCH  14  19
ENDBRANCH   1  13
TORSDOF 5
