REMARK  6 active torsions:
REMARK  status: ('A' for Active; 'I' for Inactive)
REMARK       I    between atoms: N_2  and  C_1 
REMARK    1  A    between atoms: C_4  and  C_1 
REMARK    2  A    between atoms: C_3  and  N_2 
REMARK    3  A    between atoms: O_18  and  C_6 
REMARK    4  A    between atoms: C_10  and  C_8 
REMARK    5  A    between atoms: S_9  and  C_10 
REMARK    6  A    between atoms: C_13  and  S_9 
ROOT
ATOM      1  C   UNL d   1       0.111  -0.902   0.959  0.00  0.00     0.039 A 
ATOM      2  C   UNL d   1       0.677  -0.722   2.239  0.00  0.00    -0.033 A 
ATOM      3  C   UNL d   1      -1.159  -1.497   0.827  0.00  0.00     0.017 A 
ATOM      4  C   UNL d   1      -0.075  -1.126   3.361  0.00  0.00     0.009 A 
ATOM      5  C   UNL d   1      -1.876  -1.898   1.953  0.00  0.00     0.001 A 
ATOM      6  C   UNL d   1      -1.334  -1.712   3.219  0.00  0.00     0.001 A 
ENDROOT
BRANCH   1   7
ATOM      7  C   UNL d   1       0.863  -0.589  -0.295  0.00  0.00     0.256 C 
ATOM      8  N   UNL d   1       0.110  -0.014  -1.306  0.00  0.00    -0.320 N 
ATOM      9  H   UNL d   1      -0.825   0.260  -1.054  0.00  0.00     0.169 HD
ATOM     10  O   UNL d   1       2.049  -0.886  -0.340  0.00  0.00    -0.267 OA
BRANCH   8  11
ATOM     11  C   UNL d   1       0.525   0.201  -2.652  0.00  0.00     0.070 A 
ATOM     12  C   UNL d   1       1.756  -0.257  -3.133  0.00  0.00     0.056 A 
ATOM     13  C   UNL d   1       2.120  -0.067  -4.470  0.00  0.00     0.036 A 
ATOM     14 CL   UNL d   1       3.633  -0.666  -5.036  0.00  0.00    -0.084 Cl
ATOM     15  C   UNL d   1       1.269   0.587  -5.352  0.00  0.00     0.026 A 
ATOM     16  C   UNL d   1       0.036   1.044  -4.894  0.00  0.00     0.040 A 
ATOM     17  C   UNL d   1      -0.333   0.849  -3.559  0.00  0.00     0.092 A 
BRANCH  17  18
ATOM     18  O   UNL d   1      -1.576   1.320  -3.234  0.00  0.00    -0.358 OA
ATOM     19  H   UNL d   1      -1.656   1.399  -2.275  0.00  0.00     0.217 HD
ENDBRANCH  17  18
ENDBRANCH   8  11
ENDBRANCH   1   7
BRANCH   2  20
ATOM     20  C   UNL d   1       2.062  -0.153   2.479  0.00  0.00     0.119 C 
BRANCH  20  21
ATOM     21  S   UNL d   1       2.158   1.645   2.188  0.00  0.00    -0.125 SA
BRANCH  21  22
ATOM     22  C   UNL d   1       3.906   1.958   2.437  0.00  0.00     0.001 A 
ATOM     23  C   UNL d   1       4.528   2.915   1.624  0.00  0.00     0.020 A 
ATOM     24  C   UNL d   1       5.882   3.232   1.799  0.00  0.00     0.025 A 
ATOM     25  C   UNL d   1       6.619   2.596   2.795  0.00  0.00     0.034 A 
ATOM     26  C   UNL d   1       6.013   1.649   3.615  0.00  0.00     0.025 A 
ATOM     27 CL   UNL d   1       8.278   2.991   3.022  0.00  0.00    -0.084 Cl
ATOM     28  C   UNL d   1       4.660   1.337   3.440  0.00  0.00     0.020 A 
ENDBRANCH  21  22
ENDBRANCH  20  21
ENDBRANCH   2  20
TORSDOF 6
