REMARK  5 active torsions:
REMARK  status: ('A' for Active; 'I' for Inactive)
REMARK    1  A    between atoms: C_15  and  N_2 
REMARK    2  A    between atoms: C_5  and  C_8 
REMARK    3  A    between atoms: C_8  and  O_18 
REMARK    4  A    between atoms: C_21  and  C_15 
REMARK    5  A    between atoms: O_18  and  C_21 
ROOT
ATOM      1  C   UNL d   1       3.686  -1.317  -0.280  0.00  0.00     0.179 C 
ENDROOT
BRANCH   1   2
ATOM      2  N   UNL d   1       2.384  -0.675  -0.099  0.00  0.00    -0.255 N 
ATOM      3  C   UNL d   1       1.883  -0.463   1.188  0.00  0.00     0.273 A 
ATOM      4  C   UNL d   1       0.508   0.067   1.278  0.00  0.00     0.045 A 
ATOM      5  O   UNL d   1       2.503  -0.714   2.218  0.00  0.00    -0.266 OA
ATOM      6  C   UNL d   1      -0.168   0.381   0.108  0.00  0.00    -0.004 A 
ATOM      7  C   UNL d   1      -0.136   0.224   2.510  0.00  0.00     0.018 A 
ATOM      8  C   UNL d   1       0.540   0.200  -1.152  0.00  0.00     0.119 A 
ATOM      9  C   UNL d   1      -1.486   0.839   0.136  0.00  0.00     0.014 A 
ATOM     10  N   UNL d   1       1.731  -0.300  -1.253  0.00  0.00    -0.306 N 
ATOM     11  HN  UNL d   1       2.175  -0.412  -2.164  1.00  0.00     0.186 HD
ATOM     12  C   UNL d   1      -2.133   0.979   1.365  0.00  0.00     0.001 A 
ATOM     13  C   UNL d   1      -1.458   0.676   2.550  0.00  0.00     0.001 A 
ENDBRANCH   1   2
BRANCH   1  14
ATOM     14  C   UNL d   1       4.845  -0.325  -0.303  0.00  0.00     0.201 C 
BRANCH  14  15
ATOM     15  O   UNL d   1       6.112  -1.008  -0.416  0.00  0.00    -0.316 OA
BRANCH  15  16
ATOM     16  C   UNL d   1       6.543  -1.268  -1.672  0.00  0.00     0.295 C 
ATOM     17  O   UNL d   1       5.900  -1.101  -2.696  0.00  0.00    -0.259 OA
BRANCH  16  18
ATOM     18  C   UNL d   1       7.890  -1.898  -1.671  0.00  0.00     0.061 A 
ATOM     19  C   UNL d   1       8.930  -1.562  -0.790  0.00  0.00     0.053 A 
ATOM     20  C   UNL d   1      10.166  -2.216  -0.885  0.00  0.00     0.067 A 
ATOM     21 CL   UNL d   1       8.820  -0.307   0.394  0.00  0.00    -0.083 Cl
ATOM     22  C   UNL d   1      10.366  -3.183  -1.863  0.00  0.00     0.118 A 
ATOM     23  C   UNL d   1       9.360  -3.508  -2.762  0.00  0.00     0.043 A 
ATOM     24  F   UNL d   1      11.551  -3.799  -1.949  0.00  0.00    -0.206 F 
ATOM     25  C   UNL d   1       8.125  -2.863  -2.671  0.00  0.00     0.022 A 
ENDBRANCH  16  18
ENDBRANCH  15  16
ENDBRANCH  14  15
ENDBRANCH   1  14
TORSDOF 5
