REMARK  5 active torsions:
REMARK  status: ('A' for Active; 'I' for Inactive)
REMARK    1  A    between atoms: C_4  and  C_1 
REMARK    2  A    between atoms: N_5  and  C_1 
REMARK    3  A    between atoms: O_9  and  N_2 
REMARK    4  A    between atoms: O_6  and  C_4 
REMARK    5  A    between atoms: C_7  and  O_6 
ROOT
ATOM      1  C   UNL d   1      -1.991  -0.261   0.088  0.00  0.00     0.247 C 
ENDROOT
BRANCH   1   2
ATOM      2  C   UNL d   1      -1.314  -0.779  -1.185  0.00  0.00     0.099 C 
ATOM      3  N   UNL d   1      -1.785  -1.879  -1.702  0.00  0.00    -0.260 N 
ATOM      4  HN  UNL d   1      -2.568  -2.409  -1.320  1.00  0.00     0.195 HD
BRANCH   3   5
ATOM      5  O   UNL d   1      -1.068  -2.234  -2.855  0.00  0.00    -0.289 OA
ATOM      6  H   UNL d   1      -1.593  -2.981  -3.199  0.00  0.00     0.244 HD
ENDBRANCH   3   5
BRANCH   2   7
ATOM      7  N   UNL d   1      -0.259  -0.079  -1.715  0.00  0.00    -0.289 NA
ATOM      8  H   UNL d   1       0.292  -0.637  -2.359  0.00  0.00     0.125 HD
ATOM      9  H   UNL d   1       0.267   0.490  -1.058  0.00  0.00     0.125 HD
ENDBRANCH   2   7
ENDBRANCH   1   2
BRANCH   1  10
ATOM     10  O   UNL d   1      -1.373   0.937   0.553  0.00  0.00    -0.344 OA
BRANCH  10  11
ATOM     11  C   UNL d   1      -2.166   1.721   1.349  0.00  0.00     0.069 A 
ATOM     12  C   UNL d   1      -3.213   1.250   2.144  0.00  0.00     0.038 A 
ATOM     13  C   UNL d   1      -3.988   2.147   2.886  0.00  0.00     0.026 A 
ATOM     14  C   UNL d   1      -3.702   3.510   2.844  0.00  0.00     0.034 A 
ATOM     15  C   UNL d   1      -2.635   3.983   2.084  0.00  0.00     0.026 A 
ATOM     16 CL   UNL d   1      -4.674   4.614   3.736  0.00  0.00    -0.084 Cl
ATOM     17  C   UNL d   1      -1.863   3.084   1.343  0.00  0.00     0.038 A 
ENDBRANCH  10  11
ENDBRANCH   1  10
TORSDOF 5
