REMARK  6 active torsions:
REMARK  status: ('A' for Active; 'I' for Inactive)
REMARK    1  A    between atoms: C_9  and  C_3 
REMARK       I    between atoms: C_7  and  N_8 
REMARK    2  A    between atoms: C_10  and  C_7 
REMARK    3  A    between atoms: N_8  and  C_12 
REMARK    4  A    between atoms: C_14  and  C_9 
REMARK    5  A    between atoms: C_20  and  C_14 
REMARK    6  A    between atoms: C_21  and  C_20 
ROOT
ATOM      1  C   UNL d   1      -2.491   3.199   0.274  0.00  0.00     0.088 C 
ENDROOT
BRANCH   1   2
ATOM      2  C   UNL d   1      -2.461   1.720  -0.086  0.00  0.00     0.161 C 
ATOM      3  O   UNL d   1      -3.480   1.110  -0.404  0.00  0.00    -0.292 OA
BRANCH   2   4
ATOM      4  C   UNL d   1      -1.136   0.995  -0.048  0.00  0.00     0.023 A 
ATOM      5  C   UNL d   1      -0.019   1.442  -0.807  0.00  0.00    -0.041 A 
ATOM      6  C   UNL d   1      -0.087   2.666  -1.702  0.00  0.00     0.050 C 
ATOM      7  C   UNL d   1       1.230   0.752  -0.745  0.00  0.00    -0.049 A 
ATOM      8  C   UNL d   1       1.355  -0.406   0.059  0.00  0.00    -0.049 A 
ATOM      9  C   UNL d   1       2.390   1.288  -1.566  0.00  0.00     0.049 C 
ATOM     10  C   UNL d   1       0.232  -0.875   0.795  0.00  0.00    -0.049 A 
ATOM     11  C   UNL d   1       2.643  -1.200   0.152  0.00  0.00     0.049 C 
ATOM     12  C   UNL d   1      -1.028  -0.188   0.739  0.00  0.00    -0.041 A 
ATOM     13  C   UNL d   1       0.403  -2.128   1.639  0.00  0.00     0.049 C 
ATOM     14  C   UNL d   1      -2.184  -0.764   1.524  0.00  0.00     0.050 C 
ENDBRANCH   2   4
ENDBRANCH   1   2
BRANCH   1  15
ATOM     15  C   UNL d   1      -3.885   3.836   0.375  0.00  0.00     0.046 C 
BRANCH  15  16
ATOM     16  C   UNL d   1      -3.708   5.329   0.144  0.00  0.00    -0.056 C 
ATOM     17  C   UNL d   1      -3.546   5.776  -1.179  0.00  0.00     0.036 C 
ATOM     18  C   UNL d   1      -3.018   7.040  -1.455  0.00  0.00     0.035 C 
ATOM     19  C   UNL d   1      -2.806   7.922  -0.393  0.00  0.00     0.029 C 
ATOM     20  C   UNL d   1      -3.037   7.512   0.925  0.00  0.00     0.003 C 
ATOM     21  C   UNL d   1      -3.463   6.210   1.196  0.00  0.00     0.007 C 
BRANCH  18  22
ATOM     22  N   UNL d   1      -2.614   7.437  -2.747  0.00  0.00    -0.325 N 
ATOM     23  C   UNL d   1      -2.430   6.605  -3.850  0.00  0.00     0.255 C 
ATOM     24  O   UNL d   1      -2.660   5.394  -3.860  0.00  0.00    -0.270 OA
ATOM     25  H   UNL d   1      -2.268   8.391  -2.835  0.00  0.00     0.169 HD
BRANCH  23  26
ATOM     26  C   UNL d   1      -1.863   7.273  -5.108  0.00  0.00     0.270 C 
ATOM     27 CL   UNL d   1      -1.628   9.028  -4.919  0.00  0.00    -0.098 Cl
ATOM     28 CL   UNL d   1      -0.305   6.508  -5.512  0.00  0.00    -0.098 Cl
ENDBRANCH  23  26
ENDBRANCH  18  22
ENDBRANCH  15  16
ENDBRANCH   1  15
TORSDOF 6
