REMARK  4 active torsions:
REMARK  status: ('A' for Active; 'I' for Inactive)
REMARK    1  A    between atoms: N_7  and  C_1 
REMARK    2  A    between atoms: C_9  and  N_2 
REMARK    3  A    between atoms: C_10  and  C_6 
REMARK       I    between atoms: C_8  and  N_7 
REMARK    4  A    between atoms: C_12  and  C_8 
ROOT
ATOM      1  C   UNL d   1      -0.485  -1.201  -0.115  0.00  0.00     0.132 C 
ATOM      2  N   UNL d   1       0.811  -0.798   0.196  0.00  0.00    -0.240 N 
ATOM      3  N   UNL d   1       0.860   0.530   0.488  0.00  0.00    -0.291 N 
ATOM      4  HN  UNL d   1       1.627   1.042   0.923  1.00  0.00     0.187 HD
ATOM      5  C   UNL d   1      -1.199  -0.036  -0.272  0.00  0.00     0.082 C 
ATOM      6  C   UNL d   1      -0.323   1.020   0.080  0.00  0.00     0.062 C 
ENDROOT
BRANCH   1   7
ATOM      7  N   UNL d   1      -0.901  -2.521  -0.238  0.00  0.00    -0.311 N 
ATOM      8  C   UNL d   1      -1.889  -2.874  -1.142  0.00  0.00     0.227 C 
ATOM      9  O   UNL d   1      -2.464  -2.067  -1.882  0.00  0.00    -0.273 OA
ATOM     10  H   UNL d   1      -0.346  -3.251   0.195  0.00  0.00     0.170 HD
BRANCH   8  11
ATOM     11  C   UNL d   1      -2.164  -4.388  -1.229  0.00  0.00     0.078 C 
ATOM     12  C   UNL d   1      -3.664  -4.785  -1.327  0.00  0.00     0.014 C 
ATOM     13  C   UNL d   1      -3.304  -6.070  -0.565  0.00  0.00     0.002 C 
ATOM     14  C   UNL d   1      -2.113  -5.292   0.032  0.00  0.00     0.014 C 
ENDBRANCH   8  11
ENDBRANCH   1   7
BRANCH   2  15
ATOM     15  C   UNL d   1       2.009  -1.571   0.131  0.00  0.00     0.058 A 
ATOM     16  C   UNL d   1       2.082  -2.739  -0.651  0.00  0.00     0.034 A 
ATOM     17  C   UNL d   1       3.265  -3.474  -0.707  0.00  0.00     0.044 A 
ATOM     18  C   UNL d   1       4.381  -3.033  -0.014  0.00  0.00     0.116 A 
ATOM     19  C   UNL d   1       4.340  -1.860   0.733  0.00  0.00     0.044 A 
ATOM     20  F   UNL d   1       5.518  -3.738  -0.078  0.00  0.00    -0.206 F 
ATOM     21  C   UNL d   1       3.158  -1.118   0.800  0.00  0.00     0.034 A 
ENDBRANCH   2  15
BRANCH   6  22
ATOM     22  C   UNL d   1      -0.615   2.458   0.044  0.00  0.00    -0.008 A 
ATOM     23  C   UNL d   1       0.167   3.372   0.765  0.00  0.00     0.015 A 
ATOM     24  C   UNL d   1      -0.111   4.744   0.719  0.00  0.00     0.024 A 
ATOM     25  C   UNL d   1      -1.171   5.212  -0.053  0.00  0.00     0.034 A 
ATOM     26  C   UNL d   1      -1.957   4.323  -0.780  0.00  0.00     0.024 A 
ATOM     27 CL   UNL d   1      -1.511   6.898  -0.113  0.00  0.00    -0.084 Cl
ATOM     28  C   UNL d   1      -1.679   2.953  -0.731  0.00  0.00     0.015 A 
ENDBRANCH   6  22
TORSDOF 4
