REMARK  5 active torsions:
REMARK  status: ('A' for Active; 'I' for Inactive)
REMARK       I    between atoms: N_3  and  C_1 
REMARK    1  A    between atoms: C_10  and  C_1 
REMARK    2  A    between atoms: C_2  and  C_8 
REMARK    3  A    between atoms: O_9  and  C_2 
REMARK    4  A    between atoms: C_8  and  N_3 
REMARK    5  A    between atoms: C_6  and  C_10 
ROOT
ATOM      1  C   UNL d   1       0.863   0.043   0.216  0.00  0.00     0.221 C 
ATOM      2  N   UNL d   1       0.197   1.218  -0.038  0.00  0.00    -0.351 N 
ATOM      3  O   UNL d   1       0.270  -0.982   0.546  0.00  0.00    -0.273 OA
ATOM      4  H   UNL d   1       0.706   2.079  -0.224  0.00  0.00     0.163 HD
ENDROOT
BRANCH   2   5
ATOM      5  C   UNL d   1      -1.250   1.259   0.022  0.00  0.00     0.232 C 
BRANCH   5   6
ATOM      6  C   UNL d   1      -1.803   2.659  -0.185  0.00  0.00     0.158 C 
ATOM      7  O   UNL d   1      -1.112   3.655  -0.355  0.00  0.00    -0.649 OA
BRANCH   6   8
ATOM      8  O   UNL d   1      -3.156   2.704  -0.161  0.00  0.00    -0.775 OA
ATOM      9  H   UNL d   1      -3.583   1.839  -0.014  0.00  0.00     0.167 HD
ENDBRANCH   6   8
ENDBRANCH   5   6
ENDBRANCH   2   5
BRANCH   1  10
ATOM     10  C   UNL d   1       2.368   0.076  -0.031  0.00  0.00     0.129 C 
BRANCH  10  11
ATOM     11  C   UNL d   1       3.251   0.816   0.932  0.00  0.00    -0.022 C 
ATOM     12  C   UNL d   1       2.910   1.571   1.987  0.00  0.00    -0.034 C 
ATOM     13  C   UNL d   1       3.921   2.244   2.865  0.00  0.00     0.036 C 
ENDBRANCH  10  11
ENDBRANCH   1  10
TORSDOF 5
