REMARK  6 active torsions:
REMARK  status: ('A' for Active; 'I' for Inactive)
REMARK    1  A    between atoms: N_2  and  C_1 
REMARK       I    between atoms: C_5  and  N_2 
REMARK    2  A    between atoms: C_20  and  C_5 
REMARK    3  A    between atoms: C_8  and  C_21 
REMARK    4  A    between atoms: C_9  and  C_8 
REMARK    5  A    between atoms: S_15  and  C_20 
REMARK    6  A    between atoms: C_21  and  S_15 
ROOT
ATOM      1  N   UNL d   1       2.783  -0.875  -0.038  0.00  0.00    -0.326 N 
ATOM      2  C   UNL d   1       3.877  -0.099   0.320  0.00  0.00     0.231 C 
ATOM      3  O   UNL d   1       3.840   1.005   0.855  0.00  0.00    -0.272 OA
ATOM      4  H   UNL d   1       3.020  -1.855  -0.122  0.00  0.00     0.169 HD
ENDROOT
BRANCH   2   5
ATOM      5  C   UNL d   1       5.211  -0.741  -0.059  0.00  0.00     0.177 C 
BRANCH   5   6
ATOM      6  S   UNL d   1       5.328  -2.461   0.557  0.00  0.00    -0.152 SA
BRANCH   6   7
ATOM      7  C   UNL d   1       6.972  -2.877  -0.102  0.00  0.00     0.158 C 
BRANCH   7   8
ATOM      8  C   UNL d   1       7.434  -4.244   0.377  0.00  0.00     0.168 C 
ATOM      9  O   UNL d   1       8.137  -4.369   1.379  0.00  0.00    -0.292 OA
BRANCH   8  10
ATOM     10  C   UNL d   1       7.088  -5.462  -0.415  0.00  0.00     0.011 A 
ATOM     11  C   UNL d   1       7.933  -6.580  -0.321  0.00  0.00     0.017 A 
ATOM     12  C   UNL d   1       7.646  -7.750  -1.034  0.00  0.00     0.025 A 
ATOM     13  C   UNL d   1       6.505  -7.808  -1.832  0.00  0.00     0.034 A 
ATOM     14  C   UNL d   1       5.658  -6.706  -1.929  0.00  0.00     0.025 A 
ATOM     15 CL   UNL d   1       6.134  -9.251  -2.691  0.00  0.00    -0.084 Cl
ATOM     16  C   UNL d   1       5.950  -5.532  -1.228  0.00  0.00     0.017 A 
ENDBRANCH   8  10
ENDBRANCH   7   8
ENDBRANCH   6   7
ENDBRANCH   5   6
ENDBRANCH   2   5
BRANCH   1  17
ATOM     17  C   UNL d   1       1.434  -0.583   0.278  0.00  0.00     0.046 A 
ATOM     18  C   UNL d   1       0.833   0.660  -0.024  0.00  0.00    -0.034 A 
ATOM     19  C   UNL d   1      -0.522   0.871   0.306  0.00  0.00     0.015 A 
ATOM     20  C   UNL d   1       1.540   1.794  -0.720  0.00  0.00     0.050 C 
ATOM     21  C   UNL d   1      -1.303  -0.137   0.874  0.00  0.00    -0.061 A 
ATOM     22  C   UNL d   1      -0.712  -1.372   1.133  0.00  0.00     0.015 A 
ATOM     23  C   UNL d   1      -2.748   0.108   1.189  0.00  0.00     0.048 C 
ATOM     24  C   UNL d   1       0.645  -1.613   0.843  0.00  0.00    -0.034 A 
ATOM     25  C   UNL d   1       1.165  -2.970   1.247  0.00  0.00     0.050 C 
ENDBRANCH   1  17
TORSDOF 6
