REMARK  3 active torsions:
REMARK  status: ('A' for Active; 'I' for Inactive)
REMARK       I    between atoms: N_2  and  C_1 
REMARK    1  A    between atoms: C_3  and  C_1 
REMARK    2  A    between atoms: C_8  and  N_2 
REMARK    3  A    between atoms: C_4  and  C_8 
REMARK       I    between atoms: N_9  and  C_4 
ROOT
ATOM      1  C   UNL d   1       0.959  -0.066  -0.106  0.00  0.00     0.252 C 
ATOM      2  N   UNL d   1       0.228  -1.177  -0.449  0.00  0.00    -0.348 N 
ATOM      3  O   UNL d   1       2.179  -0.016  -0.215  0.00  0.00    -0.268 OA
ATOM      4  H   UNL d   1      -0.784  -1.146  -0.525  0.00  0.00     0.163 HD
ENDROOT
BRANCH   1   5
ATOM      5  C   UNL d   1       0.210   1.114   0.388  0.00  0.00     0.033 A 
ATOM      6  C   UNL d   1       0.750   2.384   0.145  0.00  0.00     0.041 A 
ATOM      7  C   UNL d   1       0.102   3.515   0.631  0.00  0.00     0.035 A 
ATOM      8 CL   UNL d   1       0.760   5.075   0.323  0.00  0.00    -0.084 Cl
ATOM      9  C   UNL d   1      -1.074   3.394   1.370  0.00  0.00     0.024 A 
ATOM     10  C   UNL d   1      -1.610   2.130   1.623  0.00  0.00     0.003 A 
ATOM     11  C   UNL d   1      -0.972   0.988   1.130  0.00  0.00     0.017 A 
ENDBRANCH   1   5
BRANCH   2  12
ATOM     12  C   UNL d   1       0.896  -2.353  -0.969  0.00  0.00     0.225 C 
BRANCH  12  13
ATOM     13  C   UNL d   1      -0.103  -3.461  -1.281  0.00  0.00     0.233 C 
ATOM     14  O   UNL d   1      -1.315  -3.351  -1.111  0.00  0.00    -0.272 OA
ATOM     15  N   UNL d   1       0.438  -4.608  -1.785  0.00  0.00    -0.369 N 
ATOM     16  H   UNL d   1       1.428  -4.728  -1.954  0.00  0.00     0.159 HD
ATOM     17  H   UNL d   1      -0.189  -5.369  -2.016  0.00  0.00     0.159 HD
ENDBRANCH  12  13
ENDBRANCH   2  12
TORSDOF 3
