REMARK  3 active torsions:
REMARK  status: ('A' for Active; 'I' for Inactive)
REMARK    1  A    between atoms: C_7  and  N_1 
REMARK    2  A    between atoms: N_6  and  C_3 
REMARK    3  A    between atoms: C_10  and  N_6 
ROOT
ATOM      1  N   UNL d   1      -0.003   0.863  -0.046  0.00  0.00    -0.244 N 
ATOM      2  C   UNL d   1      -1.142   0.133   0.154  0.00  0.00     0.257 A 
ATOM      3  C   UNL d   1       0.525  -1.378  -0.075  0.00  0.00     0.087 A 
ATOM      4  C   UNL d   1       1.047   0.008  -0.247  0.00  0.00     0.277 A 
ATOM      5  C   UNL d   1      -0.783  -1.284   0.139  0.00  0.00     0.104 A 
ATOM      6  O   UNL d   1      -2.304   0.479   0.301  0.00  0.00    -0.268 OA
ATOM      7  O   UNL d   1       2.233   0.220  -0.460  0.00  0.00    -0.266 OA
ENDROOT
BRANCH   3   8
ATOM      8  N   UNL d   1       1.351  -2.482  -0.110  0.00  0.00    -0.255 NA
ATOM      9  H   UNL d   1       2.300  -2.212  -0.390  0.00  0.00     0.134 HD
BRANCH   8  10
ATOM     10  C   UNL d   1       1.433  -3.381   0.987  0.00  0.00     0.012 A 
ATOM     11  C   UNL d   1       1.866  -4.691   0.756  0.00  0.00     0.024 A 
ATOM     12  C   UNL d   1       1.981  -5.601   1.812  0.00  0.00     0.002 A 
ATOM     13  C   UNL d   1       1.696  -5.201   3.116  0.00  0.00     0.000 A 
ATOM     14  C   UNL d   1       1.314  -3.887   3.368  0.00  0.00     0.002 A 
ATOM     15  C   UNL d   1       1.193  -2.981   2.312  0.00  0.00     0.024 A 
ENDBRANCH   8  10
ENDBRANCH   3   8
BRANCH   1  16
ATOM     16  C   UNL d   1       0.069   2.285  -0.022  0.00  0.00     0.045 A 
ATOM     17  C   UNL d   1      -0.943   3.050   0.584  0.00  0.00     0.030 A 
ATOM     18  C   UNL d   1      -0.875   4.447   0.631  0.00  0.00     0.002 A 
ATOM     19  C   UNL d   1       0.202   5.111   0.058  0.00  0.00     0.000 A 
ATOM     20  C   UNL d   1       1.214   4.376  -0.552  0.00  0.00     0.002 A 
ATOM     21  C   UNL d   1       1.153   2.977  -0.583  0.00  0.00     0.030 A 
ENDBRANCH   1  16
TORSDOF 3
