REMARK  5 active torsions:
REMARK  status: ('A' for Active; 'I' for Inactive)
REMARK    1  A    between atoms: C_9  and  C_1 
REMARK    2  A    between atoms: N_5  and  C_4 
REMARK    3  A    between atoms: S_14  and  C_6 
REMARK    4  A    between atoms: C_10  and  C_15 
REMARK    5  A    between atoms: C_12  and  S_14 
ROOT
ATOM      1  C   UNL d   1       3.856  -1.124   1.033  0.00  0.00     0.120 A 
ATOM      2  C   UNL d   1       3.301  -1.884  -0.007  0.00  0.00     0.041 A 
ATOM      3  C   UNL d   1       5.210  -0.745   1.038  0.00  0.00     0.053 A 
ATOM      4  C   UNL d   1       6.046  -1.128  -0.020  0.00  0.00     0.050 A 
ATOM      5  C   UNL d   1       4.159  -2.291  -1.039  0.00  0.00     0.022 A 
ATOM      6  C   UNL d   1       5.509  -1.917  -1.049  0.00  0.00     0.017 A 
ENDROOT
BRANCH   2   7
ATOM      7  S   UNL d   1       1.600  -2.429  -0.083  0.00  0.00    -0.050 SA
BRANCH   7   8
ATOM      8  C   UNL d   1       0.928  -1.092  -0.942  0.00  0.00     0.165 A 
ATOM      9  N   UNL d   1       1.505  -0.264  -1.776  0.00  0.00    -0.317 N 
ATOM     10  C   UNL d   1       0.469   0.590  -2.147  0.00  0.00     0.207 A 
ATOM     11  HN  UNL d   1       2.479  -0.249  -2.081  1.00  0.00     0.169 HD
ATOM     12  N   UNL d   1      -0.715   0.279  -1.573  0.00  0.00    -0.280 N 
ATOM     13  N   UNL d   1      -0.385  -0.774  -0.806  0.00  0.00    -0.278 N 
ATOM     14  HN  UNL d   1      -1.624   0.727  -1.690  1.00  0.00     0.188 HD
ATOM     15  H   UNL d   1      -1.085  -1.217  -0.224  0.00  0.00     0.189 HD
BRANCH  10  16
ATOM     16  C   UNL d   1       0.654   1.760  -3.094  0.00  0.00     0.450 C 
ATOM     17  F   UNL d   1       1.921   1.841  -3.587  0.00  0.00    -0.163 F 
ATOM     18  F   UNL d   1      -0.171   1.688  -4.176  0.00  0.00    -0.163 F 
ATOM     19  F   UNL d   1       0.402   2.955  -2.491  0.00  0.00    -0.163 F 
ENDBRANCH  10  16
ENDBRANCH   7   8
ENDBRANCH   2   7
BRANCH   1  20
ATOM     20  N   UNL d   1       3.055  -0.723   2.176  0.00  0.00    -0.114 N 
ATOM     21  O   UNL d   1       2.054  -0.026   1.964  0.00  0.00    -0.532 OA
ATOM     22  O   UNL d   1       3.457  -1.087   3.290  0.00  0.00    -0.532 OA
ENDBRANCH   1  20
BRANCH   4  23
ATOM     23  C   UNL d   1       7.495  -0.699  -0.074  0.00  0.00     0.417 C 
ATOM     24  F   UNL d   1       7.861   0.092   0.971  0.00  0.00    -0.166 F 
ATOM     25  F   UNL d   1       8.350  -1.757  -0.065  0.00  0.00    -0.166 F 
ATOM     26  F   UNL d   1       7.781   0.010  -1.200  0.00  0.00    -0.166 F 
ENDBRANCH   4  23
TORSDOF 5
