REMARK  4 active torsions:
REMARK  status: ('A' for Active; 'I' for Inactive)
REMARK    1  A    between atoms: C_7  and  C_6 
REMARK    2  A    between atoms: O_8  and  C_9 
REMARK    3  A    between atoms: C_10  and  O_8 
REMARK    4  A    between atoms: C_15  and  C_10 
ROOT
ATOM      1  C   UNL d   1      -0.118  -0.762  -0.860  0.00  0.00     0.125 C 
ATOM      2  N   UNL d   1       1.674   0.036  -2.545  0.00  0.00    -0.191 NA
ATOM      3  N   UNL d   1      -2.308   0.598  -0.671  0.00  0.00    -0.191 NA
ATOM      4  C   UNL d   1       0.878  -0.332  -1.782  0.00  0.00     0.110 C 
ATOM      5  C   UNL d   1      -1.325  -0.013  -0.772  0.00  0.00     0.110 C 
ATOM      6  C   UNL d   1       0.047  -1.833  -0.056  0.00  0.00     0.045 C 
ENDROOT
BRANCH   6   7
ATOM      7  C   UNL d   1       1.259  -2.654   0.034  0.00  0.00    -0.034 A 
ATOM      8  C   UNL d   1       2.269  -2.294   0.931  0.00  0.00     0.014 A 
ATOM      9  C   UNL d   1       3.442  -3.051   1.020  0.00  0.00     0.037 A 
ATOM     10  C   UNL d   1       3.611  -4.180   0.218  0.00  0.00     0.069 A 
ATOM     11  C   UNL d   1       2.580  -4.571  -0.638  0.00  0.00     0.037 A 
ATOM     12  C   UNL d   1       1.415  -3.803  -0.746  0.00  0.00     0.014 A 
BRANCH  10  13
ATOM     13  O   UNL d   1       4.718  -4.986   0.224  0.00  0.00    -0.347 OA
BRANCH  13  14
ATOM     14  C   UNL d   1       5.951  -4.323   0.523  0.00  0.00     0.214 C 
BRANCH  14  15
ATOM     15  C   UNL d   1       7.111  -5.291   0.481  0.00  0.00    -0.034 A 
ATOM     16  C   UNL d   1       8.387  -4.838   0.113  0.00  0.00     0.009 A 
ATOM     17  C   UNL d   1       9.488  -5.694   0.171  0.00  0.00     0.001 A 
ATOM     18  C   UNL d   1       9.328  -7.007   0.610  0.00  0.00     0.000 A 
ATOM     19  C   UNL d   1       8.067  -7.468   0.980  0.00  0.00     0.001 A 
ATOM     20  C   UNL d   1       6.964  -6.616   0.916  0.00  0.00     0.009 A 
ENDBRANCH  14  15
ENDBRANCH  13  14
ENDBRANCH  10  13
ENDBRANCH   6   7
TORSDOF 4
