REMARK  4 active torsions:
REMARK  status: ('A' for Active; 'I' for Inactive)
REMARK    1  A    between atoms: C_9  and  C_6 
REMARK    2  A    between atoms: C_8  and  C_7 
REMARK    3  A    between atoms: N_16  and  C_14 
REMARK    4  A    between atoms: N_17  and  C_15 
ROOT
ATOM      1  O   UNL d   1      -1.083  -0.004  -0.030  0.00  0.00    -0.273 OA
ATOM      2  N   UNL d   1       1.042   0.700   0.027  0.00  0.00    -0.277 N 
ATOM      3  HN  UNL d   1       1.854   1.315   0.050  1.00  0.00     0.189 HD
ATOM      4  N   UNL d   1       1.052  -0.676   0.014  0.00  0.00    -0.277 N 
ATOM      5  HN  UNL d   1       1.874  -1.279   0.030  1.00  0.00     0.189 HD
ATOM      6  C   UNL d   1      -0.208  -1.062  -0.023  0.00  0.00     0.174 A 
ATOM      7  C   UNL d   1      -0.224   1.067   0.004  0.00  0.00     0.174 A 
ENDROOT
BRANCH   6   8
ATOM      8  C   UNL d   1      -0.757  -2.411  -0.063  0.00  0.00     0.017 A 
ATOM      9  C   UNL d   1       0.113  -3.507   0.028  0.00  0.00     0.017 A 
ATOM     10  C   UNL d   1      -0.372  -4.818  -0.027  0.00  0.00     0.024 A 
ATOM     11  C   UNL d   1      -1.730  -5.067  -0.221  0.00  0.00     0.005 A 
ATOM     12  C   UNL d   1      -2.608  -3.981  -0.243  0.00  0.00     0.024 A 
ATOM     13  C   UNL d   1      -2.128  -2.664  -0.185  0.00  0.00     0.017 A 
BRANCH  11  14
ATOM     14  N   UNL d   1      -2.222  -6.375  -0.160  0.00  0.00    -0.303 NA
ATOM     15  H   UNL d   1      -3.121  -6.497  -0.615  0.00  0.00     0.124 HD
ATOM     16  H   UNL d   1      -1.549  -7.079  -0.448  0.00  0.00     0.124 HD
ENDBRANCH  11  14
ENDBRANCH   6   8
BRANCH   7  17
ATOM     17  C   UNL d   1      -0.795   2.408   0.017  0.00  0.00     0.017 A 
ATOM     18  C   UNL d   1       0.062   3.517  -0.031  0.00  0.00     0.017 A 
ATOM     19  C   UNL d   1      -0.444   4.821  -0.001  0.00  0.00     0.024 A 
ATOM     20  C   UNL d   1      -1.814   5.048   0.125  0.00  0.00     0.005 A 
ATOM     21  C   UNL d   1      -2.675   3.949   0.105  0.00  0.00     0.024 A 
ATOM     22  C   UNL d   1      -2.174   2.640   0.072  0.00  0.00     0.017 A 
BRANCH  20  23
ATOM     23  N   UNL d   1      -2.322   6.349   0.038  0.00  0.00    -0.303 NA
ATOM     24  H   UNL d   1      -3.244   6.458   0.449  0.00  0.00     0.124 HD
ATOM     25  H   UNL d   1      -1.675   7.064   0.357  0.00  0.00     0.124 HD
ENDBRANCH  20  23
ENDBRANCH   7  17
TORSDOF 4
