REMARK  4 active torsions:
REMARK  status: ('A' for Active; 'I' for Inactive)
REMARK    1  A    between atoms: C_15  and  N_1 
REMARK    2  A    between atoms: N_10  and  N_2 
REMARK    3  A    between atoms: N_4  and  C_3 
REMARK    4  A    between atoms: C_13  and  C_14 
ROOT
ATOM      1  N   UNL d   1      -0.685  -1.147   0.201  0.00  0.00    -0.308 N 
ATOM      2  N   UNL d   1       0.746   1.125   0.291  0.00  0.00    -0.251 N 
ATOM      3  C   UNL d   1      -1.411   0.051   0.149  0.00  0.00     0.244 C 
ATOM      4  C   UNL d   1       1.493  -0.044   0.058  0.00  0.00     0.257 C 
ATOM      5  C   UNL d   1      -0.576   1.232  -0.320  0.00  0.00     0.255 C 
ATOM      6  C   UNL d   1       0.627  -1.206  -0.445  0.00  0.00     0.236 C 
ATOM      7  O   UNL d   1       2.716  -0.131   0.132  0.00  0.00    -0.270 OA
ATOM      8  O   UNL d   1      -2.623   0.147   0.327  0.00  0.00    -0.271 OA
ENDROOT
BRANCH   2   9
ATOM      9  N   UNL d   1       1.293   2.318   0.721  0.00  0.00    -0.304 N 
ATOM     10  C   UNL d   1       2.294   2.289   1.543  0.00  0.00     0.144 C 
ATOM     11  HN  UNL d   1       0.914   3.208   0.397  1.00  0.00     0.186 HD
BRANCH  10  12
ATOM     12  C   UNL d   1       2.830   3.528   2.039  0.00  0.00     0.095 A 
ATOM     13  O   UNL d   1       3.850   3.479   2.954  0.00  0.00    -0.287 OA
ATOM     14  C   UNL d   1       4.133   4.766   3.280  0.00  0.00     0.215 A 
ATOM     15  C   UNL d   1       3.331   5.652   2.603  0.00  0.00     0.065 A 
ATOM     16  C   UNL d   1       2.487   4.849   1.797  0.00  0.00     0.043 A 
BRANCH  14  17
ATOM     17  N   UNL d   1       5.172   4.969   4.244  0.00  0.00    -0.090 N 
ATOM     18  O   UNL d   1       5.431   6.145   4.528  0.00  0.00    -0.530 OA
ATOM     19  O   UNL d   1       5.721   3.968   4.720  0.00  0.00    -0.530 OA
ENDBRANCH  14  17
ENDBRANCH  10  12
ENDBRANCH   2   9
BRANCH   1  20
ATOM     20  C   UNL d   1      -1.283  -2.338   0.678  0.00  0.00     0.037 A 
ATOM     21  C   UNL d   1      -1.225  -3.523  -0.063  0.00  0.00     0.031 A 
ATOM     22  C   UNL d   1      -1.781  -4.700   0.446  0.00  0.00     0.020 A 
ATOM     23  C   UNL d   1      -2.357  -4.703   1.716  0.00  0.00     0.006 A 
ATOM     24  C   UNL d   1      -2.413  -3.530   2.466  0.00  0.00     0.020 A 
ATOM     25  I   UNL d   1      -3.126  -6.468   2.498  0.00  0.00    -0.045 I 
ATOM     26  C   UNL d   1      -1.898  -2.344   1.936  0.00  0.00     0.031 A 
ENDBRANCH   1  20
TORSDOF 4
