REMARK  8 active torsions:
REMARK  status: ('A' for Active; 'I' for Inactive)
REMARK    1  A    between atoms: C_7  and  C_3 
REMARK    2  A    between atoms: C_13  and  C_4 
REMARK    3  A    between atoms: C_14  and  C_5 
REMARK    4  A    between atoms: O_16  and  C_6 
REMARK    5  A    between atoms: C_15  and  C_10 
REMARK    6  A    between atoms: O_17  and  C_15 
REMARK    7  A    between atoms: C_18  and  O_17 
REMARK    8  A    between atoms: O_24  and  C_19 
ROOT
ATOM      1  N   UNL d   1       0.752   0.393  -1.206  0.00  0.00    -0.351 N 
ATOM      2  HN  UNL d   1       1.110   0.604  -2.138  1.00  0.00     0.166 HD
ATOM      3  C   UNL d   1       1.290   0.876  -0.023  0.00  0.00     0.049 A 
ATOM      4  C   UNL d   1      -0.287  -0.379  -0.956  0.00  0.00     0.075 A 
ATOM      5  S   UNL d   1      -0.664  -0.583   0.711  0.00  0.00    -0.084 SA
ATOM      6  C   UNL d   1       0.661   0.424   1.121  0.00  0.00     0.082 A 
ENDROOT
BRANCH   3   7
ATOM      7  C   UNL d   1       2.474   1.729  -0.026  0.00  0.00    -0.008 A 
ATOM      8  C   UNL d   1       2.734   2.638   1.005  0.00  0.00     0.024 A 
ATOM      9  C   UNL d   1       3.903   3.423   1.034  0.00  0.00    -0.016 A 
ATOM     10  C   UNL d   1       4.836   3.204  -0.011  0.00  0.00     0.079 A 
ATOM     11  C   UNL d   1       4.584   2.363  -1.124  0.00  0.00    -0.016 A 
ATOM     12  C   UNL d   1       3.380   1.637  -1.089  0.00  0.00     0.024 A 
BRANCH   9  13
ATOM     13  C   UNL d   1       4.117   4.420   2.203  0.00  0.00    -0.021 C 
ATOM     14  C   UNL d   1       4.840   3.684   3.346  0.00  0.00     0.019 C 
ATOM     15  C   UNL d   1       4.929   5.679   1.813  0.00  0.00     0.019 C 
ATOM     16  C   UNL d   1       2.782   4.982   2.770  0.00  0.00     0.019 C 
ENDBRANCH   9  13
BRANCH  10  17
ATOM     17  O   UNL d   1       6.069   3.780   0.098  0.00  0.00    -0.360 OA
ATOM     18  H   UNL d   1       6.051   4.567  -0.475  0.00  0.00     0.217 HD
ENDBRANCH  10  17
BRANCH  11  19
ATOM     19  C   UNL d   1       5.531   2.240  -2.346  0.00  0.00    -0.021 C 
ATOM     20  C   UNL d   1       5.023   1.234  -3.416  0.00  0.00     0.019 C 
ATOM     21  C   UNL d   1       5.639   3.602  -3.069  0.00  0.00     0.019 C 
ATOM     22  C   UNL d   1       6.943   1.757  -1.952  0.00  0.00     0.019 C 
ENDBRANCH  11  19
ENDBRANCH   3   7
BRANCH   4  23
ATOM     23  C   UNL d   1      -1.066  -1.119  -1.998  0.00  0.00     0.240 C 
BRANCH  23  24
ATOM     24  O   UNL d   1      -2.209  -0.332  -2.337  0.00  0.00    -0.345 OA
BRANCH  24  25
ATOM     25  C   UNL d   1      -3.056  -0.868  -3.270  0.00  0.00     0.069 A 
ATOM     26  C   UNL d   1      -2.902  -2.112  -3.892  0.00  0.00     0.039 A 
ATOM     27  C   UNL d   1      -3.848  -2.562  -4.821  0.00  0.00     0.039 A 
ATOM     28  C   UNL d   1      -4.953  -1.774  -5.142  0.00  0.00     0.068 A 
ATOM     29  C   UNL d   1      -5.101  -0.530  -4.526  0.00  0.00     0.039 A 
ATOM     30  C   UNL d   1      -4.157  -0.081  -3.598  0.00  0.00     0.039 A 
BRANCH  28  31
ATOM     31  O   UNL d   1      -5.941  -2.106  -6.027  0.00  0.00    -0.356 OA
ATOM     32  C   UNL d   1      -5.828  -3.373  -6.665  0.00  0.00     0.210 C 
ENDBRANCH  28  31
ENDBRANCH  24  25
ENDBRANCH  23  24
ENDBRANCH   4  23
TORSDOF 8
