REMARK  8 active torsions:
REMARK  status: ('A' for Active; 'I' for Inactive)
REMARK    1  A    between atoms: C_2  and  C_1 
REMARK    2  A    between atoms: C_3  and  C_1 
REMARK    3  A    between atoms: C_12  and  C_1 
REMARK    4  A    between atoms: N_4  and  C_2 
REMARK    5  A    between atoms: C_7  and  C_2 
REMARK    6  A    between atoms: O_17  and  C_3 
REMARK    7  A    between atoms: C_8  and  N_4 
REMARK    8  A    between atoms: C_23  and  O_17 
ROOT
ATOM      1  C   UNL d   1       0.645  -0.598   1.133  0.00  0.00     0.149 C 
ENDROOT
BRANCH   1   2
ATOM      2  C   UNL d   1       1.183   0.059  -0.175  0.00  0.00     0.147 C 
BRANCH   2   3
ATOM      3  C   UNL d   1       0.667   1.488  -0.233  0.00  0.00     0.269 C 
ATOM      4  O   UNL d   1       0.492   2.205   0.748  0.00  0.00    -0.264 OA
BRANCH   3   5
ATOM      5  O   UNL d   1       0.460   1.877  -1.525  0.00  0.00    -0.321 OA
BRANCH   5   6
ATOM      6  C   UNL d   1       0.081   3.249  -1.703  0.00  0.00     0.174 C 
ATOM      7  C   UNL d   1      -1.410   3.425  -1.480  0.00  0.00     0.034 C 
ENDBRANCH   5   6
ENDBRANCH   3   5
ENDBRANCH   2   3
BRANCH   2   8
ATOM      8  C   UNL d   1       2.701   0.081  -0.351  0.00  0.00    -0.042 A 
ATOM      9  C   UNL d   1       3.276  -0.594  -1.442  0.00  0.00     0.008 A 
ATOM     10  C   UNL d   1       4.650  -0.541  -1.673  0.00  0.00     0.001 A 
ATOM     11  C   UNL d   1       5.470   0.191  -0.818  0.00  0.00     0.000 A 
ATOM     12  C   UNL d   1       4.917   0.852   0.278  0.00  0.00     0.001 A 
ATOM     13  C   UNL d   1       3.542   0.794   0.516  0.00  0.00     0.008 A 
ENDBRANCH   2   8
ENDBRANCH   1   2
BRANCH   1  14
ATOM     14  N   UNL d   1      -0.845  -0.492   1.260  0.00  0.00    -0.379 N 
ATOM     15  H   UNL d   1      -1.100   0.436   1.606  0.00  0.00     0.160 HD
BRANCH  14  16
ATOM     16  C   UNL d   1      -1.737  -0.953   0.291  0.00  0.00     0.030 A 
ATOM     17  C   UNL d   1      -3.027  -0.400   0.244  0.00  0.00     0.054 A 
ATOM     18  C   UNL d   1      -3.976  -0.827  -0.697  0.00  0.00     0.058 A 
ATOM     19 CL   UNL d   1      -5.521  -0.052  -0.694  0.00  0.00    -0.082 Cl
ATOM     20  C   UNL d   1      -3.656  -1.846  -1.595  0.00  0.00     0.055 A 
ATOM     21  C   UNL d   1      -2.407  -2.454  -1.517  0.00  0.00     0.028 A 
ATOM     22 CL   UNL d   1      -4.749  -2.400  -2.811  0.00  0.00    -0.083 Cl
ATOM     23  C   UNL d   1      -1.471  -2.021  -0.571  0.00  0.00     0.031 A 
ENDBRANCH  14  16
ENDBRANCH   1  14
BRANCH   1  24
ATOM     24  C   UNL d   1       1.113  -2.030   1.408  0.00  0.00     0.033 A 
ATOM     25  N   UNL d   1       1.815  -2.688   0.449  0.00  0.00    -0.367 N 
ATOM     26  C   UNL d   1       2.264  -3.928   0.728  0.00  0.00     0.088 A 
ATOM     27  HN  UNL d   1       1.998  -2.255  -0.456  1.00  0.00     0.165 HD
ATOM     28  C   UNL d   1       2.019  -4.583   1.920  0.00  0.00     0.017 A 
ATOM     29  C   UNL d   1       1.265  -3.926   2.884  0.00  0.00     0.003 A 
ATOM     30  C   UNL d   1       0.807  -2.636   2.630  0.00  0.00     0.027 A 
ENDBRANCH   1  24
TORSDOF 8
