REMARK  11 active torsions:
REMARK  status: ('A' for Active; 'I' for Inactive)
REMARK    1  A    between atoms: C_2  and  C_1 
REMARK       I    between atoms: C_3  and  N_4 
REMARK    2  A    between atoms: C_17  and  C_3 
REMARK    3  A    between atoms: N_4  and  C_13 
REMARK    4  A    between atoms: C_5  and  C_18 
REMARK    5  A    between atoms: O_16  and  C_5 
REMARK    6  A    between atoms: C_21  and  C_17 
REMARK    7  A    between atoms: C_18  and  C_20 
REMARK    8  A    between atoms: C_20  and  C_24 
REMARK    9  A    between atoms: C_22  and  C_21 
REMARK   10  A    between atoms: C_23  and  C_22 
REMARK   11  A    between atoms: C_24  and  C_23 
ROOT
ATOM      1  C   UNL d   1       0.111  -6.452  -1.305  0.00  0.00     0.222 C 
ATOM      2  N   UNL d   1       0.898  -5.668  -2.130  0.00  0.00    -0.327 N 
ATOM      3  O   UNL d   1      -0.261  -6.178  -0.167  0.00  0.00    -0.273 OA
ATOM      4  H   UNL d   1       1.093  -6.024  -3.059  0.00  0.00     0.169 HD
ENDROOT
BRANCH   1   5
ATOM      5  C   UNL d   1      -0.262  -7.791  -1.905  0.00  0.00     0.103 C 
BRANCH   5   6
ATOM      6  C   UNL d   1       0.814  -8.818  -1.576  0.00  0.00     0.009 C 
BRANCH   6   7
ATOM      7  C   UNL d   1       0.416 -10.221  -2.030  0.00  0.00     0.000 C 
BRANCH   7   8
ATOM      8  C   UNL d   1       1.521 -11.222  -1.698  0.00  0.00     0.000 C 
BRANCH   8   9
ATOM      9  C   UNL d   1       1.165 -12.635  -2.156  0.00  0.00     0.000 C 
BRANCH   9  10
ATOM     10  C   UNL d   1       2.297 -13.603  -1.817  0.00  0.00     0.010 C 
BRANCH  10  11
ATOM     11  C   UNL d   1       1.986 -15.029  -2.263  0.00  0.00     0.111 C 
BRANCH  11  12
ATOM     12  C   UNL d   1       3.125 -15.961  -1.922  0.00  0.00     0.258 C 
ATOM     13  O   UNL d   1       4.167 -15.633  -1.371  0.00  0.00    -0.265 OA
BRANCH  12  14
ATOM     14  O   UNL d   1       2.819 -17.228  -2.321  0.00  0.00    -0.326 OA
ATOM     15  C   UNL d   1       3.848 -18.177  -2.035  0.00  0.00     0.213 C 
ENDBRANCH  12  14
ENDBRANCH  11  12
ENDBRANCH  10  11
ENDBRANCH   9  10
ENDBRANCH   8   9
ENDBRANCH   7   8
ENDBRANCH   6   7
ENDBRANCH   5   6
ENDBRANCH   1   5
BRANCH   2  16
ATOM     16  C   UNL d   1       1.421  -4.390  -1.825  0.00  0.00     0.034 A 
ATOM     17  C   UNL d   1       1.267  -3.777  -0.581  0.00  0.00     0.030 A 
ATOM     18  C   UNL d   1       1.787  -2.504  -0.335  0.00  0.00     0.018 A 
ATOM     19  C   UNL d   1       2.483  -1.811  -1.331  0.00  0.00     0.048 A 
ATOM     20  C   UNL d   1       2.650  -2.426  -2.578  0.00  0.00     0.018 A 
ATOM     21  C   UNL d   1       2.127  -3.704  -2.823  0.00  0.00     0.030 A 
BRANCH  19  22
ATOM     22  C   UNL d   1       3.027  -0.435  -1.037  0.00  0.00     0.417 C 
ATOM     23  F   UNL d   1       3.730   0.105  -2.071  0.00  0.00    -0.166 F 
ATOM     24  F   UNL d   1       3.871  -0.425   0.032  0.00  0.00    -0.166 F 
ATOM     25  F   UNL d   1       2.045   0.462  -0.744  0.00  0.00    -0.166 F 
ENDBRANCH  19  22
ENDBRANCH   2  16
TORSDOF 11
