REMARK  4 active torsions:
REMARK  status: ('A' for Active; 'I' for Inactive)
REMARK    1  A    between atoms: C_2  and  N_1 
REMARK    2  A    between atoms: S_6  and  C_4 
REMARK    3  A    between atoms: C_7  and  S_6 
REMARK    4  A    between atoms: C_8  and  C_7 
ROOT
ATOM      1  C   UNL d   1       0.413  -2.034   1.672  0.00  0.00     0.119 A 
ATOM      2  C   UNL d   1       0.763  -0.721   2.016  0.00  0.00     0.033 A 
ATOM      3  C   UNL d   1      -0.855  -2.357   1.158  0.00  0.00     0.037 A 
ATOM      4  C   UNL d   1      -0.208   0.275   1.832  0.00  0.00     0.021 A 
ATOM      5  C   UNL d   1      -1.796  -1.347   0.979  0.00  0.00     0.003 A 
ATOM      6  C   UNL d   1      -1.472  -0.033   1.314  0.00  0.00     0.002 A 
ENDROOT
BRANCH   2   7
ATOM      7  S   UNL d   1       2.303  -0.236   2.788  0.00  0.00    -0.123 SA
BRANCH   7   8
ATOM      8  C   UNL d   1       3.213   0.371   1.323  0.00  0.00     0.118 C 
BRANCH   8   9
ATOM      9  C   UNL d   1       4.541   0.976   1.712  0.00  0.00    -0.049 A 
ATOM     10  C   UNL d   1       5.676   0.167   1.859  0.00  0.00     0.008 A 
ATOM     11  C   UNL d   1       6.903   0.723   2.234  0.00  0.00     0.007 A 
ATOM     12  C   UNL d   1       7.019   2.097   2.474  0.00  0.00    -0.062 A 
ATOM     13  C   UNL d   1       5.887   2.906   2.334  0.00  0.00     0.007 A 
ATOM     14  C   UNL d   1       8.340   2.676   2.888  0.00  0.00     0.048 C 
ATOM     15  C   UNL d   1       4.659   2.351   1.960  0.00  0.00     0.008 A 
ENDBRANCH   8   9
ENDBRANCH   7   8
ENDBRANCH   2   7
BRANCH   1  16
ATOM     16  N   UNL d   1       1.354  -3.127   1.827  0.00  0.00    -0.114 N 
ATOM     17  O   UNL d   1       2.400  -3.071   1.165  0.00  0.00    -0.532 OA
ATOM     18  O   UNL d   1       1.008  -4.069   2.551  0.00  0.00    -0.532 OA
ENDBRANCH   1  16
TORSDOF 4
