REMARK  5 active torsions:
REMARK  status: ('A' for Active; 'I' for Inactive)
REMARK    1  A    between atoms: C_8  and  C_3 
REMARK    2  A    between atoms: C_17  and  C_4 
REMARK    3  A    between atoms: C_7  and  O_12 
REMARK    4  A    between atoms: C_11  and  C_7 
REMARK    5  A    between atoms: O_12  and  C_17 
ROOT
ATOM      1  N   UNL d   1       1.420  -0.498   0.447  0.00  0.00    -0.351 N 
ATOM      2  HN  UNL d   1       2.188  -0.959   0.936  1.00  0.00     0.166 HD
ATOM      3  C   UNL d   1       1.286   0.874   0.293  0.00  0.00     0.049 A 
ATOM      4  C   UNL d   1       0.411  -1.122  -0.129  0.00  0.00     0.075 A 
ATOM      5  S   UNL d   1      -0.751  -0.093  -0.879  0.00  0.00    -0.084 SA
ATOM      6  C   UNL d   1       0.171   1.273  -0.416  0.00  0.00     0.082 A 
ENDROOT
BRANCH   3   7
ATOM      7  C   UNL d   1       2.279   1.790   0.841  0.00  0.00    -0.007 A 
ATOM      8  C   UNL d   1       3.612   1.369   0.954  0.00  0.00     0.039 A 
ATOM      9  C   UNL d   1       4.587   2.219   1.485  0.00  0.00     0.056 A 
ATOM     10 CL   UNL d   1       6.207   1.626   1.578  0.00  0.00    -0.083 Cl
ATOM     11  C   UNL d   1       4.234   3.502   1.917  0.00  0.00     0.055 A 
ATOM     12  C   UNL d   1       2.907   3.927   1.813  0.00  0.00     0.026 A 
ATOM     13 CL   UNL d   1       5.380   4.605   2.591  0.00  0.00    -0.083 Cl
ATOM     14  C   UNL d   1       1.935   3.076   1.278  0.00  0.00     0.015 A 
ENDBRANCH   3   7
BRANCH   4  15
ATOM     15  C   UNL d   1       0.172  -2.603  -0.126  0.00  0.00     0.243 C 
BRANCH  15  16
ATOM     16  O   UNL d   1       1.417  -3.317  -0.035  0.00  0.00    -0.314 OA
BRANCH  16  17
ATOM     17  C   UNL d   1       2.072  -3.521  -1.207  0.00  0.00     0.266 C 
ATOM     18  O   UNL d   1       1.719  -3.045  -2.284  0.00  0.00    -0.264 OA
BRANCH  17  19
ATOM     19  C   UNL d   1       3.253  -4.493  -1.054  0.00  0.00     0.037 C 
ATOM     20  C   UNL d   1       3.467  -4.943   0.401  0.00  0.00     0.025 C 
ATOM     21  C   UNL d   1       2.954  -5.725  -1.923  0.00  0.00     0.025 C 
ATOM     22  C   UNL d   1       4.541  -3.826  -1.553  0.00  0.00     0.025 C 
ENDBRANCH  17  19
ENDBRANCH  16  17
ENDBRANCH  15  16
ENDBRANCH   4  15
TORSDOF 5
