REMARK  6 active torsions:
REMARK  status: ('A' for Active; 'I' for Inactive)
REMARK    1  A    between atoms: O_8  and  N_1 
REMARK    2  A    between atoms: C_13  and  C_2 
REMARK    3  A    between atoms: C_14  and  O_8 
REMARK    4  A    between atoms: C_9  and  C_14 
REMARK    5  A    between atoms: C_15  and  C_10 
REMARK    6  A    between atoms: O_21  and  C_16 
ROOT
ATOM      1  N   UNL d   1       2.269  -0.688   0.057  0.00  0.00    -0.166 N 
ATOM      2  C   UNL d   1       2.262   0.697  -0.045  0.00  0.00     0.147 C 
ATOM      3  C   UNL d   1       1.109  -1.406   0.346  0.00  0.00     0.285 C 
ATOM      4  N   UNL d   1       1.151   1.372  -0.126  0.00  0.00    -0.339 N 
ATOM      5  HN  UNL d   1       1.170   2.389  -0.206  1.00  0.00     0.167 HD
ATOM      6  C   UNL d   1      -0.147  -0.685   0.105  0.00  0.00     0.061 A 
ATOM      7  C   UNL d   1      -0.070   0.689  -0.100  0.00  0.00     0.049 A 
ATOM      8  O   UNL d   1       1.061  -2.542   0.810  0.00  0.00    -0.265 OA
ATOM      9  C   UNL d   1      -1.379  -1.350   0.125  0.00  0.00     0.019 A 
ATOM     10  C   UNL d   1      -1.256   1.410  -0.251  0.00  0.00     0.030 A 
ATOM     11  C   UNL d   1      -2.554  -0.621  -0.043  0.00  0.00     0.001 A 
ATOM     12  C   UNL d   1      -2.494   0.761  -0.219  0.00  0.00     0.002 A 
ENDROOT
BRANCH   1  13
ATOM     13  O   UNL d   1       3.473  -1.345   0.427  0.00  0.00    -0.264 OA
BRANCH  13  14
ATOM     14  C   UNL d   1       3.745  -2.436  -0.479  0.00  0.00     0.243 C 
BRANCH  14  15
ATOM     15  C   UNL d   1       4.931  -3.267  -0.021  0.00  0.00     0.002 A 
ATOM     16  C   UNL d   1       5.911  -2.729   0.836  0.00  0.00     0.027 A 
ATOM     17  C   UNL d   1       6.997  -3.507   1.254  0.00  0.00     0.010 A 
ATOM     18  C   UNL d   1       7.136  -4.813   0.777  0.00  0.00     0.018 A 
ATOM     19  C   UNL d   1       6.183  -5.354  -0.088  0.00  0.00     0.038 A 
ATOM     20  C   UNL d   1       5.078  -4.593  -0.485  0.00  0.00     0.076 A 
BRANCH  17  21
ATOM     21  C   UNL d   1       8.032  -2.996   2.194  0.00  0.00     0.155 C 
ATOM     22  O   UNL d   1       9.168  -3.467   2.157  0.00  0.00    -0.293 OA
ATOM     23  C   UNL d   1       7.667  -1.931   3.195  0.00  0.00     0.096 C 
ENDBRANCH  17  21
BRANCH  20  24
ATOM     24  O   UNL d   1       4.103  -5.046  -1.336  0.00  0.00    -0.355 OA
ATOM     25  C   UNL d   1       4.071  -6.445  -1.604  0.00  0.00     0.210 C 
ENDBRANCH  20  24
ENDBRANCH  14  15
ENDBRANCH  13  14
ENDBRANCH   1  13
BRANCH   2  26
ATOM     26  C   UNL d   1       3.532   1.489  -0.035  0.00  0.00     0.010 A 
ATOM     27  C   UNL d   1       4.707   1.084  -0.674  0.00  0.00     0.015 A 
ATOM     28  C   UNL d   1       5.837   1.911  -0.659  0.00  0.00     0.001 A 
ATOM     29  C   UNL d   1       5.795   3.154  -0.026  0.00  0.00     0.000 A 
ATOM     30  C   UNL d   1       4.622   3.579   0.591  0.00  0.00     0.001 A 
ATOM     31  C   UNL d   1       3.498   2.752   0.584  0.00  0.00     0.015 A 
ENDBRANCH   2  26
TORSDOF 6
