REMARK  7 active torsions:
REMARK  status: ('A' for Active; 'I' for Inactive)
REMARK    1  A    between atoms: C_12  and  N_1 
REMARK    2  A    between atoms: C_15  and  C_5 
REMARK    3  A    between atoms: C_9  and  C_12 
REMARK    4  A    between atoms: C_19  and  C_10 
REMARK    5  A    between atoms: C_22  and  C_15 
REMARK    6  A    between atoms: O_29  and  C_22 
REMARK    7  A    between atoms: C_36  and  O_29 
ROOT
ATOM      1  N   UNL d   1       5.212   0.758   0.925  0.00  0.00    -0.351 N 
ATOM      2  HN  UNL d   1       4.808   0.792   1.862  1.00  0.00     0.166 HD
ATOM      3  C   UNL d   1       4.872  -0.117  -0.006  0.00  0.00     0.071 A 
ATOM      4  C   UNL d   1       6.195   1.628   0.456  0.00  0.00     0.049 A 
ATOM      5  S   UNL d   1       5.670   0.095  -1.518  0.00  0.00    -0.085 SA
ATOM      6  C   UNL d   1       6.551   1.409  -0.863  0.00  0.00     0.081 A 
ENDROOT
BRANCH   3   7
ATOM      7  C   UNL d   1       3.819  -1.188   0.133  0.00  0.00     0.217 C 
BRANCH   7   8
ATOM      8  N   UNL d   1       4.395  -2.501   0.448  0.00  0.00    -0.251 N 
ATOM      9  N   UNL d   1       4.762  -3.303  -0.620  0.00  0.00    -0.298 N 
ATOM     10  C   UNL d   1       5.209  -4.506  -0.391  0.00  0.00     0.046 A 
ATOM     11  HN  UNL d   1       4.683  -2.955  -1.575  1.00  0.00     0.187 HD
ATOM     12  C   UNL d   1       5.381  -5.060   0.966  0.00  0.00     0.004 A 
ATOM     13  C   UNL d   1       4.970  -4.264   2.033  0.00  0.00     0.046 A 
ATOM     14  C   UNL d   1       5.933  -6.328   1.223  0.00  0.00     0.014 A 
ATOM     15  C   UNL d   1       4.432  -2.919   1.775  0.00  0.00     0.273 A 
ATOM     16  C   UNL d   1       5.081  -4.738   3.347  0.00  0.00     0.018 A 
ATOM     17  O   UNL d   1       4.031  -2.246   2.723  0.00  0.00    -0.266 OA
ATOM     18  C   UNL d   1       5.609  -5.998   3.597  0.00  0.00     0.001 A 
ATOM     19  C   UNL d   1       6.040  -6.794   2.539  0.00  0.00     0.001 A 
BRANCH  10  20
ATOM     20  C   UNL d   1       5.596  -5.342  -1.603  0.00  0.00     0.170 C 
BRANCH  20  21
ATOM     21  C   UNL d   1       4.800  -6.608  -1.766  0.00  0.00     0.264 C 
ATOM     22  O   UNL d   1       3.708  -6.832  -1.257  0.00  0.00    -0.265 OA
BRANCH  21  23
ATOM     23  O   UNL d   1       5.491  -7.487  -2.547  0.00  0.00    -0.322 OA
BRANCH  23  24
ATOM     24  C   UNL d   1       4.893  -8.780  -2.732  0.00  0.00     0.174 C 
ATOM     25  C   UNL d   1       3.939  -8.757  -3.910  0.00  0.00     0.034 C 
ENDBRANCH  23  24
ENDBRANCH  21  23
ENDBRANCH  20  21
ENDBRANCH  10  20
ENDBRANCH   7   8
ENDBRANCH   3   7
BRANCH   4  26
ATOM     26  C   UNL d   1       6.925   2.535   1.355  0.00  0.00    -0.008 C 
ATOM     27  C   UNL d   1       6.717   2.457   2.740  0.00  0.00     0.022 C 
ATOM     28  C   UNL d   1       7.708   2.875   3.650  0.00  0.00    -0.042 C 
ATOM     29  C   UNL d   1       7.508   2.773   5.171  0.00  0.00    -0.020 C 
ATOM     30  C   UNL d   1       8.943   3.297   3.109  0.00  0.00    -0.043 C 
ATOM     31  C   UNL d   1       8.868   2.677   5.913  0.00  0.00     0.015 C 
ATOM     32  C   UNL d   1       6.783   4.048   5.661  0.00  0.00     0.020 C 
ATOM     33  C   UNL d   1       6.652   1.555   5.580  0.00  0.00     0.020 C 
ATOM     34  C   UNL d   1       9.921   2.021   5.030  0.00  0.00     0.015 C 
ATOM     35  C   UNL d   1      10.259   2.946   3.829  0.00  0.00    -0.020 C 
ATOM     36  C   UNL d   1      11.049   4.172   4.319  0.00  0.00     0.020 C 
ATOM     37  C   UNL d   1      11.184   2.124   2.881  0.00  0.00     0.020 C 
ATOM     38  C   UNL d   1       8.976   3.740   1.780  0.00  0.00     0.009 C 
ATOM     39  C   UNL d   1       7.973   3.340   0.899  0.00  0.00     0.014 C 
ENDBRANCH   4  26
TORSDOF 7
