REMARK  1 active torsions:
REMARK  status: ('A' for Active; 'I' for Inactive)
REMARK    1  A    between atoms: C_2  and  N_1 
REMARK       I    between atoms: C_4  and  N_1 
ROOT
ATOM      1  C   UNL d   1       0.238  -0.577  -1.108  0.00  0.00     0.052 A 
ATOM      2  C   UNL d   1      -1.035  -0.062  -1.403  0.00  0.00     0.040 A 
ATOM      3  C   UNL d   1      -1.829  -0.653  -2.389  0.00  0.00     0.063 A 
ATOM      4  C   UNL d   1       0.672  -1.742  -1.754  0.00  0.00     0.034 A 
ATOM      5  C   UNL d   1      -1.367  -1.792  -3.036  0.00  0.00     0.117 A 
ATOM      6 BR   UNL d   1      -1.693   1.505  -0.554  0.00  0.00    -0.049 Br
ATOM      7  C   UNL d   1      -0.136  -2.351  -2.719  0.00  0.00     0.044 A 
ATOM      8  F   UNL d   1      -2.126  -2.364  -3.979  0.00  0.00    -0.206 F 
ENDROOT
BRANCH   1   9
ATOM      9  N   UNL d   1       1.028   0.048  -0.126  0.00  0.00    -0.326 N 
ATOM     10  C   UNL d   1       2.374   0.275  -0.105  0.00  0.00     0.218 C 
ATOM     11  O   UNL d   1       2.893   0.727   0.915  0.00  0.00    -0.274 OA
ATOM     12  C   UNL d   1       3.192   0.079  -1.356  0.00  0.00     0.117 C 
ATOM     13  H   UNL d   1       0.539   0.546   0.611  0.00  0.00     0.169 HD
ENDBRANCH   1   9
TORSDOF 1
