REMARK  4 active torsions:
REMARK  status: ('A' for Active; 'I' for Inactive)
REMARK    1  A    between atoms: C_3  and  N_1 
REMARK    2  A    between atoms: N_4  and  C_3 
REMARK    3  A    between atoms: C_6  and  N_4 
REMARK    4  A    between atoms: N_11  and  C_5 
ROOT
ATOM      1  N   UNL d   1       1.103  -2.490   0.401  0.00  0.00    -0.333 N 
ATOM      2  H   UNL d   1       0.667  -1.597   0.590  0.00  0.00     0.168 HD
ENDROOT
BRANCH   1   3
ATOM      3  C   UNL d   1       0.202  -3.461   0.006  0.00  0.00     0.177 C 
ATOM      4  S   UNL d   1       0.380  -5.121   0.244  0.00  0.00    -0.040 SA
BRANCH   3   5
ATOM      5  N   UNL d   1      -0.968  -2.948  -0.493  0.00  0.00    -0.329 N 
ATOM      6  C   UNL d   1      -0.875  -2.297  -1.606  0.00  0.00     0.179 C 
ATOM      7  HN  UNL d   1      -1.860  -3.073  -0.015  1.00  0.00     0.169 HD
BRANCH   6   8
ATOM      8  N   UNL d   1      -1.927  -1.796  -2.334  0.00  0.00    -0.386 N 
ATOM      9  C   UNL d   1      -1.706  -0.936  -3.485  0.00  0.00     0.149 C 
ATOM     10  C   UNL d   1      -3.217  -2.477  -2.303  0.00  0.00     0.149 C 
ENDBRANCH   6   8
ENDBRANCH   3   5
ENDBRANCH   1   3
BRANCH   1  11
ATOM     11  C   UNL d   1       2.512  -2.551   0.495  0.00  0.00     0.040 A 
ATOM     12  C   UNL d   1       3.215  -1.612   1.275  0.00  0.00    -0.035 A 
ATOM     13  C   UNL d   1       4.626  -1.631   1.267  0.00  0.00     0.015 A 
ATOM     14  C   UNL d   1       2.554  -0.579   2.146  0.00  0.00     0.050 C 
ATOM     15  C   UNL d   1       5.344  -2.566   0.511  0.00  0.00    -0.061 A 
ATOM     16  C   UNL d   1       4.637  -3.485  -0.260  0.00  0.00     0.009 A 
ATOM     17  C   UNL d   1       6.842  -2.555   0.510  0.00  0.00     0.048 C 
ATOM     18  C   UNL d   1       3.240  -3.470  -0.266  0.00  0.00     0.030 A 
ENDBRANCH   1  11
TORSDOF 4
