REMARK  6 active torsions:
REMARK  status: ('A' for Active; 'I' for Inactive)
REMARK    1  A    between atoms: C_4  and  C_1 
REMARK    2  A    between atoms: C_8  and  C_1 
REMARK    3  A    between atoms: C_2  and  C_3 
REMARK    4  A    between atoms: C_7  and  C_2 
REMARK    5  A    between atoms: C_3  and  C_10 
REMARK    6  A    between atoms: C_9  and  C_4 
ROOT
ATOM      1  C   UNL d   1       1.279  -2.662   0.166  0.00  0.00    -0.050 A 
ATOM      2  C   UNL d   1       3.471  -3.513   0.850  0.00  0.00    -0.050 A 
ATOM      3  C   UNL d   1       2.560  -2.452   0.699  0.00  0.00     0.015 A 
ATOM      4  C   UNL d   1       1.789  -5.026  -0.027  0.00  0.00     0.001 A 
ATOM      5  C   UNL d   1       3.073  -4.800   0.472  0.00  0.00     0.007 A 
ATOM      6  C   UNL d   1       0.896  -3.966  -0.173  0.00  0.00     0.007 A 
ENDROOT
BRANCH   1   7
ATOM      7  C   UNL d   1       0.314  -1.517  -0.025  0.00  0.00     0.122 C 
BRANCH   7   8
ATOM      8  C   UNL d   1       0.899  -0.309  -0.732  0.00  0.00     0.163 C 
ATOM      9  O   UNL d   1       1.405   0.621  -0.103  0.00  0.00    -0.292 OA
BRANCH   8  10
ATOM     10  C   UNL d   1       0.838  -0.223  -2.220  0.00  0.00     0.010 A 
ATOM     11  C   UNL d   1       0.756   1.050  -2.802  0.00  0.00     0.015 A 
ATOM     12  C   UNL d   1       0.735   1.191  -4.189  0.00  0.00     0.001 A 
ATOM     13  C   UNL d   1       0.805   0.066  -5.007  0.00  0.00     0.000 A 
ATOM     14  C   UNL d   1       0.884  -1.204  -4.434  0.00  0.00     0.001 A 
ATOM     15  C   UNL d   1       0.896  -1.352  -3.043  0.00  0.00     0.015 A 
ENDBRANCH   8  10
ENDBRANCH   7   8
ENDBRANCH   1   7
BRANCH   2  16
ATOM     16  C   UNL d   1       4.884  -3.229   1.305  0.00  0.00     0.122 C 
BRANCH  16  17
ATOM     17  C   UNL d   1       5.430  -4.160   2.372  0.00  0.00     0.163 C 
ATOM     18  O   UNL d   1       6.223  -5.056   2.077  0.00  0.00    -0.292 OA
BRANCH  17  19
ATOM     19  C   UNL d   1       5.041  -3.976   3.805  0.00  0.00     0.010 A 
ATOM     20  C   UNL d   1       4.058  -3.070   4.216  0.00  0.00     0.015 A 
ATOM     21  C   UNL d   1       3.731  -2.953   5.572  0.00  0.00     0.001 A 
ATOM     22  C   UNL d   1       4.385  -3.733   6.524  0.00  0.00     0.000 A 
ATOM     23  C   UNL d   1       5.372  -4.632   6.125  0.00  0.00     0.001 A 
ATOM     24  C   UNL d   1       5.698  -4.753   4.774  0.00  0.00     0.015 A 
ENDBRANCH  17  19
ENDBRANCH  16  17
ENDBRANCH   2  16
TORSDOF 6
