REMARK  3 active torsions:
REMARK  status: ('A' for Active; 'I' for Inactive)
REMARK    1  A    between atoms: O_4  and  C_3 
REMARK    2  A    between atoms: C_10  and  O_4 
REMARK    3  A    between atoms: C_8  and  C_10 
ROOT
ATOM      1  C   UNL d   1      -1.147  -0.025  -0.028  0.00  0.00     0.069 A 
ATOM      2  C   UNL d   1       0.066   0.669   0.007  0.00  0.00     0.050 A 
ATOM      3  C   UNL d   1      -1.169  -1.430  -0.050  0.00  0.00     0.091 A 
ATOM      4  C   UNL d   1       0.041  -2.127   0.016  0.00  0.00     0.040 A 
ATOM      5  C   UNL d   1       1.262  -0.043   0.032  0.00  0.00     0.035 A 
ATOM      6 CL   UNL d   1      -2.609   0.897  -0.069  0.00  0.00    -0.081 Cl
ATOM      7  C   UNL d   1       1.255  -1.435   0.049  0.00  0.00     0.026 A 
ATOM      8 CL   UNL d   1       2.762   0.801   0.045  0.00  0.00    -0.084 Cl
ENDROOT
BRANCH   3   9
ATOM      9  O   UNL d   1      -2.395  -2.042  -0.122  0.00  0.00    -0.342 OA
BRANCH   9  10
ATOM     10  C   UNL d   1      -2.398  -3.365  -0.646  0.00  0.00     0.253 C 
BRANCH  10  11
ATOM     11  C   UNL d   1      -3.784  -3.781  -1.111  0.00  0.00     0.146 C 
ATOM     12  O   UNL d   1      -4.118  -4.968  -1.125  0.00  0.00    -0.296 OA
ATOM     13  C   UNL d   1      -4.692  -2.711  -1.655  0.00  0.00     0.093 C 
ENDBRANCH  10  11
ENDBRANCH   9  10
ENDBRANCH   3   9
TORSDOF 3
