REMARK  4 active torsions:
REMARK  status: ('A' for Active; 'I' for Inactive)
REMARK    1  A    between atoms: C_7  and  N_1 
REMARK    2  A    between atoms: C_8  and  C_7 
REMARK       I    between atoms: N_12  and  C_8 
REMARK    3  A    between atoms: N_9  and  N_12 
REMARK    4  A    between atoms: C_11  and  C_16 
ROOT
ATOM      1  C   UNL d   1       0.991  -3.172  -0.145  0.00  0.00     0.255 C 
ATOM      2  N   UNL d   1       2.116  -2.499   0.291  0.00  0.00    -0.269 N 
ATOM      3  O   UNL d   1       1.012  -4.326  -0.578  0.00  0.00    -0.270 OA
ATOM      4  H   UNL d   1       1.998  -1.572   0.716  0.00  0.00     0.190 HD
ENDROOT
BRANCH   1   5
ATOM      5  C   UNL d   1      -0.331  -2.421  -0.134  0.00  0.00     0.253 C 
BRANCH   5   6
ATOM      6  N   UNL d   1      -0.405  -1.089   0.462  0.00  0.00    -0.286 N 
ATOM      7  N   UNL d   1       0.644  -0.580   1.150  0.00  0.00    -0.301 N 
ATOM      8  C   UNL d   1       0.156   0.506   1.763  0.00  0.00     0.041 C 
ATOM      9  HN  UNL d   1       1.596  -0.943   1.193  1.00  0.00     0.187 HD
ATOM     10  C   UNL d   1       1.025   1.297   2.665  0.00  0.00     0.071 C 
ATOM     11  C   UNL d   1      -1.190   0.713   1.415  0.00  0.00     0.058 C 
ATOM     12  C   UNL d   1      -1.520  -0.274   0.514  0.00  0.00     0.044 C 
ATOM     13 BR   UNL d   1      -2.288   2.079   2.072  0.00  0.00    -0.047 Br
ATOM     14  C   UNL d   1      -2.779  -0.496  -0.243  0.00  0.00     0.071 C 
ENDBRANCH   5   6
ENDBRANCH   1   5
BRANCH   2  15
ATOM     15  N   UNL d   1       3.335  -3.107   0.286  0.00  0.00    -0.308 N 
ATOM     16  C   UNL d   1       4.318  -2.393   0.742  0.00  0.00     0.120 C 
ATOM     17  HN  UNL d   1       3.466  -4.060  -0.052  1.00  0.00     0.186 HD
BRANCH  16  18
ATOM     18  C   UNL d   1       5.702  -2.924   0.769  0.00  0.00     0.002 A 
ATOM     19  C   UNL d   1       6.785  -2.155   1.219  0.00  0.00     0.045 A 
ATOM     20 CL   UNL d   1       6.605  -0.555   1.847  0.00  0.00    -0.083 Cl
ATOM     21  C   UNL d   1       8.085  -2.681   1.171  0.00  0.00     0.024 A 
ATOM     22  C   UNL d   1       8.307  -3.970   0.684  0.00  0.00     0.002 A 
ATOM     23  C   UNL d   1       7.232  -4.746   0.259  0.00  0.00     0.001 A 
ATOM     24  C   UNL d   1       5.936  -4.228   0.302  0.00  0.00     0.014 A 
ENDBRANCH  16  18
ENDBRANCH   2  15
TORSDOF 4
