REMARK  5 active torsions:
REMARK  status: ('A' for Active; 'I' for Inactive)
REMARK    1  A    between atoms: C_2  and  N_1 
REMARK    2  A    between atoms: N_6  and  C_5 
REMARK    3  A    between atoms: C_19  and  N_9 
REMARK    4  A    between atoms: C_22  and  C_19 
REMARK    5  A    between atoms: O_20  and  C_22 
ROOT
ATOM      1  C   UNL d   1      -0.047  -0.262  -1.085  0.00  0.00     0.115 A 
ATOM      2  C   UNL d   1      -1.134  -1.100  -0.734  0.00  0.00     0.026 A 
ATOM      3  C   UNL d   1      -1.788  -1.829  -1.763  0.00  0.00     0.071 A 
ATOM      4  C   UNL d   1      -1.325  -1.700  -3.108  0.00  0.00     0.058 A 
ATOM      5  C   UNL d   1       0.400  -0.117  -2.394  0.00  0.00     0.039 A 
ATOM      6  C   UNL d   1      -0.237  -0.840  -3.386  0.00  0.00     0.034 A 
ATOM      7  N   UNL d   1      -2.845  -2.623  -1.456  0.00  0.00    -0.363 N 
ATOM      8  HN  UNL d   1      -3.323  -3.137  -2.196  1.00  0.00     0.165 HD
ATOM      9  C   UNL d   1      -1.618  -1.248   0.592  0.00  0.00     0.017 A 
ATOM     10  C   UNL d   1      -3.270  -2.739  -0.180  0.00  0.00     0.088 A 
ATOM     11  C   UNL d   1      -2.690  -2.079   0.873  0.00  0.00     0.018 A 
ENDROOT
BRANCH   4  12
ATOM     12  N   UNL d   1      -1.821  -2.426  -4.202  0.00  0.00    -0.376 N 
ATOM     13  C   UNL d   1      -2.533  -3.703  -4.023  0.00  0.00     0.153 C 
ATOM     14  C   UNL d   1      -2.386  -4.558  -5.314  0.00  0.00     0.292 C 
ATOM     15  N   UNL d   1      -2.747  -3.888  -6.595  0.00  0.00     0.093 N 
ATOM     16  C   UNL d   1      -2.059  -2.574  -6.642  0.00  0.00     0.292 C 
ATOM     17  C   UNL d   1      -2.264  -1.682  -5.395  0.00  0.00     0.153 C 
BRANCH  15  18
ATOM     18  C   UNL d   1      -4.209  -3.783  -6.733  0.00  0.00     0.298 C 
BRANCH  18  19
ATOM     19  C   UNL d   1      -4.671  -3.252  -8.099  0.00  0.00     0.194 C 
BRANCH  19  20
ATOM     20  O   UNL d   1      -6.096  -3.259  -8.159  0.00  0.00    -0.399 OA
ATOM     21  H   UNL d   1      -6.340  -2.927  -9.040  0.00  0.00     0.209 HD
ENDBRANCH  19  20
ENDBRANCH  18  19
ENDBRANCH  15  18
ENDBRANCH   4  12
BRANCH   1  22
ATOM     22  N   UNL d   1       0.678   0.488  -0.076  0.00  0.00    -0.115 N 
ATOM     23  O   UNL d   1       1.254  -0.155   0.811  0.00  0.00    -0.532 OA
ATOM     24  O   UNL d   1       0.695   1.721  -0.198  0.00  0.00    -0.532 OA
ENDBRANCH   1  22
TORSDOF 5
