REMARK  7 active torsions:
REMARK  status: ('A' for Active; 'I' for Inactive)
REMARK    1  A    between atoms: C_9  and  C_1 
REMARK    2  A    between atoms: C_8  and  C_2 
REMARK    3  A    between atoms: C_7  and  C_3 
REMARK    4  A    between atoms: O_16  and  C_8 
REMARK    5  A    between atoms: O_17  and  C_9 
REMARK    6  A    between atoms: C_21  and  O_16 
REMARK    7  A    between atoms: C_20  and  O_17 
ROOT
ATOM      1  C   UNL d   1      -1.268  -1.037   0.141  0.00  0.00     0.053 C 
ATOM      2  C   UNL d   1       1.292  -1.030   0.149  0.00  0.00     0.053 C 
ATOM      3  C   UNL d   1       0.022  -1.858  -0.078  0.00  0.00     0.108 C 
ATOM      4  C   UNL d   1      -1.222   0.316   0.043  0.00  0.00     0.018 C 
ATOM      5  C   UNL d   1       1.233   0.320   0.057  0.00  0.00     0.018 C 
ATOM      6  N   UNL d   1       0.009   0.938  -0.134  0.00  0.00    -0.362 N 
ATOM      7  C   UNL d   1      -2.377   1.283   0.112  0.00  0.00     0.069 C 
ATOM      8  C   UNL d   1       2.426   1.239   0.140  0.00  0.00     0.069 C 
ATOM      9  H   UNL d   1       0.004   1.956  -0.157  0.00  0.00     0.165 HD
ENDROOT
BRANCH   1  10
ATOM     10  C   UNL d   1      -2.519  -1.804   0.403  0.00  0.00     0.292 C 
ATOM     11  O   UNL d   1      -3.654  -1.393   0.221  0.00  0.00    -0.259 OA
BRANCH  10  12
ATOM     12  O   UNL d   1      -2.216  -3.034   0.895  0.00  0.00    -0.318 OA
BRANCH  12  13
ATOM     13  C   UNL d   1      -3.322  -3.905   1.176  0.00  0.00     0.174 C 
ATOM     14  C   UNL d   1      -3.820  -4.564  -0.097  0.00  0.00     0.034 C 
ENDBRANCH  12  13
ENDBRANCH  10  12
ENDBRANCH   1  10
BRANCH   3  15
ATOM     15  C   UNL d   1       0.021  -2.468  -1.487  0.00  0.00    -0.004 A 
ATOM     16  S   UNL d   1      -0.032  -4.164  -1.724  0.00  0.00    -0.105 SA
ATOM     17  C   UNL d   1      -0.023  -3.993  -3.426  0.00  0.00     0.050 A 
ATOM     18  C   UNL d   1       0.031  -2.673  -3.816  0.00  0.00     0.008 A 
ATOM     19  C   UNL d   1       0.054  -1.796  -2.696  0.00  0.00     0.016 A 
ENDBRANCH   3  15
BRANCH   2  20
ATOM     20  C   UNL d   1       2.582  -1.745   0.357  0.00  0.00     0.292 C 
ATOM     21  O   UNL d   1       3.684  -1.238   0.186  0.00  0.00    -0.259 OA
BRANCH  20  22
ATOM     22  O   UNL d   1       2.387  -3.041   0.708  0.00  0.00    -0.318 OA
BRANCH  22  23
ATOM     23  C   UNL d   1       3.521  -3.905   0.520  0.00  0.00     0.174 C 
ATOM     24  C   UNL d   1       4.155  -4.317   1.835  0.00  0.00     0.034 C 
ENDBRANCH  22  23
ENDBRANCH  20  22
ENDBRANCH   2  20
TORSDOF 7
