REMARK  4 active torsions:
REMARK  status: ('A' for Active; 'I' for Inactive)
REMARK    1  A    between atoms: N_2  and  S_1 
REMARK    2  A    between atoms: C_3  and  S_1 
REMARK    3  A    between atoms: C_13  and  N_4 
REMARK    4  A    between atoms: C_17  and  C_13 
ROOT
ATOM      1  N   UNL d   1       0.681  -1.102   0.358  0.00  0.00    -0.303 N 
ATOM      2  N   UNL d   1       0.903  -3.914  -0.619  0.00  0.00     0.095 N 
ATOM      3  C   UNL d   1       1.558  -2.083   1.054  0.00  0.00     0.165 C 
ATOM      4  C   UNL d   1      -0.406  -1.735  -0.433  0.00  0.00     0.165 C 
ATOM      5  C   UNL d   1       0.112  -2.879  -1.321  0.00  0.00     0.293 C 
ATOM      6  C   UNL d   1       1.993  -3.239   0.124  0.00  0.00     0.293 C 
ENDROOT
BRANCH   1   7
ATOM      7  S   UNL d   1       1.395   0.309  -0.248  0.00  0.00     0.260 S 
ATOM      8  O   UNL d   1       0.475   0.953  -1.163  0.00  0.00    -0.200 OA
ATOM      9  O   UNL d   1       2.754  -0.013  -0.642  0.00  0.00    -0.200 OA
BRANCH   7  10
ATOM     10  C   UNL d   1       1.471   1.336   1.212  0.00  0.00     0.079 A 
ATOM     11  C   UNL d   1       2.618   1.334   2.008  0.00  0.00     0.026 A 
ATOM     12  C   UNL d   1       2.674   2.161   3.136  0.00  0.00     0.008 A 
ATOM     13  C   UNL d   1       1.603   3.005   3.458  0.00  0.00    -0.062 A 
ATOM     14  C   UNL d   1       0.471   3.020   2.631  0.00  0.00     0.008 A 
ATOM     15  C   UNL d   1       1.684   3.885   4.673  0.00  0.00     0.048 C 
ATOM     16  C   UNL d   1       0.406   2.189   1.508  0.00  0.00     0.026 A 
ENDBRANCH   7  10
ENDBRANCH   1   7
BRANCH   2  17
ATOM     17  C   UNL d   1       0.094  -4.773   0.267  0.00  0.00     0.311 C 
BRANCH  17  18
ATOM     18  C   UNL d   1      -0.852  -5.739  -0.430  0.00  0.00    -0.030 A 
ATOM     19  C   UNL d   1      -0.599  -6.249  -1.712  0.00  0.00     0.009 A 
ATOM     20  C   UNL d   1      -1.458  -7.186  -2.294  0.00  0.00     0.001 A 
ATOM     21  C   UNL d   1      -2.570  -7.649  -1.593  0.00  0.00     0.000 A 
ATOM     22  C   UNL d   1      -2.823  -7.173  -0.309  0.00  0.00     0.001 A 
ATOM     23  C   UNL d   1      -1.970  -6.228   0.268  0.00  0.00     0.009 A 
ENDBRANCH  17  18
ENDBRANCH   2  17
TORSDOF 4
