REMARK  3 active torsions:
REMARK  status: ('A' for Active; 'I' for Inactive)
REMARK    1  A    between atoms: C_2  and  S_1 
REMARK    2  A    between atoms: C_3  and  N_7 
REMARK    3  A    between atoms: N_7  and  C_4 
ROOT
ATOM      1  C   UNL d   1       0.365  -1.001   1.375  0.00  0.00     0.154 C 
ATOM      2  C   UNL d   1      -0.374  -0.470   2.365  0.00  0.00     0.140 C 
ATOM      3  C   UNL d   1       0.818  -0.251   0.267  0.00  0.00     0.113 C 
ATOM      4  N   UNL d   1       1.204   0.423  -0.596  0.00  0.00    -0.191 NA
ENDROOT
BRANCH   1   5
ATOM      5  S   UNL d   1       0.840  -2.665   1.470  0.00  0.00     0.183 S 
ATOM      6  O   UNL d   1       1.106  -3.174   0.139  0.00  0.00    -0.222 OA
ATOM      7  O   UNL d   1      -0.062  -3.393   2.346  0.00  0.00    -0.222 OA
ATOM      8  C   UNL d   1       2.400  -2.568   2.308  0.00  0.00     0.168 C 
ENDBRANCH   1   5
BRANCH   2   9
ATOM      9  N   UNL d   1      -0.903   0.795   2.449  0.00  0.00    -0.200 N 
ATOM     10  H   UNL d   1      -1.035   1.344   1.607  0.00  0.00     0.183 HD
BRANCH   9  11
ATOM     11  C   UNL d   1      -1.666   1.307   3.496  0.00  0.00     0.681 A 
ATOM     12  N   UNL d   1      -1.518   0.822   4.740  0.00  0.00    -0.202 N 
ATOM     13  C   UNL d   1      -2.264   1.390   5.707  0.00  0.00     0.107 A 
ATOM     14  HN  UNL d   1      -0.872   0.060   4.942  1.00  0.00     0.183 HD
ATOM     15  C   UNL d   1      -3.173   2.390   5.474  0.00  0.00     0.035 A 
ATOM     16  C   UNL d   1      -3.262   2.807   4.170  0.00  0.00     0.107 A 
ATOM     17  N   UNL d   1      -2.508   2.301   3.176  0.00  0.00    -0.202 N 
ATOM     18  HN  UNL d   1      -2.574   2.658   2.222  1.00  0.00     0.183 HD
ENDBRANCH   9  11
ENDBRANCH   2   9
TORSDOF 3
