REMARK  9 active torsions:
REMARK  status: ('A' for Active; 'I' for Inactive)
REMARK    1  A    between atoms: N_3  and  C_1 
REMARK    2  A    between atoms: N_2  and  C_4 
REMARK    3  A    between atoms: C_12  and  C_6 
REMARK    4  A    between atoms: C_7  and  C_10 
REMARK    5  A    between atoms: O_25  and  C_12 
REMARK    6  A    between atoms: C_13  and  N_24 
REMARK    7  A    between atoms: N_24  and  C_26 
REMARK    8  A    between atoms: C_27  and  O_25 
REMARK    9  A    between atoms: C_26  and  C_27 
ROOT
ATOM      1  N   UNL d   1       0.095  -7.188   0.025  0.00  0.00    -0.386 N 
ATOM      2  H   UNL d   1      -0.883  -7.407  -0.190  0.00  0.00     0.159 HD
ENDROOT
BRANCH   1   3
ATOM      3  C   UNL d   1       0.975  -8.270  -0.084  0.00  0.00     0.061 A 
ATOM      4  C   UNL d   1       0.578  -9.619   0.092  0.00  0.00     0.130 A 
ATOM      5  C   UNL d   1       1.528 -10.666   0.147  0.00  0.00     0.054 A 
ATOM      6  C   UNL d   1       2.899 -10.398   0.043  0.00  0.00     0.050 A 
ATOM      7  C   UNL d   1       3.300  -9.079  -0.174  0.00  0.00     0.018 A 
ATOM      8  C   UNL d   1       2.358  -8.045  -0.224  0.00  0.00     0.032 A 
BRANCH   4   9
ATOM      9  N   UNL d   1      -0.847 -10.004   0.225  0.00  0.00    -0.113 N 
ATOM     10  O   UNL d   1      -1.100 -11.201   0.426  0.00  0.00    -0.532 OA
ATOM     11  O   UNL d   1      -1.712  -9.124   0.104  0.00  0.00    -0.532 OA
ENDBRANCH   4   9
BRANCH   6  12
ATOM     12  C   UNL d   1       3.934 -11.485   0.205  0.00  0.00     0.417 C 
ATOM     13  F   UNL d   1       3.400 -12.704   0.488  0.00  0.00    -0.166 F 
ATOM     14  F   UNL d   1       4.695 -11.655  -0.910  0.00  0.00    -0.166 F 
ATOM     15  F   UNL d   1       4.804 -11.216   1.217  0.00  0.00    -0.166 F 
ENDBRANCH   6  12
ENDBRANCH   1   3
BRANCH   1  16
ATOM     16  C   UNL d   1       0.514  -5.813  -0.262  0.00  0.00     0.146 C 
BRANCH  16  17
ATOM     17  C   UNL d   1      -0.666  -4.839  -0.196  0.00  0.00     0.198 C 
BRANCH  17  18
ATOM     18  O   UNL d   1      -1.645  -5.134  -1.208  0.00  0.00    -0.314 OA
BRANCH  18  19
ATOM     19  C   UNL d   1      -1.349  -4.686  -2.466  0.00  0.00     0.317 C 
ATOM     20  O   UNL d   1      -0.330  -4.081  -2.763  0.00  0.00    -0.257 OA
BRANCH  19  21
ATOM     21  C   UNL d   1      -2.428  -5.052  -3.359  0.00  0.00     0.153 A 
ATOM     22  O   UNL d   1      -2.342  -4.693  -4.684  0.00  0.00    -0.282 OA
ATOM     23  C   UNL d   1      -3.472  -5.157  -5.283  0.00  0.00     0.215 A 
ATOM     24  C   UNL d   1      -4.290  -5.805  -4.391  0.00  0.00     0.066 A 
ATOM     25  C   UNL d   1      -3.615  -5.737  -3.147  0.00  0.00     0.048 A 
BRANCH  23  26
ATOM     26  N   UNL d   1      -3.615  -4.903  -6.683  0.00  0.00    -0.090 N 
ATOM     27  O   UNL d   1      -4.652  -5.329  -7.210  0.00  0.00    -0.530 OA
ATOM     28  O   UNL d   1      -2.709  -4.288  -7.258  0.00  0.00    -0.530 OA
ENDBRANCH  23  26
ENDBRANCH  19  21
ENDBRANCH  18  19
ENDBRANCH  17  18
ENDBRANCH  16  17
ENDBRANCH   1  16
TORSDOF 9
