REMARK  4 active torsions:
REMARK  status: ('A' for Active; 'I' for Inactive)
REMARK    1  A    between atoms: N_9  and  C_2 
REMARK    2  A    between atoms: C_12  and  N_5 
REMARK    3  A    between atoms: C_10  and  C_11 
REMARK    4  A    between atoms: O_19  and  C_14 
ROOT
ATOM      1  C   UNL d   1      -0.491  -0.020   0.063  0.00  0.00     0.071 A 
ATOM      2  C   UNL d   1       0.161   1.236  -0.010  0.00  0.00     0.050 A 
ATOM      3  C   UNL d   1      -1.916  -0.161   0.151  0.00  0.00     0.102 C 
ATOM      4  N   UNL d   1      -3.067  -0.328   0.205  0.00  0.00    -0.191 NA
ATOM      5  C   UNL d   1       1.574   1.192  -0.016  0.00  0.00     0.032 A 
ATOM      6  C   UNL d   1       0.242  -1.227   0.110  0.00  0.00     0.038 A 
ATOM      7  C   UNL d   1       1.634  -1.216   0.108  0.00  0.00    -0.019 A 
ATOM      8  C   UNL d   1       2.305  -0.003   0.048  0.00  0.00     0.015 A 
ENDROOT
BRANCH   2   9
ATOM      9  N   UNL d   1      -0.481   2.467  -0.085  0.00  0.00    -0.388 N 
ATOM     10  C   UNL d   1       0.099   3.671   0.509  0.00  0.00     0.149 C 
ATOM     11  C   UNL d   1      -1.778   2.667  -0.727  0.00  0.00     0.149 C 
ENDBRANCH   2   9
BRANCH   7  12
ATOM     12  C   UNL d   1       2.361  -2.501   0.153  0.00  0.00     0.099 C 
ATOM     13  N   UNL d   1       3.649  -2.571   0.044  0.00  0.00    -0.365 N 
ATOM     14  HN  UNL d   1       4.209  -1.722  -0.035  1.00  0.00     0.165 HD
BRANCH  13  15
ATOM     15  C   UNL d   1       4.266  -3.837   0.036  0.00  0.00     0.032 A 
ATOM     16  C   UNL d   1       3.725  -4.948  -0.621  0.00  0.00     0.032 A 
ATOM     17  C   UNL d   1       4.403  -6.173  -0.656  0.00  0.00     0.039 A 
ATOM     18  C   UNL d   1       5.652  -6.301  -0.052  0.00  0.00     0.068 A 
ATOM     19  C   UNL d   1       6.208  -5.194   0.592  0.00  0.00     0.039 A 
ATOM     20  C   UNL d   1       5.521  -3.974   0.635  0.00  0.00     0.032 A 
BRANCH  18  21
ATOM     21  O   UNL d   1       6.419  -7.433  -0.033  0.00  0.00    -0.356 OA
ATOM     22  C   UNL d   1       5.894  -8.571  -0.707  0.00  0.00     0.210 C 
ENDBRANCH  18  21
ENDBRANCH  13  15
ENDBRANCH   7  12
TORSDOF 4
