REMARK  5 active torsions:
REMARK  status: ('A' for Active; 'I' for Inactive)
REMARK    1  A    between atoms: N_2  and  C_1 
REMARK       I    between atoms: C_3  and  N_7 
REMARK       I    between atoms: N_4  and  C_3 
REMARK       I    between atoms: C_9  and  N_4 
REMARK    2  A    between atoms: N_5  and  C_13 
REMARK    3  A    between atoms: N_10  and  C_6 
REMARK    4  A    between atoms: C_8  and  C_12 
REMARK    5  A    between atoms: C_17  and  C_9 
ROOT
ATOM      1  C   UNL d   1       2.809  -6.451   0.241  0.00  0.00     0.325 C 
ATOM      2  N   UNL d   1       2.091  -7.372  -0.492  0.00  0.00    -0.275 N 
ATOM      3  N   UNL d   1       2.171  -5.201   0.332  0.00  0.00    -0.331 N 
ATOM      4  C   UNL d   1       2.528  -8.610  -0.923  0.00  0.00     0.259 C 
ATOM      5  N   UNL d   1       1.127  -2.524   0.381  0.00  0.00    -0.376 N 
ATOM      6  O   UNL d   1       3.849  -6.699   0.836  0.00  0.00    -0.247 OA
ATOM      7  C   UNL d   1       1.244  -4.707  -0.700  0.00  0.00     0.147 C 
ATOM      8  C   UNL d   1       2.902  -4.135   1.045  0.00  0.00     0.147 C 
ATOM      9  C   UNL d   1       0.311  -3.616  -0.164  0.00  0.00     0.143 C 
ATOM     10  C   UNL d   1       1.996  -2.964   1.498  0.00  0.00     0.143 C 
ATOM     11  O   UNL d   1       3.693  -8.944  -1.082  0.00  0.00    -0.267 OA
ATOM     12  H   UNL d   1       1.109  -7.201  -0.508  0.00  0.00     0.173 HD
ENDROOT
BRANCH   4  13
ATOM     13  C   UNL d   1       1.438  -9.550  -1.348  0.00  0.00     0.032 A 
ATOM     14  C   UNL d   1       1.748 -10.553  -2.280  0.00  0.00     0.019 A 
ATOM     15  C   UNL d   1       0.789 -11.503  -2.650  0.00  0.00     0.037 A 
ATOM     16  C   UNL d   1      -0.490 -11.449  -2.082  0.00  0.00     0.102 A 
ATOM     17  C   UNL d   1      -0.826 -10.428  -1.185  0.00  0.00     0.037 A 
ATOM     18  C   UNL d   1       0.141  -9.487  -0.812  0.00  0.00     0.019 A 
BRANCH  16  19
ATOM     19  N   UNL d   1      -1.472 -12.499  -2.384  0.00  0.00    -0.116 N 
ATOM     20  O   UNL d   1      -1.114 -13.430  -3.118  0.00  0.00    -0.532 OA
ATOM     21  O   UNL d   1      -2.597 -12.395  -1.874  0.00  0.00    -0.532 OA
ENDBRANCH  16  19
ENDBRANCH   4  13
BRANCH   5  22
ATOM     22  C   UNL d   1       0.618  -1.230   0.376  0.00  0.00     0.063 A 
ATOM     23  C   UNL d   1       1.425  -0.078   0.280  0.00  0.00     0.130 A 
ATOM     24  C   UNL d   1       0.903   1.229   0.245  0.00  0.00     0.054 A 
ATOM     25  C   UNL d   1      -0.480   1.427   0.282  0.00  0.00     0.050 A 
ATOM     26  C   UNL d   1      -1.310   0.301   0.347  0.00  0.00     0.018 A 
ATOM     27  C   UNL d   1      -0.769  -0.993   0.401  0.00  0.00     0.032 A 
BRANCH  23  28
ATOM     28  N   UNL d   1       2.863  -0.199   0.111  0.00  0.00    -0.113 N 
ATOM     29  O   UNL d   1       3.282  -0.764  -0.908  0.00  0.00    -0.532 OA
ATOM     30  O   UNL d   1       3.569   0.322   0.988  0.00  0.00    -0.532 OA
ENDBRANCH  23  28
BRANCH  25  31
ATOM     31  C   UNL d   1      -1.085   2.809   0.240  0.00  0.00     0.417 C 
ATOM     32  F   UNL d   1      -0.160   3.806   0.260  0.00  0.00    -0.166 F 
ATOM     33  F   UNL d   1      -1.835   3.013  -0.877  0.00  0.00    -0.166 F 
ATOM     34  F   UNL d   1      -1.913   3.041   1.296  0.00  0.00    -0.166 F 
ENDBRANCH  25  31
ENDBRANCH   5  22
TORSDOF 5
