REMARK  1 active torsions:
REMARK  status: ('A' for Active; 'I' for Inactive)
REMARK    1  A    between atoms: C_2  and  N_1 
ROOT
ATOM      1  N   UNL d   1       1.911   0.000  -0.018  0.00  0.00    -0.226 N 
ATOM      2  C   UNL d   1       1.103   1.170   0.053  0.00  0.00     0.267 A 
ATOM      3  C   UNL d   1       1.090  -1.159  -0.037  0.00  0.00     0.267 A 
ATOM      4  C   UNL d   1      -0.286   0.704   0.062  0.00  0.00     0.048 A 
ATOM      5  C   UNL d   1      -0.292  -0.686   0.034  0.00  0.00     0.048 A 
ATOM      6  O   UNL d   1       1.523   2.307   0.021  0.00  0.00    -0.267 OA
ATOM      7  O   UNL d   1       1.509  -2.290  -0.124  0.00  0.00    -0.267 OA
ATOM      8  C   UNL d   1      -1.456   1.438   0.044  0.00  0.00     0.018 A 
ATOM      9  C   UNL d   1      -1.468  -1.413   0.028  0.00  0.00     0.018 A 
ATOM     10  C   UNL d   1      -2.658   0.722   0.025  0.00  0.00     0.001 A 
ATOM     11  C   UNL d   1      -2.663  -0.689   0.027  0.00  0.00     0.001 A 
ENDROOT
BRANCH   1  12
ATOM     12  C   UNL d   1       3.284  -0.008  -0.113  0.00  0.00     0.153 A 
ATOM     13  C   UNL d   1       4.181   0.550   0.766  0.00  0.00     0.074 A 
ATOM     14  C   UNL d   1       5.452   0.267   0.248  0.00  0.00     0.130 A 
ATOM     15 BR   UNL d   1       3.874   1.407   2.400  0.00  0.00    -0.045 Br
ATOM     16  N   UNL d   1       5.383  -0.419  -0.898  0.00  0.00    -0.307 N 
ATOM     17  N   UNL d   1       4.057  -0.590  -1.091  0.00  0.00    -0.280 N 
ATOM     18  HN  UNL d   1       6.151  -0.738  -1.488  1.00  0.00     0.186 HD
ATOM     19  C   UNL d   1       3.616  -1.188  -2.328  0.00  0.00     0.179 C 
ENDBRANCH   1  12
TORSDOF 1
