REMARK  3 active torsions:
REMARK  status: ('A' for Active; 'I' for Inactive)
REMARK    1  A    between atoms: C_2  and  S_1 
REMARK    2  A    between atoms: N_6  and  S_1 
REMARK    3  A    between atoms: C_5  and  C_3 
REMARK       I    between atoms: N_8  and  C_5 
ROOT
ATOM      1  C   UNL d   1       0.699  -1.410  -1.223  0.00  0.00     0.185 A 
ATOM      2  C   UNL d   1      -0.223  -2.503  -2.947  0.00  0.00     0.144 A 
ATOM      3  O   UNL d   1      -0.092  -1.276  -2.352  0.00  0.00    -0.292 OA
ATOM      4  C   UNL d   1       1.087  -2.740  -1.139  0.00  0.00     0.054 A 
ATOM      5  C   UNL d   1       0.477  -3.435  -2.206  0.00  0.00     0.046 A 
ENDROOT
BRANCH   1   6
ATOM      6  S   UNL d   1       1.033  -0.024  -0.122  0.00  0.00     0.266 S 
ATOM      7  O   UNL d   1       1.258  -0.628   1.176  0.00  0.00    -0.204 OA
ATOM      8  O   UNL d   1      -0.053   0.901  -0.341  0.00  0.00    -0.204 OA
BRANCH   6   9
ATOM      9  N   UNL d   1       2.488   0.724  -0.600  0.00  0.00    -0.201 NA
ATOM     10  C   UNL d   1       2.559   1.235  -2.001  0.00  0.00     0.134 C 
ATOM     11  C   UNL d   1       1.857   2.589  -2.149  0.00  0.00     0.183 C 
ATOM     12  O   UNL d   1       2.424   3.555  -1.255  0.00  0.00    -0.389 OA
ATOM     13  C   UNL d   1       2.291   3.129   0.110  0.00  0.00     0.183 C 
ATOM     14  C   UNL d   1       2.984   1.780   0.347  0.00  0.00     0.134 C 
ENDBRANCH   6   9
ENDBRANCH   1   6
BRANCH   2  15
ATOM     15  C   UNL d   1      -1.095  -2.716  -4.095  0.00  0.00     0.277 C 
ATOM     16  N   UNL d   1      -1.323  -1.683  -5.002  0.00  0.00    -0.342 N 
ATOM     17  C   UNL d   1      -2.330  -1.855  -6.054  0.00  0.00     0.152 C 
ATOM     18  C   UNL d   1      -0.593  -0.419  -5.117  0.00  0.00     0.152 C 
ATOM     19  C   UNL d   1      -3.268  -0.643  -6.075  0.00  0.00     0.187 C 
ATOM     20  O   UNL d   1      -2.527   0.580  -6.235  0.00  0.00    -0.388 OA
ATOM     21  C   UNL d   1      -1.580   0.752  -5.166  0.00  0.00     0.187 C 
ATOM     22  O   UNL d   1      -1.630  -3.812  -4.266  0.00  0.00    -0.265 OA
ENDBRANCH   2  15
TORSDOF 3
