REMARK  4 active torsions:
REMARK  status: ('A' for Active; 'I' for Inactive)
REMARK    1  A    between atoms: C_5  and  C_1 
REMARK    2  A    between atoms: C_10  and  N_4 
REMARK       I    between atoms: C_7  and  N_9 
REMARK    3  A    between atoms: C_11  and  C_7 
REMARK    4  A    between atoms: N_9  and  C_20 
ROOT
ATOM      1  C   UNL d   1       2.007   1.445   0.152  0.00  0.00     0.056 A 
ATOM      2  C   UNL d   1       3.076   1.077  -0.676  0.00  0.00     0.034 A 
ATOM      3  C   UNL d   1       2.120   2.594   0.940  0.00  0.00     0.034 A 
ATOM      4  C   UNL d   1       4.316   3.055   0.004  0.00  0.00     0.035 A 
ATOM      5  C   UNL d   1       4.221   1.878  -0.747  0.00  0.00     0.032 A 
ATOM      6  C   UNL d   1       3.269   3.390   0.863  0.00  0.00     0.032 A 
ENDROOT
BRANCH   4   7
ATOM      7  N   UNL d   1       5.472   3.844  -0.169  0.00  0.00    -0.323 N 
ATOM      8  C   UNL d   1       5.737   5.072   0.410  0.00  0.00     0.256 C 
ATOM      9  O   UNL d   1       5.031   5.685   1.203  0.00  0.00    -0.267 OA
ATOM     10  H   UNL d   1       6.183   3.449  -0.770  0.00  0.00     0.169 HD
BRANCH   8  11
ATOM     11  C   UNL d   1       7.048   5.672   0.038  0.00  0.00     0.032 A 
ATOM     12  C   UNL d   1       7.586   5.550  -1.250  0.00  0.00     0.018 A 
ATOM     13  C   UNL d   1       8.848   6.085  -1.530  0.00  0.00     0.025 A 
ATOM     14  C   UNL d   1       9.559   6.748  -0.531  0.00  0.00     0.034 A 
ATOM     15  C   UNL d   1       9.012   6.909   0.741  0.00  0.00     0.025 A 
ATOM     16 CL   UNL d   1      11.128   7.367  -0.867  0.00  0.00    -0.084 Cl
ATOM     17  C   UNL d   1       7.752   6.377   1.024  0.00  0.00     0.018 A 
ENDBRANCH   8  11
ENDBRANCH   4   7
BRANCH   1  18
ATOM     18  N   UNL d   1       0.820   0.661   0.157  0.00  0.00    -0.267 N 
ATOM     19  N   UNL d   1       0.741  -0.484  -0.567  0.00  0.00    -0.290 N 
ATOM     20  C   UNL d   1      -0.503  -0.957  -0.363  0.00  0.00     0.134 A 
ATOM     21  HN  UNL d   1       1.471  -0.900  -1.146  1.00  0.00     0.187 HD
ATOM     22  C   UNL d   1      -1.234  -0.095   0.491  0.00  0.00     0.055 A 
ATOM     23  C   UNL d   1      -0.364   0.919   0.811  0.00  0.00     0.119 A 
BRANCH  20  24
ATOM     24  C   UNL d   1      -1.009  -2.234  -0.977  0.00  0.00     0.434 C 
ATOM     25  F   UNL d   1      -0.106  -2.848  -1.787  0.00  0.00    -0.165 F 
ATOM     26  F   UNL d   1      -1.358  -3.141  -0.024  0.00  0.00    -0.165 F 
ATOM     27  F   UNL d   1      -2.124  -2.021  -1.728  0.00  0.00    -0.165 F 
ENDBRANCH  20  24
ENDBRANCH   1  18
TORSDOF 4
