REMARK  3 active torsions:
REMARK  status: ('A' for Active; 'I' for Inactive)
REMARK    1  A    between atoms: N_9  and  C_3 
REMARK    2  A    between atoms: N_15  and  C_6 
REMARK    3  A    between atoms: C_10  and  N_9 
ROOT
ATOM      1  N   UNL d   1      -3.847   1.358  -1.194  0.00  0.00    -0.166 N 
ATOM      2  HN  UNL d   1      -4.566   0.635  -1.179  1.00  0.00     0.187 HD
ATOM      3  C   UNL d   1      -2.659   1.174  -0.624  0.00  0.00     0.685 A 
ATOM      4  N   UNL d   1      -1.709   2.105  -0.594  0.00  0.00    -0.188 N 
ATOM      5  HN  UNL d   1      -0.810   1.959  -0.135  1.00  0.00     0.185 HD
ATOM      6  C   UNL d   1      -4.047   2.523  -1.782  0.00  0.00     0.170 A 
ATOM      7  N   UNL d   1      -3.177   3.516  -1.812  0.00  0.00    -0.328 N 
ATOM      8  HN  UNL d   1      -3.371   4.413  -2.257  1.00  0.00     0.169 HD
ATOM      9  C   UNL d   1      -2.026   3.241  -1.209  0.00  0.00     0.200 A 
ENDROOT
BRANCH   3  10
ATOM     10  N   UNL d   1      -2.369  -0.024   0.030  0.00  0.00    -0.191 N 
ATOM     11  H   UNL d   1      -1.457   0.020   0.458  0.00  0.00     0.184 HD
BRANCH  10  12
ATOM     12  C   UNL d   1      -3.008  -1.274  -0.002  0.00  0.00     0.055 A 
ATOM     13  C   UNL d   1      -2.870  -2.186   1.068  0.00  0.00    -0.033 A 
ATOM     14  C   UNL d   1      -3.577  -3.407   1.039  0.00  0.00     0.028 A 
ATOM     15  C   UNL d   1      -1.999  -1.933   2.270  0.00  0.00     0.050 C 
ATOM     16  C   UNL d   1      -4.428  -3.715  -0.019  0.00  0.00     0.011 A 
ATOM     17  C   UNL d   1      -4.583  -2.822  -1.068  0.00  0.00     0.021 A 
ATOM     18 BR   UNL d   1      -5.385  -5.343  -0.023  0.00  0.00    -0.051 Br
ATOM     19  C   UNL d   1      -3.881  -1.616  -1.051  0.00  0.00     0.032 A 
ENDBRANCH  10  12
ENDBRANCH   3  10
BRANCH   6  20
ATOM     20  N   UNL d   1      -5.279   2.721  -2.373  0.00  0.00    -0.273 NA
ATOM     21  H   UNL d   1      -5.962   2.104  -1.953  0.00  0.00     0.127 HD
ATOM     22  H   UNL d   1      -5.503   3.707  -2.401  0.00  0.00     0.127 HD
ENDBRANCH   6  20
TORSDOF 3
