REMARK  2 active torsions:
REMARK  status: ('A' for Active; 'I' for Inactive)
REMARK    1  A    between atoms: C_8  and  N_1 
REMARK    2  A    between atoms: C_3  and  C_8 
ROOT
ATOM      1  C   UNL d   1      -0.717  -2.461  -0.022  0.00  0.00     0.173 C 
ENDROOT
BRANCH   1   2
ATOM      2  C   UNL d   1      -2.208  -2.591  -0.028  0.00  0.00     0.001 A 
ATOM      3  S   UNL d   1      -3.073  -2.563  -1.509  0.00  0.00    -0.105 SA
ATOM      4  C   UNL d   1      -4.574  -2.735  -0.710  0.00  0.00     0.050 A 
ATOM      5  C   UNL d   1      -4.426  -2.836   0.654  0.00  0.00     0.008 A 
ATOM      6  C   UNL d   1      -3.059  -2.760   1.049  0.00  0.00     0.017 A 
ENDBRANCH   1   2
BRANCH   1   7
ATOM      7  N   UNL d   1      -0.309  -1.064   0.087  0.00  0.00    -0.362 N 
ATOM      8  C   UNL d   1      -0.027  -0.235  -0.970  0.00  0.00     0.090 A 
ATOM      9  C   UNL d   1       0.392   0.976  -0.462  0.00  0.00     0.019 A 
ATOM     10  C   UNL d   1       0.365   0.874   0.949  0.00  0.00     0.019 A 
ATOM     11  C   UNL d   1      -0.070  -0.395   1.262  0.00  0.00     0.090 A 
ENDBRANCH   1   7
TORSDOF 2
