REMARK  9 active torsions:
REMARK  status: ('A' for Active; 'I' for Inactive)
REMARK    1  A    between atoms: C_18  and  C_4 
REMARK    2  A    between atoms: N_9  and  C_11 
REMARK       I    between atoms: C_12  and  N_9 
REMARK    3  A    between atoms: C_23  and  C_12 
REMARK    4  A    between atoms: S_13  and  C_18 
REMARK    5  A    between atoms: C_15  and  S_13 
REMARK    6  A    between atoms: C_14  and  C_24 
REMARK    7  A    between atoms: O_22  and  C_14 
REMARK    8  A    between atoms: C_25  and  C_23 
REMARK    9  A    between atoms: C_24  and  C_25 
ROOT
ATOM      1  C   UNL d   1       4.009   4.774  -0.275  0.00  0.00     0.051 C 
ATOM      2  C   UNL d   1       2.630   4.473  -0.289  0.00  0.00     0.027 C 
ATOM      3  C   UNL d   1       4.427   6.106  -0.184  0.00  0.00     0.031 C 
ATOM      4  C   UNL d   1       1.711   5.501  -0.028  0.00  0.00     0.021 C 
ATOM      5  C   UNL d   1       3.497   7.123   0.023  0.00  0.00     0.002 C 
ATOM      6  C   UNL d   1       2.144   6.817   0.135  0.00  0.00     0.002 C 
ENDROOT
BRANCH   2   7
ATOM      7  S   UNL d   1       2.003   2.874  -0.844  0.00  0.00    -0.120 SA
BRANCH   7   8
ATOM      8  C   UNL d   1       0.930   3.407  -2.239  0.00  0.00     0.158 C 
BRANCH   8   9
ATOM      9  C   UNL d   1       1.606   4.262  -3.256  0.00  0.00     0.113 A 
ATOM     10  N   UNL d   1       2.927   4.133  -3.612  0.00  0.00    -0.322 N 
ATOM     11  C   UNL d   1       3.100   5.115  -4.474  0.00  0.00     0.189 A 
ATOM     12  HN  UNL d   1       3.607   3.446  -3.288  1.00  0.00     0.169 HD
ATOM     13  O   UNL d   1       1.936   5.807  -4.708  0.00  0.00    -0.217 OA
ATOM     14  C   UNL d   1       4.365   5.435  -5.072  0.00  0.00     0.058 A 
ATOM     15  N   UNL d   1       0.951   5.236  -3.902  0.00  0.00    -0.246 N 
ATOM     16  HN  UNL d   1      -0.032   5.498  -3.823  1.00  0.00     0.196 HD
ATOM     17  S   UNL d   1       4.545   6.740  -6.167  0.00  0.00    -0.098 SA
ATOM     18  C   UNL d   1       5.569   4.791  -4.857  0.00  0.00     0.024 A 
ATOM     19  C   UNL d   1       6.221   6.450  -6.345  0.00  0.00     0.050 A 
ATOM     20  C   UNL d   1       6.643   5.379  -5.589  0.00  0.00     0.009 A 
ENDBRANCH   8   9
ENDBRANCH   7   8
ENDBRANCH   2   7
BRANCH   1  21
ATOM     21  N   UNL d   1       5.029   3.793  -0.340  0.00  0.00    -0.326 N 
ATOM     22  C   UNL d   1       5.071   2.751   0.576  0.00  0.00     0.222 C 
ATOM     23  O   UNL d   1       4.265   2.564   1.481  0.00  0.00    -0.273 OA
ATOM     24  H   UNL d   1       5.936   4.110  -0.659  0.00  0.00     0.169 HD
BRANCH  22  25
ATOM     25  C   UNL d   1       6.289   1.865   0.396  0.00  0.00     0.103 C 
BRANCH  25  26
ATOM     26  C   UNL d   1       6.060   0.452   0.940  0.00  0.00     0.019 C 
BRANCH  26  27
ATOM     27  C   UNL d   1       4.899  -0.284   0.271  0.00  0.00     0.110 C 
BRANCH  27  28
ATOM     28  C   UNL d   1       5.120  -0.430  -1.214  0.00  0.00     0.139 C 
ATOM     29  O   UNL d   1       6.028  -1.083  -1.701  0.00  0.00    -0.650 OA
BRANCH  28  30
ATOM     30  O   UNL d   1       4.257   0.282  -1.967  0.00  0.00    -0.776 OA
ATOM     31  H   UNL d   1       3.595   0.802  -1.463  0.00  0.00     0.167 HD
ENDBRANCH  28  30
ENDBRANCH  27  28
ENDBRANCH  26  27
ENDBRANCH  25  26
ENDBRANCH  22  25
ENDBRANCH   1  21
TORSDOF 9
