REMARK  7 active torsions:
REMARK  status: ('A' for Active; 'I' for Inactive)
REMARK    1  A    between atoms: C_23  and  C_2 
REMARK    2  A    between atoms: C_7  and  C_16 
REMARK       I    between atoms: N_12  and  C_7 
REMARK    3  A    between atoms: N_9  and  N_12 
REMARK    4  A    between atoms: O_18  and  C_15 
REMARK    5  A    between atoms: C_16  and  O_18 
REMARK    6  A    between atoms: C_20  and  C_17 
REMARK    7  A    between atoms: C_28  and  C_23 
ROOT
ATOM      1  C   UNL d   1       3.498   3.362   0.126  0.00  0.00     0.280 C 
ENDROOT
BRANCH   1   2
ATOM      2  C   UNL d   1       4.839   4.090   0.109  0.00  0.00     0.260 C 
ATOM      3  N   UNL d   1       5.314   4.429   1.374  0.00  0.00    -0.269 N 
ATOM      4  H   UNL d   1       4.830   4.137   2.216  0.00  0.00     0.190 HD
ATOM      5  O   UNL d   1       5.410   4.356  -0.948  0.00  0.00    -0.269 OA
BRANCH   3   6
ATOM      6  N   UNL d   1       6.487   5.117   1.470  0.00  0.00    -0.308 N 
ATOM      7  C   UNL d   1       6.898   5.447   2.650  0.00  0.00     0.118 C 
ATOM      8  HN  UNL d   1       7.023   5.363   0.637  1.00  0.00     0.186 HD
BRANCH   7   9
ATOM      9  C   UNL d   1       8.168   6.188   2.821  0.00  0.00    -0.019 A 
ATOM     10  C   UNL d   1       8.962   6.486   1.705  0.00  0.00     0.014 A 
ATOM     11  C   UNL d   1      10.158   7.188   1.864  0.00  0.00     0.024 A 
ATOM     12  C   UNL d   1      10.559   7.591   3.136  0.00  0.00     0.034 A 
ATOM     13  C   UNL d   1       9.773   7.296   4.252  0.00  0.00     0.024 A 
ATOM     14 CL   UNL d   1      12.031   8.459   3.331  0.00  0.00    -0.084 Cl
ATOM     15  C   UNL d   1       8.574   6.591   4.097  0.00  0.00     0.014 A 
ENDBRANCH   7   9
ENDBRANCH   3   6
ENDBRANCH   1   2
BRANCH   1  16
ATOM     16  O   UNL d   1       3.722   1.961   0.223  0.00  0.00    -0.342 OA
BRANCH  16  17
ATOM     17  C   UNL d   1       2.628   1.145   0.129  0.00  0.00     0.072 A 
ATOM     18  C   UNL d   1       1.302   1.550   0.018  0.00  0.00     0.075 A 
ATOM     19  C   UNL d   1       0.290   0.582  -0.025  0.00  0.00     0.092 A 
ATOM     20  O   UNL d   1      -1.029   1.076  -0.098  0.00  0.00    -0.275 OA
ATOM     21  C   UNL d   1       0.550  -0.791   0.021  0.00  0.00     0.004 A 
ATOM     22  C   UNL d   1      -2.115   0.219  -0.102  0.00  0.00     0.288 A 
ATOM     23  O   UNL d   1      -3.272   0.624  -0.118  0.00  0.00    -0.260 OA
ATOM     24  C   UNL d   1      -1.822  -1.222  -0.098  0.00  0.00     0.090 A 
ATOM     25  C   UNL d   1      -0.581  -1.731  -0.039  0.00  0.00    -0.039 A 
ATOM     26  C   UNL d   1       1.889  -1.181   0.119  0.00  0.00     0.017 A 
ATOM     27  C   UNL d   1       2.913  -0.223   0.172  0.00  0.00     0.038 A 
BRANCH  25  28
ATOM     28  C   UNL d   1      -0.365  -3.226  -0.084  0.00  0.00     0.039 C 
BRANCH  28  29
ATOM     29  C   UNL d   1      -0.253  -3.852   1.309  0.00  0.00     0.000 C 
ATOM     30  C   UNL d   1       0.008  -5.349   1.224  0.00  0.00     0.005 C 
ENDBRANCH  28  29
ENDBRANCH  25  28
ENDBRANCH  16  17
ENDBRANCH   1  16
TORSDOF 7
