REMARK  3 active torsions:
REMARK  status: ('A' for Active; 'I' for Inactive)
REMARK    1  A    between atoms: C_2  and  C_1 
REMARK       I    between atoms: N_4  and  C_2 
REMARK    2  A    between atoms: C_3  and  N_5 
REMARK    3  A    between atoms: N_5  and  N_4 
ROOT
ATOM      1  C   UNL d   1      -0.239   2.564  -0.022  0.00  0.00     0.271 C 
ATOM      2  N   UNL d   1       0.520   3.712   0.012  0.00  0.00    -0.264 N 
ATOM      3  O   UNL d   1      -1.467   2.608  -0.079  0.00  0.00    -0.266 OA
ATOM      4  H   UNL d   1       1.535   3.711   0.098  0.00  0.00     0.190 HD
ENDROOT
BRANCH   1   5
ATOM      5  C   UNL d   1       0.479   1.246   0.026  0.00  0.00     0.055 A 
ATOM      6  C   UNL d   1       1.871   1.052  -0.027  0.00  0.00     0.049 A 
ATOM      7 CL   UNL d   1       3.041   2.315  -0.196  0.00  0.00    -0.083 Cl
ATOM      8  C   UNL d   1       2.408  -0.243   0.041  0.00  0.00     0.025 A 
ATOM      9  C   UNL d   1       1.577  -1.355   0.150  0.00  0.00     0.002 A 
ATOM     10  C   UNL d   1       0.200  -1.182   0.192  0.00  0.00     0.001 A 
ATOM     11  C   UNL d   1      -0.343   0.105   0.132  0.00  0.00     0.019 A 
ENDBRANCH   1   5
BRANCH   2  12
ATOM     12  N   UNL d   1      -0.105   4.961  -0.013  0.00  0.00    -0.274 N 
ATOM     13  H   UNL d   1      -1.124   4.931  -0.021  0.00  0.00     0.189 HD
BRANCH  12  14
ATOM     14  C   UNL d   1       0.546   6.065   0.477  0.00  0.00     0.184 C 
ATOM     15  S   UNL d   1       2.102   6.121   1.071  0.00  0.00    -0.040 SA
ATOM     16  N   UNL d   1      -0.190   7.206   0.419  0.00  0.00    -0.375 N 
ATOM     17  H   UNL d   1      -0.912   7.288  -0.284  0.00  0.00     0.158 HD
ATOM     18  H   UNL d   1       0.300   8.063   0.649  0.00  0.00     0.158 HD
ENDBRANCH  12  14
ENDBRANCH   2  12
TORSDOF 3
