REMARK  7 active torsions:
REMARK  status: ('A' for Active; 'I' for Inactive)
REMARK    1  A    between atoms: C_13  and  C_1 
REMARK    2  A    between atoms: C_2  and  N_12 
REMARK    3  A    between atoms: N_10  and  C_2 
REMARK    4  A    between atoms: O_17  and  C_4 
REMARK    5  A    between atoms: N_12  and  N_6 
REMARK    6  A    between atoms: C_16  and  N_10 
REMARK    7  A    between atoms: C_14  and  C_16 
ROOT
ATOM      1  N   UNL d   1       0.854   4.269   0.017  0.00  0.00    -0.309 N 
ATOM      2  HN  UNL d   1       1.796   3.879   0.023  1.00  0.00     0.186 HD
ATOM      3  C   UNL d   1      -0.193   3.510   0.008  0.00  0.00     0.121 C 
ENDROOT
BRANCH   1   4
ATOM      4  N   UNL d   1       0.641   5.609   0.016  0.00  0.00    -0.277 N 
ATOM      5  H   UNL d   1      -0.312   5.945   0.006  0.00  0.00     0.189 HD
BRANCH   4   6
ATOM      6  C   UNL d   1       1.691   6.499   0.021  0.00  0.00     0.186 C 
ATOM      7  S   UNL d   1       3.319   6.110   0.026  0.00  0.00    -0.040 SA
BRANCH   6   8
ATOM      8  N   UNL d   1       1.360   7.825   0.021  0.00  0.00    -0.365 N 
ATOM      9  H   UNL d   1       2.166   8.442   0.020  0.00  0.00     0.161 HD
BRANCH   8  10
ATOM     10  C   UNL d   1       0.030   8.401   0.030  0.00  0.00     0.130 C 
BRANCH  10  11
ATOM     11  C   UNL d   1      -0.012   9.944   0.063  0.00  0.00    -0.035 C 
ATOM     12  C   UNL d   1       0.643  10.540  -1.194  0.00  0.00     0.016 C 
ATOM     13  C   UNL d   1      -1.492  10.369   0.099  0.00  0.00     0.016 C 
ATOM     14  C   UNL d   1       0.689  10.490   1.318  0.00  0.00     0.016 C 
ENDBRANCH  10  11
ENDBRANCH   8  10
ENDBRANCH   6   8
ENDBRANCH   4   6
ENDBRANCH   1   4
BRANCH   3  15
ATOM     15  C   UNL d   1      -0.036   2.043   0.007  0.00  0.00     0.017 A 
ATOM     16  C   UNL d   1      -1.148   1.199  -0.006  0.00  0.00     0.099 A 
ATOM     17  C   UNL d   1      -0.959  -0.189  -0.007  0.00  0.00     0.069 A 
ATOM     18 CL   UNL d   1      -2.319  -1.252  -0.022  0.00  0.00    -0.081 Cl
ATOM     19  C   UNL d   1       0.325  -0.734   0.005  0.00  0.00     0.050 A 
ATOM     20  C   UNL d   1       1.427   0.116   0.018  0.00  0.00     0.036 A 
ATOM     21  C   UNL d   1       1.256   1.498   0.019  0.00  0.00     0.039 A 
ATOM     22 CL   UNL d   1       3.015  -0.544   0.032  0.00  0.00    -0.084 Cl
BRANCH  16  23
ATOM     23  O   UNL d   1      -2.410   1.733  -0.019  0.00  0.00    -0.358 OA
ATOM     24  H   UNL d   1      -3.046   0.990  -0.028  0.00  0.00     0.217 HD
ENDBRANCH  16  23
ENDBRANCH   3  15
TORSDOF 7
