REMARK  7 active torsions:
REMARK  status: ('A' for Active; 'I' for Inactive)
REMARK    1  A    between atoms: C_2  and  C_1 
REMARK    2  A    between atoms: C_6  and  C_2 
REMARK    3  A    between atoms: C_3  and  C_7 
REMARK    4  A    between atoms: C_13  and  C_3 
REMARK    5  A    between atoms: C_4  and  C_6 
REMARK    6  A    between atoms: C_7  and  C_4 
REMARK    7  A    between atoms: C_14  and  C_4 
ROOT
ATOM      1  C   UNL d   1      -2.575   2.012   0.234  0.00  0.00     0.033 C 
ENDROOT
BRANCH   1   2
ATOM      2  C   UNL d   1      -1.530   3.080  -0.169  0.00  0.00     0.094 C 
BRANCH   2   3
ATOM      3  C   UNL d   1      -0.117   2.543  -0.381  0.00  0.00     0.167 C 
ATOM      4  O   UNL d   1       0.140   1.357  -0.164  0.00  0.00    -0.292 OA
BRANCH   3   5
ATOM      5  C   UNL d   1       0.916   3.458  -0.872  0.00  0.00     0.050 A 
ATOM      6  S   UNL d   1       0.617   5.110  -1.211  0.00  0.00    -0.098 SA
ATOM      7  C   UNL d   1       2.211   5.365  -1.770  0.00  0.00     0.050 A 
ATOM      8  C   UNL d   1       2.978   4.227  -1.672  0.00  0.00     0.009 A 
ATOM      9  C   UNL d   1       2.236   3.134  -1.141  0.00  0.00     0.023 A 
ENDBRANCH   3   5
ENDBRANCH   2   3
ENDBRANCH   1   2
BRANCH   1  10
ATOM     10  C   UNL d   1      -2.336   1.302   1.590  0.00  0.00     0.093 C 
BRANCH  10  11
ATOM     11  C   UNL d   1      -2.266   2.202   2.816  0.00  0.00     0.160 C 
ATOM     12  O   UNL d   1      -2.190   3.426   2.736  0.00  0.00    -0.292 OA
BRANCH  11  13
ATOM     13  C   UNL d   1      -2.239   1.571   4.172  0.00  0.00     0.010 A 
ATOM     14  C   UNL d   1      -2.209   0.184   4.370  0.00  0.00     0.015 A 
ATOM     15  C   UNL d   1      -2.165  -0.340   5.666  0.00  0.00     0.001 A 
ATOM     16  C   UNL d   1      -2.150   0.513   6.771  0.00  0.00     0.000 A 
ATOM     17  C   UNL d   1      -2.178   1.893   6.582  0.00  0.00     0.001 A 
ATOM     18  C   UNL d   1      -2.224   2.418   5.290  0.00  0.00     0.015 A 
ENDBRANCH  11  13
ENDBRANCH  10  11
ENDBRANCH   1  10
BRANCH   1  19
ATOM     19  C   UNL d   1      -4.023   2.506   0.154  0.00  0.00    -0.053 A 
ATOM     20  C   UNL d   1      -5.045   1.585  -0.134  0.00  0.00     0.007 A 
ATOM     21  C   UNL d   1      -6.385   1.982  -0.161  0.00  0.00     0.001 A 
ATOM     22  C   UNL d   1      -6.723   3.308   0.091  0.00  0.00     0.000 A 
ATOM     23  C   UNL d   1      -5.723   4.236   0.369  0.00  0.00     0.001 A 
ATOM     24  C   UNL d   1      -4.384   3.837   0.405  0.00  0.00     0.007 A 
ENDBRANCH   1  19
TORSDOF 7
