REMARK  1 active torsions:
REMARK  status: ('A' for Active; 'I' for Inactive)
REMARK    1  A    between atoms: C_3  and  C_1 
ROOT
ATOM      1  C   UNL d   1       2.156  -0.705  -0.096  0.00  0.00     0.071 A 
ATOM      2  C   UNL d   1      -2.381  -0.007   0.010  0.00  0.00     0.176 A 
ATOM      3  N   UNL d   1      -1.546  -1.131  -0.004  0.00  0.00    -0.331 N 
ATOM      4  N   UNL d   1      -1.555   1.125   0.024  0.00  0.00    -0.331 N 
ATOM      5  C   UNL d   1      -0.225  -0.694  -0.015  0.00  0.00     0.062 A 
ATOM      6  C   UNL d   1      -0.230   0.698   0.002  0.00  0.00     0.063 A 
ATOM      7  C   UNL d   1       0.940  -1.422  -0.060  0.00  0.00     0.049 A 
ATOM      8  C   UNL d   1       2.133   0.715  -0.070  0.00  0.00     0.051 A 
ATOM      9  C   UNL d   1       0.929   1.434  -0.017  0.00  0.00     0.056 A 
ATOM     10  S   UNL d   1      -4.028  -0.014  -0.002  0.00  0.00    -0.041 SA
ATOM     11 CL   UNL d   1       3.593   1.641  -0.114  0.00  0.00    -0.083 Cl
ATOM     12  H   UNL d   1      -1.869  -2.087  -0.025  0.00  0.00     0.168 HD
ATOM     13  H   UNL d   1      -1.886   2.078   0.025  0.00  0.00     0.168 HD
ENDROOT
BRANCH   1  14
ATOM     14  C   UNL d   1       3.457  -1.460  -0.188  0.00  0.00     0.419 C 
ATOM     15  F   UNL d   1       3.284  -2.815  -0.185  0.00  0.00    -0.166 F 
ATOM     16  F   UNL d   1       4.146  -1.189  -1.329  0.00  0.00    -0.166 F 
ATOM     17  F   UNL d   1       4.301  -1.204   0.848  0.00  0.00    -0.166 F 
ENDBRANCH   1  14
TORSDOF 1
