REMARK  2 active torsions:
REMARK  status: ('A' for Active; 'I' for Inactive)
REMARK    1  A    between atoms: C_9  and  C_1 
REMARK    2  A    between atoms: C_8  and  C_10 
ROOT
ATOM      1  C   UNL d   1       0.792   2.464  -0.023  0.00  0.00     0.011 A 
ATOM      2  C   UNL d   1       0.864   4.640   1.096  0.00  0.00     0.048 A 
ATOM      3  C   UNL d   1       0.411   3.311   1.031  0.00  0.00     0.031 A 
ATOM      4  C   UNL d   1       1.705   5.120   0.081  0.00  0.00     0.016 A 
ATOM      5  C   UNL d   1       1.635   2.969  -1.022  0.00  0.00     0.015 A 
ATOM      6  C   UNL d   1       2.088   4.289  -0.972  0.00  0.00     0.002 A 
ENDROOT
BRANCH   1   7
ATOM      7  C   UNL d   1       0.323   1.086  -0.076  0.00  0.00     0.144 A 
ATOM      8  N   UNL d   1       0.699   0.202  -1.063  0.00  0.00    -0.266 N 
ATOM      9  N   UNL d   1       0.095  -0.948  -0.800  0.00  0.00    -0.005 NA
ATOM     10  HN  UNL d   1       1.322   0.395  -1.847  1.00  0.00     0.186 HD
ATOM     11  N   UNL d   1      -0.606  -0.712   0.314  0.00  0.00    -0.225 N 
ATOM     12  N   UNL d   1      -0.511   0.526   0.819  0.00  0.00    -0.271 N 
ATOM     13  H   UNL d   1      -1.175  -1.433   0.748  0.00  0.00     0.205 HD
ATOM     14  HN  UNL d   1      -0.949   0.930   1.648  1.00  0.00     0.190 HD
ENDBRANCH   1   7
BRANCH   2  15
ATOM     15  C   UNL d   1       0.466   5.543   2.237  0.00  0.00     0.417 C 
ATOM     16  F   UNL d   1      -0.355   4.949   3.147  0.00  0.00    -0.166 F 
ATOM     17  F   UNL d   1       1.541   5.990   2.944  0.00  0.00    -0.166 F 
ATOM     18  F   UNL d   1      -0.192   6.658   1.814  0.00  0.00    -0.166 F 
ENDBRANCH   2  15
TORSDOF 2
