REMARK  4 active torsions:
REMARK  status: ('A' for Active; 'I' for Inactive)
REMARK    1  A    between atoms: C_4  and  C_1 
REMARK    2  A    between atoms: C_2  and  C_5 
REMARK    3  A    between atoms: C_3  and  C_6 
REMARK       I    between atoms: N_7  and  C_4 
REMARK    4  A    between atoms: C_8  and  N_7 
ROOT
ATOM      1  C   UNL d   1      -1.292  -3.213  -0.017  0.00  0.00     0.050 A 
ATOM      2  C   UNL d   1      -0.578  -3.820  -2.267  0.00  0.00     0.050 A 
ATOM      3  C   UNL d   1      -0.561  -1.476  -1.568  0.00  0.00     0.036 A 
ATOM      4  C   UNL d   1      -1.055  -4.184  -1.000  0.00  0.00     0.032 A 
ATOM      5  C   UNL d   1      -1.041  -1.862  -0.316  0.00  0.00     0.045 A 
ATOM      6  C   UNL d   1      -0.349  -2.460  -2.544  0.00  0.00     0.045 A 
ENDROOT
BRANCH   3   7
ATOM      7  N   UNL d   1      -0.264  -0.145  -1.921  0.00  0.00    -0.320 N 
ATOM      8  C   UNL d   1      -0.233   0.972  -1.079  0.00  0.00     0.330 C 
ATOM      9  O   UNL d   1      -0.458   0.949   0.131  0.00  0.00    -0.263 OA
ATOM     10  H   UNL d   1       0.010   0.023  -2.886  0.00  0.00     0.169 HD
BRANCH   8  11
ATOM     11  C   UNL d   1       0.169   2.263  -1.820  0.00  0.00     0.472 C 
ATOM     12  F   UNL d   1       0.167   2.084  -3.175  0.00  0.00    -0.162 F 
ATOM     13  F   UNL d   1       1.426   2.674  -1.499  0.00  0.00    -0.162 F 
ATOM     14  F   UNL d   1      -0.667   3.305  -1.568  0.00  0.00    -0.162 F 
ENDBRANCH   8  11
ENDBRANCH   3   7
BRANCH   1  15
ATOM     15  C   UNL d   1      -1.816  -3.588   1.350  0.00  0.00     0.417 C 
ATOM     16  F   UNL d   1      -1.906  -4.934   1.540  0.00  0.00    -0.166 F 
ATOM     17  F   UNL d   1      -1.030  -3.121   2.358  0.00  0.00    -0.166 F 
ATOM     18  F   UNL d   1      -3.063  -3.095   1.581  0.00  0.00    -0.166 F 
ENDBRANCH   1  15
BRANCH   2  19
ATOM     19  C   UNL d   1      -0.302  -4.858  -3.330  0.00  0.00     0.417 C 
ATOM     20  F   UNL d   1      -0.434  -6.138  -2.887  0.00  0.00    -0.166 F 
ATOM     21  F   UNL d   1      -1.137  -4.739  -4.397  0.00  0.00    -0.166 F 
ATOM     22  F   UNL d   1       0.961  -4.762  -3.829  0.00  0.00    -0.166 F 
ENDBRANCH   2  19
TORSDOF 4
