REMARK  8 active torsions:
REMARK  status: ('A' for Active; 'I' for Inactive)
REMARK    1  A    between atoms: C_6  and  C_1 
REMARK    2  A    between atoms: C_9  and  C_3 
REMARK    3  A    between atoms: C_12  and  C_4 
REMARK    4  A    between atoms: O_22  and  C_6 
REMARK    5  A    between atoms: C_7  and  O_18 
REMARK    6  A    between atoms: C_8  and  C_7 
REMARK    7  A    between atoms: O_18  and  N_10 
REMARK    8  A    between atoms: C_27  and  O_22 
ROOT
ATOM      1  C   UNL d   1       1.101   0.598  -0.153  0.00  0.00     0.077 A 
ATOM      2  C   UNL d   1       0.846  -0.798  -0.171  0.00  0.00     0.058 A 
ATOM      3  C   UNL d   1      -0.138   1.215  -0.245  0.00  0.00     0.109 A 
ATOM      4  C   UNL d   1      -0.520  -0.961  -0.121  0.00  0.00     0.087 A 
ATOM      5  O   UNL d   1      -1.129   0.264  -0.207  0.00  0.00    -0.307 OA
ENDROOT
BRANCH   3   6
ATOM      6  C   UNL d   1      -0.474   2.613  -0.340  0.00  0.00     0.152 C 
ATOM      7  N   UNL d   1      -1.606   3.110   0.048  0.00  0.00    -0.266 N 
ATOM      8  HN  UNL d   1      -2.396   2.586   0.425  1.00  0.00     0.194 HD
BRANCH   7   9
ATOM      9  O   UNL d   1      -1.549   4.503  -0.143  0.00  0.00    -0.194 OA
BRANCH   9  10
ATOM     10  C   UNL d   1      -2.598   5.269   0.350  0.00  0.00     0.339 C 
ATOM     11  O   UNL d   1      -2.510   6.493   0.247  0.00  0.00    -0.255 OA
BRANCH  10  12
ATOM     12  C   UNL d   1      -3.751   4.604   0.944  0.00  0.00     0.151 A 
ATOM     13  O   UNL d   1      -4.784   5.436   1.334  0.00  0.00    -0.317 OA
ATOM     14  C   UNL d   1      -5.780   4.670   1.840  0.00  0.00     0.143 A 
ATOM     15  C   UNL d   1      -5.429   3.347   1.802  0.00  0.00     0.027 A 
ATOM     16  C   UNL d   1      -4.129   3.304   1.240  0.00  0.00     0.045 A 
ENDBRANCH  10  12
ENDBRANCH   9  10
ENDBRANCH   7   9
ENDBRANCH   3   6
BRANCH   1  17
ATOM     17  C   UNL d   1       2.396   1.217   0.047  0.00  0.00     0.296 C 
ATOM     18  O   UNL d   1       3.449   0.593  -0.037  0.00  0.00    -0.259 OA
BRANCH  17  19
ATOM     19  O   UNL d   1       2.290   2.501   0.483  0.00  0.00    -0.318 OA
BRANCH  19  20
ATOM     20  C   UNL d   1       3.433   3.026   1.170  0.00  0.00     0.174 C 
ATOM     21  C   UNL d   1       4.228   3.933   0.258  0.00  0.00     0.034 C 
ENDBRANCH  19  20
ENDBRANCH  17  19
ENDBRANCH   1  17
BRANCH   4  22
ATOM     22  C   UNL d   1      -1.361  -2.134   0.104  0.00  0.00    -0.002 A 
ATOM     23  C   UNL d   1      -0.799  -3.275   0.710  0.00  0.00     0.016 A 
ATOM     24  C   UNL d   1      -1.581  -4.392   1.015  0.00  0.00     0.024 A 
ATOM     25  C   UNL d   1      -2.936  -4.384   0.707  0.00  0.00     0.034 A 
ATOM     26  C   UNL d   1      -3.507  -3.278   0.079  0.00  0.00     0.024 A 
ATOM     27 CL   UNL d   1      -3.910  -5.739   1.122  0.00  0.00    -0.084 Cl
ATOM     28  C   UNL d   1      -2.722  -2.156  -0.221  0.00  0.00     0.016 A 
ENDBRANCH   4  22
TORSDOF 8
