REMARK  4 active torsions:
REMARK  status: ('A' for Active; 'I' for Inactive)
REMARK    1  A    between atoms: C_15  and  N_3 
REMARK    2  A    between atoms: C_14  and  C_8 
REMARK    3  A    between atoms: N_18  and  C_11 
REMARK    4  A    between atoms: C_16  and  C_17 
ROOT
ATOM      1  C   UNL d   1       0.021  -0.676   0.035  0.00  0.00     0.142 A 
ATOM      2  C   UNL d   1      -0.277   0.684   0.001  0.00  0.00     0.046 A 
ATOM      3  N   UNL d   1      -1.171  -1.369  -0.035  0.00  0.00    -0.239 N 
ATOM      4  N   UNL d   1      -2.224  -0.538  -0.230  0.00  0.00    -0.296 N 
ATOM      5  HN  UNL d   1      -3.196  -0.796  -0.400  1.00  0.00     0.187 HD
ATOM      6  N   UNL d   1       1.244  -1.240   0.048  0.00  0.00    -0.330 N 
ATOM      7  HN  UNL d   1       1.372  -2.252   0.047  1.00  0.00     0.168 HD
ATOM      8  C   UNL d   1       0.831   1.577   0.076  0.00  0.00     0.014 A 
ATOM      9  C   UNL d   1      -1.708   0.695  -0.150  0.00  0.00     0.037 A 
ATOM     10  C   UNL d   1       2.128   0.982   0.126  0.00  0.00     0.094 A 
ATOM     11  C   UNL d   1       2.274  -0.402   0.062  0.00  0.00     0.101 A 
ATOM     12  C   UNL d   1       3.324   1.761   0.248  0.00  0.00     0.103 C 
ATOM     13  N   UNL d   1       4.322   2.350   0.341  0.00  0.00    -0.191 NA
ATOM     14  C   UNL d   1      -2.684   1.815  -0.248  0.00  0.00     0.070 C 
ENDROOT
BRANCH  11  15
ATOM     15  N   UNL d   1       3.506  -1.024  -0.124  0.00  0.00    -0.287 NA
ATOM     16  H   UNL d   1       4.265  -0.697   0.458  0.00  0.00     0.125 HD
ATOM     17  H   UNL d   1       3.377  -2.034  -0.094  0.00  0.00     0.125 HD
ENDBRANCH  11  15
BRANCH   8  18
ATOM     18  C   UNL d   1       0.640   3.043   0.021  0.00  0.00    -0.023 A 
ATOM     19  C   UNL d   1      -0.311   3.708   0.800  0.00  0.00     0.013 A 
ATOM     20  C   UNL d   1      -0.512   5.090   0.680  0.00  0.00     0.009 A 
ATOM     21  C   UNL d   1       0.309   5.883  -0.139  0.00  0.00    -0.051 A 
ATOM     22  C   UNL d   1       1.302   5.225  -0.870  0.00  0.00     0.009 A 
ATOM     23  C   UNL d   1       1.432   3.837  -0.823  0.00  0.00     0.013 A 
BRANCH  21  24
ATOM     24  C   UNL d   1       0.104   7.401  -0.231  0.00  0.00    -0.024 C 
ATOM     25  C   UNL d   1       1.233   8.123  -1.003  0.00  0.00     0.019 C 
ATOM     26  C   UNL d   1      -1.222   7.686  -0.964  0.00  0.00     0.019 C 
ATOM     27  C   UNL d   1       0.055   8.016   1.183  0.00  0.00     0.019 C 
ENDBRANCH  21  24
ENDBRANCH   8  18
BRANCH   3  28
ATOM     28  C   UNL d   1      -1.340  -2.778   0.009  0.00  0.00     0.058 A 
ATOM     29  C   UNL d   1      -0.412  -3.570   0.704  0.00  0.00     0.031 A 
ATOM     30  C   UNL d   1      -0.499  -4.961   0.650  0.00  0.00     0.002 A 
ATOM     31  C   UNL d   1      -1.504  -5.559  -0.100  0.00  0.00     0.000 A 
ATOM     32  C   UNL d   1      -2.452  -4.772  -0.760  0.00  0.00     0.002 A 
ATOM     33  C   UNL d   1      -2.391  -3.384  -0.689  0.00  0.00     0.031 A 
ENDBRANCH   3  28
TORSDOF 4
