REMARK  3 active torsions:
REMARK  status: ('A' for Active; 'I' for Inactive)
REMARK    1  A    between atoms: C_6  and  C_1 
REMARK    2  A    between atoms: C_7  and  C_2 
REMARK    3  A    between atoms: S_14  and  C_5 
REMARK       I    between atoms: N_8  and  C_6 
ROOT
ATOM      1  C   UNL d   1       1.198  -1.184   0.053  0.00  0.00     0.087 C 
ATOM      2  C   UNL d   1      -0.190  -1.231   0.101  0.00  0.00     0.026 C 
ATOM      3  C   UNL d   1      -0.761   0.096   0.062  0.00  0.00     0.081 C 
ATOM      4  S   UNL d   1       1.768   0.434   0.212  0.00  0.00    -0.075 SA
ATOM      5  C   UNL d   1       0.201   1.087   0.086  0.00  0.00     0.063 C 
ATOM      6  C   UNL d   1      -2.159   0.395  -0.057  0.00  0.00     0.102 C 
ATOM      7  N   UNL d   1      -3.292   0.638  -0.129  0.00  0.00    -0.191 NA
ENDROOT
BRANCH   2   8
ATOM      8  C   UNL d   1      -1.007  -2.510   0.143  0.00  0.00     0.018 A 
ATOM      9  S   UNL d   1      -0.563  -3.984  -0.605  0.00  0.00    -0.101 SA
ATOM     10  C   UNL d   1      -1.997  -4.763  -0.099  0.00  0.00     0.050 A 
ATOM     11  C   UNL d   1      -2.798  -3.930   0.647  0.00  0.00     0.008 A 
ATOM     12  C   UNL d   1      -2.228  -2.630   0.785  0.00  0.00     0.020 A 
ENDBRANCH   2   8
BRANCH   5  13
ATOM     13  S   UNL d   1      -0.015   2.832  -0.031  0.00  0.00    -0.126 SA
ATOM     14  C   UNL d   1      -0.792   3.192   1.560  0.00  0.00     0.096 C 
ENDBRANCH   5  13
BRANCH   1  15
ATOM     15  C   UNL d   1       2.188  -2.252   0.118  0.00  0.00     0.261 C 
ATOM     16  N   UNL d   1       3.205  -2.280  -0.840  0.00  0.00    -0.344 N 
ATOM     17  C   UNL d   1       4.274  -3.275  -0.729  0.00  0.00     0.152 C 
ATOM     18  C   UNL d   1       3.252  -1.524  -2.099  0.00  0.00     0.152 C 
ATOM     19  C   UNL d   1       5.641  -2.633  -1.004  0.00  0.00     0.187 C 
ATOM     20  O   UNL d   1       5.653  -1.931  -2.259  0.00  0.00    -0.388 OA
ATOM     21  C   UNL d   1       4.643  -0.908  -2.283  0.00  0.00     0.187 C 
ATOM     22  O   UNL d   1       2.156  -3.086   1.023  0.00  0.00    -0.267 OA
ENDBRANCH   1  15
TORSDOF 3
