REMARK  3 active torsions:
REMARK  status: ('A' for Active; 'I' for Inactive)
REMARK    1  A    between atoms: C_4  and  N_1 
REMARK    2  A    between atoms: S_7  and  C_5 
REMARK    3  A    between atoms: C_15  and  S_7 
ROOT
ATOM      1  N   UNL d   1       0.026   0.849  -0.031  0.00  0.00    -0.251 N 
ATOM      2  C   UNL d   1      -1.114   0.096   0.117  0.00  0.00     0.232 A 
ATOM      3  C   UNL d   1       1.143   0.044  -0.116  0.00  0.00     0.245 A 
ATOM      4  C   UNL d   1       0.716  -1.405  -0.200  0.00  0.00     0.154 A 
ATOM      5  C   UNL d   1      -0.778  -1.363   0.034  0.00  0.00     0.129 A 
ATOM      6  O   UNL d   1      -2.266   0.472   0.286  0.00  0.00    -0.273 OA
ATOM      7  O   UNL d   1       2.320   0.385  -0.074  0.00  0.00    -0.271 OA
ENDROOT
BRANCH   1   8
ATOM      8  C   UNL d   1       0.062   2.282  -0.053  0.00  0.00     0.048 A 
ATOM      9  C   UNL d   1      -0.991   3.058   0.459  0.00  0.00     0.054 A 
ATOM     10  C   UNL d   1      -0.951   4.457   0.408  0.00  0.00     0.037 A 
ATOM     11 CL   UNL d   1      -2.254   5.371   1.068  0.00  0.00    -0.084 Cl
ATOM     12  C   UNL d   1       0.126   5.120  -0.163  0.00  0.00     0.048 A 
ATOM     13  C   UNL d   1       1.172   4.369  -0.680  0.00  0.00     0.037 A 
ATOM     14  C   UNL d   1       1.149   2.970  -0.622  0.00  0.00     0.054 A 
ATOM     15 CL   UNL d   1       2.504   5.171  -1.420  0.00  0.00    -0.084 Cl
ENDBRANCH   1   8
BRANCH   4  16
ATOM     16  S   UNL d   1       1.172  -2.040  -1.857  0.00  0.00    -0.115 SA
BRANCH  16  17
ATOM     17  C   UNL d   1       0.750  -3.767  -1.712  0.00  0.00     0.001 A 
ATOM     18  C   UNL d   1      -0.169  -4.304  -2.619  0.00  0.00     0.018 A 
ATOM     19  C   UNL d   1      -0.468  -5.668  -2.605  0.00  0.00     0.001 A 
ATOM     20  C   UNL d   1       0.158  -6.508  -1.688  0.00  0.00     0.000 A 
ATOM     21  C   UNL d   1       1.077  -5.983  -0.779  0.00  0.00     0.001 A 
ATOM     22  C   UNL d   1       1.374  -4.615  -0.791  0.00  0.00     0.018 A 
ENDBRANCH  16  17
ENDBRANCH   4  16
TORSDOF 3
