REMARK  1 active torsions:
REMARK  status: ('A' for Active; 'I' for Inactive)
REMARK    1  A    between atoms: C_4  and  N_1 
ROOT
ATOM      1  N   UNL d   1       0.602   1.170  -0.589  0.00  0.00    -0.249 N 
ATOM      2  C   UNL d   1       1.387   0.024  -0.362  0.00  0.00     0.255 C 
ATOM      3  C   UNL d   1      -0.746   1.218  -0.184  0.00  0.00     0.255 C 
ATOM      4  O   UNL d   1      -0.536  -1.079   0.714  0.00  0.00    -0.373 OA
ATOM      5  O   UNL d   1      -1.462   2.218  -0.121  0.00  0.00    -0.270 OA
ATOM      6  O   UNL d   1       2.621  -0.016  -0.381  0.00  0.00    -0.270 OA
ATOM      7  C   UNL d   1       0.618  -1.261  -0.077  0.00  0.00     0.271 C 
ATOM      8  C   UNL d   1      -1.387  -0.140   0.098  0.00  0.00     0.271 C 
ENDROOT
BRANCH   1   9
ATOM      9  C   UNL d   1       1.226   2.335  -1.194  0.00  0.00     0.045 A 
ATOM     10  C   UNL d   1       0.760   3.645  -0.995  0.00  0.00     0.031 A 
ATOM     11  C   UNL d   1       1.314   4.738  -1.679  0.00  0.00     0.020 A 
ATOM     12  C   UNL d   1       2.360   4.544  -2.573  0.00  0.00     0.006 A 
ATOM     13  C   UNL d   1       2.865   3.267  -2.773  0.00  0.00     0.020 A 
ATOM     14  I   UNL d   1       3.152   6.151  -3.619  0.00  0.00    -0.045 I 
ATOM     15  C   UNL d   1       2.302   2.179  -2.092  0.00  0.00     0.031 A 
ENDBRANCH   1   9
TORSDOF 1
