REMARK  6 active torsions:
REMARK  status: ('A' for Active; 'I' for Inactive)
REMARK    1  A    between atoms: S_8  and  C_3 
REMARK       I    between atoms: C_4  and  N_5 
REMARK    2  A    between atoms: C_9  and  C_4 
REMARK    3  A    between atoms: N_5  and  C_6 
REMARK    4  A    between atoms: S_10  and  C_7 
REMARK    5  A    between atoms: C_14  and  S_8 
REMARK    6  A    between atoms: C_15  and  S_10 
ROOT
ATOM      1  N   UNL d   1      -1.630   0.170   0.054  0.00  0.00    -0.343 N 
ATOM      2  HN  UNL d   1      -2.647   0.245   0.057  1.00  0.00     0.167 HD
ATOM      3  C   UNL d   1      -0.856   1.289   0.082  0.00  0.00     0.102 A 
ATOM      4  C   UNL d   1       0.549   1.222   0.088  0.00  0.00     0.069 A 
ATOM      5  C   UNL d   1      -1.033  -1.041   0.024  0.00  0.00     0.075 A 
ATOM      6  C   UNL d   1       1.135  -0.048  -0.013  0.00  0.00     0.035 A 
ATOM      7  C   UNL d   1       0.340  -1.191  -0.031  0.00  0.00     0.039 A 
ENDROOT
BRANCH   4   8
ATOM      8  N   UNL d   1       1.463   2.308   0.152  0.00  0.00    -0.324 N 
ATOM      9  C   UNL d   1       1.368   3.362   1.051  0.00  0.00     0.229 C 
ATOM     10  O   UNL d   1       0.492   3.464   1.906  0.00  0.00    -0.272 OA
ATOM     11  H   UNL d   1       2.401   2.101  -0.160  0.00  0.00     0.169 HD
BRANCH   9  12
ATOM     12  C   UNL d   1       2.543   4.369   0.973  0.00  0.00     0.030 C 
ATOM     13  C   UNL d   1       2.621   4.998  -0.425  0.00  0.00     0.025 C 
ATOM     14  C   UNL d   1       2.327   5.490   2.007  0.00  0.00     0.025 C 
ATOM     15  C   UNL d   1       3.868   3.662   1.304  0.00  0.00     0.025 C 
ENDBRANCH   9  12
ENDBRANCH   4   8
BRANCH   3  16
ATOM     16  S   UNL d   1      -1.788   2.812   0.032  0.00  0.00    -0.070 SA
BRANCH  16  17
ATOM     17  C   UNL d   1      -2.631   2.758  -1.539  0.00  0.00     0.007 A 
ATOM     18  C   UNL d   1      -3.551   1.759  -1.871  0.00  0.00     0.019 A 
ATOM     19  C   UNL d   1      -4.259   1.815  -3.077  0.00  0.00     0.001 A 
ATOM     20  C   UNL d   1      -4.064   2.882  -3.952  0.00  0.00     0.000 A 
ATOM     21  C   UNL d   1      -3.159   3.889  -3.626  0.00  0.00     0.001 A 
ATOM     22  C   UNL d   1      -2.448   3.828  -2.427  0.00  0.00     0.019 A 
ENDBRANCH  16  17
ENDBRANCH   3  16
BRANCH   5  23
ATOM     23  S   UNL d   1      -2.095  -2.468  -0.019  0.00  0.00    -0.073 SA
BRANCH  23  24
ATOM     24  C   UNL d   1      -2.634  -2.609   1.678  0.00  0.00     0.007 A 
ATOM     25  C   UNL d   1      -3.063  -1.508   2.428  0.00  0.00     0.019 A 
ATOM     26  C   UNL d   1      -3.499  -1.671   3.746  0.00  0.00     0.001 A 
ATOM     27  C   UNL d   1      -3.531  -2.939   4.321  0.00  0.00     0.000 A 
ATOM     28  C   UNL d   1      -3.127  -4.046   3.577  0.00  0.00     0.001 A 
ATOM     29  C   UNL d   1      -2.682  -3.881   2.263  0.00  0.00     0.019 A 
ENDBRANCH  23  24
ENDBRANCH   5  23
TORSDOF 6
