REMARK  1 active torsions:
REMARK  status: ('A' for Active; 'I' for Inactive)
REMARK    1  A    between atoms: N_4  and  C_2 
ROOT
ATOM      1  C   UNL d   1      -0.719   1.263   0.080  0.00  0.00     0.061 A 
ATOM      2  C   UNL d   1      -1.432   0.038   0.005  0.00  0.00     0.075 A 
ATOM      3  C   UNL d   1      -0.702  -1.165  -0.067  0.00  0.00     0.040 A 
ATOM      4  C   UNL d   1       0.702   1.266   0.044  0.00  0.00     0.059 A 
ATOM      5  C   UNL d   1       1.419   0.058  -0.008  0.00  0.00    -0.037 A 
ATOM      6  C   UNL d   1       0.700  -1.142  -0.045  0.00  0.00     0.030 A 
ATOM      7 BR   UNL d   1      -1.613   2.934   0.438  0.00  0.00    -0.047 Br
ATOM      8 BR   UNL d   1      -1.452  -2.895  -0.371  0.00  0.00    -0.049 Br
ATOM      9 CL   UNL d   1       1.592   2.766   0.050  0.00  0.00    -0.082 Cl
ATOM     10  C   UNL d   1       2.922  -0.048  -0.009  0.00  0.00     0.050 C 
ENDROOT
BRANCH   2  11
ATOM     11  N   UNL d   1      -2.859   0.012  -0.002  0.00  0.00    -0.330 N 
ATOM     12  C   UNL d   1      -3.695   0.812  -0.763  0.00  0.00     0.097 A 
ATOM     13  C   UNL d   1      -5.008   0.495  -0.485  0.00  0.00     0.019 A 
ATOM     14  C   UNL d   1      -4.994  -0.554   0.451  0.00  0.00     0.019 A 
ATOM     15  C   UNL d   1      -3.672  -0.822   0.741  0.00  0.00     0.097 A 
ENDBRANCH   2  11
TORSDOF 1
