REMARK  6 active torsions:
REMARK  status: ('A' for Active; 'I' for Inactive)
REMARK    1  A    between atoms: C_7  and  N_1 
REMARK    2  A    between atoms: C_2  and  O_8 
REMARK    3  A    between atoms: C_3  and  C_2 
REMARK    4  A    between atoms: O_8  and  N_4 
REMARK    5  A    between atoms: C_6  and  C_10 
REMARK    6  A    between atoms: N_18  and  C_6 
ROOT
ATOM      1  N   UNL d   1      -0.706   5.498   1.965  0.00  0.00    -0.246 N 
ATOM      2  HN  UNL d   1      -0.413   6.471   2.059  1.00  0.00     0.196 HD
ATOM      3  C   UNL d   1       0.006   4.572   1.390  0.00  0.00     0.109 C 
ENDROOT
BRANCH   3   4
ATOM      4  C   UNL d   1       1.348   4.973   0.833  0.00  0.00     0.006 A 
ATOM      5  C   UNL d   1       2.201   4.040   0.229  0.00  0.00     0.050 A 
ATOM      6  C   UNL d   1       3.451   4.456  -0.258  0.00  0.00     0.103 A 
ATOM      7  C   UNL d   1       3.850   5.796  -0.173  0.00  0.00     0.036 A 
ATOM      8  C   UNL d   1       2.993   6.725   0.415  0.00  0.00     0.003 A 
ATOM      9  C   UNL d   1       1.756   6.315   0.918  0.00  0.00     0.015 A 
BRANCH   6  10
ATOM     10  N   UNL d   1       4.362   3.467  -0.849  0.00  0.00    -0.116 N 
ATOM     11  O   UNL d   1       4.008   2.279  -0.834  0.00  0.00    -0.532 OA
ATOM     12  O   UNL d   1       5.434   3.875  -1.318  0.00  0.00    -0.532 OA
ENDBRANCH   6  10
ENDBRANCH   3   4
BRANCH   3  13
ATOM     13  N   UNL d   1      -0.423   3.269   1.282  0.00  0.00    -0.286 NA
ATOM     14  H   UNL d   1      -1.227   3.072   1.869  0.00  0.00     0.125 HD
ATOM     15  H   UNL d   1       0.269   2.533   1.329  0.00  0.00     0.125 HD
ENDBRANCH   3  13
BRANCH   1  16
ATOM     16  O   UNL d   1      -1.934   4.989   2.444  0.00  0.00    -0.193 OA
BRANCH  16  17
ATOM     17  C   UNL d   1      -2.680   5.993   3.023  0.00  0.00     0.322 C 
ATOM     18  O   UNL d   1      -2.342   7.170   3.124  0.00  0.00    -0.257 OA
BRANCH  17  19
ATOM     19  C   UNL d   1      -3.951   5.475   3.519  0.00  0.00     0.082 A 
ATOM     20  S   UNL d   1      -4.399   3.824   3.387  0.00  0.00    -0.096 SA
ATOM     21  C   UNL d   1      -5.901   4.092   4.155  0.00  0.00     0.050 A 
ATOM     22  C   UNL d   1      -6.071   5.410   4.512  0.00  0.00     0.009 A 
ATOM     23  C   UNL d   1      -4.947   6.206   4.146  0.00  0.00     0.026 A 
ENDBRANCH  17  19
ENDBRANCH  16  17
ENDBRANCH   1  16
TORSDOF 6
