REMARK  2 active torsions:
REMARK  status: ('A' for Active; 'I' for Inactive)
REMARK    1  A    between atoms: C_7  and  C_1 
REMARK       I    between atoms: C_6  and  N_8 
REMARK       I    between atoms: N_10  and  C_6 
REMARK    2  A    between atoms: N_8  and  C_7 
ROOT
ATOM      1  C   UNL d   1       1.256  -1.259  -0.038  0.00  0.00     0.002 A 
ATOM      2  C   UNL d   1       2.008  -0.092  -0.062  0.00  0.00     0.058 A 
ATOM      3  O   UNL d   1       1.197   1.001  -0.069  0.00  0.00    -0.314 OA
ATOM      4  C   UNL d   1      -0.112  -0.833  -0.031  0.00  0.00     0.008 A 
ATOM      5  C   UNL d   1      -0.085   0.555  -0.042  0.00  0.00     0.086 A 
ATOM      6  C   UNL d   1       3.455   0.208  -0.073  0.00  0.00     0.077 C 
ATOM      7  C   UNL d   1      -1.368  -1.471  -0.007  0.00  0.00     0.015 A 
ATOM      8  C   UNL d   1      -1.217   1.367  -0.024  0.00  0.00     0.038 A 
ATOM      9  C   UNL d   1      -2.528  -0.682   0.010  0.00  0.00     0.001 A 
ATOM     10  C   UNL d   1      -2.452   0.713   0.003  0.00  0.00     0.003 A 
ENDROOT
BRANCH   1  11
ATOM     11  C   UNL d   1       1.749  -2.661   0.010  0.00  0.00     0.166 C 
BRANCH  11  12
ATOM     12  N   UNL d   1       1.854  -3.172  -1.335  0.00  0.00    -0.344 N 
ATOM     13  C   UNL d   1       2.176  -4.482  -1.521  0.00  0.00     0.292 C 
ATOM     14  O   UNL d   1       2.312  -5.315  -0.640  0.00  0.00    -0.254 OA
ATOM     15  N   UNL d   1       2.341  -4.794  -2.832  0.00  0.00    -0.254 NA
ATOM     16  H   UNL d   1       1.714  -4.338  -3.480  0.00  0.00     0.128 HD
ATOM     17  H   UNL d   1       2.461  -5.787  -2.991  0.00  0.00     0.128 HD
ATOM     18  H   UNL d   1       2.205  -2.544  -2.042  0.00  0.00     0.164 HD
ENDBRANCH  11  12
ENDBRANCH   1  11
TORSDOF 2
