REMARK  2 active torsions:
REMARK  status: ('A' for Active; 'I' for Inactive)
REMARK    1  A    between atoms: C_8  and  N_1 
REMARK    2  A    between atoms: O_10  and  C_6 
ROOT
ATOM      1  N   UNL d   1      -0.765   1.151   0.038  0.00  0.00    -0.218 N 
ATOM      2  C   UNL d   1      -1.458  -0.071   0.125  0.00  0.00     0.273 A 
ATOM      3  N   UNL d   1       0.618   1.232  -0.085  0.00  0.00    -0.270 N 
ATOM      4  HN  UNL d   1       1.103   2.125  -0.162  1.00  0.00     0.190 HD
ATOM      5  C   UNL d   1      -0.624  -1.315   0.057  0.00  0.00     0.012 A 
ATOM      6  C   UNL d   1       1.245   0.115  -0.095  0.00  0.00     0.155 A 
ATOM      7  C   UNL d   1       0.707  -1.228  -0.041  0.00  0.00     0.069 A 
ATOM      8  O   UNL d   1      -2.679  -0.206   0.205  0.00  0.00    -0.266 OA
ATOM      9  C   UNL d   1      -1.329  -2.639   0.061  0.00  0.00     0.054 C 
ENDROOT
BRANCH   1  10
ATOM     10  C   UNL d   1      -1.429   2.425   0.038  0.00  0.00     0.060 A 
ATOM     11  C   UNL d   1      -2.710   2.596   0.584  0.00  0.00     0.031 A 
ATOM     12  C   UNL d   1      -3.373   3.826   0.517  0.00  0.00     0.002 A 
ATOM     13  C   UNL d   1      -2.764   4.913  -0.100  0.00  0.00     0.000 A 
ATOM     14  C   UNL d   1      -1.481   4.778  -0.621  0.00  0.00     0.002 A 
ATOM     15  C   UNL d   1      -0.814   3.550  -0.538  0.00  0.00     0.031 A 
ENDBRANCH   1  10
BRANCH   6  16
ATOM     16  O   UNL d   1       2.581   0.108  -0.167  0.00  0.00    -0.345 OA
ATOM     17  H   UNL d   1       2.882   1.032  -0.178  0.00  0.00     0.219 HD
ENDBRANCH   6  16
TORSDOF 2
