REMARK  4 active torsions:
REMARK  status: ('A' for Active; 'I' for Inactive)
REMARK    1  A    between atoms: S_6  and  C_2 
REMARK    2  A    between atoms: C_7  and  C_3 
REMARK    3  A    between atoms: C_9  and  C_4 
REMARK    4  A    between atoms: O_19  and  C_9 
ROOT
ATOM      1  C   UNL d   1      -0.738  -0.102   0.007  0.00  0.00     0.086 A 
ATOM      2  C   UNL d   1       0.174   0.935   0.037  0.00  0.00     0.121 A 
ATOM      3  C   UNL d   1      -0.106  -1.400   0.010  0.00  0.00     0.027 A 
ATOM      4  C   UNL d   1       1.282  -1.294   0.037  0.00  0.00     0.094 A 
ATOM      5  S   UNL d   1       1.776   0.351   0.128  0.00  0.00    -0.070 SA
ATOM      6  C   UNL d   1      -2.153   0.135   0.014  0.00  0.00     0.102 C 
ATOM      7  N   UNL d   1      -3.306   0.276   0.032  0.00  0.00    -0.191 NA
ENDROOT
BRANCH   2   8
ATOM      8  S   UNL d   1      -0.020   2.706  -0.036  0.00  0.00     0.179 S 
ATOM      9  O   UNL d   1       0.797   3.136  -1.149  0.00  0.00    -0.222 OA
ATOM     10  O   UNL d   1      -1.449   2.933  -0.011  0.00  0.00    -0.222 OA
ATOM     11  C   UNL d   1       0.661   3.326   1.475  0.00  0.00     0.167 C 
ENDBRANCH   2   8
BRANCH   3  12
ATOM     12  C   UNL d   1      -0.858  -2.719  -0.008  0.00  0.00     0.018 A 
ATOM     13  S   UNL d   1      -0.338  -4.149   0.784  0.00  0.00    -0.101 SA
ATOM     14  C   UNL d   1      -1.705  -5.028   0.263  0.00  0.00     0.050 A 
ATOM     15  C   UNL d   1      -2.569  -4.248  -0.467  0.00  0.00     0.008 A 
ATOM     16  C   UNL d   1      -2.079  -2.917  -0.625  0.00  0.00     0.020 A 
ENDBRANCH   3  12
BRANCH   4  17
ATOM     17  C   UNL d   1       2.289  -2.332  -0.135  0.00  0.00     0.300 C 
ATOM     18  O   UNL d   1       2.175  -3.310  -0.866  0.00  0.00    -0.259 OA
BRANCH  17  19
ATOM     19  O   UNL d   1       3.392  -2.089   0.636  0.00  0.00    -0.322 OA
ATOM     20  C   UNL d   1       4.377  -3.125   0.564  0.00  0.00     0.213 C 
ENDBRANCH  17  19
ENDBRANCH   4  17
TORSDOF 4
