REMARK  2 active torsions:
REMARK  status: ('A' for Active; 'I' for Inactive)
REMARK    1  A    between atoms: N_11  and  C_4 
REMARK    2  A    between atoms: N_5  and  N_11 
ROOT
ATOM      1  C   UNL d   1      -3.630  -4.160  -0.618  0.00  0.00     0.209 C 
ATOM      2  N   UNL d   1      -2.515  -3.496  -0.546  0.00  0.00    -0.281 N 
ATOM      3  HN  UNL d   1      -1.657  -3.893  -0.929  1.00  0.00     0.188 HD
ATOM      4  N   UNL d   1      -5.841  -3.211   0.358  0.00  0.00    -0.189 NA
ATOM      5  N   UNL d   1      -3.476  -6.453  -1.830  0.00  0.00    -0.189 NA
ATOM      6  C   UNL d   1      -4.854  -3.647  -0.072  0.00  0.00     0.130 C 
ATOM      7  C   UNL d   1      -3.531  -5.427  -1.286  0.00  0.00     0.130 C 
ENDROOT
BRANCH   2   8
ATOM      8  N   UNL d   1      -2.498  -2.261   0.045  0.00  0.00    -0.296 N 
ATOM      9  H   UNL d   1      -3.292  -1.617  -0.059  0.00  0.00     0.187 HD
BRANCH   8  10
ATOM     10  C   UNL d   1      -1.266  -1.560   0.009  0.00  0.00     0.090 A 
ATOM     11  C   UNL d   1      -1.263  -0.158   0.073  0.00  0.00     0.185 A 
ATOM     12  C   UNL d   1      -0.074   0.561   0.068  0.00  0.00     0.195 A 
ATOM     13  F   UNL d   1      -2.436   0.495   0.114  0.00  0.00    -0.200 F 
ATOM     14  C   UNL d   1       1.137  -0.115   0.022  0.00  0.00     0.158 A 
ATOM     15  F   UNL d   1      -0.098   1.901   0.103  0.00  0.00    -0.199 F 
ATOM     16  F   UNL d   1       2.290   0.567   0.020  0.00  0.00    -0.203 F 
ATOM     17  C   UNL d   1       1.168  -1.506  -0.020  0.00  0.00     0.048 A 
ATOM     18  C   UNL d   1      -0.031  -2.226  -0.023  0.00  0.00     0.037 A 
ENDBRANCH   8  10
ENDBRANCH   2   8
TORSDOF 2
