REMARK  3 active torsions:
REMARK  status: ('A' for Active; 'I' for Inactive)
REMARK    1  A    between atoms: C_2  and  N_1 
REMARK    2  A    between atoms: C_8  and  C_3 
REMARK    3  A    between atoms: N_7  and  C_6 
ROOT
ATOM      1  C   UNL d   1      -3.632  -1.796  -1.361  0.00  0.00     0.029 A 
ATOM      2  C   UNL d   1      -1.929  -0.118   0.197  0.00  0.00    -0.034 A 
ATOM      3  C   UNL d   1      -2.436  -2.268  -0.791  0.00  0.00     0.030 A 
ATOM      4  C   UNL d   1      -3.940  -0.448  -1.115  0.00  0.00     0.030 A 
ATOM      5  C   UNL d   1      -3.108   0.383  -0.353  0.00  0.00     0.013 A 
ATOM      6  C   UNL d   1      -1.597  -1.451  -0.021  0.00  0.00     0.013 A 
ENDROOT
BRANCH   2   7
ATOM      7  C   UNL d   1      -1.058   0.753   0.989  0.00  0.00     0.042 C 
ATOM      8  C   UNL d   1      -1.164   0.870   2.324  0.00  0.00     0.077 C 
ATOM      9  C   UNL d   1      -2.092   0.148   3.244  0.00  0.00     0.075 C 
BRANCH   8  10
ATOM     10  N   UNL d   1      -0.269   1.831   2.969  0.00  0.00    -0.120 N 
ATOM     11  O   UNL d   1       0.817   2.072   2.427  0.00  0.00    -0.532 OA
ATOM     12  O   UNL d   1      -0.663   2.349   4.022  0.00  0.00    -0.532 OA
ENDBRANCH   8  10
ENDBRANCH   2   7
BRANCH   1  13
ATOM     13  N   UNL d   1      -4.415  -2.610  -2.164  0.00  0.00    -0.390 N 
ATOM     14  C   UNL d   1      -4.568  -4.032  -1.865  0.00  0.00     0.149 C 
ATOM     15  C   UNL d   1      -5.408  -2.063  -3.083  0.00  0.00     0.149 C 
ENDBRANCH   1  13
TORSDOF 3
