REMARK  2 active torsions:
REMARK  status: ('A' for Active; 'I' for Inactive)
REMARK    1  A    between atoms: N_12  and  C_7 
REMARK    2  A    between atoms: C_15  and  N_12 
ROOT
ATOM      1  S   UNL d   1      -1.187  -1.636  -0.006  0.00  0.00     0.270 S 
ATOM      2  C   UNL d   1      -2.417  -0.544   0.471  0.00  0.00     0.146 C 
ATOM      3  N   UNL d   1      -1.754  -2.046  -1.563  0.00  0.00    -0.275 N 
ATOM      4  C   UNL d   1      -2.717   0.549  -0.466  0.00  0.00     0.209 C 
ATOM      5  C   UNL d   1      -2.411   0.340  -1.911  0.00  0.00     0.043 A 
ATOM      6  C   UNL d   1      -1.959  -0.896  -2.429  0.00  0.00     0.059 A 
ATOM      7  C   UNL d   1      -3.214  -0.825   1.513  0.00  0.00     0.118 C 
ATOM      8  O   UNL d   1       0.068  -0.927  -0.180  0.00  0.00    -0.200 OA
ATOM      9  O   UNL d   1      -1.228  -2.839   0.805  0.00  0.00    -0.200 OA
ATOM     10  O   UNL d   1      -3.279   1.574  -0.087  0.00  0.00    -0.286 OA
ATOM     11  C   UNL d   1      -1.265  -3.325  -2.102  0.00  0.00     0.170 C 
ATOM     12  C   UNL d   1      -2.675   1.417  -2.776  0.00  0.00     0.018 A 
ATOM     13  C   UNL d   1      -1.862  -1.031  -3.821  0.00  0.00     0.031 A 
ATOM     14  C   UNL d   1      -2.535   1.268  -4.151  0.00  0.00     0.001 A 
ATOM     15  C   UNL d   1      -2.138   0.042  -4.674  0.00  0.00     0.002 A 
ENDROOT
BRANCH   7  16
ATOM     16  N   UNL d   1      -4.347  -0.148   1.900  0.00  0.00    -0.364 N 
ATOM     17  H   UNL d   1      -4.527   0.716   1.379  0.00  0.00     0.165 HD
BRANCH  16  18
ATOM     18  C   UNL d   1      -5.332  -0.528   2.825  0.00  0.00     0.033 A 
ATOM     19  C   UNL d   1      -5.202  -1.628   3.684  0.00  0.00     0.056 A 
ATOM     20  C   UNL d   1      -6.222  -1.958   4.581  0.00  0.00     0.074 A 
ATOM     21 CL   UNL d   1      -6.016  -3.304   5.636  0.00  0.00    -0.081 Cl
ATOM     22  C   UNL d   1      -7.388  -1.200   4.620  0.00  0.00     0.138 A 
ATOM     23  C   UNL d   1      -7.548  -0.118   3.764  0.00  0.00     0.046 A 
ATOM     24  F   UNL d   1      -8.374  -1.498   5.477  0.00  0.00    -0.204 F 
ATOM     25  C   UNL d   1      -6.526   0.213   2.872  0.00  0.00     0.032 A 
ENDBRANCH  16  18
ENDBRANCH   7  16
TORSDOF 2
