REMARK  6 active torsions:
REMARK  status: ('A' for Active; 'I' for Inactive)
REMARK    1  A    between atoms: O_6  and  C_1 
REMARK    2  A    between atoms: C_8  and  C_2 
REMARK    3  A    between atoms: S_3  and  O_6 
REMARK    4  A    between atoms: C_9  and  S_3 
REMARK    5  A    between atoms: O_15  and  C_7 
REMARK    6  A    between atoms: O_16  and  C_8 
ROOT
ATOM      1  C   UNL d   1       1.304   0.971   0.141  0.00  0.00     0.116 A 
ATOM      2  C   UNL d   1       0.968  -0.336   0.457  0.00  0.00     0.117 A 
ATOM      3  C   UNL d   1       0.140   1.774  -0.096  0.00  0.00     0.084 A 
ATOM      4  S   UNL d   1      -0.744  -0.539   0.462  0.00  0.00    -0.057 SA
ATOM      5  C   UNL d   1      -1.046   1.086   0.052  0.00  0.00     0.112 A 
ENDROOT
BRANCH   1   6
ATOM      6  O   UNL d   1       2.594   1.401   0.069  0.00  0.00    -0.227 OA
BRANCH   6   7
ATOM      7  S   UNL d   1       2.963   2.962  -0.278  0.00  0.00     0.303 S 
ATOM      8  O   UNL d   1       2.590   3.215  -1.659  0.00  0.00    -0.193 OA
ATOM      9  O   UNL d   1       2.464   3.808   0.791  0.00  0.00    -0.193 OA
BRANCH   7  10
ATOM     10  C   UNL d   1       4.734   3.081  -0.201  0.00  0.00     0.086 A 
ATOM     11  C   UNL d   1       5.388   3.998  -1.031  0.00  0.00     0.026 A 
ATOM     12  C   UNL d   1       6.776   4.126  -0.958  0.00  0.00     0.008 A 
ATOM     13  C   UNL d   1       7.512   3.336  -0.064  0.00  0.00    -0.062 A 
ATOM     14  C   UNL d   1       6.840   2.418   0.758  0.00  0.00     0.008 A 
ATOM     15  C   UNL d   1       9.005   3.489   0.011  0.00  0.00     0.048 C 
ATOM     16  C   UNL d   1       5.452   2.286   0.693  0.00  0.00     0.026 A 
ENDBRANCH   7  10
ENDBRANCH   6   7
ENDBRANCH   1   6
BRANCH   2  17
ATOM     17  C   UNL d   1       1.754  -1.517   0.774  0.00  0.00     0.302 C 
ATOM     18  O   UNL d   1       1.306  -2.640   0.975  0.00  0.00    -0.259 OA
BRANCH  17  19
ATOM     19  O   UNL d   1       3.089  -1.228   0.834  0.00  0.00    -0.322 OA
ATOM     20  C   UNL d   1       3.892  -2.366   1.161  0.00  0.00     0.213 C 
ENDBRANCH  17  19
ENDBRANCH   2  17
BRANCH   5  21
ATOM     21  O   UNL d   1      -2.322   1.474  -0.073  0.00  0.00    -0.349 OA
ATOM     22  C   UNL d   1      -2.542   2.839  -0.402  0.00  0.00     0.211 C 
ENDBRANCH   5  21
TORSDOF 6
