REMARK  5 active torsions:
REMARK  status: ('A' for Active; 'I' for Inactive)
REMARK    1  A    between atoms: C_14  and  C_3 
REMARK    2  A    between atoms: N_10  and  C_5 
REMARK       I    between atoms: C_9  and  N_11 
REMARK    3  A    between atoms: C_16  and  C_9 
REMARK    4  A    between atoms: N_11  and  N_10 
REMARK    5  A    between atoms: C_17  and  C_18 
ROOT
ATOM      1  C   UNL d   1       0.017  -0.600  -0.141  0.00  0.00     0.072 A 
ATOM      2  S   UNL d   1       1.716  -0.827  -0.220  0.00  0.00    -0.084 SA
ATOM      3  C   UNL d   1       2.049   0.852  -0.058  0.00  0.00     0.018 A 
ATOM      4  C   UNL d   1       0.868   1.573   0.003  0.00  0.00     0.050 A 
ATOM      5  C   UNL d   1      -1.012  -1.551  -0.181  0.00  0.00     0.119 A 
ATOM      6  C   UNL d   1      -0.296   0.747  -0.025  0.00  0.00     0.054 A 
ATOM      7  N   UNL d   1      -2.289  -1.096  -0.091  0.00  0.00    -0.341 N 
ATOM      8  HN  UNL d   1      -3.077  -1.745  -0.102  1.00  0.00     0.167 HD
ATOM      9  N   UNL d   1      -1.572   1.196   0.050  0.00  0.00    -0.351 N 
ATOM     10  HN  UNL d   1      -1.809   2.185   0.130  1.00  0.00     0.166 HD
ATOM     11  C   UNL d   1      -2.491   0.227   0.012  0.00  0.00     0.182 A 
ENDROOT
BRANCH   5  12
ATOM     12  N   UNL d   1      -0.755  -2.926  -0.349  0.00  0.00    -0.186 NA
ATOM     13  H   UNL d   1       0.208  -3.180  -0.109  0.00  0.00     0.154 HD
BRANCH  12  14
ATOM     14  N   UNL d   1      -1.698  -3.746   0.285  0.00  0.00    -0.281 N 
ATOM     15  C   UNL d   1      -1.248  -4.949   0.800  0.00  0.00     0.266 C 
ATOM     16  O   UNL d   1      -0.069  -5.289   0.786  0.00  0.00    -0.266 OA
ATOM     17  H   UNL d   1      -2.673  -3.538   0.085  0.00  0.00     0.184 HD
BRANCH  15  18
ATOM     18  C   UNL d   1      -2.289  -5.837   1.379  0.00  0.00     0.033 A 
ATOM     19  C   UNL d   1      -2.132  -7.223   1.276  0.00  0.00     0.017 A 
ATOM     20  C   UNL d   1      -3.097  -8.079   1.817  0.00  0.00     0.007 A 
ATOM     21  C   UNL d   1      -4.215  -7.559   2.481  0.00  0.00    -0.062 A 
ATOM     22  C   UNL d   1      -4.352  -6.170   2.603  0.00  0.00     0.007 A 
ATOM     23  C   UNL d   1      -5.254  -8.486   3.042  0.00  0.00     0.048 C 
ATOM     24  C   UNL d   1      -3.395  -5.312   2.055  0.00  0.00     0.017 A 
ENDBRANCH  15  18
ENDBRANCH  12  14
ENDBRANCH   5  12
BRANCH   3  25
ATOM     25  C   UNL d   1       3.440   1.336  -0.030  0.00  0.00    -0.019 A 
ATOM     26  C   UNL d   1       3.787   2.571  -0.588  0.00  0.00     0.013 A 
ATOM     27  C   UNL d   1       5.119   3.020  -0.583  0.00  0.00     0.009 A 
ATOM     28  C   UNL d   1       6.154   2.250  -0.021  0.00  0.00    -0.051 A 
ATOM     29  C   UNL d   1       5.789   1.030   0.563  0.00  0.00     0.009 A 
ATOM     30  C   UNL d   1       4.461   0.585   0.565  0.00  0.00     0.013 A 
BRANCH  28  31
ATOM     31  C   UNL d   1       7.615   2.727  -0.080  0.00  0.00    -0.024 C 
ATOM     32  C   UNL d   1       8.611   1.730   0.558  0.00  0.00     0.019 C 
ATOM     33  C   UNL d   1       8.040   2.915  -1.552  0.00  0.00     0.019 C 
ATOM     34  C   UNL d   1       7.774   4.069   0.664  0.00  0.00     0.019 C 
ENDBRANCH  28  31
ENDBRANCH   3  25
TORSDOF 5
