REMARK  8 active torsions:
REMARK  status: ('A' for Active; 'I' for Inactive)
REMARK    1  A    between atoms: N_2  and  C_1 
REMARK    2  A    between atoms: C_3  and  C_1 
REMARK    3  A    between atoms: C_4  and  C_1 
REMARK    4  A    between atoms: N_5  and  C_1 
REMARK       I    between atoms: C_6  and  N_2 
REMARK    5  A    between atoms: C_7  and  N_5 
REMARK    6  A    between atoms: O_16  and  C_6 
REMARK    7  A    between atoms: C_15  and  C_7 
REMARK    8  A    between atoms: C_20  and  O_16 
ROOT
ATOM      1  C   UNL d   1       1.012  -0.046   0.032  0.00  0.00     0.428 C 
ENDROOT
BRANCH   1   2
ATOM      2  N   UNL d   1       0.497   0.577  -1.211  0.00  0.00    -0.286 N 
ATOM      3  C   UNL d   1       0.110  -0.065  -2.337  0.00  0.00     0.363 C 
ATOM      4  O   UNL d   1       0.265  -1.246  -2.576  0.00  0.00    -0.238 OA
ATOM      5  H   UNL d   1       0.273   1.565  -1.195  0.00  0.00     0.168 HD
BRANCH   3   6
ATOM      6  O   UNL d   1      -0.468   0.831  -3.170  0.00  0.00    -0.304 OA
BRANCH   6   7
ATOM      7  C   UNL d   1      -0.831   0.326  -4.465  0.00  0.00     0.176 C 
ATOM      8  C   UNL d   1       0.299   0.612  -5.435  0.00  0.00     0.034 C 
ENDBRANCH   6   7
ENDBRANCH   3   6
ENDBRANCH   1   2
BRANCH   1   9
ATOM      9  C   UNL d   1       0.173  -1.257   0.581  0.00  0.00     0.452 C 
ATOM     10  F   UNL d   1      -0.037  -2.247  -0.306  0.00  0.00    -0.166 F 
ATOM     11  F   UNL d   1       0.810  -1.832   1.635  0.00  0.00    -0.166 F 
ATOM     12  F   UNL d   1      -1.053  -0.876   1.013  0.00  0.00    -0.166 F 
ENDBRANCH   1   9
BRANCH   1  13
ATOM     13  C   UNL d   1       0.766   0.981   1.212  0.00  0.00     0.452 C 
ATOM     14  F   UNL d   1      -0.472   1.532   1.139  0.00  0.00    -0.166 F 
ATOM     15  F   UNL d   1       0.910   0.445   2.442  0.00  0.00    -0.166 F 
ATOM     16  F   UNL d   1       1.633   2.027   1.142  0.00  0.00    -0.166 F 
ENDBRANCH   1  13
BRANCH   1  17
ATOM     17  N   UNL d   1       2.498  -0.205  -0.127  0.00  0.00     0.140 N 
ATOM     18  H   UNL d   1       2.886  -0.498   0.772  0.00  0.00     0.320 HD
BRANCH  17  19
ATOM     19  C   UNL d   1       3.063  -1.053  -1.178  0.00  0.00     0.253 C 
ATOM     20  C   UNL d   1       2.792  -2.554  -1.041  0.00  0.00     0.048 C 
BRANCH  19  21
ATOM     21  C   UNL d   1       4.588  -0.872  -1.205  0.00  0.00    -0.026 A 
ATOM     22  C   UNL d   1       5.386  -1.204  -0.095  0.00  0.00     0.009 A 
ATOM     23  C   UNL d   1       6.780  -1.125  -0.165  0.00  0.00     0.001 A 
ATOM     24  C   UNL d   1       7.395  -0.710  -1.346  0.00  0.00     0.000 A 
ATOM     25  C   UNL d   1       6.619  -0.362  -2.448  0.00  0.00     0.001 A 
ATOM     26  C   UNL d   1       5.224  -0.440  -2.382  0.00  0.00     0.009 A 
ENDBRANCH  19  21
ENDBRANCH  17  19
ENDBRANCH   1  17
TORSDOF 8
