REMARK  6 active torsions:
REMARK  status: ('A' for Active; 'I' for Inactive)
REMARK    1  A    between atoms: C_3  and  S_10 
REMARK    2  A    between atoms: C_4  and  S_9 
REMARK    3  A    between atoms: S_9  and  C_13 
REMARK    4  A    between atoms: S_10  and  C_14 
REMARK    5  A    between atoms: C_14  and  C_11 
REMARK    6  A    between atoms: C_13  and  C_12 
ROOT
ATOM      1  N   UNL d   1      -1.325  -0.067   0.051  0.00  0.00    -0.362 N 
ATOM      2  HN  UNL d   1      -2.344  -0.097   0.062  1.00  0.00     0.165 HD
ATOM      3  C   UNL d   1      -0.597  -1.214  -0.001  0.00  0.00     0.019 A 
ATOM      4  C   UNL d   1      -0.664   1.120   0.088  0.00  0.00     0.019 A 
ATOM      5  C   UNL d   1       1.460   0.014   0.035  0.00  0.00     0.004 A 
ATOM      6  C   UNL d   1       0.724   1.194   0.085  0.00  0.00     0.026 A 
ATOM      7  C   UNL d   1       0.795  -1.207  -0.013  0.00  0.00     0.026 A 
ENDROOT
BRANCH   3   8
ATOM      8  C   UNL d   1      -1.361  -2.519  -0.064  0.00  0.00     0.138 C 
BRANCH   8   9
ATOM      9  S   UNL d   1      -2.171  -2.720  -1.687  0.00  0.00    -0.106 SA
BRANCH   9  10
ATOM     10  C   UNL d   1      -3.041  -4.252  -1.434  0.00  0.00     0.069 A 
ATOM     11  N   UNL d   1      -2.737  -5.011  -0.357  0.00  0.00    -0.361 N 
ATOM     12  C   UNL d   1      -3.390  -6.188  -0.231  0.00  0.00     0.089 A 
ATOM     13  HN  UNL d   1      -2.046  -4.708   0.329  1.00  0.00     0.165 HD
ATOM     14  C   UNL d   1      -4.331  -6.654  -1.134  0.00  0.00     0.017 A 
ATOM     15  C   UNL d   1      -4.631  -5.861  -2.233  0.00  0.00     0.004 A 
ATOM     16  C   UNL d   1      -3.978  -4.640  -2.386  0.00  0.00     0.037 A 
ENDBRANCH   9  10
ENDBRANCH   8   9
ENDBRANCH   3   8
BRANCH   4  17
ATOM     17  C   UNL d   1      -1.502   2.382   0.081  0.00  0.00     0.138 C 
BRANCH  17  18
ATOM     18  S   UNL d   1      -2.396   2.620   1.651  0.00  0.00    -0.106 SA
BRANCH  18  19
ATOM     19  C   UNL d   1      -3.278   4.125   1.284  0.00  0.00     0.069 A 
ATOM     20  N   UNL d   1      -2.963   4.806   0.160  0.00  0.00    -0.361 N 
ATOM     21  C   UNL d   1      -3.627   5.961  -0.071  0.00  0.00     0.089 A 
ATOM     22  HN  UNL d   1      -2.253   4.463  -0.488  1.00  0.00     0.165 HD
ATOM     23  C   UNL d   1      -4.593   6.479   0.775  0.00  0.00     0.017 A 
ATOM     24  C   UNL d   1      -4.904   5.767   1.925  0.00  0.00     0.004 A 
ATOM     25  C   UNL d   1      -4.239   4.570   2.185  0.00  0.00     0.037 A 
ENDBRANCH  18  19
ENDBRANCH  17  18
ENDBRANCH   4  17
TORSDOF 6
