REMARK  4 active torsions:
REMARK  status: ('A' for Active; 'I' for Inactive)
REMARK    1  A    between atoms: C_6  and  C_1 
REMARK    2  A    between atoms: N_3  and  C_2 
REMARK    3  A    between atoms: O_11  and  C_5 
REMARK    4  A    between atoms: C_10  and  O_11 
ROOT
ATOM      1  C   UNL d   1      -0.327  -1.995   2.954  0.00  0.00     0.073 A 
ATOM      2  C   UNL d   1      -0.040  -0.897   2.115  0.00  0.00     0.049 A 
ATOM      3  C   UNL d   1      -0.060  -3.300   2.492  0.00  0.00     0.103 A 
ATOM      4  C   UNL d   1       0.572  -1.072   0.862  0.00  0.00     0.050 A 
ATOM      5  C   UNL d   1       0.604  -3.460   1.263  0.00  0.00     0.040 A 
ATOM      6  C   UNL d   1       0.898  -2.367   0.452  0.00  0.00     0.019 A 
ENDROOT
BRANCH   3   7
ATOM      7  O   UNL d   1      -0.441  -4.394   3.244  0.00  0.00    -0.308 OA
BRANCH   7   8
ATOM      8  C   UNL d   1      -0.808  -5.571   2.620  0.00  0.00     0.077 A 
ATOM      9  C   UNL d   1      -0.427  -6.754   3.254  0.00  0.00     0.045 A 
ATOM     10  C   UNL d   1      -0.762  -8.008   2.710  0.00  0.00    -0.037 A 
ATOM     11  C   UNL d   1      -0.325  -9.258   3.426  0.00  0.00     0.050 C 
ATOM     12  C   UNL d   1      -1.500  -8.061   1.510  0.00  0.00     0.046 A 
ATOM     13  C   UNL d   1      -1.903  -6.876   0.866  0.00  0.00    -0.037 A 
ATOM     14 CL   UNL d   1      -1.917  -9.609   0.842  0.00  0.00    -0.083 Cl
ATOM     15  C   UNL d   1      -1.571  -5.636   1.450  0.00  0.00     0.045 A 
ATOM     16  C   UNL d   1      -2.655  -6.844  -0.439  0.00  0.00     0.050 C 
ENDBRANCH   7   8
ENDBRANCH   3   7
BRANCH   1  17
ATOM     17  N   UNL d   1      -0.788  -1.706   4.279  0.00  0.00    -0.330 N 
ATOM     18  C   UNL d   1      -0.557  -2.446   5.422  0.00  0.00     0.097 A 
ATOM     19  C   UNL d   1      -0.962  -1.722   6.523  0.00  0.00     0.019 A 
ATOM     20  C   UNL d   1      -1.527  -0.522   6.052  0.00  0.00     0.019 A 
ATOM     21  C   UNL d   1      -1.431  -0.545   4.678  0.00  0.00     0.097 A 
ENDBRANCH   1  17
BRANCH   4  22
ATOM     22  C   UNL d   1       0.917   0.109  -0.013  0.00  0.00     0.417 C 
ATOM     23  F   UNL d   1       0.601   1.311   0.541  0.00  0.00    -0.166 F 
ATOM     24  F   UNL d   1       0.275   0.070  -1.214  0.00  0.00    -0.166 F 
ATOM     25  F   UNL d   1       2.247   0.167  -0.301  0.00  0.00    -0.166 F 
ENDBRANCH   4  22
TORSDOF 4
