REMARK  8 active torsions:
REMARK  status: ('A' for Active; 'I' for Inactive)
REMARK    1  A    between atoms: C_9  and  N_1 
REMARK    2  A    between atoms: S_5  and  N_10 
REMARK    3  A    between atoms: C_18  and  S_5 
REMARK    4  A    between atoms: C_14  and  C_6 
REMARK    5  A    between atoms: C_11  and  C_9 
REMARK    6  A    between atoms: N_10  and  N_15 
REMARK       I    between atoms: N_15  and  C_11 
REMARK    7  A    between atoms: C_12  and  C_17 
REMARK    8  A    between atoms: C_13  and  C_16 
ROOT
ATOM      1  N   UNL d   1       0.004  -1.033  -0.301  0.00  0.00    -0.203 N 
ATOM      2  N   UNL d   1      -0.478  -0.244  -1.285  0.00  0.00    -0.268 N 
ATOM      3  HN  UNL d   1      -1.050  -0.486  -2.094  1.00  0.00     0.190 HD
ATOM      4  N   UNL d   1       0.789  -0.405   0.598  0.00  0.00    -0.002 NA
ATOM      5  C   UNL d   1       0.008   0.957  -0.898  0.00  0.00     0.144 A 
ATOM      6  N   UNL d   1       0.800   0.863   0.221  0.00  0.00    -0.266 N 
ATOM      7  HN  UNL d   1       1.303   1.626   0.674  1.00  0.00     0.186 HD
ENDROOT
BRANCH   1   8
ATOM      8  C   UNL d   1      -0.302  -2.448  -0.134  0.00  0.00     0.214 C 
ATOM      9  C   UNL d   1       0.949  -3.291   0.135  0.00  0.00     0.046 C 
BRANCH   8  10
ATOM     10  C   UNL d   1      -1.217  -3.007  -1.226  0.00  0.00     0.262 C 
ATOM     11  N   UNL d   1      -0.612  -3.835  -2.167  0.00  0.00    -0.259 N 
ATOM     12  H   UNL d   1       0.385  -4.020  -2.121  0.00  0.00     0.190 HD
ATOM     13  O   UNL d   1      -2.418  -2.750  -1.202  0.00  0.00    -0.269 OA
BRANCH  11  14
ATOM     14  N   UNL d   1      -1.342  -4.718  -3.086  0.00  0.00    -0.220 N 
ATOM     15  H   UNL d   1      -0.809  -5.357  -3.683  0.00  0.00     0.200 HD
BRANCH  14  16
ATOM     16  S   UNL d   1      -2.901  -4.482  -3.732  0.00  0.00     0.276 S 
ATOM     17  O   UNL d   1      -2.998  -5.441  -4.820  0.00  0.00    -0.199 OA
ATOM     18  O   UNL d   1      -3.895  -4.450  -2.691  0.00  0.00    -0.199 OA
BRANCH  16  19
ATOM     19  C   UNL d   1      -2.705  -2.890  -4.484  0.00  0.00     0.081 A 
ATOM     20  C   UNL d   1      -1.889  -2.796  -5.620  0.00  0.00     0.027 A 
ATOM     21  C   UNL d   1      -1.533  -1.543  -6.105  0.00  0.00     0.025 A 
ATOM     22  C   UNL d   1      -2.017  -0.401  -5.474  0.00  0.00     0.034 A 
ATOM     23  C   UNL d   1      -2.917  -0.503  -4.410  0.00  0.00     0.025 A 
ATOM     24 CL   UNL d   1      -1.438   1.126  -5.998  0.00  0.00    -0.084 Cl
ATOM     25  C   UNL d   1      -3.268  -1.755  -3.905  0.00  0.00     0.027 A 
ENDBRANCH  16  19
ENDBRANCH  14  16
ENDBRANCH  11  14
ENDBRANCH   8  10
ENDBRANCH   1   8
BRANCH   5  26
ATOM     26  C   UNL d   1      -0.247   2.230  -1.568  0.00  0.00     0.012 A 
ATOM     27  C   UNL d   1      -1.320   2.375  -2.462  0.00  0.00     0.031 A 
ATOM     28  C   UNL d   1      -1.558   3.584  -3.137  0.00  0.00     0.049 A 
ATOM     29  C   UNL d   1      -0.705   4.669  -2.891  0.00  0.00     0.032 A 
ATOM     30  C   UNL d   1       0.345   4.571  -1.967  0.00  0.00     0.049 A 
ATOM     31  C   UNL d   1       0.569   3.345  -1.315  0.00  0.00     0.031 A 
BRANCH  28  32
ATOM     32  C   UNL d   1      -2.700   3.755  -4.114  0.00  0.00     0.417 C 
ATOM     33  F   UNL d   1      -3.535   2.686  -4.179  0.00  0.00    -0.166 F 
ATOM     34  F   UNL d   1      -3.490   4.820  -3.796  0.00  0.00    -0.166 F 
ATOM     35  F   UNL d   1      -2.267   3.990  -5.381  0.00  0.00    -0.166 F 
ENDBRANCH  28  32
BRANCH  30  36
ATOM     36  C   UNL d   1       1.215   5.778  -1.708  0.00  0.00     0.417 C 
ATOM     37  F   UNL d   1       2.037   5.637  -0.633  0.00  0.00    -0.166 F 
ATOM     38  F   UNL d   1       2.020   6.069  -2.765  0.00  0.00    -0.166 F 
ATOM     39  F   UNL d   1       0.481   6.901  -1.475  0.00  0.00    -0.166 F 
ENDBRANCH  30  36
ENDBRANCH   5  26
TORSDOF 8
