REMARK  2 active torsions:
REMARK  status: ('A' for Active; 'I' for Inactive)
REMARK    1  A    between atoms: C_4  and  C_1 
REMARK    2  A    between atoms: C_14  and  C_5 
ROOT
ATOM      1  C   UNL d   1       0.540  -0.989  -0.010  0.00  0.00     0.186 A 
ATOM      2  N   UNL d   1       1.239   0.122   0.090  0.00  0.00    -0.318 N 
ATOM      3  HN  UNL d   1       2.247   0.229   0.198  1.00  0.00     0.169 HD
ATOM      4  C   UNL d   1       0.276   1.106   0.012  0.00  0.00     0.138 A 
ATOM      5  N   UNL d   1      -0.973   0.632  -0.102  0.00  0.00    -0.242 N 
ATOM      6  HN  UNL d   1      -1.844   1.159  -0.159  1.00  0.00     0.196 HD
ATOM      7  O   UNL d   1      -0.803  -0.747  -0.122  0.00  0.00    -0.217 OA
ENDROOT
BRANCH   1   8
ATOM      8  C   UNL d   1       1.130  -2.344  -0.016  0.00  0.00     0.073 A 
ATOM      9  C   UNL d   1       0.448  -3.524  -0.183  0.00  0.00     0.089 A 
ATOM     10  O   UNL d   1       1.337  -4.554  -0.139  0.00  0.00    -0.242 OA
ATOM     11  C   UNL d   1      -0.964  -3.889  -0.403  0.00  0.00     0.080 C 
ATOM     12  N   UNL d   1       2.613  -4.059   0.059  0.00  0.00    -0.265 N 
ATOM     13  C   UNL d   1       2.482  -2.727   0.131  0.00  0.00     0.045 A 
ATOM     14  HN  UNL d   1       3.476  -4.597   0.133  1.00  0.00     0.194 HD
ATOM     15  C   UNL d   1       3.675  -1.875   0.348  0.00  0.00     0.071 C 
ENDBRANCH   1   8
BRANCH   4  16
ATOM     16  C   UNL d   1       0.610   2.527   0.018  0.00  0.00     0.010 A 
ATOM     17  C   UNL d   1       1.949   2.941   0.089  0.00  0.00     0.017 A 
ATOM     18  C   UNL d   1       2.278   4.301   0.059  0.00  0.00     0.025 A 
ATOM     19  C   UNL d   1       1.269   5.255  -0.040  0.00  0.00     0.034 A 
ATOM     20  C   UNL d   1      -0.066   4.864  -0.102  0.00  0.00     0.025 A 
ATOM     21 CL   UNL d   1       1.673   6.926  -0.093  0.00  0.00    -0.084 Cl
ATOM     22  C   UNL d   1      -0.395   3.505  -0.073  0.00  0.00     0.017 A 
ENDBRANCH   4  16
TORSDOF 2
