REMARK  6 active torsions:
REMARK  status: ('A' for Active; 'I' for Inactive)
REMARK    1  A    between atoms: C_2  and  S_1 
REMARK    2  A    between atoms: C_4  and  S_1 
REMARK    3  A    between atoms: C_3  and  C_5 
REMARK    4  A    between atoms: N_14  and  C_3 
REMARK    5  A    between atoms: C_13  and  C_4 
REMARK    6  A    between atoms: O_15  and  N_8 
ROOT
ATOM      1  C   UNL d   1       4.125   3.075   1.610  0.00  0.00     0.004 A 
ATOM      2  C   UNL d   1       3.726   1.799   1.187  0.00  0.00     0.022 A 
ATOM      3  C   UNL d   1       4.445   0.658   1.576  0.00  0.00    -0.043 A 
ATOM      4  C   UNL d   1       5.225   3.216   2.459  0.00  0.00     0.015 A 
ATOM      5  C   UNL d   1       5.934   2.087   2.868  0.00  0.00     0.002 A 
ATOM      6  C   UNL d   1       5.548   0.817   2.427  0.00  0.00     0.008 A 
ENDROOT
BRANCH   3   7
ATOM      7  C   UNL d   1       4.075  -0.696   1.026  0.00  0.00     0.185 C 
BRANCH   7   8
ATOM      8  S   UNL d   1       3.096  -1.654   2.158  0.00  0.00     0.195 S 
ATOM      9  O   UNL d   1       2.742  -2.901   1.500  0.00  0.00    -0.221 OA
ATOM     10  O   UNL d   1       3.786  -1.703   3.441  0.00  0.00    -0.221 OA
BRANCH   8  11
ATOM     11  C   UNL d   1       1.592  -0.728   2.381  0.00  0.00     0.128 A 
ATOM     12  N   UNL d   1       0.947  -0.424   1.221  0.00  0.00    -0.357 N 
ATOM     13  C   UNL d   1      -0.227   0.230   1.361  0.00  0.00     0.089 A 
ATOM     14  HN  UNL d   1       1.325  -0.673   0.307  1.00  0.00     0.166 HD
ATOM     15  C   UNL d   1      -0.759   0.609   2.586  0.00  0.00     0.017 A 
ATOM     16  C   UNL d   1      -0.053   0.297   3.747  0.00  0.00     0.004 A 
ATOM     17  C   UNL d   1       1.150  -0.393   3.650  0.00  0.00     0.042 A 
ENDBRANCH   8  11
ENDBRANCH   7   8
ENDBRANCH   3   7
BRANCH   1  18
ATOM     18  C   UNL d   1       3.409   4.284   1.102  0.00  0.00     0.108 C 
ATOM     19  N   UNL d   1       3.449   5.384   1.798  0.00  0.00    -0.258 N 
ATOM     20  HN  UNL d   1       3.919   5.485   2.698  1.00  0.00     0.195 HD
BRANCH  19  21
ATOM     21  O   UNL d   1       2.755   6.415   1.139  0.00  0.00    -0.289 OA
ATOM     22  H   UNL d   1       2.787   7.133   1.798  0.00  0.00     0.244 HD
ENDBRANCH  19  21
BRANCH  18  23
ATOM     23  N   UNL d   1       2.755   4.205  -0.107  0.00  0.00    -0.287 NA
ATOM     24  H   UNL d   1       3.254   3.690  -0.822  0.00  0.00     0.125 HD
ATOM     25  H   UNL d   1       2.518   5.145  -0.416  0.00  0.00     0.125 HD
ENDBRANCH  18  23
ENDBRANCH   1  18
TORSDOF 6
