REMARK  4 active torsions:
REMARK  status: ('A' for Active; 'I' for Inactive)
REMARK    1  A    between atoms: C_5  and  C_1 
REMARK    2  A    between atoms: N_9  and  C_2 
REMARK    3  A    between atoms: C_6  and  N_10 
REMARK       I    between atoms: C_11  and  N_9 
REMARK    4  A    between atoms: N_10  and  N_16 
REMARK       I    between atoms: N_16  and  C_11 
ROOT
ATOM      1  N   UNL d   1       0.220  -2.486   0.200  0.00  0.00    -0.308 N 
ATOM      2  C   UNL d   1       1.263  -2.996   0.899  0.00  0.00     0.313 C 
ATOM      3  N   UNL d   1       1.575  -2.394   2.097  0.00  0.00    -0.172 NA
ATOM      4  O   UNL d   1       1.791  -4.050   0.538  0.00  0.00    -0.252 OA
ATOM      5  H   UNL d   1      -0.161  -3.164  -0.453  0.00  0.00     0.170 HD
ATOM      6  H   UNL d   1       0.836  -1.832   2.505  0.00  0.00     0.152 HD
ENDROOT
BRANCH   1   7
ATOM      7  C   UNL d   1      -0.323  -1.216   0.122  0.00  0.00     0.097 A 
ATOM      8  C   UNL d   1      -1.671  -0.907  -0.290  0.00  0.00     0.097 A 
ATOM      9  N   UNL d   1      -1.815   0.417  -0.435  0.00  0.00    -0.258 N 
ATOM     10  O   UNL d   1      -0.633   0.984  -0.030  0.00  0.00    -0.240 OA
ATOM     11  HN  UNL d   1      -2.641   0.907  -0.779  1.00  0.00     0.195 HD
ATOM     12  C   UNL d   1       0.260   0.020   0.318  0.00  0.00     0.101 A 
ATOM     13  C   UNL d   1       1.588   0.556   0.679  0.00  0.00     0.081 C 
BRANCH   8  14
ATOM     14  C   UNL d   1      -2.824  -1.807  -0.440  0.00  0.00     0.038 A 
ATOM     15  C   UNL d   1      -4.011  -1.570   0.292  0.00  0.00     0.048 A 
ATOM     16 CL   UNL d   1      -4.212  -0.237   1.386  0.00  0.00    -0.083 Cl
ATOM     17  C   UNL d   1      -5.103  -2.446   0.209  0.00  0.00     0.025 A 
ATOM     18  C   UNL d   1      -5.029  -3.591  -0.574  0.00  0.00     0.003 A 
ATOM     19  C   UNL d   1      -3.873  -3.845  -1.304  0.00  0.00     0.025 A 
ATOM     20  C   UNL d   1      -2.790  -2.952  -1.260  0.00  0.00     0.048 A 
ATOM     21 CL   UNL d   1      -1.452  -3.341  -2.290  0.00  0.00    -0.083 Cl
ENDBRANCH   8  14
ENDBRANCH   1   7
BRANCH   3  22
ATOM     22  N   UNL d   1       2.164  -3.287   3.035  0.00  0.00    -0.215 NA
ATOM     23  H   UNL d   1       2.611  -4.069   2.529  0.00  0.00     0.147 HD
BRANCH  22  24
ATOM     24  C   UNL d   1       3.083  -2.691   3.944  0.00  0.00     0.066 A 
ATOM     25  C   UNL d   1       2.833  -1.497   4.654  0.00  0.00     0.059 A 
ATOM     26  C   UNL d   1       3.737  -1.026   5.614  0.00  0.00     0.049 A 
ATOM     27 CL   UNL d   1       1.378  -0.574   4.456  0.00  0.00    -0.082 Cl
ATOM     28  C   UNL d   1       4.888  -1.751   5.905  0.00  0.00     0.037 A 
ATOM     29  C   UNL d   1       5.149  -2.948   5.253  0.00  0.00     0.049 A 
ATOM     30 CL   UNL d   1       5.979  -1.175   7.102  0.00  0.00    -0.084 Cl
ATOM     31  C   UNL d   1       4.249  -3.414   4.293  0.00  0.00     0.059 A 
ATOM     32 CL   UNL d   1       4.610  -4.928   3.529  0.00  0.00    -0.082 Cl
ENDBRANCH  22  24
ENDBRANCH   3  22
TORSDOF 4
