REMARK  6 active torsions:
REMARK  status: ('A' for Active; 'I' for Inactive)
REMARK    1  A    between atoms: C_7  and  C_1 
REMARK    2  A    between atoms: C_3  and  C_2 
REMARK    3  A    between atoms: N_11  and  C_6 
REMARK    4  A    between atoms: O_17  and  C_7 
REMARK    5  A    between atoms: C_16  and  N_11 
REMARK    6  A    between atoms: C_24  and  O_17 
ROOT
ATOM      1  C   UNL d   1       0.002  -1.613   0.027  0.00  0.00     0.087 A 
ATOM      2  C   UNL d   1       1.168  -0.878  -0.004  0.00  0.00     0.150 A 
ATOM      3  N   UNL d   1       1.139   0.495  -0.018  0.00  0.00    -0.185 N 
ATOM      4  HN  UNL d   1       2.006   1.032   0.007  1.00  0.00     0.184 HD
ATOM      5  C   UNL d   1      -0.049   1.119  -0.068  0.00  0.00     0.683 A 
ATOM      6  N   UNL d   1      -1.210   0.454  -0.063  0.00  0.00    -0.201 N 
ATOM      7  HN  UNL d   1      -2.101   0.950  -0.094  1.00  0.00     0.183 HD
ATOM      8  C   UNL d   1      -1.166  -0.890  -0.018  0.00  0.00     0.126 A 
ENDROOT
BRANCH   5   9
ATOM      9  N   UNL d   1      -0.017   2.507  -0.118  0.00  0.00    -0.192 N 
ATOM     10  H   UNL d   1       0.937   2.835  -0.059  0.00  0.00     0.184 HD
BRANCH   9  11
ATOM     11  C   UNL d   1      -0.958   3.441  -0.582  0.00  0.00     0.049 A 
ATOM     12  C   UNL d   1      -2.162   3.075  -1.204  0.00  0.00     0.033 A 
ATOM     13  C   UNL d   1      -3.085   4.038  -1.622  0.00  0.00     0.044 A 
ATOM     14  C   UNL d   1      -2.819   5.380  -1.399  0.00  0.00     0.116 A 
ATOM     15  C   UNL d   1      -1.651   5.775  -0.761  0.00  0.00     0.044 A 
ATOM     16  F   UNL d   1      -3.701   6.305  -1.800  0.00  0.00    -0.206 F 
ATOM     17  C   UNL d   1      -0.730   4.807  -0.349  0.00  0.00     0.033 A 
ENDBRANCH   9  11
ENDBRANCH   5   9
BRANCH   2  18
ATOM     18  C   UNL d   1       2.531  -1.540  -0.065  0.00  0.00     0.434 C 
ATOM     19  F   UNL d   1       2.513  -2.842  -0.465  0.00  0.00    -0.165 F 
ATOM     20  F   UNL d   1       3.368  -0.920  -0.948  0.00  0.00    -0.165 F 
ATOM     21  F   UNL d   1       3.179  -1.522   1.133  0.00  0.00    -0.165 F 
ENDBRANCH   2  18
BRANCH   1  22
ATOM     22  C   UNL d   1      -0.121  -3.067   0.079  0.00  0.00     0.296 C 
ATOM     23  O   UNL d   1      -0.867  -3.691  -0.654  0.00  0.00    -0.259 OA
BRANCH  22  24
ATOM     24  O   UNL d   1       0.563  -3.533   1.147  0.00  0.00    -0.318 OA
BRANCH  24  25
ATOM     25  C   UNL d   1       0.314  -4.912   1.468  0.00  0.00     0.174 C 
ATOM     26  C   UNL d   1       1.174  -5.835   0.625  0.00  0.00     0.034 C 
ENDBRANCH  24  25
ENDBRANCH  22  24
ENDBRANCH   1  22
TORSDOF 6
