REMARK  4 active torsions:
REMARK  status: ('A' for Active; 'I' for Inactive)
REMARK    1  A    between atoms: C_6  and  C_1 
REMARK       I    between atoms: C_2  and  N_3 
REMARK    2  A    between atoms: C_5  and  C_2 
REMARK    3  A    between atoms: N_3  and  C_4 
REMARK    4  A    between atoms: O_13  and  C_6 
ROOT
ATOM      1  C   UNL d   1       1.116  -0.005   0.236  0.00  0.00     0.064 A 
ATOM      2  C   UNL d   1       0.566  -1.262  -0.067  0.00  0.00     0.052 A 
ATOM      3  C   UNL d   1       0.336   1.158   0.108  0.00  0.00     0.020 A 
ATOM      4  C   UNL d   1      -0.799  -1.337  -0.385  0.00  0.00     0.030 A 
ATOM      5  C   UNL d   1      -1.001   1.069  -0.277  0.00  0.00     0.001 A 
ATOM      6  C   UNL d   1      -1.575  -0.180  -0.495  0.00  0.00     0.002 A 
ENDROOT
BRANCH   2   7
ATOM      7  N   UNL d   1       1.273  -2.483  -0.105  0.00  0.00    -0.322 N 
ATOM      8  C   UNL d   1       2.602  -2.641  -0.470  0.00  0.00     0.263 C 
ATOM      9  O   UNL d   1       3.310  -1.708  -0.843  0.00  0.00    -0.267 OA
ATOM     10  H   UNL d   1       0.730  -3.338  -0.092  0.00  0.00     0.169 HD
BRANCH   8  11
ATOM     11  C   UNL d   1       3.074  -4.025  -0.481  0.00  0.00     0.072 A 
ATOM     12  S   UNL d   1       2.002  -5.361  -0.353  0.00  0.00    -0.097 SA
ATOM     13  C   UNL d   1       3.272  -6.491  -0.508  0.00  0.00     0.050 A 
ATOM     14  C   UNL d   1       4.497  -5.876  -0.639  0.00  0.00     0.009 A 
ATOM     15  C   UNL d   1       4.382  -4.455  -0.628  0.00  0.00     0.025 A 
ENDBRANCH   8  11
ENDBRANCH   2   7
BRANCH   1  16
ATOM     16  C   UNL d   1       2.400   0.142   0.956  0.00  0.00     0.178 C 
ATOM     17  O   UNL d   1       2.627  -0.400   2.023  0.00  0.00    -0.646 OA
BRANCH  16  18
ATOM     18  O   UNL d   1       3.225   1.039   0.368  0.00  0.00    -0.773 OA
ATOM     19  H   UNL d   1       3.040   1.125  -0.588  0.00  0.00     0.167 HD
ENDBRANCH  16  18
ENDBRANCH   1  16
TORSDOF 4
