REMARK  8 active torsions:
REMARK  status: ('A' for Active; 'I' for Inactive)
REMARK    1  A    between atoms: N_2  and  C_1 
REMARK    2  A    between atoms: C_3  and  C_1 
REMARK    3  A    between atoms: C_4  and  C_1 
REMARK    4  A    between atoms: N_5  and  C_1 
REMARK       I    between atoms: C_6  and  N_2 
REMARK    5  A    between atoms: C_15  and  N_5 
REMARK    6  A    between atoms: O_18  and  C_6 
REMARK    7  A    between atoms: C_19  and  C_8 
REMARK    8  A    between atoms: C_22  and  O_18 
ROOT
ATOM      1  C   UNL d   1       1.009  -0.067  -0.082  0.00  0.00     0.308 C 
ENDROOT
BRANCH   1   2
ATOM      2  N   UNL d   1       0.529  -1.414   0.235  0.00  0.00    -0.295 N 
ATOM      3  C   UNL d   1      -0.779  -1.689   0.395  0.00  0.00     0.362 C 
ATOM      4  O   UNL d   1      -1.651  -0.853   0.219  0.00  0.00    -0.238 OA
ATOM      5  H   UNL d   1       1.213  -2.136   0.402  0.00  0.00     0.168 HD
BRANCH   3   6
ATOM      6  O   UNL d   1      -0.926  -2.945   0.841  0.00  0.00    -0.304 OA
BRANCH   6   7
ATOM      7  C   UNL d   1      -2.211  -3.251   1.381  0.00  0.00     0.176 C 
ATOM      8  C   UNL d   1      -2.240  -2.842   2.842  0.00  0.00     0.034 C 
ENDBRANCH   6   7
ENDBRANCH   3   6
ENDBRANCH   1   2
BRANCH   1   9
ATOM      9  C   UNL d   1       0.479   1.096   0.848  0.00  0.00     0.441 C 
ATOM     10  F   UNL d   1      -0.047   0.612   2.006  0.00  0.00    -0.166 F 
ATOM     11  F   UNL d   1       1.494   1.925   1.222  0.00  0.00    -0.166 F 
ATOM     12  F   UNL d   1      -0.470   1.896   0.323  0.00  0.00    -0.166 F 
ENDBRANCH   1   9
BRANCH   1  13
ATOM     13  C   UNL d   1       0.664   0.328  -1.569  0.00  0.00     0.441 C 
ATOM     14  F   UNL d   1       0.145  -0.726  -2.257  0.00  0.00    -0.166 F 
ATOM     15  F   UNL d   1      -0.182   1.356  -1.750  0.00  0.00    -0.166 F 
ATOM     16  F   UNL d   1       1.810   0.664  -2.235  0.00  0.00    -0.166 F 
ENDBRANCH   1  13
BRANCH   1  17
ATOM     17  N   UNL d   1       2.512  -0.298   0.050  0.00  0.00    -0.349 N 
ATOM     18  H   UNL d   1       3.034   0.332  -0.568  0.00  0.00     0.162 HD
BRANCH  17  19
ATOM     19  C   UNL d   1       3.184  -0.495   1.257  0.00  0.00     0.030 A 
ATOM     20  C   UNL d   1       2.556  -0.829   2.461  0.00  0.00     0.030 A 
ATOM     21  C   UNL d   1       3.277  -1.094   3.623  0.00  0.00     0.010 A 
ATOM     22  C   UNL d   1       4.671  -1.089   3.622  0.00  0.00    -0.055 A 
ATOM     23  C   UNL d   1       5.322  -0.803   2.417  0.00  0.00     0.010 A 
ATOM     24  C   UNL d   1       4.585  -0.519   1.256  0.00  0.00     0.030 A 
BRANCH  22  25
ATOM     25  C   UNL d   1       5.452  -1.399   4.886  0.00  0.00     0.010 C 
ATOM     26  C   UNL d   1       5.159  -0.372   5.984  0.00  0.00     0.015 C 
ATOM     27  C   UNL d   1       5.160  -2.818   5.387  0.00  0.00     0.015 C 
ENDBRANCH  22  25
ENDBRANCH  17  19
ENDBRANCH   1  17
TORSDOF 8
