REMARK  6 active torsions:
REMARK  status: ('A' for Active; 'I' for Inactive)
REMARK    1  A    between atoms: C_11  and  C_1 
REMARK    2  A    between atoms: C_10  and  C_7 
REMARK    3  A    between atoms: N_8  and  C_9 
REMARK    4  A    between atoms: C_15  and  C_11 
REMARK    5  A    between atoms: C_21  and  C_18 
REMARK    6  A    between atoms: C_26  and  C_21 
ROOT
ATOM      1  C   UNL d   1      -0.244  -1.030  -0.141  0.00  0.00     0.148 A 
ATOM      2  O   UNL d   1       0.977  -0.789  -0.725  0.00  0.00    -0.277 OA
ATOM      3  N   UNL d   1      -0.789   0.058   0.365  0.00  0.00    -0.281 N 
ATOM      4  HN  UNL d   1      -1.690   0.126   0.838  1.00  0.00     0.189 HD
ATOM      5  N   UNL d   1       0.097   1.081   0.128  0.00  0.00    -0.277 N 
ATOM      6  HN  UNL d   1      -0.023   2.061   0.386  1.00  0.00     0.189 HD
ATOM      7  C   UNL d   1       1.131   0.554  -0.497  0.00  0.00     0.174 A 
ENDROOT
BRANCH   1   8
ATOM      8  C   UNL d   1      -0.741  -2.439  -0.122  0.00  0.00     0.091 C 
ATOM      9  C   UNL d   1      -2.275  -2.495  -0.186  0.00  0.00     0.023 C 
BRANCH   8  10
ATOM     10  C   UNL d   1      -0.266  -3.199   1.109  0.00  0.00    -0.046 A 
ATOM     11  C   UNL d   1      -0.578  -2.737   2.399  0.00  0.00     0.008 A 
ATOM     12  C   UNL d   1      -0.238  -3.479   3.527  0.00  0.00     0.007 A 
ATOM     13  C   UNL d   1       0.406  -4.714   3.400  0.00  0.00    -0.058 A 
ATOM     14  C   UNL d   1       0.755  -5.160   2.117  0.00  0.00     0.007 A 
ATOM     15  C   UNL d   1       0.433  -4.406   0.983  0.00  0.00     0.008 A 
BRANCH  13  16
ATOM     16  C   UNL d   1       0.656  -5.575   4.619  0.00  0.00     0.042 C 
BRANCH  16  17
ATOM     17  C   UNL d   1       2.128  -5.955   4.870  0.00  0.00    -0.019 C 
ATOM     18  C   UNL d   1       3.013  -4.730   5.105  0.00  0.00     0.010 C 
ATOM     19  C   UNL d   1       2.239  -6.892   6.078  0.00  0.00     0.010 C 
ENDBRANCH  16  17
ENDBRANCH  13  16
ENDBRANCH   8  10
ENDBRANCH   1   8
BRANCH   7  20
ATOM     20  C   UNL d   1       2.365   1.194  -0.933  0.00  0.00     0.019 A 
ATOM     21  C   UNL d   1       3.421   0.473  -1.510  0.00  0.00     0.052 A 
ATOM     22  C   UNL d   1       4.592   1.143  -1.906  0.00  0.00     0.103 A 
ATOM     23  C   UNL d   1       4.724   2.527  -1.722  0.00  0.00     0.036 A 
ATOM     24  C   UNL d   1       3.679   3.244  -1.142  0.00  0.00     0.003 A 
ATOM     25  C   UNL d   1       2.513   2.580  -0.754  0.00  0.00     0.016 A 
BRANCH  22  26
ATOM     26  N   UNL d   1       5.688   0.388  -2.523  0.00  0.00    -0.116 N 
ATOM     27  O   UNL d   1       5.535  -0.829  -2.671  0.00  0.00    -0.532 OA
ATOM     28  O   UNL d   1       6.705   1.018  -2.862  0.00  0.00    -0.532 OA
ENDBRANCH  22  26
ENDBRANCH   7  20
TORSDOF 6
