REMARK  4 active torsions:
REMARK  status: ('A' for Active; 'I' for Inactive)
REMARK    1  A    between atoms: C_8  and  C_1 
REMARK    2  A    between atoms: C_4  and  N_6 
REMARK    3  A    between atoms: C_10  and  C_4 
REMARK    4  A    between atoms: N_6  and  C_8 
ROOT
ATOM      1  N   UNL d   1      -0.214  -3.923   0.151  0.00  0.00    -0.376 N 
ATOM      2  H   UNL d   1      -0.896  -3.524   0.781  0.00  0.00     0.160 HD
ENDROOT
BRANCH   1   3
ATOM      3  C   UNL d   1      -0.490  -5.163  -0.415  0.00  0.00     0.107 C 
ATOM      4  S   UNL d   1       0.643  -6.058  -1.284  0.00  0.00    -0.060 SA
BRANCH   3   5
ATOM      5  C   UNL d   1      -1.901  -5.649  -0.208  0.00  0.00     0.002 A 
ATOM      6  C   UNL d   1      -2.964  -4.733  -0.182  0.00  0.00     0.014 A 
ATOM      7  C   UNL d   1      -4.281  -5.178  -0.027  0.00  0.00     0.001 A 
ATOM      8  C   UNL d   1      -4.550  -6.540   0.090  0.00  0.00     0.000 A 
ATOM      9  C   UNL d   1      -3.505  -7.460   0.062  0.00  0.00     0.001 A 
ATOM     10  C   UNL d   1      -2.187  -7.019  -0.081  0.00  0.00     0.014 A 
ENDBRANCH   3   5
ENDBRANCH   1   3
BRANCH   1  11
ATOM     11  C   UNL d   1       1.059  -3.212   0.102  0.00  0.00     0.160 C 
BRANCH  11  12
ATOM     12  C   UNL d   1       0.797  -1.740  -0.026  0.00  0.00    -0.022 A 
ATOM     13  C   UNL d   1       0.074  -1.183  -1.065  0.00  0.00     0.060 A 
ATOM     14  S   UNL d   1       0.004   0.513  -0.999  0.00  0.00    -0.101 SA
ATOM     15  C   UNL d   1       0.971   0.570   0.421  0.00  0.00     0.015 A 
ATOM     16  C   UNL d   1       1.316  -0.714   0.860  0.00  0.00    -0.011 A 
ATOM     17  C   UNL d   1       1.400   1.729   1.099  0.00  0.00     0.019 A 
ATOM     18  C   UNL d   1       2.106  -0.810   2.036  0.00  0.00     0.013 A 
ATOM     19  C   UNL d   1       2.528   0.338   2.716  0.00  0.00     0.001 A 
ATOM     20  C   UNL d   1       2.182   1.595   2.246  0.00  0.00     0.001 A 
ENDBRANCH  11  12
ENDBRANCH   1  11
TORSDOF 4
