REMARK  2 active torsions:
REMARK  status: ('A' for Active; 'I' for Inactive)
REMARK    1  A    between atoms: C_8  and  C_12 
REMARK    2  A    between atoms: C_12  and  N_9 
ROOT
ATOM      1  C   UNL d   1       0.089  -0.717   0.033  0.00  0.00     0.101 A 
ATOM      2  C   UNL d   1       0.054   0.627   0.077  0.00  0.00     0.077 A 
ATOM      3  N   UNL d   1       1.306  -1.366  -0.075  0.00  0.00    -0.293 N 
ATOM      4  N   UNL d   1       2.477   0.684  -0.018  0.00  0.00    -0.270 N 
ATOM      5  C   UNL d   1       2.530  -0.697  -0.103  0.00  0.00     0.332 A 
ATOM      6  C   UNL d   1       1.305   1.406   0.061  0.00  0.00     0.262 A 
ATOM      7  N   UNL d   1      -1.115  -1.409   0.103  0.00  0.00    -0.252 NA
ATOM      8  N   UNL d   1      -2.410   0.652  -0.333  0.00  0.00     0.110 N 
ATOM      9  C   UNL d   1      -1.231   1.415   0.119  0.00  0.00     0.322 C 
ATOM     10  C   UNL d   1      -2.357  -0.675   0.267  0.00  0.00     0.369 C 
ATOM     11  O   UNL d   1       3.600  -1.308  -0.189  0.00  0.00    -0.246 OA
ATOM     12  O   UNL d   1       1.267   2.634   0.129  0.00  0.00    -0.267 OA
ATOM     13  C   UNL d   1       1.391  -2.820  -0.095  0.00  0.00     0.162 C 
ATOM     14  C   UNL d   1       3.714   1.439   0.004  0.00  0.00     0.164 C 
ATOM     15  H   UNL d   1      -1.177  -2.103  -0.636  0.00  0.00     0.130 HD
ENDROOT
BRANCH   8  16
ATOM     16  C   UNL d   1      -3.678   1.314  -0.002  0.00  0.00     0.317 C 
BRANCH  16  17
ATOM     17  C   UNL d   1      -3.890   2.664  -0.648  0.00  0.00     0.030 A 
ATOM     18  C   UNL d   1      -4.083   3.782   0.175  0.00  0.00     0.126 A 
ATOM     19  F   UNL d   1      -4.027   3.646   1.509  0.00  0.00    -0.205 F 
ATOM     20  C   UNL d   1      -4.350   5.047  -0.343  0.00  0.00     0.043 A 
ATOM     21  C   UNL d   1      -4.422   5.225  -1.720  0.00  0.00     0.005 A 
ATOM     22  C   UNL d   1      -4.221   4.134  -2.564  0.00  0.00     0.024 A 
ATOM     23  C   UNL d   1      -3.963   2.861  -2.035  0.00  0.00     0.045 A 
ATOM     24 CL   UNL d   1      -3.775   1.563  -3.160  0.00  0.00    -0.084 Cl
ENDBRANCH  16  17
ENDBRANCH   8  16
TORSDOF 2
