REMARK  9 active torsions:
REMARK  status: ('A' for Active; 'I' for Inactive)
REMARK    1  A    between atoms: N_6  and  C_1 
REMARK    2  A    between atoms: N_8  and  C_1 
REMARK    3  A    between atoms: N_2  and  N_6 
REMARK    4  A    between atoms: N_7  and  C_5 
REMARK    5  A    between atoms: C_17  and  N_8 
REMARK    6  A    between atoms: C_12  and  C_11 
REMARK    7  A    between atoms: C_15  and  C_17 
REMARK    8  A    between atoms: C_20  and  C_15 
REMARK    9  A    between atoms: O_16  and  C_20 
ROOT
ATOM      1  N   UNL d   1      -1.240   0.351   1.006  0.00  0.00    -0.309 N 
ATOM      2  HN  UNL d   1      -1.769  -0.114   0.268  1.00  0.00     0.186 HD
ATOM      3  C   UNL d   1      -1.819   0.876   2.043  0.00  0.00     0.118 C 
ENDROOT
BRANCH   1   4
ATOM      4  N   UNL d   1       0.120   0.459   0.965  0.00  0.00    -0.277 N 
ATOM      5  H   UNL d   1       0.633   0.932   1.702  0.00  0.00     0.189 HD
BRANCH   4   6
ATOM      6  C   UNL d   1       0.846  -0.228   0.011  0.00  0.00     0.186 C 
ATOM      7  S   UNL d   1       2.512  -0.227   0.071  0.00  0.00    -0.040 SA
BRANCH   6   8
ATOM      8  N   UNL d   1       0.053  -0.877  -0.898  0.00  0.00    -0.366 N 
ATOM      9  H   UNL d   1      -0.926  -0.677  -0.715  0.00  0.00     0.161 HD
BRANCH   8  10
ATOM     10  C   UNL d   1       0.395  -2.023  -1.724  0.00  0.00     0.124 C 
BRANCH  10  11
ATOM     11  C   UNL d   1       0.105  -3.340  -1.004  0.00  0.00     0.046 C 
BRANCH  11  12
ATOM     12  C   UNL d   1      -1.383  -3.528  -0.721  0.00  0.00     0.168 C 
BRANCH  12  13
ATOM     13  O   UNL d   1      -1.586  -4.807  -0.118  0.00  0.00    -0.396 OA
ATOM     14  C   UNL d   1      -2.957  -5.021   0.194  0.00  0.00     0.201 C 
ENDBRANCH  12  13
ENDBRANCH  11  12
ENDBRANCH  10  11
ENDBRANCH   8  10
ENDBRANCH   6   8
ENDBRANCH   4   6
ENDBRANCH   1   4
BRANCH   3  15
ATOM     15  C   UNL d   1      -3.285   0.810   2.199  0.00  0.00    -0.019 A 
ATOM     16  C   UNL d   1      -4.062   0.150   1.248  0.00  0.00     0.015 A 
ATOM     17  C   UNL d   1      -5.452   0.091   1.389  0.00  0.00     0.030 A 
ATOM     18  C   UNL d   1      -6.121   0.673   2.480  0.00  0.00     0.029 A 
ATOM     19  C   UNL d   1      -5.303   1.328   3.425  0.00  0.00     0.030 A 
ATOM     20  C   UNL d   1      -3.906   1.402   3.294  0.00  0.00     0.015 A 
BRANCH  18  21
ATOM     21  N   UNL d   1      -7.494   0.562   2.662  0.00  0.00    -0.390 N 
ATOM     22  C   UNL d   1      -8.258   1.666   3.244  0.00  0.00     0.149 C 
ATOM     23  C   UNL d   1      -8.299  -0.374   1.879  0.00  0.00     0.149 C 
ENDBRANCH  18  21
ENDBRANCH   3  15
TORSDOF 9
