REMARK  3 active torsions:
REMARK  status: ('A' for Active; 'I' for Inactive)
REMARK    1  A    between atoms: C_2  and  C_1 
REMARK       I    between atoms: N_4  and  C_1 
REMARK       I    between atoms: C_3  and  N_6 
REMARK       I    between atoms: N_7  and  C_3 
REMARK    2  A    between atoms: N_6  and  N_4 
REMARK    3  A    between atoms: C_13  and  N_7 
ROOT
ATOM      1  C   UNL d   1      -1.951   2.105  -1.212  0.00  0.00     0.339 C 
ATOM      2  N   UNL d   1      -1.231   1.058  -0.652  0.00  0.00    -0.248 N 
ATOM      3  N   UNL d   1      -1.141   3.011  -1.861  0.00  0.00    -0.308 N 
ATOM      4  O   UNL d   1      -3.172   2.161  -1.081  0.00  0.00    -0.245 OA
ATOM      5  H   UNL d   1      -0.370   0.744  -1.089  0.00  0.00     0.192 HD
ATOM      6  H   UNL d   1      -0.147   2.862  -1.776  0.00  0.00     0.170 HD
ENDROOT
BRANCH   2   7
ATOM      7  N   UNL d   1      -2.010   0.030  -0.082  0.00  0.00    -0.261 N 
ATOM      8  C   UNL d   1      -1.407  -0.954   0.670  0.00  0.00     0.286 C 
ATOM      9  O   UNL d   1      -0.186  -1.057   0.773  0.00  0.00    -0.264 OA
ATOM     10  H   UNL d   1      -2.999   0.250   0.032  0.00  0.00     0.190 HD
BRANCH   8  11
ATOM     11  C   UNL d   1      -2.333  -1.841   1.342  0.00  0.00     0.102 A 
ATOM     12  N   UNL d   1      -1.956  -2.626   2.411  0.00  0.00    -0.361 N 
ATOM     13  C   UNL d   1      -3.021  -3.367   2.852  0.00  0.00     0.088 A 
ATOM     14  H   UNL d   1      -1.025  -2.631   2.809  0.00  0.00     0.165 HD
ATOM     15  C   UNL d   1      -4.097  -3.084   2.045  0.00  0.00     0.019 A 
ATOM     16  C   UNL d   1      -3.670  -2.121   1.099  0.00  0.00     0.036 A 
ENDBRANCH   8  11
ENDBRANCH   2   7
BRANCH   3  17
ATOM     17  C   UNL d   1      -1.552   4.155  -2.581  0.00  0.00     0.036 A 
ATOM     18  C   UNL d   1      -2.888   4.524  -2.760  0.00  0.00     0.029 A 
ATOM     19  C   UNL d   1      -3.224   5.646  -3.524  0.00  0.00     0.002 A 
ATOM     20  C   UNL d   1      -2.226   6.415  -4.114  0.00  0.00     0.000 A 
ATOM     21  C   UNL d   1      -0.891   6.072  -3.927  0.00  0.00     0.002 A 
ATOM     22  C   UNL d   1      -0.554   4.950  -3.161  0.00  0.00     0.029 A 
ENDBRANCH   3  17
TORSDOF 3
