REMARK  8 active torsions:
REMARK  status: ('A' for Active; 'I' for Inactive)
REMARK    1  A    between atoms: N_10  and  C_1 
REMARK    2  A    between atoms: N_5  and  C_2 
REMARK    3  A    between atoms: N_4  and  C_3 
REMARK    4  A    between atoms: C_6  and  C_7 
REMARK    5  A    between atoms: N_12  and  N_10 
REMARK       I    between atoms: C_11  and  N_12 
REMARK    6  A    between atoms: C_13  and  C_11 
REMARK    7  A    between atoms: C_16  and  C_17 
REMARK    8  A    between atoms: O_25  and  C_16 
ROOT
ATOM      1  C   UNL d   1       1.395  -0.415  -0.296  0.00  0.00     0.093 A 
ATOM      2  C   UNL d   1       0.420  -1.423  -0.208  0.00  0.00     0.129 A 
ATOM      3  C   UNL d   1       0.888   0.899  -0.199  0.00  0.00     0.129 A 
ATOM      4  C   UNL d   1      -1.431   0.167  -0.129  0.00  0.00     0.052 A 
ATOM      5  C   UNL d   1      -0.489   1.199  -0.137  0.00  0.00     0.054 A 
ATOM      6  C   UNL d   1      -0.965  -1.155  -0.144  0.00  0.00     0.054 A 
ENDROOT
BRANCH   1   7
ATOM      7  N   UNL d   1       2.796  -0.603  -0.409  0.00  0.00    -0.198 NA
ATOM      8  H   UNL d   1       3.262  -0.569   0.516  0.00  0.00     0.153 HD
BRANCH   7   9
ATOM      9  N   UNL d   1       3.199  -1.750  -1.114  0.00  0.00    -0.283 N 
ATOM     10  C   UNL d   1       4.296  -2.432  -0.619  0.00  0.00     0.256 C 
ATOM     11  O   UNL d   1       4.833  -2.178   0.453  0.00  0.00    -0.267 OA
ATOM     12  H   UNL d   1       2.958  -1.794  -2.102  0.00  0.00     0.184 HD
BRANCH  10  13
ATOM     13  C   UNL d   1       4.770  -3.495  -1.530  0.00  0.00     0.082 C 
ATOM     14  C   UNL d   1       5.904  -4.150  -1.242  0.00  0.00     0.086 C 
BRANCH  14  15
ATOM     15  C   UNL d   1       6.339  -5.224  -2.149  0.00  0.00     0.165 C 
ATOM     16  O   UNL d   1       5.736  -5.557  -3.154  0.00  0.00    -0.647 OA
BRANCH  15  17
ATOM     17  O   UNL d   1       7.489  -5.797  -1.749  0.00  0.00    -0.773 OA
ATOM     18  H   UNL d   1       7.873  -5.447  -0.924  0.00  0.00     0.167 HD
ENDBRANCH  15  17
ENDBRANCH  14  15
ENDBRANCH  10  13
ENDBRANCH   7   9
ENDBRANCH   1   7
BRANCH   2  19
ATOM     19  N   UNL d   1       0.789  -2.823  -0.175  0.00  0.00    -0.114 N 
ATOM     20  O   UNL d   1       1.281  -3.253   0.875  0.00  0.00    -0.532 OA
ATOM     21  O   UNL d   1       0.545  -3.484  -1.193  0.00  0.00    -0.532 OA
ENDBRANCH   2  19
BRANCH   3  22
ATOM     22  N   UNL d   1       1.804   2.026  -0.209  0.00  0.00    -0.114 N 
ATOM     23  O   UNL d   1       2.605   2.108   0.731  0.00  0.00    -0.532 OA
ATOM     24  O   UNL d   1       1.671   2.844  -1.128  0.00  0.00    -0.532 OA
ENDBRANCH   3  22
BRANCH   4  25
ATOM     25  C   UNL d   1      -2.917   0.451  -0.111  0.00  0.00     0.417 C 
ATOM     26  F   UNL d   1      -3.211   1.778  -0.119  0.00  0.00    -0.166 F 
ATOM     27  F   UNL d   1      -3.552  -0.086  -1.186  0.00  0.00    -0.166 F 
ATOM     28  F   UNL d   1      -3.524  -0.068   0.989  0.00  0.00    -0.166 F 
ENDBRANCH   4  25
TORSDOF 8
