REMARK  3 active torsions:
REMARK  status: ('A' for Active; 'I' for Inactive)
REMARK    1  A    between atoms: C_2  and  C_1 
REMARK    2  A    between atoms: C_10  and  C_2 
REMARK    3  A    between atoms: N_6  and  C_10 
ROOT
ATOM      1  C   UNL d   1      -1.326   0.413   0.445  0.00  0.00     0.023 C 
ATOM      2  C   UNL d   1      -0.577   1.291   1.475  0.00  0.00     0.022 C 
ATOM      3  C   UNL d   1      -0.886   0.848  -0.973  0.00  0.00     0.022 C 
ATOM      4  C   UNL d   1      -0.883  -1.064   0.651  0.00  0.00     0.022 C 
ATOM      5  C   UNL d   1       0.637   0.696  -1.147  0.00  0.00    -0.013 C 
ATOM      6  C   UNL d   1       0.634  -1.218   0.482  0.00  0.00    -0.013 C 
ATOM      7  C   UNL d   1       0.950   1.139   1.313  0.00  0.00    -0.013 C 
ATOM      8  C   UNL d   1       1.357   1.570  -0.107  0.00  0.00     0.009 C 
ATOM      9  C   UNL d   1       1.344  -0.333   1.518  0.00  0.00     0.009 C 
ATOM     10  C   UNL d   1       1.030  -0.772  -0.933  0.00  0.00     0.009 C 
ENDROOT
BRANCH   1  11
ATOM     11  C   UNL d   1      -2.844   0.498   0.697  0.00  0.00     0.163 C 
ATOM     12  O   UNL d   1      -3.401  -0.279   1.486  0.00  0.00    -0.295 OA
BRANCH  11  13
ATOM     13  C   UNL d   1      -3.683   1.601   0.047  0.00  0.00     0.351 C 
BRANCH  13  14
ATOM     14  N   UNL d   1      -3.912   1.357  -1.384  0.00  0.00     0.099 N 
ATOM     15  C   UNL d   1      -4.673   2.469  -2.001  0.00  0.00     0.299 C 
ATOM     16  C   UNL d   1      -6.192   2.384  -1.788  0.00  0.00     0.198 C 
ATOM     17  O   UNL d   1      -6.700   1.160  -2.325  0.00  0.00    -0.388 OA
ATOM     18  C   UNL d   1      -6.111   0.046  -1.645  0.00  0.00     0.198 C 
ATOM     19  C   UNL d   1      -4.573   0.072  -1.703  0.00  0.00     0.299 C 
ENDBRANCH  13  14
ENDBRANCH  11  13
ENDBRANCH   1  11
TORSDOF 3
