REMARK  6 active torsions:
REMARK  status: ('A' for Active; 'I' for Inactive)
REMARK       I    between atoms: C_4  and  N_1 
REMARK    1  A    between atoms: C_6  and  N_1 
REMARK    2  A    between atoms: C_7  and  N_1 
REMARK    3  A    between atoms: N_2  and  C_8 
REMARK    4  A    between atoms: N_3  and  C_9 
REMARK    5  A    between atoms: C_19  and  C_4 
REMARK    6  A    between atoms: C_13  and  N_11 
ROOT
ATOM      1  N   UNL d   1       0.937  -0.034  -0.171  0.00  0.00    -0.274 N 
ATOM      2  C   UNL d   1       0.380  -1.329  -0.268  0.00  0.00     0.263 C 
ATOM      3  O   UNL d   1       0.981  -2.379  -0.051  0.00  0.00    -0.267 OA
ENDROOT
BRANCH   1   4
ATOM      4  C   UNL d   1       0.162   1.054   0.231  0.00  0.00     0.192 C 
ATOM      5  N   UNL d   1       0.568   2.262   0.462  0.00  0.00    -0.351 N 
ATOM      6  HN  UNL d   1       1.549   2.525   0.368  1.00  0.00     0.166 HD
BRANCH   5   7
ATOM      7  C   UNL d   1      -0.424   3.200   0.850  0.00  0.00     0.041 A 
ATOM      8  C   UNL d   1      -0.387   4.511   0.333  0.00  0.00    -0.002 A 
ATOM      9  C   UNL d   1      -1.391   5.412   0.750  0.00  0.00     0.111 A 
ATOM     10  C   UNL d   1       0.713   4.902  -0.617  0.00  0.00     0.053 C 
ATOM     11  C   UNL d   1      -2.440   5.034   1.600  0.00  0.00     0.037 A 
ATOM     12  C   UNL d   1      -2.466   3.743   2.103  0.00  0.00     0.005 A 
ATOM     13  C   UNL d   1      -1.449   2.852   1.758  0.00  0.00     0.030 A 
BRANCH   9  14
ATOM     14  N   UNL d   1      -1.369   6.804   0.335  0.00  0.00    -0.115 N 
ATOM     15  O   UNL d   1      -0.397   7.485   0.686  0.00  0.00    -0.532 OA
ATOM     16  O   UNL d   1      -2.346   7.214  -0.306  0.00  0.00    -0.532 OA
ENDBRANCH   9  14
ENDBRANCH   5   7
ENDBRANCH   1   4
BRANCH   1  17
ATOM     17  C   UNL d   1       2.363   0.086  -0.099  0.00  0.00     0.051 A 
ATOM     18  C   UNL d   1       3.090   0.821  -1.063  0.00  0.00    -0.002 A 
ATOM     19  C   UNL d   1       4.495   0.881  -0.901  0.00  0.00     0.111 A 
ATOM     20  C   UNL d   1       2.428   1.460  -2.252  0.00  0.00     0.053 C 
ATOM     21  C   UNL d   1       5.164   0.259   0.160  0.00  0.00     0.037 A 
ATOM     22  C   UNL d   1       4.431  -0.472   1.087  0.00  0.00     0.005 A 
ATOM     23  C   UNL d   1       3.045  -0.558   0.953  0.00  0.00     0.031 A 
BRANCH  19  24
ATOM     24  N   UNL d   1       5.327   1.591  -1.861  0.00  0.00    -0.115 N 
ATOM     25  O   UNL d   1       5.328   1.179  -3.030  0.00  0.00    -0.532 OA
ATOM     26  O   UNL d   1       5.999   2.538  -1.432  0.00  0.00    -0.532 OA
ENDBRANCH  19  24
ENDBRANCH   1  17
BRANCH   2  27
ATOM     27  C   UNL d   1      -1.075  -1.438  -0.599  0.00  0.00     0.032 A 
ATOM     28  C   UNL d   1      -1.671  -0.610  -1.562  0.00  0.00     0.017 A 
ATOM     29  C   UNL d   1      -3.053  -0.642  -1.751  0.00  0.00     0.001 A 
ATOM     30  C   UNL d   1      -3.836  -1.534  -1.018  0.00  0.00     0.000 A 
ATOM     31  C   UNL d   1      -3.239  -2.405  -0.107  0.00  0.00     0.001 A 
ATOM     32  C   UNL d   1      -1.859  -2.360   0.104  0.00  0.00     0.017 A 
ENDBRANCH   2  27
TORSDOF 6
