REMARK  2 active torsions:
REMARK  status: ('A' for Active; 'I' for Inactive)
REMARK    1  A    between atoms: N_2  and  C_1 
REMARK       I    between atoms: C_3  and  N_2 
REMARK    2  A    between atoms: C_4  and  C_3 
ROOT
ATOM      1  C   UNL d   1      -0.700   1.027  -0.228  0.00  0.00     0.079 A 
ATOM      2  C   UNL d   1      -1.232  -0.270  -0.348  0.00  0.00     0.064 A 
ATOM      3  C   UNL d   1       0.694   1.147  -0.035  0.00  0.00     0.064 A 
ATOM      4  N   UNL d   1       2.482  -3.337   0.305  0.00  0.00    -0.191 NA
ATOM      5  C   UNL d   1       1.800  -2.407   0.192  0.00  0.00     0.099 C 
ATOM      6  C   UNL d   1       0.962  -1.251   0.049  0.00  0.00     0.048 A 
ATOM      7  C   UNL d   1      -0.406  -1.396  -0.189  0.00  0.00     0.048 A 
ATOM      8  C   UNL d   1       1.516   0.026   0.110  0.00  0.00     0.048 A 
ATOM      9 CL   UNL d   1      -2.838  -0.601  -0.898  0.00  0.00    -0.082 Cl
ATOM     10 CL   UNL d   1       1.446   2.707   0.055  0.00  0.00    -0.082 Cl
ENDROOT
BRANCH   1  11
ATOM     11  N   UNL d   1      -1.432   2.240  -0.341  0.00  0.00    -0.317 N 
ATOM     12  C   UNL d   1      -2.715   2.496   0.156  0.00  0.00     0.330 C 
ATOM     13  O   UNL d   1      -3.394   1.691   0.790  0.00  0.00    -0.263 OA
ATOM     14  H   UNL d   1      -0.863   3.078  -0.468  0.00  0.00     0.169 HD
BRANCH  12  15
ATOM     15  C   UNL d   1      -3.167   3.948  -0.115  0.00  0.00     0.472 C 
ATOM     16  F   UNL d   1      -2.116   4.726  -0.516  0.00  0.00    -0.162 F 
ATOM     17  F   UNL d   1      -4.101   4.036  -1.098  0.00  0.00    -0.162 F 
ATOM     18  F   UNL d   1      -3.686   4.556   0.986  0.00  0.00    -0.162 F 
ENDBRANCH  12  15
ENDBRANCH   1  11
TORSDOF 2
