REMARK  2 active torsions:
REMARK  status: ('A' for Active; 'I' for Inactive)
REMARK    1  A    between atoms: C_2  and  N_1 
REMARK    2  A    between atoms: C_10  and  C_3 
ROOT
ATOM      1  C   UNL d   1      -1.053   0.525  -0.274  0.00  0.00     0.179 C 
ATOM      2  C   UNL d   1      -0.759  -0.979  -0.211  0.00  0.00     0.117 C 
ATOM      3  N   UNL d   1      -1.767  -1.769  -0.929  0.00  0.00    -0.354 N 
ATOM      4  C   UNL d   1      -2.486  -1.358  -2.019  0.00  0.00     0.218 C 
ATOM      5  C   UNL d   1      -1.400   0.926  -1.715  0.00  0.00     0.043 C 
ATOM      6  O   UNL d   1      -3.106  -2.181  -2.685  0.00  0.00    -0.274 OA
ATOM      7  C   UNL d   1      -2.565   0.126  -2.289  0.00  0.00     0.105 C 
ATOM      8  H   UNL d   1      -1.781  -2.777  -0.823  0.00  0.00     0.162 HD
ENDROOT
BRANCH   2   9
ATOM      9  C   UNL d   1      -0.466  -1.612   1.187  0.00  0.00     0.010 C 
ATOM     10  C   UNL d   1       0.362  -0.758   2.163  0.00  0.00     0.007 C 
ATOM     11  C   UNL d   1       1.840  -0.636   1.795  0.00  0.00     0.000 C 
ATOM     12  C   UNL d   1       2.509  -1.974   1.495  0.00  0.00     0.000 C 
ATOM     13  C   UNL d   1       1.682  -2.881   0.593  0.00  0.00     0.000 C 
ATOM     14  C   UNL d   1       0.230  -2.990   1.057  0.00  0.00     0.007 C 
ENDBRANCH   2   9
BRANCH   1  15
ATOM     15  N   UNL d   1      -2.174   0.967   0.634  0.00  0.00    -0.148 N 
ATOM     16  O   UNL d   1      -3.088   0.176   0.888  0.00  0.00    -0.536 OA
ATOM     17  O   UNL d   1      -2.110   2.133   1.047  0.00  0.00    -0.536 OA
ENDBRANCH   1  15
TORSDOF 2
