REMARK  3 active torsions:
REMARK  status: ('A' for Active; 'I' for Inactive)
REMARK    1  A    between atoms: C_3  and  C_1 
REMARK    2  A    between atoms: N_5  and  C_2 
REMARK       I    between atoms: C_4  and  N_6 
REMARK    3  A    between atoms: C_7  and  C_4 
ROOT
ATOM      1  C   UNL d   1      -3.834   5.801   0.817  0.00  0.00     0.277 C 
ATOM      2  N   UNL d   1      -1.300   2.449   0.324  0.00  0.00    -0.266 NA
ATOM      3  N   UNL d   1      -2.905   4.760   0.749  0.00  0.00    -0.344 N 
ATOM      4  C   UNL d   1      -1.504   3.375  -0.812  0.00  0.00     0.117 C 
ATOM      5  C   UNL d   1      -2.504   2.373   1.178  0.00  0.00     0.117 C 
ATOM      6  C   UNL d   1      -2.691   3.759   1.806  0.00  0.00     0.141 C 
ATOM      7  C   UNL d   1      -1.829   4.791  -0.258  0.00  0.00     0.141 C 
ATOM      8  O   UNL d   1      -3.711   6.795   0.097  0.00  0.00    -0.265 OA
ENDROOT
BRANCH   2   9
ATOM      9  C   UNL d   1      -0.715   1.222   0.055  0.00  0.00     0.097 A 
ATOM     10  C   UNL d   1      -0.014   0.525   1.045  0.00  0.00     0.086 A 
ATOM     11  C   UNL d   1       0.531  -0.733   0.724  0.00  0.00     0.021 A 
ATOM     12  C   UNL d   1       0.397  -1.248  -0.553  0.00  0.00     0.018 A 
ATOM     13  C   UNL d   1      -0.281  -0.482  -1.478  0.00  0.00     0.089 A 
ATOM     14  N   UNL d   1      -0.828   0.723  -1.202  0.00  0.00    -0.356 N 
ATOM     15  HN  UNL d   1      -1.318   1.248  -1.926  1.00  0.00     0.166 HD
BRANCH  10  16
ATOM     16  C   UNL d   1       0.222   1.044   2.434  0.00  0.00     0.420 C 
ATOM     17  F   UNL d   1      -0.161   2.322   2.702  0.00  0.00    -0.166 F 
ATOM     18  F   UNL d   1      -0.421   0.279   3.368  0.00  0.00    -0.166 F 
ATOM     19  F   UNL d   1       1.542   0.994   2.784  0.00  0.00    -0.166 F 
ENDBRANCH  10  16
ENDBRANCH   2   9
BRANCH   1  20
ATOM     20  C   UNL d   1      -4.928   5.686   1.767  0.00  0.00     0.142 A 
ATOM     21  O   UNL d   1      -5.450   4.458   2.083  0.00  0.00    -0.317 OA
ATOM     22  C   UNL d   1      -6.409   4.647   3.022  0.00  0.00     0.143 A 
ATOM     23  C   UNL d   1      -6.574   5.990   3.267  0.00  0.00     0.027 A 
ATOM     24  C   UNL d   1      -5.649   6.664   2.432  0.00  0.00     0.045 A 
ENDBRANCH   1  20
TORSDOF 3
