REMARK  3 active torsions:
REMARK  status: ('A' for Active; 'I' for Inactive)
REMARK    1  A    between atoms: C_8  and  N_1 
REMARK    2  A    between atoms: C_7  and  N_3 
REMARK    3  A    between atoms: C_15  and  C_8 
ROOT
ATOM      1  N   UNL d   1      -0.377   1.015  -0.000  0.00  0.00    -0.293 N 
ATOM      2  C   UNL d   1       0.910   0.569   0.125  0.00  0.00     0.150 C 
ATOM      3  N   UNL d   1       1.923   1.335  -0.127  0.00  0.00    -0.334 N 
ATOM      4  HN  UNL d   1       1.749   2.308  -0.380  1.00  0.00     0.168 HD
ATOM      5  C   UNL d   1      -1.368   0.058   0.009  0.00  0.00     0.235 C 
ATOM      6  S   UNL d   1       0.910  -1.090   0.665  0.00  0.00    -0.084 SA
ATOM      7  C   UNL d   1      -0.798  -1.331   0.141  0.00  0.00     0.185 C 
ATOM      8  O   UNL d   1      -2.568   0.273  -0.136  0.00  0.00    -0.272 OA
ENDROOT
BRANCH   1   9
ATOM      9  C   UNL d   1      -0.711   2.416  -0.204  0.00  0.00     0.174 C 
BRANCH   9  10
ATOM     10  C   UNL d   1      -0.945   3.147   1.097  0.00  0.00    -0.024 A 
ATOM     11  C   UNL d   1       0.107   3.736   1.786  0.00  0.00     0.096 A 
ATOM     12  N   UNL d   1      -0.031   4.427   2.940  0.00  0.00    -0.375 N 
ATOM     13  C   UNL d   1      -1.283   4.537   3.437  0.00  0.00     0.087 A 
ATOM     14  HN  UNL d   1       0.770   4.846   3.413  1.00  0.00     0.164 HD
ATOM     15  C   UNL d   1      -2.395   3.966   2.842  0.00  0.00     0.018 A 
ATOM     16  C   UNL d   1      -2.221   3.260   1.655  0.00  0.00     0.011 A 
ENDBRANCH   9  10
ENDBRANCH   1   9
BRANCH   3  17
ATOM     17  C   UNL d   1       3.254   0.883  -0.064  0.00  0.00     0.073 A 
ATOM     18  C   UNL d   1       3.743  -0.234  -0.767  0.00  0.00     0.145 A 
ATOM     19  C   UNL d   1       5.076  -0.626  -0.684  0.00  0.00     0.086 A 
ATOM     20  F   UNL d   1       2.928  -0.946  -1.562  0.00  0.00    -0.204 F 
ATOM     21  C   UNL d   1       5.956   0.146   0.059  0.00  0.00     0.119 A 
ATOM     22  C   UNL d   1       5.524   1.297   0.711  0.00  0.00     0.044 A 
ATOM     23  F   UNL d   1       7.244  -0.208   0.133  0.00  0.00    -0.206 F 
ATOM     24  C   UNL d   1       4.174   1.661   0.649  0.00  0.00     0.036 A 
ENDBRANCH   3  17
TORSDOF 3
