REMARK  4 active torsions:
REMARK  status: ('A' for Active; 'I' for Inactive)
REMARK    1  A    between atoms: N_2  and  S_1 
REMARK    2  A    between atoms: C_4  and  S_1 
REMARK    3  A    between atoms: S_13  and  C_5 
REMARK    4  A    between atoms: S_14  and  C_5 
ROOT
ATOM      1  S   UNL d   1       0.964  -0.017   0.050  0.00  0.00     0.264 S 
ATOM      2  O   UNL d   1       0.431  -1.005   0.966  0.00  0.00    -0.200 OA
ATOM      3  O   UNL d   1       2.386   0.076  -0.207  0.00  0.00    -0.200 OA
ENDROOT
BRANCH   1   4
ATOM      4  N   UNL d   1       0.369   1.433   0.411  0.00  0.00    -0.269 N 
ATOM      5  C   UNL d   1       0.746   2.069   1.468  0.00  0.00     0.116 C 
ATOM      6  HN  UNL d   1      -0.321   1.859  -0.208  1.00  0.00     0.180 HD
BRANCH   5   7
ATOM      7  S   UNL d   1       1.937   1.551   2.649  0.00  0.00    -0.109 SA
ATOM      8  C   UNL d   1       1.171   1.988   4.221  0.00  0.00     0.097 C 
ENDBRANCH   5   7
BRANCH   5   9
ATOM      9  S   UNL d   1       0.066   3.674   1.755  0.00  0.00    -0.109 SA
ATOM     10  C   UNL d   1      -0.856   3.963   0.234  0.00  0.00     0.097 C 
ENDBRANCH   5   9
ENDBRANCH   1   4
BRANCH   1  11
ATOM     11  C   UNL d   1       0.213  -0.373  -1.538  0.00  0.00     0.081 A 
ATOM     12  C   UNL d   1      -1.056  -0.956  -1.585  0.00  0.00     0.050 A 
ATOM     13  C   UNL d   1      -1.611  -1.304  -2.821  0.00  0.00     0.057 A 
ATOM     14 CL   UNL d   1      -3.181  -2.025  -2.821  0.00  0.00    -0.083 Cl
ATOM     15  C   UNL d   1      -0.893  -1.074  -4.003  0.00  0.00     0.055 A 
ATOM     16  C   UNL d   1       0.377  -0.490  -3.947  0.00  0.00     0.027 A 
ATOM     17 CL   UNL d   1      -1.512  -1.496  -5.561  0.00  0.00    -0.083 Cl
ATOM     18  C   UNL d   1       0.935  -0.141  -2.715  0.00  0.00     0.027 A 
ENDBRANCH   1  11
TORSDOF 4
