REMARK  7 active torsions:
REMARK  status: ('A' for Active; 'I' for Inactive)
REMARK    1  A    between atoms: C_8  and  C_1 
REMARK    2  A    between atoms: N_7  and  C_2 
REMARK    3  A    between atoms: S_3  and  N_7 
REMARK    4  A    between atoms: C_9  and  S_3 
REMARK    5  A    between atoms: C_12  and  C_5 
REMARK    6  A    between atoms: O_16  and  C_8 
REMARK    7  A    between atoms: O_20  and  C_17 
ROOT
ATOM      1  C   UNL d   1      -0.025   1.387   0.254  0.00  0.00     0.107 A 
ATOM      2  C   UNL d   1       1.296   0.975   0.194  0.00  0.00     0.067 A 
ATOM      3  S   UNL d   1      -1.096   0.045   0.261  0.00  0.00    -0.086 SA
ATOM      4  C   UNL d   1       0.167  -1.112   0.137  0.00  0.00    -0.007 A 
ATOM      5  C   UNL d   1       1.394  -0.460   0.140  0.00  0.00     0.047 A 
ENDROOT
BRANCH   2   6
ATOM      6  N   UNL d   1       2.409   1.812   0.023  0.00  0.00    -0.279 N 
ATOM      7  H   UNL d   1       2.640   2.137  -0.914  0.00  0.00     0.179 HD
BRANCH   6   8
ATOM      8  S   UNL d   1       3.595   2.178   1.149  0.00  0.00     0.263 S 
ATOM      9  O   UNL d   1       3.882   1.014   1.960  0.00  0.00    -0.200 OA
ATOM     10  O   UNL d   1       4.643   2.845   0.406  0.00  0.00    -0.200 OA
BRANCH   8  11
ATOM     11  C   UNL d   1       2.828   3.409   2.187  0.00  0.00     0.080 A 
ATOM     12  C   UNL d   1       2.182   3.024   3.366  0.00  0.00     0.028 A 
ATOM     13  C   UNL d   1       1.653   4.001   4.219  0.00  0.00     0.038 A 
ATOM     14  C   UNL d   1       1.762   5.356   3.893  0.00  0.00     0.068 A 
ATOM     15  C   UNL d   1       2.431   5.731   2.726  0.00  0.00     0.038 A 
ATOM     16  C   UNL d   1       2.967   4.763   1.869  0.00  0.00     0.028 A 
BRANCH  14  17
ATOM     17  O   UNL d   1       1.300   6.394   4.652  0.00  0.00    -0.356 OA
ATOM     18  C   UNL d   1       0.178   6.106   5.480  0.00  0.00     0.210 C 
ENDBRANCH  14  17
ENDBRANCH   8  11
ENDBRANCH   6   8
ENDBRANCH   2   6
BRANCH   1  19
ATOM     19  C   UNL d   1      -0.631   2.710   0.297  0.00  0.00     0.302 C 
ATOM     20  O   UNL d   1      -1.829   2.951   0.413  0.00  0.00    -0.259 OA
BRANCH  19  21
ATOM     21  O   UNL d   1       0.316   3.687   0.181  0.00  0.00    -0.322 OA
ATOM     22  C   UNL d   1      -0.203   5.019   0.237  0.00  0.00     0.213 C 
ENDBRANCH  19  21
ENDBRANCH   1  19
BRANCH   4  23
ATOM     23  C   UNL d   1      -0.168  -2.617   0.039  0.00  0.00    -0.018 C 
ATOM     24  C   UNL d   1      -1.005  -2.922  -1.224  0.00  0.00     0.020 C 
ATOM     25  C   UNL d   1       1.115  -3.470  -0.032  0.00  0.00     0.020 C 
ATOM     26  C   UNL d   1      -0.966  -3.081   1.276  0.00  0.00     0.020 C 
ENDBRANCH   4  23
TORSDOF 7
