REMARK  6 active torsions:
REMARK  status: ('A' for Active; 'I' for Inactive)
REMARK    1  A    between atoms: C_10  and  C_1 
REMARK    2  A    between atoms: C_6  and  C_2 
REMARK    3  A    between atoms: C_23  and  N_3 
REMARK    4  A    between atoms: C_17  and  C_9 
REMARK    5  A    between atoms: C_14  and  C_18 
REMARK    6  A    between atoms: C_15  and  C_19 
ROOT
ATOM      1  N   UNL d   1      -1.711  -3.325  -0.808  0.00  0.00    -0.318 N 
ATOM      2  HN  UNL d   1      -2.245  -2.919  -1.576  1.00  0.00     0.169 HD
ATOM      3  C   UNL d   1      -0.875  -2.722   0.010  0.00  0.00     0.186 A 
ATOM      4  C   UNL d   1      -1.692  -4.632  -0.382  0.00  0.00     0.138 A 
ATOM      5  N   UNL d   1      -0.954  -4.827   0.723  0.00  0.00    -0.242 N 
ATOM      6  HN  UNL d   1      -0.825  -5.690   1.251  1.00  0.00     0.196 HD
ATOM      7  O   UNL d   1      -0.407  -3.571   0.978  0.00  0.00    -0.217 OA
ENDROOT
BRANCH   3   8
ATOM      8  C   UNL d   1      -0.426  -1.314  -0.125  0.00  0.00     0.068 A 
ATOM      9  C   UNL d   1      -0.831  -0.344  -1.028  0.00  0.00     0.156 A 
ATOM     10  N   UNL d   1      -0.070   0.782  -0.744  0.00  0.00    -0.251 N 
ATOM     11  N   UNL d   1       0.876   0.509   0.200  0.00  0.00    -0.303 N 
ATOM     12  C   UNL d   1       0.606  -0.725   0.617  0.00  0.00     0.126 A 
ATOM     13  HN  UNL d   1       1.629   1.119   0.517  1.00  0.00     0.186 HD
BRANCH   9  14
ATOM     14  C   UNL d   1      -1.773  -0.391  -2.159  0.00  0.00     0.435 C 
ATOM     15  F   UNL d   1      -2.101  -1.640  -2.562  0.00  0.00    -0.165 F 
ATOM     16  F   UNL d   1      -2.944   0.223  -1.858  0.00  0.00    -0.165 F 
ATOM     17  F   UNL d   1      -1.269   0.221  -3.260  0.00  0.00    -0.165 F 
ENDBRANCH   9  14
BRANCH  10  18
ATOM     18  C   UNL d   1      -0.113   2.104  -1.281  0.00  0.00     0.057 A 
ATOM     19  C   UNL d   1      -1.308   2.695  -1.709  0.00  0.00     0.033 A 
ATOM     20  C   UNL d   1      -1.302   3.977  -2.271  0.00  0.00     0.026 A 
ATOM     21  C   UNL d   1      -0.106   4.680  -2.394  0.00  0.00     0.034 A 
ATOM     22  C   UNL d   1       1.082   4.124  -1.929  0.00  0.00     0.026 A 
ATOM     23 CL   UNL d   1      -0.104   6.244  -3.108  0.00  0.00    -0.084 Cl
ATOM     24  C   UNL d   1       1.078   2.846  -1.359  0.00  0.00     0.033 A 
ENDBRANCH  10  18
ENDBRANCH   3   8
BRANCH   4  25
ATOM     25  C   UNL d   1      -2.329  -5.711  -1.135  0.00  0.00     0.011 A 
ATOM     26  C   UNL d   1      -2.999  -5.446  -2.340  0.00  0.00     0.031 A 
ATOM     27  C   UNL d   1      -3.531  -6.488  -3.122  0.00  0.00     0.049 A 
ATOM     28  C   UNL d   1      -3.394  -7.812  -2.675  0.00  0.00     0.032 A 
ATOM     29  C   UNL d   1      -2.732  -8.102  -1.472  0.00  0.00     0.049 A 
ATOM     30  C   UNL d   1      -2.215  -7.043  -0.708  0.00  0.00     0.031 A 
BRANCH  27  31
ATOM     31  C   UNL d   1      -4.209  -6.183  -4.439  0.00  0.00     0.417 C 
ATOM     32  F   UNL d   1      -4.622  -7.298  -5.104  0.00  0.00    -0.166 F 
ATOM     33  F   UNL d   1      -5.316  -5.407  -4.288  0.00  0.00    -0.166 F 
ATOM     34  F   UNL d   1      -3.393  -5.517  -5.301  0.00  0.00    -0.166 F 
ENDBRANCH  27  31
BRANCH  29  35
ATOM     35  C   UNL d   1      -2.534  -9.527  -1.008  0.00  0.00     0.417 C 
ATOM     36  F   UNL d   1      -3.027 -10.453  -1.877  0.00  0.00    -0.166 F 
ATOM     37  F   UNL d   1      -1.219  -9.836  -0.840  0.00  0.00    -0.166 F 
ATOM     38  F   UNL d   1      -3.136  -9.773   0.186  0.00  0.00    -0.166 F 
ENDBRANCH  29  35
ENDBRANCH   4  25
TORSDOF 6
