REMARK  9 active torsions:
REMARK  status: ('A' for Active; 'I' for Inactive)
REMARK    1  A    between atoms: C_2  and  C_1 
REMARK    2  A    between atoms: C_3  and  C_1 
REMARK    3  A    between atoms: C_4  and  C_2 
REMARK    4  A    between atoms: C_6  and  C_4 
REMARK    5  A    between atoms: C_5  and  C_6 
REMARK    6  A    between atoms: O_18  and  C_5 
REMARK    7  A    between atoms: C_8  and  C_6 
REMARK    8  A    between atoms: C_7  and  C_8 
REMARK    9  A    between atoms: O_19  and  C_7 
ROOT
ATOM      1  C   UNL d   1       0.960   0.719  -2.397  0.00  0.00     0.102 C 
ENDROOT
BRANCH   1   2
ATOM      2  C   UNL d   1       0.334   1.937  -3.072  0.00  0.00     0.318 C 
ATOM      3  F   UNL d   1       0.764   1.952  -4.371  0.00  0.00    -0.199 F 
ATOM      4  F   UNL d   1       0.877   3.051  -2.503  0.00  0.00    -0.199 F 
BRANCH   2   5
ATOM      5  C   UNL d   1      -1.183   2.049  -3.066  0.00  0.00     0.403 C 
ATOM      6  F   UNL d   1      -1.736   1.047  -3.811  0.00  0.00    -0.189 F 
ATOM      7  F   UNL d   1      -1.533   3.212  -3.695  0.00  0.00    -0.189 F 
BRANCH   5   8
ATOM      8  C   UNL d   1      -1.745   2.027  -1.659  0.00  0.00     0.460 C 
ATOM      9  F   UNL d   1      -1.057   2.820  -0.807  0.00  0.00    -0.165 F 
ATOM     10  F   UNL d   1      -3.038   2.428  -1.625  0.00  0.00    -0.165 F 
ATOM     11  F   UNL d   1      -1.712   0.773  -1.139  0.00  0.00    -0.165 F 
ENDBRANCH   5   8
ENDBRANCH   2   5
ENDBRANCH   1   2
BRANCH   1  12
ATOM     12  C   UNL d   1       2.508   0.747  -2.459  0.00  0.00     0.099 C 
BRANCH  12  13
ATOM     13  C   UNL d   1       3.118  -0.232  -1.472  0.00  0.00     0.144 C 
ATOM     14  O   UNL d   1       3.877   0.122  -0.583  0.00  0.00    -0.650 OA
BRANCH  13  15
ATOM     15  O   UNL d   1       2.775  -1.521  -1.643  0.00  0.00    -0.776 OA
ATOM     16  H   UNL d   1       2.267  -1.734  -2.470  0.00  0.00     0.167 HD
ENDBRANCH  13  15
ENDBRANCH  12  13
BRANCH  12  17
ATOM     17  C   UNL d   1       3.192   0.626  -3.833  0.00  0.00     0.125 C 
BRANCH  17  18
ATOM     18  C   UNL d   1       2.763  -0.591  -4.608  0.00  0.00     0.140 C 
ATOM     19  O   UNL d   1       2.115  -1.508  -4.116  0.00  0.00    -0.650 OA
BRANCH  18  20
ATOM     20  O   UNL d   1       3.190  -0.606  -5.882  0.00  0.00    -0.776 OA
ATOM     21  H   UNL d   1       3.708   0.178  -6.156  0.00  0.00     0.167 HD
ENDBRANCH  18  20
ENDBRANCH  17  18
ENDBRANCH  12  17
ENDBRANCH   1  12
TORSDOF 9
