REMARK  6 active torsions:
REMARK  status: ('A' for Active; 'I' for Inactive)
REMARK    1  A    between atoms: C_3  and  C_1 
REMARK       I    between atoms: N_7  and  C_3 
REMARK    2  A    between atoms: C_6  and  C_9 
REMARK    3  A    between atoms: C_8  and  N_7 
REMARK    4  A    between atoms: O_12  and  C_11 
REMARK    5  A    between atoms: C_15  and  O_12 
REMARK    6  A    between atoms: O_24  and  C_20 
ROOT
ATOM      1  C   UNL d   1      -1.265  -4.081  -0.392  0.00  0.00     0.070 A 
ATOM      2  C   UNL d   1       0.258  -5.953  -0.778  0.00  0.00     0.050 A 
ATOM      3  C   UNL d   1      -0.488  -3.665   0.703  0.00  0.00     0.103 A 
ATOM      4  C   UNL d   1      -0.908  -5.241  -1.096  0.00  0.00     0.048 A 
ATOM      5  C   UNL d   1       1.028  -5.531   0.311  0.00  0.00     0.019 A 
ATOM      6  C   UNL d   1       0.643  -4.418   1.062  0.00  0.00     0.040 A 
ENDROOT
BRANCH   1   7
ATOM      7  N   UNL d   1      -2.422  -3.424  -0.854  0.00  0.00    -0.320 N 
ATOM      8  C   UNL d   1      -2.553  -2.059  -0.999  0.00  0.00     0.262 C 
ATOM      9  O   UNL d   1      -1.660  -1.242  -0.792  0.00  0.00    -0.267 OA
ATOM     10  H   UNL d   1      -3.088  -3.996  -1.376  0.00  0.00     0.169 HD
BRANCH   8  11
ATOM     11  C   UNL d   1      -3.882  -1.613  -1.534  0.00  0.00     0.108 A 
ATOM     12  C   UNL d   1      -4.891  -2.553  -2.072  0.00  0.00     0.304 A 
ATOM     13  O   UNL d   1      -6.118  -2.036  -2.461  0.00  0.00    -0.274 OA
ATOM     14  O   UNL d   1      -4.648  -3.757  -2.184  0.00  0.00    -0.259 OA
ATOM     15  C   UNL d   1      -6.402  -0.665  -2.344  0.00  0.00     0.089 A 
ATOM     16  C   UNL d   1      -5.432   0.223  -1.892  0.00  0.00    -0.001 A 
ATOM     17  C   UNL d   1      -7.686  -0.242  -2.676  0.00  0.00     0.038 A 
ATOM     18  C   UNL d   1      -4.135  -0.294  -1.495  0.00  0.00     0.037 A 
ATOM     19  C   UNL d   1      -5.755   1.576  -1.778  0.00  0.00     0.014 A 
ATOM     20  C   UNL d   1      -7.044   2.015  -2.098  0.00  0.00     0.001 A 
ATOM     21  C   UNL d   1      -8.008   1.107  -2.542  0.00  0.00     0.003 A 
ENDBRANCH   8  11
ENDBRANCH   1   7
BRANCH   3  22
ATOM     22  O   UNL d   1      -0.938  -2.627   1.502  0.00  0.00    -0.306 OA
BRANCH  22  23
ATOM     23  C   UNL d   1       0.001  -1.792   2.077  0.00  0.00     0.109 A 
ATOM     24  C   UNL d   1      -0.135  -1.397   3.416  0.00  0.00     0.102 A 
ATOM     25  C   UNL d   1       0.795  -0.508   3.971  0.00  0.00     0.039 A 
ATOM     26  C   UNL d   1       1.865  -0.031   3.214  0.00  0.00     0.003 A 
ATOM     27  C   UNL d   1       1.988  -0.403   1.879  0.00  0.00     0.003 A 
ATOM     28  C   UNL d   1       1.048  -1.261   1.307  0.00  0.00     0.040 A 
BRANCH  24  29
ATOM     29  O   UNL d   1      -1.151  -1.744   4.265  0.00  0.00    -0.353 OA
ATOM     30  C   UNL d   1      -1.473  -3.129   4.288  0.00  0.00     0.210 C 
ENDBRANCH  24  29
ENDBRANCH  22  23
ENDBRANCH   3  22
BRANCH   2  31
ATOM     31  C   UNL d   1       0.699  -7.130  -1.613  0.00  0.00     0.417 C 
ATOM     32  F   UNL d   1      -0.199  -7.481  -2.576  0.00  0.00    -0.166 F 
ATOM     33  F   UNL d   1       1.869  -6.887  -2.268  0.00  0.00    -0.166 F 
ATOM     34  F   UNL d   1       0.909  -8.249  -0.872  0.00  0.00    -0.166 F 
ENDBRANCH   2  31
TORSDOF 6
