REMARK  1 active torsions:
REMARK  status: ('A' for Active; 'I' for Inactive)
REMARK    1  A    between atoms: C_8  and  N_7 
ROOT
ATOM      1  C   UNL d   1       0.774  -3.627  -0.004  0.00  0.00     0.040 A 
ATOM      2  C   UNL d   1       1.709  -3.631   1.057  0.00  0.00    -0.034 A 
ATOM      3  C   UNL d   1       2.779  -4.551   1.040  0.00  0.00     0.032 A 
ATOM      4  C   UNL d   1       0.933  -4.583  -1.026  0.00  0.00     0.032 A 
ATOM      5  C   UNL d   1       2.910  -5.476   0.009  0.00  0.00     0.034 A 
ATOM      6  C   UNL d   1       1.989  -5.497  -1.025  0.00  0.00     0.026 A 
ATOM      7 CL   UNL d   1       4.211  -6.600   0.021  0.00  0.00    -0.084 Cl
ATOM      8  C   UNL d   1       1.642  -2.698   2.238  0.00  0.00     0.050 C 
ENDROOT
BRANCH   1   9
ATOM      9  N   UNL d   1      -0.332  -2.752   0.013  0.00  0.00    -0.335 N 
ATOM     10  C   UNL d   1      -1.530  -2.936  -0.598  0.00  0.00     0.175 A 
ATOM     11  N   UNL d   1      -1.998  -4.025  -1.179  0.00  0.00    -0.265 N 
ATOM     12  S   UNL d   1      -2.721  -1.670  -0.664  0.00  0.00     0.035 SA
ATOM     13  N   UNL d   1      -3.276  -3.856  -1.688  0.00  0.00    -0.017 NA
ATOM     14  HN  UNL d   1      -1.474  -4.898  -1.247  1.00  0.00     0.186 HD
ATOM     15  N   UNL d   1      -3.794  -2.654  -1.494  0.00  0.00    -0.044 NA
ATOM     16  H   UNL d   1      -0.167  -1.868   0.474  0.00  0.00     0.168 HD
ENDBRANCH   1   9
TORSDOF 1
