REMARK  4 active torsions:
REMARK  status: ('A' for Active; 'I' for Inactive)
REMARK    1  A    between atoms: C_7  and  C_1 
REMARK    2  A    between atoms: C_8  and  C_2 
REMARK    3  A    between atoms: S_14  and  C_6 
REMARK       I    between atoms: N_17  and  C_7 
REMARK    4  A    between atoms: C_9  and  C_10 
ROOT
ATOM      1  C   UNL d   1      -1.297  -0.383   0.371  0.00  0.00     0.103 A 
ATOM      2  C   UNL d   1      -0.868   0.885   0.012  0.00  0.00     0.127 A 
ATOM      3  N   UNL d   1       0.812  -0.503  -0.506  0.00  0.00    -0.253 N 
ATOM      4  HN  UNL d   1       1.708  -0.863  -0.837  1.00  0.00     0.195 HD
ATOM      5  O   UNL d   1       0.382   0.806  -0.523  0.00  0.00    -0.235 OA
ATOM      6  C   UNL d   1      -0.189  -1.202   0.034  0.00  0.00     0.109 A 
ENDROOT
BRANCH   2   7
ATOM      7  C   UNL d   1      -1.424   2.228   0.092  0.00  0.00     0.001 A 
ATOM      8  C   UNL d   1      -2.198   2.621   1.185  0.00  0.00     0.015 A 
ATOM      9  C   UNL d   1      -2.838   3.864   1.201  0.00  0.00     0.009 A 
ATOM     10  C   UNL d   1      -2.716   4.763   0.128  0.00  0.00    -0.051 A 
ATOM     11  C   UNL d   1      -1.865   4.393  -0.925  0.00  0.00     0.009 A 
ATOM     12  C   UNL d   1      -1.228   3.145  -0.944  0.00  0.00     0.015 A 
BRANCH  10  13
ATOM     13  C   UNL d   1      -3.542   6.059   0.114  0.00  0.00    -0.024 C 
ATOM     14  C   UNL d   1      -3.303   6.926  -1.141  0.00  0.00     0.019 C 
ATOM     15  C   UNL d   1      -5.045   5.699   0.141  0.00  0.00     0.019 C 
ATOM     16  C   UNL d   1      -3.209   6.923   1.347  0.00  0.00     0.019 C 
ENDBRANCH  10  13
ENDBRANCH   2   7
BRANCH   1  17
ATOM     17  C   UNL d   1      -2.596  -0.696   0.919  0.00  0.00     0.255 C 
ATOM     18  O   UNL d   1      -3.607  -0.028   0.715  0.00  0.00    -0.268 OA
ATOM     19  N   UNL d   1      -2.672  -1.778   1.743  0.00  0.00    -0.366 N 
ATOM     20  H   UNL d   1      -1.895  -2.401   1.913  0.00  0.00     0.159 HD
ATOM     21  H   UNL d   1      -3.577  -2.001   2.135  0.00  0.00     0.159 HD
ENDBRANCH   1  17
BRANCH   6  22
ATOM     22  S   UNL d   1      -0.070  -2.939   0.246  0.00  0.00    -0.114 SA
ATOM     23  C   UNL d   1       1.548  -3.287  -0.485  0.00  0.00     0.097 C 
ENDBRANCH   6  22
TORSDOF 4
