REMARK  2 active torsions:
REMARK  status: ('A' for Active; 'I' for Inactive)
REMARK    1  A    between atoms: C_14  and  C_5 
REMARK    2  A    between atoms: C_13  and  C_6 
ROOT
ATOM      1  N   UNL d   1       1.227   1.410  -0.056  0.00  0.00    -0.352 N 
ATOM      2  HN  UNL d   1       1.200   2.427  -0.121  1.00  0.00     0.166 HD
ATOM      3  N   UNL d   1       1.289  -1.384   0.157  0.00  0.00    -0.352 N 
ATOM      4  HN  UNL d   1       1.307  -2.401   0.231  1.00  0.00     0.166 HD
ATOM      5  C   UNL d   1       2.417   0.740  -0.028  0.00  0.00     0.071 A 
ATOM      6  C   UNL d   1       2.449  -0.661   0.115  0.00  0.00     0.071 A 
ATOM      7  C   UNL d   1       0.097   0.694   0.006  0.00  0.00     0.062 A 
ATOM      8  C   UNL d   1       0.122  -0.714   0.099  0.00  0.00     0.061 A 
ATOM      9  C   UNL d   1      -1.119   1.357  -0.032  0.00  0.00     0.075 A 
ATOM     10  C   UNL d   1      -1.075  -1.417   0.127  0.00  0.00     0.058 A 
ATOM     11  C   UNL d   1      -2.311   0.644   0.006  0.00  0.00     0.140 A 
ATOM     12  C   UNL d   1      -2.296  -0.742   0.078  0.00  0.00     0.074 A 
ATOM     13  F   UNL d   1      -3.468   1.320  -0.034  0.00  0.00    -0.204 F 
ATOM     14 CL   UNL d   1      -3.767  -1.636   0.107  0.00  0.00    -0.081 Cl
ENDROOT
BRANCH   5  15
ATOM     15  C   UNL d   1       3.592   1.630  -0.176  0.00  0.00    -0.007 A 
ATOM     16  C   UNL d   1       3.642   2.857   0.514  0.00  0.00     0.014 A 
ATOM     17  C   UNL d   1       4.758   3.695   0.433  0.00  0.00     0.001 A 
ATOM     18  C   UNL d   1       5.854   3.322  -0.339  0.00  0.00     0.000 A 
ATOM     19  C   UNL d   1       5.819   2.131  -1.057  0.00  0.00     0.001 A 
ATOM     20  C   UNL d   1       4.689   1.309  -0.997  0.00  0.00     0.014 A 
ENDBRANCH   5  15
BRANCH   6  21
ATOM     21  C   UNL d   1       3.676  -1.482   0.209  0.00  0.00    -0.007 A 
ATOM     22  C   UNL d   1       4.774  -1.108   1.008  0.00  0.00     0.014 A 
ATOM     23  C   UNL d   1       5.982  -1.808   0.957  0.00  0.00     0.001 A 
ATOM     24  C   UNL d   1       6.100  -2.935   0.149  0.00  0.00     0.000 A 
ATOM     25  C   UNL d   1       5.003  -3.376  -0.584  0.00  0.00     0.001 A 
ATOM     26  C   UNL d   1       3.804  -2.659  -0.551  0.00  0.00     0.014 A 
ENDBRANCH   6  21
TORSDOF 2
