REMARK  4 active torsions:
REMARK  status: ('A' for Active; 'I' for Inactive)
REMARK    1  A    between atoms: C_7  and  C_2 
REMARK    2  A    between atoms: C_15  and  N_3 
REMARK    3  A    between atoms: S_16  and  C_4 
REMARK    4  A    between atoms: C_14  and  C_9 
ROOT
ATOM      1  C   UNL d   1       0.196  -0.162  -1.240  0.00  0.00     0.109 C 
ATOM      2  C   UNL d   1       0.920  -0.512  -0.085  0.00  0.00     0.085 C 
ATOM      3  N   UNL d   1      -0.917   0.358   0.608  0.00  0.00    -0.248 N 
ATOM      4  C   UNL d   1      -0.983   0.393  -0.785  0.00  0.00     0.116 C 
ATOM      5  N   UNL d   1       0.302  -0.097   1.023  0.00  0.00    -0.290 N 
ATOM      6  HN  UNL d   1       0.663  -0.116   1.976  1.00  0.00     0.187 HD
ATOM      7  C   UNL d   1       0.584  -0.309  -2.600  0.00  0.00     0.104 C 
ATOM      8  N   UNL d   1       0.913  -0.418  -3.709  0.00  0.00    -0.191 NA
ENDROOT
BRANCH   2   9
ATOM      9  C   UNL d   1       2.208  -1.213  -0.047  0.00  0.00     0.025 A 
ATOM     10  C   UNL d   1       2.670  -2.142  -1.017  0.00  0.00     0.050 A 
ATOM     11  C   UNL d   1       3.923  -2.561  -0.615  0.00  0.00     0.061 A 
ATOM     12  O   UNL d   1       4.238  -1.964   0.574  0.00  0.00    -0.318 OA
ATOM     13  C   UNL d   1       3.190  -1.158   0.923  0.00  0.00     0.062 A 
ATOM     14  C   UNL d   1       3.344  -0.426   2.198  0.00  0.00     0.077 C 
BRANCH  11  15
ATOM     15  C   UNL d   1       4.945  -3.503  -1.206  0.00  0.00    -0.002 C 
ATOM     16  C   UNL d   1       4.443  -4.078  -2.547  0.00  0.00     0.021 C 
ATOM     17  C   UNL d   1       6.263  -2.753  -1.466  0.00  0.00     0.021 C 
ATOM     18  C   UNL d   1       5.205  -4.675  -0.244  0.00  0.00     0.021 C 
ENDBRANCH  11  15
ENDBRANCH   2   9
BRANCH   4  19
ATOM     19  S   UNL d   1      -2.319   1.056  -1.700  0.00  0.00    -0.113 SA
ATOM     20  C   UNL d   1      -1.577   2.478  -2.526  0.00  0.00     0.097 C 
ENDBRANCH   4  19
BRANCH   3  21
ATOM     21  C   UNL d   1      -1.876   0.718   1.601  0.00  0.00     0.057 A 
ATOM     22  C   UNL d   1      -3.252   0.619   1.369  0.00  0.00     0.031 A 
ATOM     23  C   UNL d   1      -4.164   1.002   2.356  0.00  0.00     0.002 A 
ATOM     24  C   UNL d   1      -3.710   1.478   3.584  0.00  0.00     0.000 A 
ATOM     25  C   UNL d   1      -2.342   1.547   3.838  0.00  0.00     0.002 A 
ATOM     26  C   UNL d   1      -1.426   1.155   2.859  0.00  0.00     0.031 A 
ENDBRANCH   3  21
TORSDOF 4
