REMARK  3 active torsions:
REMARK  status: ('A' for Active; 'I' for Inactive)
REMARK    1  A    between atoms: C_5  and  C_1 
REMARK       I    between atoms: N_7  and  C_1 
REMARK    2  A    between atoms: C_2  and  N_7 
REMARK    3  A    between atoms: N_3  and  C_11 
ROOT
ATOM      1  C   UNL d   1      -1.251   1.317   0.095  0.00  0.00     0.112 A 
ATOM      2  C   UNL d   1      -1.991   0.265   0.863  0.00  0.00     0.315 A 
ATOM      3  O   UNL d   1      -3.378   0.236   0.746  0.00  0.00    -0.273 OA
ATOM      4  C   UNL d   1      -1.935   2.233  -0.605  0.00  0.00     0.050 A 
ATOM      5  C   UNL d   1      -3.384   2.203  -0.680  0.00  0.00     0.003 A 
ATOM      6  C   UNL d   1      -4.070   1.184  -0.029  0.00  0.00     0.090 A 
ATOM      7  C   UNL d   1      -5.491   3.027  -1.534  0.00  0.00     0.103 A 
ATOM      8  C   UNL d   1      -4.096   3.141  -1.432  0.00  0.00     0.050 A 
ATOM      9  O   UNL d   1      -1.383  -0.544   1.560  0.00  0.00    -0.257 OA
ATOM     10  C   UNL d   1      -5.456   1.059  -0.126  0.00  0.00     0.041 A 
ATOM     11  C   UNL d   1      -6.173   1.984  -0.888  0.00  0.00     0.039 A 
ENDROOT
BRANCH   1  12
ATOM     12  N   UNL d   1       0.137   1.229   0.118  0.00  0.00    -0.318 N 
ATOM     13  C   UNL d   1       1.034   2.182  -0.335  0.00  0.00     0.262 C 
ATOM     14  O   UNL d   1       0.707   3.338  -0.597  0.00  0.00    -0.267 OA
ATOM     15  H   UNL d   1       0.500   0.366   0.526  0.00  0.00     0.169 HD
BRANCH  13  16
ATOM     16  C   UNL d   1       2.450   1.776  -0.528  0.00  0.00     0.109 A 
ATOM     17  C   UNL d   1       2.861   0.442  -0.510  0.00  0.00     0.135 A 
ATOM     18  F   UNL d   1       1.998  -0.541  -0.212  0.00  0.00    -0.205 F 
ATOM     19  C   UNL d   1       4.176   0.082  -0.818  0.00  0.00     0.043 A 
ATOM     20  C   UNL d   1       5.109   1.062  -1.151  0.00  0.00     0.006 A 
ATOM     21  C   UNL d   1       4.723   2.399  -1.154  0.00  0.00     0.043 A 
ATOM     22  C   UNL d   1       3.408   2.748  -0.843  0.00  0.00     0.135 A 
ATOM     23  F   UNL d   1       3.104   4.053  -0.864  0.00  0.00    -0.205 F 
ENDBRANCH  13  16
ENDBRANCH   1  12
BRANCH   7  24
ATOM     24  N   UNL d   1      -6.240   4.004  -2.335  0.00  0.00    -0.116 N 
ATOM     25  O   UNL d   1      -5.600   4.911  -2.886  0.00  0.00    -0.532 OA
ATOM     26  O   UNL d   1      -7.468   3.861  -2.415  0.00  0.00    -0.532 OA
ENDBRANCH   7  24
TORSDOF 3
