REMARK  3 active torsions:
REMARK  status: ('A' for Active; 'I' for Inactive)
REMARK       I    between atoms: C_6  and  N_1 
REMARK    1  A    between atoms: S_14  and  C_3 
REMARK    2  A    between atoms: C_8  and  C_6 
REMARK    3  A    between atoms: C_12  and  C_7 
ROOT
ATOM      1  N   UNL d   1      -0.060  -1.097  -0.068  0.00  0.00    -0.211 N 
ATOM      2  C   UNL d   1       1.220   0.707   0.065  0.00  0.00     0.109 A 
ATOM      3  C   UNL d   1       1.258  -0.667   0.010  0.00  0.00     0.119 A 
ATOM      4  N   UNL d   1      -0.922  -0.027  -0.157  0.00  0.00    -0.288 N 
ATOM      5  HN  UNL d   1      -1.932  -0.059  -0.291  1.00  0.00     0.188 HD
ATOM      6  C   UNL d   1      -0.556  -2.432  -0.041  0.00  0.00     0.284 C 
ATOM      7  C   UNL d   1      -0.152   1.072  -0.029  0.00  0.00     0.082 A 
ATOM      8  C   UNL d   1       2.357   1.564   0.077  0.00  0.00     0.104 C 
ATOM      9  N   UNL d   1       3.268   2.287   0.107  0.00  0.00    -0.191 NA
ATOM     10  O   UNL d   1       0.118  -3.223   0.618  0.00  0.00    -0.265 OA
ENDROOT
BRANCH   3  11
ATOM     11  S   UNL d   1       2.642  -1.702  -0.270  0.00  0.00    -0.113 SA
ATOM     12  C   UNL d   1       2.965  -2.424   1.354  0.00  0.00     0.097 C 
ENDBRANCH   3  11
BRANCH   7  13
ATOM     13  C   UNL d   1      -0.717   2.434  -0.115  0.00  0.00    -0.006 A 
ATOM     14  C   UNL d   1      -0.097   3.523   0.523  0.00  0.00     0.015 A 
ATOM     15  C   UNL d   1      -0.531   4.836   0.301  0.00  0.00     0.024 A 
ATOM     16  C   UNL d   1      -1.616   5.072  -0.536  0.00  0.00     0.034 A 
ATOM     17  C   UNL d   1      -2.289   4.003  -1.123  0.00  0.00     0.024 A 
ATOM     18 CL   UNL d   1      -2.115   6.687  -0.855  0.00  0.00    -0.084 Cl
ATOM     19  C   UNL d   1      -1.844   2.690  -0.911  0.00  0.00     0.015 A 
ENDBRANCH   7  13
BRANCH   6  20
ATOM     20  C   UNL d   1      -1.752  -2.861  -0.767  0.00  0.00     0.074 A 
ATOM     21  S   UNL d   1      -2.194  -4.527  -0.670  0.00  0.00    -0.097 SA
ATOM     22  C   UNL d   1      -3.447  -4.342  -1.810  0.00  0.00     0.050 A 
ATOM     23  C   UNL d   1      -3.571  -3.038  -2.228  0.00  0.00     0.009 A 
ATOM     24  C   UNL d   1      -2.603  -2.182  -1.619  0.00  0.00     0.025 A 
ENDBRANCH   6  20
TORSDOF 3
