REMARK  5 active torsions:
REMARK  status: ('A' for Active; 'I' for Inactive)
REMARK    1  A    between atoms: C_7  and  C_1 
REMARK    2  A    between atoms: C_8  and  C_3 
REMARK    3  A    between atoms: O_13  and  C_7 
REMARK    4  A    between atoms: C_19  and  O_13 
REMARK    5  A    between atoms: O_18  and  C_15 
ROOT
ATOM      1  C   UNL d   1       1.450   1.043   0.063  0.00  0.00     0.066 C 
ATOM      2  C   UNL d   1       1.359  -0.303   0.005  0.00  0.00     0.024 C 
ATOM      3  C   UNL d   1       0.219   1.912  -0.052  0.00  0.00     0.161 C 
ATOM      4  C   UNL d   1      -1.077  -0.203  -0.046  0.00  0.00     0.321 C 
ATOM      5  N   UNL d   1       0.108  -0.871  -0.106  0.00  0.00    -0.312 N 
ATOM      6  N   UNL d   1      -0.995   1.137   0.124  0.00  0.00    -0.330 N 
ATOM      7  O   UNL d   1      -2.154  -0.783  -0.105  0.00  0.00    -0.247 OA
ATOM      8  C   UNL d   1       2.483  -1.305   0.013  0.00  0.00     0.069 C 
ATOM      9  H   UNL d   1       0.014  -1.878  -0.172  0.00  0.00     0.170 HD
ATOM     10  H   UNL d   1      -1.884   1.618   0.128  0.00  0.00     0.165 HD
ENDROOT
BRANCH   3  11
ATOM     11  C   UNL d   1       0.158   3.104   0.891  0.00  0.00    -0.030 A 
ATOM     12  C   UNL d   1      -0.010   4.400   0.371  0.00  0.00     0.012 A 
ATOM     13  C   UNL d   1      -0.022   5.508   1.220  0.00  0.00     0.037 A 
ATOM     14  C   UNL d   1       0.125   5.326   2.588  0.00  0.00     0.065 A 
ATOM     15  C   UNL d   1       0.263   4.052   3.129  0.00  0.00     0.037 A 
ATOM     16  C   UNL d   1       0.273   2.942   2.282  0.00  0.00     0.012 A 
BRANCH  14  17
ATOM     17  O   UNL d   1       0.135   6.438   3.376  0.00  0.00    -0.361 OA
ATOM     18  H   UNL d   1       0.296   6.164   4.294  0.00  0.00     0.217 HD
ENDBRANCH  14  17
ENDBRANCH   3  11
BRANCH   1  19
ATOM     19  C   UNL d   1       2.766   1.714   0.221  0.00  0.00     0.293 C 
ATOM     20  O   UNL d   1       3.711   1.239   0.830  0.00  0.00    -0.259 OA
BRANCH  19  21
ATOM     21  O   UNL d   1       2.760   2.928  -0.387  0.00  0.00    -0.318 OA
BRANCH  21  22
ATOM     22  C   UNL d   1       3.955   3.713  -0.237  0.00  0.00     0.174 C 
ATOM     23  C   UNL d   1       4.123   4.249   1.177  0.00  0.00     0.034 C 
ENDBRANCH  21  22
ENDBRANCH  19  21
ENDBRANCH   1  19
TORSDOF 5
