REMARK  3 active torsions:
REMARK  status: ('A' for Active; 'I' for Inactive)
REMARK    1  A    between atoms: C_8  and  C_1 
REMARK    2  A    between atoms: C_7  and  C_6 
REMARK    3  A    between atoms: O_16  and  C_10 
ROOT
ATOM      1  C   UNL d   1       0.976  -1.226   0.040  0.00  0.00     0.087 A 
ATOM      2  N   UNL d   1      -0.367  -1.143   0.022  0.00  0.00    -0.326 N 
ATOM      3  HN  UNL d   1      -0.958  -1.974   0.033  1.00  0.00     0.169 HD
ATOM      4  N   UNL d   1       1.778  -0.140   0.031  0.00  0.00    -0.342 N 
ATOM      5  HN  UNL d   1       2.792  -0.241   0.046  1.00  0.00     0.167 HD
ATOM      6  C   UNL d   1       1.202   1.093   0.001  0.00  0.00     0.122 A 
ATOM      7  C   UNL d   1      -0.166   1.250  -0.019  0.00  0.00     0.090 A 
ATOM      8  C   UNL d   1      -0.880   0.088  -0.009  0.00  0.00     0.143 A 
ENDROOT
BRANCH   6   9
ATOM      9  C   UNL d   1       2.079   2.333   0.005  0.00  0.00     0.432 C 
ATOM     10  F   UNL d   1       3.417   2.077  -0.006  0.00  0.00    -0.165 F 
ATOM     11  F   UNL d   1       1.846   3.137  -1.074  0.00  0.00    -0.165 F 
ATOM     12  F   UNL d   1       1.859   3.120   1.099  0.00  0.00    -0.165 F 
ENDBRANCH   6   9
BRANCH   1  13
ATOM     13  C   UNL d   1       1.621  -2.588   0.109  0.00  0.00     0.053 A 
ATOM     14  C   UNL d   1       2.476  -3.081  -1.037  0.00  0.00     0.013 A 
ATOM     15  C   UNL d   1       1.143  -3.717  -0.776  0.00  0.00     0.013 A 
ENDBRANCH   1  13
BRANCH   8  16
ATOM     16  O   UNL d   1      -2.236   0.124  -0.024  0.00  0.00    -0.346 OA
ATOM     17  H   UNL d   1      -2.442  -0.829  -0.008  0.00  0.00     0.219 HD
ENDBRANCH   8  16
TORSDOF 3
