REMARK  1 active torsions:
REMARK  status: ('A' for Active; 'I' for Inactive)
REMARK    1  A    between atoms: C_5  and  C_4 
ROOT
ATOM      1  C   UNL d   1      -1.250   0.109  -0.064  0.00  0.00     0.115 C 
ATOM      2  C   UNL d   1      -0.651  -1.193   0.244  0.00  0.00     0.302 C 
ATOM      3  C   UNL d   1      -0.510   1.332   0.269  0.00  0.00     0.302 C 
ATOM      4  C   UNL d   1      -2.433   0.110  -0.712  0.00  0.00     0.037 C 
ATOM      5  O   UNL d   1       0.694  -1.181   0.362  0.00  0.00    -0.280 OA
ATOM      6  O   UNL d   1       0.832   1.198   0.253  0.00  0.00    -0.280 OA
ATOM      7  C   UNL d   1       1.407  -0.048  -0.137  0.00  0.00     0.175 C 
ATOM      8  O   UNL d   1      -1.033   2.389   0.589  0.00  0.00    -0.259 OA
ATOM      9  O   UNL d   1      -1.301  -2.223   0.373  0.00  0.00    -0.259 OA
ATOM     10  C   UNL d   1       1.551  -0.125  -1.660  0.00  0.00     0.080 C 
ATOM     11  C   UNL d   1       2.796  -0.086   0.502  0.00  0.00     0.080 C 
ENDROOT
BRANCH   4  12
ATOM     12  C   UNL d   1      -3.086   1.254  -1.248  0.00  0.00    -0.007 A 
ATOM     13  C   UNL d   1      -3.949   2.069  -0.554  0.00  0.00     0.100 A 
ATOM     14  N   UNL d   1      -4.304   3.097  -1.390  0.00  0.00    -0.364 N 
ATOM     15  C   UNL d   1      -3.712   2.938  -2.624  0.00  0.00     0.043 A 
ATOM     16  H   UNL d   1      -4.899   3.873  -1.136  0.00  0.00     0.165 HD
ATOM     17  C   UNL d   1      -2.951   1.769  -2.569  0.00  0.00     0.002 A 
ATOM     18  C   UNL d   1      -3.782   3.739  -3.770  0.00  0.00     0.030 A 
ATOM     19  C   UNL d   1      -2.239   1.370  -3.720  0.00  0.00     0.014 A 
ATOM     20  C   UNL d   1      -2.307   2.156  -4.875  0.00  0.00     0.001 A 
ATOM     21  C   UNL d   1      -3.063   3.324  -4.896  0.00  0.00     0.002 A 
ENDBRANCH   4  12
TORSDOF 1
