REMARK  7 active torsions:
REMARK  status: ('A' for Active; 'I' for Inactive)
REMARK    1  A    between atoms: N_2  and  C_1 
REMARK    2  A    between atoms: N_10  and  C_1 
REMARK    3  A    between atoms: C_3  and  N_2 
REMARK    4  A    between atoms: O_17  and  C_4 
REMARK    5  A    between atoms: N_6  and  N_10 
REMARK    6  A    between atoms: C_8  and  C_15 
REMARK    7  A    between atoms: O_19  and  C_13 
ROOT
ATOM      1  N   UNL d   1       3.217  -0.696   1.165  0.00  0.00    -0.309 N 
ATOM      2  HN  UNL d   1       2.729  -1.223   1.889  1.00  0.00     0.186 HD
ATOM      3  C   UNL d   1       4.514  -0.604   1.108  0.00  0.00     0.121 C 
ENDROOT
BRANCH   1   4
ATOM      4  N   UNL d   1       2.569  -0.023   0.168  0.00  0.00    -0.277 N 
ATOM      5  H   UNL d   1       3.093   0.506  -0.524  0.00  0.00     0.189 HD
BRANCH   4   6
ATOM      6  C   UNL d   1       1.199  -0.033   0.030  0.00  0.00     0.186 C 
ATOM      7  S   UNL d   1       0.512   0.807  -1.235  0.00  0.00    -0.040 SA
BRANCH   6   8
ATOM      8  N   UNL d   1       0.544  -0.767   0.983  0.00  0.00    -0.361 N 
ATOM      9  H   UNL d   1       1.182  -1.241   1.609  0.00  0.00     0.162 HD
BRANCH   8  10
ATOM     10  C   UNL d   1      -0.833  -1.228   0.925  0.00  0.00     0.088 C 
ATOM     11  C   UNL d   1      -1.060  -2.373  -0.095  0.00  0.00     0.009 C 
ATOM     12  C   UNL d   1      -2.366  -2.978   0.418  0.00  0.00     0.011 C 
ATOM     13  C   UNL d   1      -0.074  -3.530   0.155  0.00  0.00     0.007 C 
ATOM     14  C   UNL d   1      -1.797  -3.257   1.809  0.00  0.00    -0.012 C 
ATOM     15  C   UNL d   1      -1.319  -1.859   2.248  0.00  0.00     0.030 C 
ATOM     16  C   UNL d   1      -0.567  -4.121   1.482  0.00  0.00     0.005 C 
ENDBRANCH   8  10
ENDBRANCH   6   8
ENDBRANCH   4   6
ENDBRANCH   1   4
BRANCH   3  17
ATOM     17  C   UNL d   1       5.387  -1.213   2.133  0.00  0.00     0.017 A 
ATOM     18  C   UNL d   1       4.872  -1.926   3.232  0.00  0.00     0.110 A 
ATOM     19  C   UNL d   1       5.742  -2.409   4.218  0.00  0.00     0.102 A 
ATOM     20  C   UNL d   1       7.122  -2.233   4.059  0.00  0.00     0.040 A 
ATOM     21  C   UNL d   1       7.635  -1.548   2.958  0.00  0.00     0.004 A 
ATOM     22  C   UNL d   1       6.768  -1.028   1.998  0.00  0.00     0.016 A 
BRANCH  18  23
ATOM     23  O   UNL d   1       3.526  -2.177   3.335  0.00  0.00    -0.357 OA
ATOM     24  H   UNL d   1       3.094  -1.770   2.556  0.00  0.00     0.217 HD
ENDBRANCH  18  23
BRANCH  19  25
ATOM     25  O   UNL d   1       5.397  -3.090   5.356  0.00  0.00    -0.353 OA
ATOM     26  C   UNL d   1       4.142  -2.742   5.933  0.00  0.00     0.210 C 
ENDBRANCH  19  25
ENDBRANCH   3  17
TORSDOF 7
