REMARK  4 active torsions:
REMARK  status: ('A' for Active; 'I' for Inactive)
REMARK    1  A    between atoms: C_7  and  C_1 
REMARK    2  A    between atoms: C_14  and  C_4 
REMARK       I    between atoms: N_13  and  C_7 
REMARK    3  A    between atoms: N_8  and  N_13 
REMARK    4  A    between atoms: C_10  and  C_11 
ROOT
ATOM      1  C   UNL d   1      -0.007  -1.326  -0.033  0.00  0.00     0.094 A 
ATOM      2  N   UNL d   1      -1.013   0.710   0.170  0.00  0.00    -0.259 N 
ATOM      3  HN  UNL d   1      -1.712   1.447   0.254  1.00  0.00     0.195 HD
ATOM      4  C   UNL d   1      -1.242  -0.614   0.163  0.00  0.00     0.083 A 
ATOM      5  O   UNL d   1       0.340   0.878   0.042  0.00  0.00    -0.241 OA
ATOM      6  C   UNL d   1       0.951  -0.329  -0.056  0.00  0.00     0.090 A 
ATOM      7  C   UNL d   1       2.420  -0.265  -0.185  0.00  0.00     0.080 C 
ENDROOT
BRANCH   1   8
ATOM      8  C   UNL d   1       0.171  -2.758  -0.205  0.00  0.00     0.275 C 
ATOM      9  N   UNL d   1       1.340  -3.299   0.333  0.00  0.00    -0.266 N 
ATOM     10  H   UNL d   1       2.105  -2.686   0.584  0.00  0.00     0.190 HD
ATOM     11  O   UNL d   1      -0.684  -3.434  -0.772  0.00  0.00    -0.266 OA
BRANCH   9  12
ATOM     12  N   UNL d   1       1.712  -4.624   0.198  0.00  0.00    -0.306 N 
ATOM     13  C   UNL d   1       0.771  -5.512   0.317  0.00  0.00     0.144 C 
ATOM     14  HN  UNL d   1       2.679  -4.891   0.014  1.00  0.00     0.186 HD
BRANCH  13  15
ATOM     15  C   UNL d   1       1.008  -6.908   0.085  0.00  0.00     0.091 A 
ATOM     16  O   UNL d   1      -0.052  -7.759   0.237  0.00  0.00    -0.321 OA
ATOM     17  C   UNL d   1       0.380  -9.005  -0.079  0.00  0.00     0.142 A 
ATOM     18  C   UNL d   1       1.714  -8.978  -0.419  0.00  0.00     0.027 A 
ATOM     19  C   UNL d   1       2.122  -7.626  -0.304  0.00  0.00     0.040 A 
ENDBRANCH  13  15
ENDBRANCH   9  12
ENDBRANCH   1   8
BRANCH   4  20
ATOM     20  C   UNL d   1      -2.603  -1.114   0.405  0.00  0.00    -0.006 A 
ATOM     21  C   UNL d   1      -3.718  -0.355   0.010  0.00  0.00     0.014 A 
ATOM     22  C   UNL d   1      -5.018  -0.784   0.297  0.00  0.00     0.001 A 
ATOM     23  C   UNL d   1      -5.223  -1.980   0.980  0.00  0.00     0.000 A 
ATOM     24  C   UNL d   1      -4.130  -2.744   1.380  0.00  0.00     0.001 A 
ATOM     25  C   UNL d   1      -2.830  -2.309   1.103  0.00  0.00     0.014 A 
ENDBRANCH   4  20
TORSDOF 4
