REMARK  6 active torsions:
REMARK  status: ('A' for Active; 'I' for Inactive)
REMARK       I    between atoms: N_7  and  C_1 
REMARK    1  A    between atoms: O_9  and  C_1 
REMARK    2  A    between atoms: C_2  and  C_8 
REMARK    3  A    between atoms: N_3  and  O_9 
REMARK    4  A    between atoms: C_8  and  C_5 
REMARK    5  A    between atoms: N_12  and  C_5 
REMARK    6  A    between atoms: C_14  and  N_7 
ROOT
ATOM      1  N   UNL d   1      -1.939   0.374   2.051  0.00  0.00    -0.249 N 
ATOM      2  HN  UNL d   1      -1.731  -0.009   2.974  1.00  0.00     0.196 HD
ATOM      3  C   UNL d   1      -1.627   1.573   1.641  0.00  0.00     0.080 C 
ENDROOT
BRANCH   3   4
ATOM      4  C   UNL d   1      -0.905   2.513   2.606  0.00  0.00     0.111 C 
BRANCH   4   5
ATOM      5  C   UNL d   1       0.606   2.412   2.505  0.00  0.00    -0.041 A 
ATOM      6  C   UNL d   1       1.396   3.225   1.639  0.00  0.00    -0.019 A 
ATOM      7  C   UNL d   1       2.798   2.997   1.588  0.00  0.00    -0.025 A 
ATOM      8  C   UNL d   1       0.884   4.263   0.823  0.00  0.00     0.013 A 
ATOM      9  C   UNL d   1       3.612   3.763   0.736  0.00  0.00     0.012 A 
ATOM     10  C   UNL d   1       3.381   2.011   2.395  0.00  0.00     0.012 A 
ATOM     11  C   UNL d   1       3.071   4.764  -0.066  0.00  0.00     0.001 A 
ATOM     12  C   UNL d   1       1.708   5.018  -0.018  0.00  0.00     0.001 A 
ATOM     13  C   UNL d   1       2.606   1.241   3.255  0.00  0.00     0.001 A 
ATOM     14  C   UNL d   1       1.230   1.434   3.303  0.00  0.00     0.008 A 
ENDBRANCH   4   5
ENDBRANCH   3   4
BRANCH   3  15
ATOM     15  N   UNL d   1      -1.913   2.052   0.381  0.00  0.00    -0.290 NA
ATOM     16  H   UNL d   1      -2.170   1.317  -0.271  0.00  0.00     0.125 HD
ATOM     17  H   UNL d   1      -1.244   2.702  -0.015  0.00  0.00     0.125 HD
ENDBRANCH   3  15
BRANCH   1  18
ATOM     18  O   UNL d   1      -2.614  -0.313   1.006  0.00  0.00    -0.180 OA
BRANCH  18  19
ATOM     19  C   UNL d   1      -3.052  -1.573   1.358  0.00  0.00     0.383 C 
ATOM     20  N   UNL d   1      -2.713  -1.983   2.621  0.00  0.00    -0.331 N 
ATOM     21  H   UNL d   1      -2.089  -1.345   3.102  0.00  0.00     0.165 HD
ATOM     22  O   UNL d   1      -3.688  -2.263   0.564  0.00  0.00    -0.236 OA
BRANCH  20  23
ATOM     23  C   UNL d   1      -2.991  -3.323   3.108  0.00  0.00     0.078 C 
ATOM     24  C   UNL d   1      -1.897  -4.304   2.689  0.00  0.00     0.032 C 
ATOM     25  C   UNL d   1      -3.165  -3.327   4.622  0.00  0.00     0.032 C 
ENDBRANCH  20  23
ENDBRANCH  18  19
ENDBRANCH   1  18
TORSDOF 6
