REMARK  5 active torsions:
REMARK  status: ('A' for Active; 'I' for Inactive)
REMARK    1  A    between atoms: C_3  and  C_4 
REMARK    2  A    between atoms: N_6  and  C_7 
REMARK       I    between atoms: C_8  and  N_6 
REMARK    3  A    between atoms: C_9  and  C_8 
REMARK    4  A    between atoms: C_10  and  C_11 
REMARK    5  A    between atoms: O_19  and  C_10 
ROOT
ATOM      1  N   UNL d   1      -0.265  -6.974   0.048  0.00  0.00    -0.354 N 
ATOM      2  HN  UNL d   1       0.080  -7.914  -0.144  1.00  0.00     0.166 HD
ATOM      3  C   UNL d   1       0.605  -5.949   0.282  0.00  0.00     0.117 C 
ATOM      4  C   UNL d   1      -1.599  -6.720   0.077  0.00  0.00     0.032 C 
ATOM      5  C   UNL d   1      -2.110  -5.435   0.273  0.00  0.00     0.057 C 
ATOM      6  C   UNL d   1       0.155  -4.676   0.623  0.00  0.00     0.036 C 
ATOM      7  C   UNL d   1      -1.212  -4.419   0.609  0.00  0.00     0.034 C 
ATOM      8  C   UNL d   1      -2.498  -7.889  -0.207  0.00  0.00     0.070 C 
ENDROOT
BRANCH   5   9
ATOM      9  N   UNL d   1      -3.490  -5.184   0.157  0.00  0.00    -0.322 N 
ATOM     10  C   UNL d   1      -4.105  -4.071  -0.331  0.00  0.00     0.245 C 
ATOM     11  O   UNL d   1      -5.309  -3.871  -0.176  0.00  0.00    -0.268 OA
ATOM     12  H   UNL d   1      -4.135  -5.928   0.398  0.00  0.00     0.169 HD
BRANCH  10  13
ATOM     13  C   UNL d   1      -3.326  -3.145  -1.173  0.00  0.00     0.081 C 
ATOM     14  C   UNL d   1      -3.354  -1.813  -1.063  0.00  0.00     0.086 C 
BRANCH  14  15
ATOM     15  C   UNL d   1      -4.027  -0.958  -0.067  0.00  0.00     0.165 C 
ATOM     16  O   UNL d   1      -3.591   0.162   0.159  0.00  0.00    -0.647 OA
BRANCH  15  17
ATOM     17  O   UNL d   1      -5.104  -1.450   0.549  0.00  0.00    -0.773 OA
ATOM     18  H   UNL d   1      -5.443  -2.319   0.225  0.00  0.00     0.167 HD
ENDBRANCH  15  17
ENDBRANCH  14  15
ENDBRANCH  10  13
ENDBRANCH   5   9
BRANCH   3  19
ATOM     19  C   UNL d   1       2.104  -6.174   0.126  0.00  0.00     0.432 C 
ATOM     20  F   UNL d   1       2.442  -7.403  -0.356  0.00  0.00    -0.165 F 
ATOM     21  F   UNL d   1       2.665  -5.275  -0.738  0.00  0.00    -0.165 F 
ATOM     22  F   UNL d   1       2.786  -6.025   1.297  0.00  0.00    -0.165 F 
ENDBRANCH   3  19
TORSDOF 5
