REMARK  7 active torsions:
REMARK  status: ('A' for Active; 'I' for Inactive)
REMARK    1  A    between atoms: C_2  and  N_1 
REMARK    2  A    between atoms: C_4  and  C_2 
REMARK    3  A    between atoms: S_3  and  C_4 
REMARK    4  A    between atoms: C_5  and  S_3 
REMARK    5  A    between atoms: C_8  and  C_4 
REMARK    6  A    between atoms: N_12  and  C_9 
REMARK    7  A    between atoms: O_16  and  C_13 
ROOT
ATOM      1  C   UNL d   1       1.290  -1.754   1.695  0.00  0.00     0.109 C 
ENDROOT
BRANCH   1   2
ATOM      2  S   UNL d   1       2.641  -0.773   2.517  0.00  0.00    -0.117 SA
BRANCH   2   3
ATOM      3  C   UNL d   1       3.732  -2.044   3.182  0.00  0.00     0.022 A 
ATOM      4  C   UNL d   1       4.239  -1.893   4.498  0.00  0.00     0.022 A 
ATOM      5  C   UNL d   1       5.089  -2.879   5.015  0.00  0.00     0.024 A 
ATOM      6  C   UNL d   1       5.380  -4.029   4.282  0.00  0.00     0.002 A 
ATOM      7  C   UNL d   1       4.862  -4.185   3.000  0.00  0.00     0.001 A 
ATOM      8  C   UNL d   1       4.056  -3.190   2.444  0.00  0.00     0.020 A 
BRANCH   4   9
ATOM      9  N   UNL d   1       4.068  -0.702   5.225  0.00  0.00    -0.302 NA
ATOM     10  H   UNL d   1       3.289  -0.144   4.882  0.00  0.00     0.124 HD
ATOM     11  H   UNL d   1       4.086  -0.810   6.231  0.00  0.00     0.124 HD
ENDBRANCH   4   9
ENDBRANCH   2   3
ENDBRANCH   1   2
BRANCH   1  12
ATOM     12  C   UNL d   1       0.254  -0.811   1.066  0.00  0.00     0.221 C 
BRANCH  12  13
ATOM     13  N   UNL d   1       0.901   0.079   0.051  0.00  0.00    -0.154 N 
ATOM     14  O   UNL d   1       0.776   1.299   0.214  0.00  0.00    -0.536 OA
ATOM     15  O   UNL d   1       1.460  -0.473  -0.908  0.00  0.00    -0.536 OA
ENDBRANCH  12  13
ENDBRANCH   1  12
BRANCH   1  16
ATOM     16  C   UNL d   1       0.560  -2.759   2.599  0.00  0.00    -0.042 A 
ATOM     17  C   UNL d   1       0.670  -2.786   3.998  0.00  0.00     0.011 A 
ATOM     18  C   UNL d   1       0.027  -3.764   4.767  0.00  0.00     0.037 A 
ATOM     19  C   UNL d   1      -0.791  -4.710   4.159  0.00  0.00     0.068 A 
ATOM     20  C   UNL d   1      -0.968  -4.661   2.779  0.00  0.00     0.037 A 
ATOM     21  C   UNL d   1      -0.284  -3.716   2.004  0.00  0.00     0.011 A 
BRANCH  19  22
ATOM     22  O   UNL d   1      -1.490  -5.684   4.813  0.00  0.00    -0.356 OA
ATOM     23  C   UNL d   1      -0.914  -6.142   6.032  0.00  0.00     0.210 C 
ENDBRANCH  19  22
ENDBRANCH   1  16
TORSDOF 7
