REMARK  5 active torsions:
REMARK  status: ('A' for Active; 'I' for Inactive)
REMARK    1  A    between atoms: N_8  and  C_1 
REMARK    2  A    between atoms: C_11  and  N_4 
REMARK    3  A    between atoms: N_6  and  C_7 
REMARK       I    between atoms: C_9  and  N_6 
REMARK    4  A    between atoms: C_7  and  N_8 
REMARK    5  A    between atoms: C_14  and  C_9 
ROOT
ATOM      1  C   UNL d   1      -0.393  -1.036   0.117  0.00  0.00     0.129 C 
ATOM      2  C   UNL d   1       0.925  -0.425   0.501  0.00  0.00     0.295 C 
ATOM      3  N   UNL d   1      -0.454   1.201  -0.295  0.00  0.00    -0.289 N 
ATOM      4  N   UNL d   1       0.785   0.962   0.349  0.00  0.00    -0.217 N 
ATOM      5  C   UNL d   1      -1.181   0.004  -0.214  0.00  0.00     0.057 C 
ATOM      6  O   UNL d   1       1.896  -1.077   0.854  0.00  0.00    -0.264 OA
ATOM      7  C   UNL d   1      -1.002   2.542  -0.119  0.00  0.00     0.178 C 
ATOM      8  C   UNL d   1      -2.675  -0.020  -0.313  0.00  0.00     0.072 C 
ENDROOT
BRANCH   1   9
ATOM      9  N   UNL d   1      -0.604  -2.388   0.238  0.00  0.00    -0.327 N 
ATOM     10  H   UNL d   1       0.123  -2.866   0.784  0.00  0.00     0.168 HD
BRANCH   9  11
ATOM     11  C   UNL d   1      -1.353  -3.241  -0.540  0.00  0.00     0.179 C 
ATOM     12  S   UNL d   1      -2.132  -2.918  -1.986  0.00  0.00    -0.040 SA
BRANCH  11  13
ATOM     13  N   UNL d   1      -1.454  -4.540  -0.077  0.00  0.00    -0.299 N 
ATOM     14  C   UNL d   1      -0.779  -5.122   0.977  0.00  0.00     0.257 C 
ATOM     15  O   UNL d   1       0.173  -4.608   1.558  0.00  0.00    -0.267 OA
ATOM     16  H   UNL d   1      -2.058  -5.128  -0.634  0.00  0.00     0.171 HD
BRANCH  14  17
ATOM     17  C   UNL d   1      -1.212  -6.487   1.345  0.00  0.00     0.032 A 
ATOM     18  C   UNL d   1      -0.240  -7.463   1.582  0.00  0.00     0.017 A 
ATOM     19  C   UNL d   1      -0.624  -8.733   2.020  0.00  0.00     0.001 A 
ATOM     20  C   UNL d   1      -1.973  -9.016   2.231  0.00  0.00     0.000 A 
ATOM     21  C   UNL d   1      -2.943  -8.043   1.986  0.00  0.00     0.001 A 
ATOM     22  C   UNL d   1      -2.569  -6.776   1.537  0.00  0.00     0.017 A 
ENDBRANCH  14  17
ENDBRANCH  11  13
ENDBRANCH   9  11
ENDBRANCH   1   9
BRANCH   4  23
ATOM     23  C   UNL d   1       1.901   1.770   0.067  0.00  0.00     0.060 A 
ATOM     24  C   UNL d   1       2.282   2.089  -1.243  0.00  0.00     0.031 A 
ATOM     25  C   UNL d   1       3.401   2.900  -1.460  0.00  0.00     0.002 A 
ATOM     26  C   UNL d   1       4.114   3.417  -0.378  0.00  0.00     0.000 A 
ATOM     27  C   UNL d   1       3.725   3.113   0.926  0.00  0.00     0.002 A 
ATOM     28  C   UNL d   1       2.630   2.277   1.146  0.00  0.00     0.031 A 
ENDBRANCH   4  23
TORSDOF 5
