REMARK  4 active torsions:
REMARK  status: ('A' for Active; 'I' for Inactive)
REMARK    1  A    between atoms: C_2  and  C_1 
REMARK       I    between atoms: N_3  and  C_1 
REMARK    2  A    between atoms: C_7  and  N_3 
REMARK    3  A    between atoms: C_8  and  N_4 
REMARK    4  A    between atoms: C_15  and  C_8 
ROOT
ATOM      1  N   UNL d   1      -2.649   0.758   1.074  0.00  0.00     0.092 N 
ATOM      2  C   UNL d   1      -1.030  -0.457  -1.047  0.00  0.00     0.088 C 
ATOM      3  C   UNL d   1      -1.718   0.902  -1.214  0.00  0.00     0.055 C 
ATOM      4  C   UNL d   1      -1.827  -1.298  -0.050  0.00  0.00     0.055 C 
ATOM      5  C   UNL d   1      -1.906   1.599   0.139  0.00  0.00     0.275 C 
ATOM      6  C   UNL d   1      -2.041  -0.561   1.275  0.00  0.00     0.275 C 
ENDROOT
BRANCH   2   7
ATOM      7  N   UNL d   1       0.362  -0.263  -0.650  0.00  0.00    -0.352 N 
ATOM      8  C   UNL d   1       1.325  -1.240  -0.662  0.00  0.00     0.253 C 
ATOM      9  O   UNL d   1       1.108  -2.417  -0.918  0.00  0.00    -0.268 OA
ATOM     10  H   UNL d   1       0.658   0.678  -0.428  0.00  0.00     0.163 HD
BRANCH   8  11
ATOM     11  C   UNL d   1       2.692  -0.792  -0.257  0.00  0.00     0.049 A 
ATOM     12  C   UNL d   1       3.276   0.428  -0.631  0.00  0.00     0.026 A 
ATOM     13 BR   UNL d   1       2.486   1.659  -1.848  0.00  0.00    -0.050 Br
ATOM     14  C   UNL d   1       4.538   0.782  -0.135  0.00  0.00     0.020 A 
ATOM     15  C   UNL d   1       5.230  -0.081   0.714  0.00  0.00     0.001 A 
ATOM     16  C   UNL d   1       4.672  -1.308   1.062  0.00  0.00     0.001 A 
ATOM     17  C   UNL d   1       3.411  -1.665   0.578  0.00  0.00     0.018 A 
ENDBRANCH   8  11
ENDBRANCH   2   7
BRANCH   1  18
ATOM     18  C   UNL d   1      -2.994   1.440   2.330  0.00  0.00     0.311 C 
BRANCH  18  19
ATOM     19  C   UNL d   1      -1.877   1.746   3.314  0.00  0.00    -0.030 A 
ATOM     20  C   UNL d   1      -1.098   2.905   3.189  0.00  0.00     0.009 A 
ATOM     21  C   UNL d   1      -0.133   3.224   4.151  0.00  0.00     0.001 A 
ATOM     22  C   UNL d   1       0.061   2.390   5.248  0.00  0.00     0.000 A 
ATOM     23  C   UNL d   1      -0.695   1.226   5.380  0.00  0.00     0.001 A 
ATOM     24  C   UNL d   1      -1.655   0.905   4.414  0.00  0.00     0.009 A 
ENDBRANCH  18  19
ENDBRANCH   1  18
TORSDOF 4
