REMARK  4 active torsions:
REMARK  status: ('A' for Active; 'I' for Inactive)
REMARK    1  A    between atoms: C_2  and  S_1 
REMARK    2  A    between atoms: C_6  and  S_1 
REMARK    3  A    between atoms: C_8  and  C_2 
REMARK    4  A    between atoms: N_3  and  C_8 
ROOT
ATOM      1  S   UNL d   1       0.914   0.078   0.136  0.00  0.00     0.177 S 
ATOM      2  O   UNL d   1       0.383   1.427   0.093  0.00  0.00    -0.223 OA
ATOM      3  O   UNL d   1       2.342  -0.152   0.239  0.00  0.00    -0.223 OA
ENDROOT
BRANCH   1   4
ATOM      4  C   UNL d   1       0.311  -0.811  -1.285  0.00  0.00     0.176 C 
BRANCH   4   5
ATOM      5  C   UNL d   1       0.825  -0.167  -2.574  0.00  0.00     0.287 C 
BRANCH   5   6
ATOM      6  N   UNL d   1       0.324  -0.826  -3.807  0.00  0.00     0.090 N 
ATOM      7  C   UNL d   1       0.857  -2.199  -3.947  0.00  0.00     0.282 C 
ATOM      8  C   UNL d   1       0.299  -2.970  -5.152  0.00  0.00     0.104 C 
ATOM      9  S   UNL d   1       0.731  -2.184  -6.729  0.00  0.00    -0.166 SA
ATOM     10  C   UNL d   1       0.128  -0.520  -6.319  0.00  0.00     0.104 C 
ATOM     11  C   UNL d   1       0.701  -0.009  -4.989  0.00  0.00     0.282 C 
ENDBRANCH   5   6
ENDBRANCH   4   5
ENDBRANCH   1   4
BRANCH   1  12
ATOM     12  C   UNL d   1       0.145  -0.752   1.512  0.00  0.00     0.059 A 
ATOM     13  C   UNL d   1       0.787  -1.842   2.110  0.00  0.00     0.023 A 
ATOM     14  C   UNL d   1       0.218  -2.441   3.236  0.00  0.00     0.002 A 
ATOM     15  C   UNL d   1      -0.976  -1.947   3.763  0.00  0.00     0.000 A 
ATOM     16  C   UNL d   1      -1.609  -0.856   3.164  0.00  0.00     0.002 A 
ATOM     17  C   UNL d   1      -1.049  -0.252   2.040  0.00  0.00     0.023 A 
ENDBRANCH   1  12
TORSDOF 4
