REMARK  1 active torsions:
REMARK  status: ('A' for Active; 'I' for Inactive)
REMARK    1  A    between atoms: C_6  and  N_1 
ROOT
ATOM      1  N   UNL d   1      -2.375  -0.084  -0.307  0.00  0.00    -0.252 N 
ATOM      2  C   UNL d   1      -1.580  -1.206  -0.620  0.00  0.00     0.236 C 
ATOM      3  C   UNL d   1      -1.620   0.908   0.346  0.00  0.00     0.236 C 
ATOM      4  C   UNL d   1      -0.391  -1.008   0.253  0.00  0.00     0.100 C 
ATOM      5  C   UNL d   1      -0.207   0.501   0.087  0.00  0.00     0.100 C 
ATOM      6  C   UNL d   1       1.038  -1.502   0.385  0.00  0.00     0.022 C 
ATOM      7  C   UNL d   1       1.121   0.728   0.817  0.00  0.00     0.022 C 
ATOM      8  C   UNL d   1       2.139   0.432  -0.276  0.00  0.00    -0.025 C 
ATOM      9  C   UNL d   1       2.026  -0.876  -0.583  0.00  0.00    -0.025 C 
ATOM     10  C   UNL d   1       1.379  -0.580   1.597  0.00  0.00     0.018 C 
ATOM     11  O   UNL d   1      -1.816  -2.180  -1.309  0.00  0.00    -0.272 OA
ATOM     12  O   UNL d   1      -1.972   1.901   0.957  0.00  0.00    -0.272 OA
ENDROOT
BRANCH   1  13
ATOM     13  C   UNL d   1      -3.786  -0.028  -0.466  0.00  0.00     0.047 A 
ATOM     14  C   UNL d   1      -4.550  -1.204  -0.496  0.00  0.00     0.057 A 
ATOM     15  C   UNL d   1      -5.947  -1.144  -0.544  0.00  0.00     0.074 A 
ATOM     16 CL   UNL d   1      -6.857  -2.604  -0.478  0.00  0.00    -0.081 Cl
ATOM     17  C   UNL d   1      -6.588   0.088  -0.607  0.00  0.00     0.138 A 
ATOM     18  C   UNL d   1      -5.849   1.264  -0.618  0.00  0.00     0.046 A 
ATOM     19  F   UNL d   1      -7.926   0.166  -0.648  0.00  0.00    -0.204 F 
ATOM     20  C   UNL d   1      -4.454   1.206  -0.534  0.00  0.00     0.033 A 
ENDBRANCH   1  13
TORSDOF 1
