REMARK  6 active torsions:
REMARK  status: ('A' for Active; 'I' for Inactive)
REMARK    1  A    between atoms: C_2  and  C_1 
REMARK       I    between atoms: N_6  and  C_1 
REMARK    2  A    between atoms: C_8  and  C_3 
REMARK    3  A    between atoms: C_5  and  C_8 
REMARK    4  A    between atoms: C_7  and  C_5 
REMARK    5  A    between atoms: C_14  and  N_6 
REMARK    6  A    between atoms: O_15  and  C_7 
ROOT
ATOM      1  C   UNL d   1       0.154  -1.044  -0.325  0.00  0.00     0.044 A 
ATOM      2  C   UNL d   1       0.603  -2.077   0.555  0.00  0.00    -0.040 A 
ATOM      3  C   UNL d   1      -0.868  -1.355  -1.268  0.00  0.00    -0.045 A 
ATOM      4  C   UNL d   1      -0.062  -3.325   0.542  0.00  0.00     0.015 A 
ATOM      5  C   UNL d   1      -1.517  -2.609  -1.211  0.00  0.00     0.014 A 
ATOM      6  C   UNL d   1      -1.127  -3.595  -0.313  0.00  0.00    -0.061 A 
ATOM      7  C   UNL d   1      -1.335  -0.472  -2.400  0.00  0.00     0.049 C 
ATOM      8  C   UNL d   1      -1.792  -4.941  -0.292  0.00  0.00     0.048 C 
ENDROOT
BRANCH   1   9
ATOM      9  C   UNL d   1       0.817   0.329  -0.299  0.00  0.00     0.257 C 
ATOM     10  N   UNL d   1       0.029   1.409  -0.669  0.00  0.00    -0.323 N 
ATOM     11  H   UNL d   1      -0.959   1.241  -0.786  0.00  0.00     0.169 HD
ATOM     12  O   UNL d   1       1.988   0.430   0.052  0.00  0.00    -0.267 OA
BRANCH  10  13
ATOM     13  C   UNL d   1       0.447   2.741  -0.904  0.00  0.00     0.035 A 
ATOM     14  C   UNL d   1       1.747   3.206  -0.693  0.00  0.00     0.029 A 
ATOM     15  C   UNL d   1       2.064   4.555  -0.888  0.00  0.00     0.002 A 
ATOM     16  C   UNL d   1       1.092   5.449  -1.325  0.00  0.00     0.000 A 
ATOM     17  C   UNL d   1      -0.193   4.989  -1.595  0.00  0.00     0.002 A 
ATOM     18  C   UNL d   1      -0.513   3.643  -1.385  0.00  0.00     0.029 A 
ENDBRANCH  10  13
ENDBRANCH   1   9
BRANCH   2  19
ATOM     19  C   UNL d   1       1.828  -2.016   1.463  0.00  0.00     0.059 C 
BRANCH  19  20
ATOM     20  C   UNL d   1       1.684  -1.681   2.973  0.00  0.00     0.042 C 
ATOM     21  C   UNL d   1       3.112  -1.510   3.542  0.00  0.00     0.026 C 
ATOM     22  C   UNL d   1       0.940  -0.363   3.242  0.00  0.00     0.026 C 
BRANCH  20  23
ATOM     23  C   UNL d   1       0.899  -2.797   3.681  0.00  0.00     0.148 C 
ATOM     24  O   UNL d   1      -0.322  -2.873   3.678  0.00  0.00    -0.649 OA
BRANCH  23  25
ATOM     25  O   UNL d   1       1.630  -3.752   4.297  0.00  0.00    -0.776 OA
ATOM     26  H   UNL d   1       2.596  -3.645   4.289  0.00  0.00     0.167 HD
ENDBRANCH  23  25
ENDBRANCH  20  23
ENDBRANCH  19  20
ENDBRANCH   2  19
TORSDOF 6
