REMARK  3 active torsions:
REMARK  status: ('A' for Active; 'I' for Inactive)
REMARK       I    between atoms: N_2  and  C_1 
REMARK    1  A    between atoms: C_4  and  C_1 
REMARK    2  A    between atoms: C_3  and  N_2 
REMARK    3  A    between atoms: C_8  and  C_4 
ROOT
ATOM      1  C   UNL d   1       1.194  -0.454   2.471  0.00  0.00     0.073 A 
ATOM      2  C   UNL d   1       2.473   0.053   2.749  0.00  0.00     0.145 A 
ATOM      3  C   UNL d   1       3.087  -0.167   3.980  0.00  0.00     0.086 A 
ATOM      4  C   UNL d   1       0.512  -1.135   3.492  0.00  0.00     0.036 A 
ATOM      5  C   UNL d   1       2.412  -0.883   4.955  0.00  0.00     0.119 A 
ATOM      6  F   UNL d   1       3.120   0.846   1.884  0.00  0.00    -0.204 F 
ATOM      7  C   UNL d   1       1.126  -1.359   4.729  0.00  0.00     0.044 A 
ATOM      8  F   UNL d   1       2.998  -1.105   6.138  0.00  0.00    -0.206 F 
ENDROOT
BRANCH   1   9
ATOM      9  N   UNL d   1       0.517  -0.323   1.237  0.00  0.00    -0.324 N 
ATOM     10  C   UNL d   1       1.095  -0.134  -0.001  0.00  0.00     0.229 C 
ATOM     11  O   UNL d   1       2.304  -0.092  -0.222  0.00  0.00    -0.273 OA
ATOM     12  H   UNL d   1      -0.471  -0.581   1.233  0.00  0.00     0.169 HD
BRANCH  10  13
ATOM     13  C   UNL d   1       0.156   0.001  -1.179  0.00  0.00     0.180 C 
BRANCH  13  14
ATOM     14  C   UNL d   1      -1.306  -0.314  -1.008  0.00  0.00     0.131 C 
ATOM     15  O   UNL d   1      -1.804  -0.606   0.081  0.00  0.00    -0.298 OA
ATOM     16  C   UNL d   1      -2.162  -0.237  -2.248  0.00  0.00     0.091 C 
ENDBRANCH  13  14
ENDBRANCH  10  13
ENDBRANCH   1   9
TORSDOF 3
