REMARK  2 active torsions:
REMARK  status: ('A' for Active; 'I' for Inactive)
REMARK    1  A    between atoms: C_7  and  C_4 
REMARK    2  A    between atoms: N_8  and  C_5 
ROOT
ATOM      1  C   UNL d   1      -0.087  -1.072   0.575  0.00  0.00     0.081 A 
ATOM      2  N   UNL d   1      -1.349   0.442  -0.566  0.00  0.00    -0.298 N 
ATOM      3  HN  UNL d   1      -2.111   0.909  -1.057  1.00  0.00     0.187 HD
ATOM      4  C   UNL d   1      -1.365  -0.765   0.026  0.00  0.00     0.062 A 
ATOM      5  C   UNL d   1       0.703   0.015   0.310  0.00  0.00     0.115 A 
ATOM      6  N   UNL d   1      -0.098   0.894  -0.363  0.00  0.00    -0.285 N 
ATOM      7  H   UNL d   1       0.146   1.810  -0.714  0.00  0.00     0.188 HD
ENDROOT
BRANCH   4   8
ATOM      8  C   UNL d   1      -2.566  -1.600   0.054  0.00  0.00    -0.008 A 
ATOM      9  C   UNL d   1      -3.523  -1.512  -0.968  0.00  0.00     0.015 A 
ATOM     10  C   UNL d   1      -4.654  -2.335  -0.958  0.00  0.00     0.024 A 
ATOM     11  C   UNL d   1      -4.837  -3.245   0.081  0.00  0.00     0.034 A 
ATOM     12  C   UNL d   1      -3.906  -3.333   1.113  0.00  0.00     0.024 A 
ATOM     13 CL   UNL d   1      -6.221  -4.268   0.091  0.00  0.00    -0.084 Cl
ATOM     14  C   UNL d   1      -2.774  -2.514   1.099  0.00  0.00     0.015 A 
ENDBRANCH   4   8
BRANCH   5  15
ATOM     15  N   UNL d   1       1.989   0.272   0.599  0.00  0.00    -0.384 N 
ATOM     16  H   UNL d   1       2.570  -0.409   1.082  0.00  0.00     0.157 HD
ATOM     17  H   UNL d   1       2.476   1.125   0.341  0.00  0.00     0.157 HD
ENDBRANCH   5  15
TORSDOF 2
