REMARK  8 active torsions:
REMARK  status: ('A' for Active; 'I' for Inactive)
REMARK    1  A    between atoms: N_12  and  C_3 
REMARK    2  A    between atoms: C_7  and  C_6 
REMARK    3  A    between atoms: C_8  and  C_7 
REMARK       I    between atoms: N_9  and  C_8 
REMARK    4  A    between atoms: C_13  and  N_9 
REMARK    5  A    between atoms: C_22  and  N_12 
REMARK    6  A    between atoms: C_20  and  C_22 
REMARK    7  A    between atoms: C_23  and  C_20 
REMARK    8  A    between atoms: O_21  and  C_23 
ROOT
ATOM      1  N   UNL d   1      -0.832  -1.477  -0.267  0.00  0.00    -0.307 N 
ATOM      2  HN  UNL d   1      -1.460  -2.199   0.086  1.00  0.00     0.171 HD
ATOM      3  C   UNL d   1       0.416  -1.666  -0.523  0.00  0.00     0.143 C 
ATOM      4  C   UNL d   1      -1.214  -0.181  -0.529  0.00  0.00     0.238 C 
ATOM      5  S   UNL d   1       1.300  -0.288  -1.158  0.00  0.00    -0.079 SA
ATOM      6  C   UNL d   1      -0.041   0.781  -0.559  0.00  0.00     0.156 C 
ATOM      7  O   UNL d   1      -2.377   0.193  -0.686  0.00  0.00    -0.272 OA
ENDROOT
BRANCH   6   8
ATOM      8  C   UNL d   1      -0.290   2.099  -1.265  0.00  0.00     0.128 C 
BRANCH   8   9
ATOM      9  C   UNL d   1      -0.497   2.025  -2.763  0.00  0.00     0.223 C 
ATOM     10  N   UNL d   1      -1.784   1.691  -3.151  0.00  0.00    -0.327 N 
ATOM     11  H   UNL d   1      -2.444   1.435  -2.417  0.00  0.00     0.169 HD
ATOM     12  O   UNL d   1       0.445   2.267  -3.507  0.00  0.00    -0.273 OA
BRANCH  10  13
ATOM     13  C   UNL d   1      -2.224   1.490  -4.481  0.00  0.00     0.034 A 
ATOM     14  C   UNL d   1      -1.434   1.746  -5.607  0.00  0.00     0.031 A 
ATOM     15  C   UNL d   1      -1.858   1.361  -6.882  0.00  0.00     0.026 A 
ATOM     16  C   UNL d   1      -3.092   0.741  -7.042  0.00  0.00     0.034 A 
ATOM     17  C   UNL d   1      -3.932   0.566  -5.946  0.00  0.00     0.026 A 
ATOM     18 CL   UNL d   1      -3.564   0.164  -8.592  0.00  0.00    -0.084 Cl
ATOM     19  C   UNL d   1      -3.504   0.951  -4.670  0.00  0.00     0.031 A 
ENDBRANCH  10  13
ENDBRANCH   8   9
ENDBRANCH   6   8
BRANCH   3  20
ATOM     20  N   UNL d   1       1.163  -2.783  -0.341  0.00  0.00    -0.371 N 
ATOM     21  H   UNL d   1       2.088  -2.782  -0.755  0.00  0.00     0.161 HD
BRANCH  20  22
ATOM     22  C   UNL d   1       0.650  -4.060   0.114  0.00  0.00     0.123 C 
BRANCH  22  23
ATOM     23  C   UNL d   1      -0.085  -4.770  -1.018  0.00  0.00     0.046 C 
BRANCH  23  24
ATOM     24  C   UNL d   1      -0.538  -6.169  -0.621  0.00  0.00     0.168 C 
BRANCH  24  25
ATOM     25  O   UNL d   1      -1.384  -6.084   0.522  0.00  0.00    -0.396 OA
ATOM     26  C   UNL d   1      -1.887  -7.357   0.906  0.00  0.00     0.201 C 
ENDBRANCH  24  25
ENDBRANCH  23  24
ENDBRANCH  22  23
ENDBRANCH  20  22
ENDBRANCH   3  20
TORSDOF 8
