REMARK  4 active torsions:
REMARK  status: ('A' for Active; 'I' for Inactive)
REMARK    1  A    between atoms: C_2  and  C_1 
REMARK    2  A    between atoms: O_8  and  C_2 
REMARK    3  A    between atoms: C_7  and  C_3 
REMARK    4  A    between atoms: S_10  and  C_9 
ROOT
ATOM      1  C   UNL d   1       1.076  -0.817   0.312  0.00  0.00     0.120 C 
ATOM      2  C   UNL d   1       0.384  -0.570  -0.819  0.00  0.00     0.040 C 
ATOM      3  C   UNL d   1       0.453  -1.128   1.552  0.00  0.00     0.105 C 
ATOM      4  N   UNL d   1      -0.059  -1.382   2.563  0.00  0.00    -0.191 NA
ENDROOT
BRANCH   1   5
ATOM      5  C   UNL d   1       2.559  -0.734   0.230  0.00  0.00     0.303 C 
ATOM      6  O   UNL d   1       3.178  -0.476  -0.793  0.00  0.00    -0.258 OA
BRANCH   5   7
ATOM      7  O   UNL d   1       3.122  -0.967   1.443  0.00  0.00    -0.322 OA
ATOM      8  C   UNL d   1       4.548  -0.868   1.465  0.00  0.00     0.213 C 
ENDBRANCH   5   7
ENDBRANCH   1   5
BRANCH   2   9
ATOM      9  C   UNL d   1      -1.077  -0.562  -0.928  0.00  0.00    -0.035 A 
ATOM     10  C   UNL d   1      -1.790   0.619  -0.702  0.00  0.00     0.013 A 
ATOM     11  C   UNL d   1      -3.186   0.639  -0.818  0.00  0.00     0.019 A 
ATOM     12  C   UNL d   1      -3.889  -0.521  -1.153  0.00  0.00    -0.000 A 
ATOM     13  C   UNL d   1      -3.167  -1.697  -1.394  0.00  0.00     0.019 A 
ATOM     14  C   UNL d   1      -1.771  -1.722  -1.278  0.00  0.00     0.013 A 
BRANCH  12  15
ATOM     15  S   UNL d   1      -5.663  -0.578  -1.359  0.00  0.00    -0.134 SA
ATOM     16  C   UNL d   1      -6.234   0.638  -0.139  0.00  0.00     0.095 C 
ENDBRANCH  12  15
ENDBRANCH   2   9
TORSDOF 4
