REMARK  3 active torsions:
REMARK  status: ('A' for Active; 'I' for Inactive)
REMARK    1  A    between atoms: C_2  and  N_1 
REMARK    2  A    between atoms: C_3  and  C_5 
REMARK    3  A    between atoms: C_4  and  C_6 
ROOT
ATOM      1  C   UNL d   1      -1.604  -1.933  -0.630  0.00  0.00     0.032 A 
ATOM      2  C   UNL d   1      -2.345  -4.272  -0.524  0.00  0.00     0.050 A 
ATOM      3  C   UNL d   1      -3.596  -2.677  -1.869  0.00  0.00     0.050 A 
ATOM      4  C   UNL d   1      -1.452  -3.246  -0.166  0.00  0.00     0.045 A 
ATOM      5  C   UNL d   1      -2.693  -1.677  -1.476  0.00  0.00     0.045 A 
ATOM      6  C   UNL d   1      -3.414  -3.977  -1.382  0.00  0.00     0.032 A 
ENDROOT
BRANCH   1   7
ATOM      7  N   UNL d   1      -0.711  -0.934  -0.327  0.00  0.00    -0.372 N 
ATOM      8  C   UNL d   1       0.719  -1.118  -0.031  0.00  0.00     0.081 C 
ATOM      9  C   UNL d   1       1.253   0.320   0.155  0.00  0.00     0.027 C 
ATOM     10  C   UNL d   1       1.458  -1.835  -1.156  0.00  0.00     0.032 C 
ATOM     11  C   UNL d   1       0.086   1.242  -0.190  0.00  0.00     0.027 C 
ATOM     12  C   UNL d   1      -1.155   0.399   0.093  0.00  0.00     0.081 C 
ATOM     13  C   UNL d   1      -1.528   0.401   1.579  0.00  0.00     0.032 C 
ENDBRANCH   1   7
BRANCH   2  14
ATOM     14  C   UNL d   1      -2.167  -5.676  -0.003  0.00  0.00     0.417 C 
ATOM     15  F   UNL d   1      -1.103  -5.820   0.836  0.00  0.00    -0.166 F 
ATOM     16  F   UNL d   1      -3.252  -6.112   0.695  0.00  0.00    -0.166 F 
ATOM     17  F   UNL d   1      -1.978  -6.580  -1.003  0.00  0.00    -0.166 F 
ENDBRANCH   2  14
BRANCH   3  18
ATOM     18  C   UNL d   1      -4.723  -2.367  -2.824  0.00  0.00     0.417 C 
ATOM     19  F   UNL d   1      -4.792  -1.058  -3.192  0.00  0.00    -0.166 F 
ATOM     20  F   UNL d   1      -4.628  -3.077  -3.983  0.00  0.00    -0.166 F 
ATOM     21  F   UNL d   1      -5.942  -2.672  -2.302  0.00  0.00    -0.166 F 
ENDBRANCH   3  18
TORSDOF 3
