REMARK  4 active torsions:
REMARK  status: ('A' for Active; 'I' for Inactive)
REMARK    1  A    between atoms: C_8  and  N_3 
REMARK    2  A    between atoms: C_9  and  C_8 
REMARK       I    between atoms: N_12  and  C_9 
REMARK       I    between atoms: C_11  and  N_13 
REMARK    3  A    between atoms: C_14  and  C_11 
REMARK    4  A    between atoms: N_13  and  N_12 
ROOT
ATOM      1  C   UNL d   1       2.018  -1.222   0.184  0.00  0.00     0.215 C 
ATOM      2  C   UNL d   1       1.822  -2.670  -0.289  0.00  0.00     0.046 C 
ENDROOT
BRANCH   1   3
ATOM      3  N   UNL d   1       0.757  -0.519   0.337  0.00  0.00    -0.189 N 
ATOM      4  N   UNL d   1       0.727   0.827   0.374  0.00  0.00    -0.115 N 
ATOM      5  C   UNL d   1      -0.519   1.033   0.823  0.00  0.00     0.709 A 
ATOM      6  HN  UNL d   1       1.451   1.501   0.128  1.00  0.00     0.207 HD
ATOM      7  N   UNL d   1      -1.208  -0.142   0.997  0.00  0.00    -0.113 N 
ATOM      8  N   UNL d   1      -1.048   2.220   1.161  0.00  0.00    -0.211 N 
ATOM      9  N   UNL d   1      -0.384  -1.130   0.687  0.00  0.00     0.012 NA
ATOM     10  HN  UNL d   1      -2.175  -0.235   1.307  1.00  0.00     0.203 HD
ATOM     11  C   UNL d   1      -2.380   2.348   1.749  0.00  0.00     0.167 C 
ATOM     12  C   UNL d   1      -0.361   3.487   0.910  0.00  0.00     0.167 C 
ATOM     13  C   UNL d   1      -2.305   3.251   2.990  0.00  0.00     0.188 C 
ATOM     14  O   UNL d   1      -1.715   4.526   2.680  0.00  0.00    -0.388 OA
ATOM     15  C   UNL d   1      -0.376   4.348   2.182  0.00  0.00     0.188 C 
ENDBRANCH   1   3
BRANCH   1  16
ATOM     16  C   UNL d   1       2.866  -1.104   1.458  0.00  0.00     0.262 C 
ATOM     17  N   UNL d   1       2.897   0.143   2.067  0.00  0.00    -0.265 N 
ATOM     18  H   UNL d   1       2.182   0.858   1.877  0.00  0.00     0.190 HD
ATOM     19  O   UNL d   1       3.592  -2.021   1.855  0.00  0.00    -0.269 OA
BRANCH  17  20
ATOM     20  N   UNL d   1       3.643   0.333   3.254  0.00  0.00    -0.263 N 
ATOM     21  C   UNL d   1       3.524   1.548   3.913  0.00  0.00     0.270 C 
ATOM     22  O   UNL d   1       2.800   2.453   3.511  0.00  0.00    -0.266 OA
ATOM     23  H   UNL d   1       4.455  -0.272   3.376  0.00  0.00     0.190 HD
BRANCH  21  24
ATOM     24  C   UNL d   1       4.330   1.732   5.161  0.00  0.00     0.033 A 
ATOM     25  C   UNL d   1       4.775   3.022   5.491  0.00  0.00     0.019 A 
ATOM     26  C   UNL d   1       5.447   3.256   6.701  0.00  0.00     0.025 A 
ATOM     27  C   UNL d   1       5.654   2.201   7.584  0.00  0.00     0.034 A 
ATOM     28  C   UNL d   1       5.219   0.916   7.271  0.00  0.00     0.025 A 
ATOM     29 CL   UNL d   1       6.435   2.498   9.092  0.00  0.00    -0.084 Cl
ATOM     30  C   UNL d   1       4.559   0.676   6.053  0.00  0.00     0.019 A 
ENDBRANCH  21  24
ENDBRANCH  17  20
ENDBRANCH   1  16
TORSDOF 4
