REMARK  6 active torsions:
REMARK  status: ('A' for Active; 'I' for Inactive)
REMARK    1  A    between atoms: N_5  and  C_1 
REMARK    2  A    between atoms: C_10  and  C_4 
REMARK       I    between atoms: C_8  and  N_5 
REMARK    3  A    between atoms: C_12  and  C_8 
REMARK    4  A    between atoms: C_9  and  C_11 
REMARK    5  A    between atoms: C_26  and  C_23 
REMARK    6  A    between atoms: C_28  and  C_26 
ROOT
ATOM      1  C   UNL d   1      -1.556   0.279  -0.162  0.00  0.00     0.152 A 
ATOM      2  N   UNL d   1      -1.382  -1.010  -0.276  0.00  0.00    -0.335 N 
ATOM      3  HN  UNL d   1      -2.131  -1.687  -0.422  1.00  0.00     0.168 HD
ATOM      4  C   UNL d   1      -0.033  -1.328  -0.168  0.00  0.00     0.057 A 
ATOM      5  S   UNL d   1      -0.147   1.209   0.049  0.00  0.00    -0.057 SA
ATOM      6  C   UNL d   1       0.808  -0.225  -0.073  0.00  0.00     0.010 A 
ATOM      7  C   UNL d   1       2.295  -0.115  -0.051  0.00  0.00     0.059 C 
ENDROOT
BRANCH   1   8
ATOM      8  N   UNL d   1      -2.721   1.001  -0.149  0.00  0.00    -0.303 N 
ATOM      9  C   UNL d   1      -3.914   0.435  -0.540  0.00  0.00     0.257 C 
ATOM     10  O   UNL d   1      -4.062  -0.657  -1.077  0.00  0.00    -0.267 OA
ATOM     11  H   UNL d   1      -2.650   1.981   0.069  0.00  0.00     0.171 HD
BRANCH   9  12
ATOM     12  C   UNL d   1      -5.132   1.268  -0.336  0.00  0.00     0.032 A 
ATOM     13  C   UNL d   1      -6.188   1.117  -1.245  0.00  0.00     0.018 A 
ATOM     14  C   UNL d   1      -7.405   1.772  -1.038  0.00  0.00     0.017 A 
ATOM     15  C   UNL d   1      -7.591   2.581   0.091  0.00  0.00     0.048 A 
ATOM     16  C   UNL d   1      -6.519   2.751   0.987  0.00  0.00     0.017 A 
ATOM     17  C   UNL d   1      -5.296   2.100   0.778  0.00  0.00     0.018 A 
BRANCH  15  18
ATOM     18  C   UNL d   1      -8.930   3.226   0.369  0.00  0.00     0.417 C 
ATOM     19  F   UNL d   1      -9.870   2.966  -0.582  0.00  0.00    -0.166 F 
ATOM     20  F   UNL d   1      -9.469   2.808   1.548  0.00  0.00    -0.166 F 
ATOM     21  F   UNL d   1      -8.849   4.582   0.455  0.00  0.00    -0.166 F 
ENDBRANCH  15  18
ENDBRANCH   9  12
ENDBRANCH   1   8
BRANCH   4  22
ATOM     22  C   UNL d   1       0.381  -2.734  -0.167  0.00  0.00    -0.008 A 
ATOM     23  C   UNL d   1      -0.393  -3.691  -0.840  0.00  0.00     0.014 A 
ATOM     24  C   UNL d   1      -0.048  -5.050  -0.808  0.00  0.00     0.008 A 
ATOM     25  C   UNL d   1       1.080  -5.485  -0.101  0.00  0.00    -0.058 A 
ATOM     26  C   UNL d   1       1.856  -4.532   0.565  0.00  0.00     0.008 A 
ATOM     27  C   UNL d   1       1.497  -3.181   0.551  0.00  0.00     0.014 A 
BRANCH  25  28
ATOM     28  C   UNL d   1       1.458  -6.949  -0.065  0.00  0.00     0.042 C 
BRANCH  28  29
ATOM     29  C   UNL d   1       1.585  -7.548   1.352  0.00  0.00    -0.019 C 
ATOM     30  C   UNL d   1       0.257  -7.525   2.112  0.00  0.00     0.010 C 
ATOM     31  C   UNL d   1       2.104  -8.986   1.266  0.00  0.00     0.010 C 
ENDBRANCH  28  29
ENDBRANCH  25  28
ENDBRANCH   4  22
TORSDOF 6
