REMARK  3 active torsions:
REMARK  status: ('A' for Active; 'I' for Inactive)
REMARK    1  A    between atoms: N_2  and  C_5 
REMARK    2  A    between atoms: N_7  and  N_2 
REMARK    3  A    between atoms: C_4  and  N_7 
ROOT
ATOM      1  C   UNL d   1      -0.014   0.715   0.038  0.00  0.00     0.008 A 
ATOM      2  C   UNL d   1      -1.322   1.456   0.062  0.00  0.00     0.038 C 
ATOM      3  C   UNL d   1       0.051  -0.686  -0.056  0.00  0.00     0.013 A 
ATOM      4  S   UNL d   1      -1.367  -1.767  -0.127  0.00  0.00    -0.129 SA
ATOM      5  C   UNL d   1       1.174   1.461   0.104  0.00  0.00     0.057 A 
ATOM      6  C   UNL d   1       1.308  -1.314  -0.099  0.00  0.00     0.022 A 
ATOM      7  C   UNL d   1       2.404   0.816   0.068  0.00  0.00     0.117 A 
ATOM      8  C   UNL d   1      -2.558   0.676  -0.354  0.00  0.00     0.070 C 
ATOM      9  C   UNL d   1      -2.651  -0.620   0.423  0.00  0.00     0.085 C 
ATOM     10  C   UNL d   1       2.483  -0.565  -0.035  0.00  0.00     0.043 A 
ATOM     11  F   UNL d   1       3.530   1.538   0.128  0.00  0.00    -0.206 F 
ENDROOT
BRANCH   2  12
ATOM     12  N   UNL d   1      -1.303   2.710   0.416  0.00  0.00    -0.302 N 
ATOM     13  HN  UNL d   1      -0.420   3.148   0.679  1.00  0.00     0.186 HD
BRANCH  12  14
ATOM     14  N   UNL d   1      -2.452   3.441   0.436  0.00  0.00    -0.276 N 
ATOM     15  H   UNL d   1      -3.340   3.060   0.139  0.00  0.00     0.189 HD
BRANCH  14  16
ATOM     16  C   UNL d   1      -2.457   4.746   0.843  0.00  0.00     0.184 C 
ATOM     17  S   UNL d   1      -3.848   5.649   0.883  0.00  0.00    -0.040 SA
ATOM     18  N   UNL d   1      -1.261   5.255   1.212  0.00  0.00    -0.375 N 
ATOM     19  H   UNL d   1      -0.454   4.649   1.136  0.00  0.00     0.158 HD
ATOM     20  H   UNL d   1      -1.161   6.216   1.507  0.00  0.00     0.158 HD
ENDBRANCH  14  16
ENDBRANCH  12  14
ENDBRANCH   2  12
TORSDOF 3
