REMARK  4 active torsions:
REMARK  status: ('A' for Active; 'I' for Inactive)
REMARK    1  A    between atoms: C_7  and  C_1 
REMARK    2  A    between atoms: N_8  and  C_2 
REMARK    3  A    between atoms: C_9  and  C_3 
REMARK       I    between atoms: C_10  and  N_8 
REMARK    4  A    between atoms: O_21  and  C_18 
ROOT
ATOM      1  C   UNL d   1       1.310   0.716  -0.248  0.00  0.00     0.147 A 
ATOM      2  C   UNL d   1       0.106  -1.164  -0.118  0.00  0.00     0.138 A 
ATOM      3  C   UNL d   1       1.415  -0.711  -0.138  0.00  0.00     0.053 A 
ATOM      4  N   UNL d   1       0.019   1.098  -0.257  0.00  0.00    -0.292 N 
ATOM      5  HN  UNL d   1      -0.344   2.050  -0.302  1.00  0.00     0.187 HD
ATOM      6  N   UNL d   1      -0.689  -0.042  -0.193  0.00  0.00    -0.280 N 
ATOM      7  C   UNL d   1      -2.122   0.078  -0.050  0.00  0.00     0.179 C 
ENDROOT
BRANCH   3   8
ATOM      8  C   UNL d   1       2.600  -1.566  -0.163  0.00  0.00    -0.020 A 
ATOM      9  C   UNL d   1       2.648  -2.700  -0.990  0.00  0.00     0.015 A 
ATOM     10  C   UNL d   1       3.796  -3.501  -1.057  0.00  0.00     0.037 A 
ATOM     11  C   UNL d   1       4.929  -3.154  -0.328  0.00  0.00     0.068 A 
ATOM     12  C   UNL d   1       4.898  -2.016   0.478  0.00  0.00     0.037 A 
ATOM     13  C   UNL d   1       3.736  -1.240   0.583  0.00  0.00     0.015 A 
BRANCH  11  14
ATOM     14  O   UNL d   1       6.128  -3.807  -0.364  0.00  0.00    -0.356 OA
ATOM     15  C   UNL d   1       6.098  -5.177  -0.745  0.00  0.00     0.210 C 
ENDBRANCH  11  14
ENDBRANCH   3   8
BRANCH   2  16
ATOM     16  N   UNL d   1      -0.245  -2.510  -0.005  0.00  0.00    -0.311 N 
ATOM     17  C   UNL d   1      -1.398  -3.086  -0.628  0.00  0.00     0.219 C 
ATOM     18  O   UNL d   1      -2.138  -2.406  -1.320  0.00  0.00    -0.274 OA
ATOM     19  C   UNL d   1      -1.529  -4.574  -0.468  0.00  0.00     0.117 C 
ATOM     20  H   UNL d   1       0.439  -3.125   0.426  0.00  0.00     0.170 HD
ENDBRANCH   2  16
BRANCH   1  21
ATOM     21  C   UNL d   1       2.423   1.734  -0.340  0.00  0.00     0.434 C 
ATOM     22  F   UNL d   1       3.546   1.230  -0.913  0.00  0.00    -0.165 F 
ATOM     23  F   UNL d   1       2.082   2.827  -1.072  0.00  0.00    -0.165 F 
ATOM     24  F   UNL d   1       2.785   2.179   0.894  0.00  0.00    -0.165 F 
ENDBRANCH   1  21
TORSDOF 4
