REMARK  5 active torsions:
REMARK  status: ('A' for Active; 'I' for Inactive)
REMARK    1  A    between atoms: C_16  and  C_3 
REMARK    2  A    between atoms: C_4  and  O_11 
REMARK    3  A    between atoms: C_7  and  C_4 
REMARK    4  A    between atoms: O_11  and  C_17 
REMARK    5  A    between atoms: C_17  and  C_16 
ROOT
ATOM      1  C   UNL d   1      -0.337  -3.969  -0.011  0.00  0.00     0.183 C 
ENDROOT
BRANCH   1   2
ATOM      2  O   UNL d   1      -0.291  -5.407  -0.125  0.00  0.00    -0.317 OA
BRANCH   2   3
ATOM      3  C   UNL d   1      -0.082  -6.064   1.042  0.00  0.00     0.293 C 
ATOM      4  O   UNL d   1       0.136  -5.532   2.118  0.00  0.00    -0.259 OA
BRANCH   3   5
ATOM      5  C   UNL d   1      -0.162  -7.542   0.885  0.00  0.00     0.039 A 
ATOM      6  C   UNL d   1      -0.017  -8.323   2.045  0.00  0.00     0.019 A 
ATOM      7  C   UNL d   1      -0.105  -9.715   1.986  0.00  0.00     0.025 A 
ATOM      8  C   UNL d   1      -0.340 -10.338   0.763  0.00  0.00     0.034 A 
ATOM      9  C   UNL d   1      -0.477  -9.579  -0.400  0.00  0.00     0.025 A 
ATOM     10 CL   UNL d   1      -0.466 -12.052   0.694  0.00  0.00    -0.084 Cl
ATOM     11  C   UNL d   1      -0.385  -8.180  -0.343  0.00  0.00     0.019 A 
ENDBRANCH   3   5
ENDBRANCH   2   3
ENDBRANCH   1   2
BRANCH   1  12
ATOM     12  C   UNL d   1       1.051  -3.323   0.062  0.00  0.00     0.067 C 
BRANCH  12  13
ATOM     13  C   UNL d   1       1.842  -3.475  -1.211  0.00  0.00    -0.038 A 
ATOM     14  C   UNL d   1       1.753  -2.594  -2.272  0.00  0.00     0.058 A 
ATOM     15  S   UNL d   1       2.760  -3.018  -3.575  0.00  0.00    -0.101 SA
ATOM     16  C   UNL d   1       3.369  -4.398  -2.749  0.00  0.00     0.015 A 
ATOM     17  C   UNL d   1       2.795  -4.534  -1.481  0.00  0.00    -0.012 A 
ATOM     18  C   UNL d   1       4.330  -5.311  -3.232  0.00  0.00     0.019 A 
ATOM     19  C   UNL d   1       3.216  -5.632  -0.687  0.00  0.00     0.013 A 
ATOM     20  C   UNL d   1       4.167  -6.541  -1.162  0.00  0.00     0.001 A 
ATOM     21  C   UNL d   1       4.719  -6.378  -2.424  0.00  0.00     0.001 A 
ENDBRANCH  12  13
ENDBRANCH   1  12
TORSDOF 5
