REMARK  4 active torsions:
REMARK  status: ('A' for Active; 'I' for Inactive)
REMARK    1  A    between atoms: O_2  and  S_1 
REMARK    2  A    between atoms: C_6  and  S_1 
REMARK    3  A    between atoms: C_12  and  O_2 
REMARK    4  A    between atoms: C_3  and  C_9 
ROOT
ATOM      1  C   UNL d   1       1.673   0.377  -5.261  0.00  0.00    -0.035 A 
ATOM      2  C   UNL d   1       2.642   0.437  -4.245  0.00  0.00     0.012 A 
ATOM      3  C   UNL d   1       0.379  -0.043  -4.914  0.00  0.00     0.012 A 
ATOM      4  C   UNL d   1       1.071  -0.425  -2.623  0.00  0.00     0.089 A 
ATOM      5  C   UNL d   1       0.080  -0.436  -3.605  0.00  0.00     0.039 A 
ATOM      6  C   UNL d   1       2.341   0.052  -2.936  0.00  0.00     0.039 A 
ENDROOT
BRANCH   4   7
ATOM      7  O   UNL d   1       0.704  -0.906  -1.391  0.00  0.00    -0.229 OA
BRANCH   7   8
ATOM      8  S   UNL d   1       1.816  -1.473  -0.335  0.00  0.00     0.303 S 
ATOM      9  O   UNL d   1       2.296  -0.372   0.477  0.00  0.00    -0.193 OA
ATOM     10  O   UNL d   1       2.749  -2.339  -1.037  0.00  0.00    -0.193 OA
BRANCH   8  11
ATOM     11  C   UNL d   1       0.864  -2.520   0.744  0.00  0.00     0.086 A 
ATOM     12  C   UNL d   1       1.150  -3.887   0.819  0.00  0.00     0.026 A 
ATOM     13  C   UNL d   1       0.410  -4.696   1.680  0.00  0.00     0.002 A 
ATOM     14  C   UNL d   1      -0.605  -4.139   2.459  0.00  0.00     0.000 A 
ATOM     15  C   UNL d   1      -0.884  -2.772   2.383  0.00  0.00     0.002 A 
ATOM     16  C   UNL d   1      -0.148  -1.954   1.525  0.00  0.00     0.026 A 
ENDBRANCH   8  11
ENDBRANCH   7   8
ENDBRANCH   4   7
BRANCH   1  17
ATOM     17  C   UNL d   1       1.999   0.731  -6.700  0.00  0.00     0.141 C 
ATOM     18  S   UNL d   1       3.285  -0.366  -7.396  0.00  0.00    -0.148 SA
ATOM     19  C   UNL d   1       4.275   0.928  -8.184  0.00  0.00     0.085 C 
ATOM     20  C   UNL d   1       4.227   2.159  -7.302  0.00  0.00     0.085 C 
ATOM     21  S   UNL d   1       2.492   2.475  -6.896  0.00  0.00    -0.148 SA
ENDBRANCH   1  17
TORSDOF 4
