REMARK  3 active torsions:
REMARK  status: ('A' for Active; 'I' for Inactive)
REMARK    1  A    between atoms: N_15  and  C_3 
REMARK    2  A    between atoms: C_13  and  C_5 
REMARK    3  A    between atoms: S_19  and  C_18 
ROOT
ATOM      1  C   UNL d   1       2.226   0.123  -0.160  0.00  0.00     0.080 C 
ATOM      2  C   UNL d   1      -0.225   0.549  -0.115  0.00  0.00     0.031 C 
ATOM      3  C   UNL d   1       1.956  -1.171   0.126  0.00  0.00     0.138 C 
ATOM      4  C   UNL d   1      -0.410  -0.762   0.102  0.00  0.00     0.066 C 
ATOM      5  C   UNL d   1       1.113   1.077  -0.561  0.00  0.00     0.105 C 
ATOM      6  O   UNL d   1       0.650  -1.658   0.057  0.00  0.00    -0.301 OA
ATOM      7  C   UNL d   1      -1.344   1.496   0.129  0.00  0.00     0.159 C 
ATOM      8  C   UNL d   1       3.546   0.646  -0.062  0.00  0.00     0.100 C 
ATOM      9  N   UNL d   1       4.625   1.069   0.021  0.00  0.00    -0.191 NA
ATOM     10  C   UNL d   1      -1.745  -1.393   0.368  0.00  0.00     0.075 C 
ATOM     11  C   UNL d   1      -2.932  -0.475  -0.004  0.00  0.00    -0.035 C 
ATOM     12  C   UNL d   1      -2.680   0.928   0.577  0.00  0.00     0.092 C 
ATOM     13  O   UNL d   1      -1.155   2.708   0.058  0.00  0.00    -0.293 OA
ATOM     14  C   UNL d   1      -4.221  -1.067   0.593  0.00  0.00     0.015 C 
ATOM     15  C   UNL d   1      -3.116  -0.382  -1.535  0.00  0.00     0.015 C 
ENDROOT
BRANCH   3  16
ATOM     16  N   UNL d   1       2.871  -2.130   0.485  0.00  0.00    -0.282 NA
ATOM     17  H   UNL d   1       3.831  -1.953   0.197  0.00  0.00     0.126 HD
ATOM     18  H   UNL d   1       2.552  -3.069   0.263  0.00  0.00     0.126 HD
ENDBRANCH   3  16
BRANCH   5  19
ATOM     19  C   UNL d   1       1.121   1.316  -2.078  0.00  0.00    -0.044 A 
ATOM     20  C   UNL d   1       1.332   2.599  -2.598  0.00  0.00     0.009 A 
ATOM     21  C   UNL d   1       1.359   2.816  -3.983  0.00  0.00     0.019 A 
ATOM     22  C   UNL d   1       1.163   1.760  -4.879  0.00  0.00    -0.000 A 
ATOM     23  C   UNL d   1       0.951   0.479  -4.364  0.00  0.00     0.019 A 
ATOM     24  C   UNL d   1       0.928   0.258  -2.985  0.00  0.00     0.009 A 
BRANCH  22  25
ATOM     25  S   UNL d   1       1.230   1.925  -6.657  0.00  0.00    -0.134 SA
ATOM     26  C   UNL d   1       0.607   3.605  -6.915  0.00  0.00     0.095 C 
ENDBRANCH  22  25
ENDBRANCH   5  19
TORSDOF 3
