REMARK  8 active torsions:
REMARK  status: ('A' for Active; 'I' for Inactive)
REMARK    1  A    between atoms: N_2  and  C_1 
REMARK    2  A    between atoms: C_3  and  C_1 
REMARK    3  A    between atoms: C_5  and  C_1 
REMARK    4  A    between atoms: N_6  and  C_1 
REMARK       I    between atoms: C_4  and  N_2 
REMARK    5  A    between atoms: C_9  and  C_4 
REMARK    6  A    between atoms: O_15  and  C_5 
REMARK    7  A    between atoms: C_8  and  N_6 
REMARK    8  A    between atoms: C_22  and  O_15 
ROOT
ATOM      1  C   UNL d   1       0.920   0.160  -0.131  0.00  0.00     0.297 C 
ENDROOT
BRANCH   1   2
ATOM      2  N   UNL d   1       0.676   0.613   1.244  0.00  0.00    -0.315 N 
ATOM      3  C   UNL d   1       0.357   1.886   1.642  0.00  0.00     0.254 C 
ATOM      4  O   UNL d   1       0.226   2.810   0.854  0.00  0.00    -0.268 OA
ATOM      5  H   UNL d   1       0.910  -0.061   1.943  0.00  0.00     0.166 HD
BRANCH   3   6
ATOM      6  C   UNL d   1       0.166   2.095   3.126  0.00  0.00     0.032 A 
ATOM      7  C   UNL d   1       0.325   1.077   4.081  0.00  0.00     0.017 A 
ATOM      8  C   UNL d   1       0.134   1.333   5.445  0.00  0.00     0.001 A 
ATOM      9  C   UNL d   1      -0.221   2.610   5.871  0.00  0.00     0.000 A 
ATOM     10  C   UNL d   1      -0.405   3.624   4.934  0.00  0.00     0.001 A 
ATOM     11  C   UNL d   1      -0.214   3.373   3.572  0.00  0.00     0.017 A 
ENDBRANCH   3   6
ENDBRANCH   1   2
BRANCH   1  12
ATOM     12  C   UNL d   1       0.019   0.753  -1.282  0.00  0.00     0.442 C 
ATOM     13  F   UNL d   1      -1.088   1.396  -0.853  0.00  0.00    -0.166 F 
ATOM     14  F   UNL d   1       0.732   1.617  -2.058  0.00  0.00    -0.166 F 
ATOM     15  F   UNL d   1      -0.428  -0.204  -2.143  0.00  0.00    -0.166 F 
ENDBRANCH   1  12
BRANCH   1  16
ATOM     16  C   UNL d   1       0.525  -1.342  -0.163  0.00  0.00     0.318 C 
ATOM     17  O   UNL d   1      -0.286  -1.849   0.610  0.00  0.00    -0.260 OA
BRANCH  16  18
ATOM     18  O   UNL d   1       1.204  -2.041  -1.121  0.00  0.00    -0.318 OA
BRANCH  18  19
ATOM     19  C   UNL d   1       0.892  -3.438  -1.224  0.00  0.00     0.174 C 
ATOM     20  C   UNL d   1       1.592  -4.249  -0.146  0.00  0.00     0.034 C 
ENDBRANCH  18  19
ENDBRANCH  16  18
ENDBRANCH   1  16
BRANCH   1  21
ATOM     21  N   UNL d   1       2.382   0.379  -0.353  0.00  0.00    -0.348 N 
ATOM     22  H   UNL d   1       2.564   0.755  -1.284  0.00  0.00     0.163 HD
BRANCH  21  23
ATOM     23  C   UNL d   1       3.435  -0.363   0.160  0.00  0.00     0.030 A 
ATOM     24  C   UNL d   1       3.330  -1.243   1.243  0.00  0.00     0.036 A 
ATOM     25  C   UNL d   1       4.433  -1.955   1.740  0.00  0.00    -0.060 A 
ATOM     26  C   UNL d   1       4.258  -2.912   2.883  0.00  0.00     0.048 C 
ATOM     27  C   UNL d   1       5.690  -1.746   1.176  0.00  0.00     0.007 A 
ATOM     28  C   UNL d   1       5.834  -0.842   0.128  0.00  0.00     0.003 A 
ATOM     29  C   UNL d   1       4.719  -0.155  -0.364  0.00  0.00     0.029 A 
ENDBRANCH  21  23
ENDBRANCH   1  21
TORSDOF 8
