REMARK  6 active torsions:
REMARK  status: ('A' for Active; 'I' for Inactive)
REMARK    1  A    between atoms: C_15  and  C_1 
REMARK    2  A    between atoms: N_10  and  C_2 
REMARK    3  A    between atoms: N_11  and  C_3 
REMARK       I    between atoms: C_13  and  N_10 
REMARK       I    between atoms: C_14  and  N_11 
REMARK    4  A    between atoms: C_12  and  C_16 
REMARK    5  A    between atoms: C_23  and  C_13 
REMARK    6  A    between atoms: C_22  and  C_14 
ROOT
ATOM      1  C   UNL d   1       0.698  -1.015   0.143  0.00  0.00     0.147 A 
ATOM      2  C   UNL d   1      -1.333  -0.094   0.291  0.00  0.00     0.701 A 
ATOM      3  C   UNL d   1       0.476   1.220   0.156  0.00  0.00     0.701 A 
ATOM      4  N   UNL d   1      -0.608  -1.204   0.275  0.00  0.00    -0.174 N 
ATOM      5  HN  UNL d   1      -1.023  -2.132   0.359  1.00  0.00     0.186 HD
ATOM      6  N   UNL d   1       1.281   0.174   0.097  0.00  0.00    -0.174 N 
ATOM      7  HN  UNL d   1       2.293   0.276   0.020  1.00  0.00     0.186 HD
ATOM      8  N   UNL d   1      -0.839   1.135   0.265  0.00  0.00    -0.022 N 
ATOM      9  HN  UNL d   1      -1.434   1.961   0.324  1.00  0.00     0.203 HD
ENDROOT
BRANCH   1  10
ATOM     10  C   UNL d   1       1.575  -2.193   0.038  0.00  0.00     0.024 A 
ATOM     11  C   UNL d   1       1.230  -3.390  -0.633  0.00  0.00     0.061 A 
ATOM     12  C   UNL d   1       2.152  -4.466  -0.638  0.00  0.00     0.017 A 
ATOM     13  C   UNL d   1       3.403  -4.366  -0.037  0.00  0.00     0.001 A 
ATOM     14  C   UNL d   1       3.765  -3.186   0.591  0.00  0.00     0.001 A 
ATOM     15  C   UNL d   1       2.864  -2.120   0.628  0.00  0.00     0.016 A 
BRANCH  11  16
ATOM     16  C   UNL d   1      -0.062  -3.641  -1.384  0.00  0.00     0.418 C 
ATOM     17  F   UNL d   1      -0.838  -2.566  -1.685  0.00  0.00    -0.166 F 
ATOM     18  F   UNL d   1       0.176  -4.224  -2.599  0.00  0.00    -0.166 F 
ATOM     19  F   UNL d   1      -0.874  -4.516  -0.724  0.00  0.00    -0.166 F 
ENDBRANCH  11  16
ENDBRANCH   1  10
BRANCH   2  20
ATOM     20  N   UNL d   1      -2.706  -0.318   0.227  0.00  0.00    -0.159 N 
ATOM     21  C   UNL d   1      -3.665   0.649   0.325  0.00  0.00     0.239 C 
ATOM     22  O   UNL d   1      -3.446   1.832   0.586  0.00  0.00    -0.272 OA
ATOM     23  H   UNL d   1      -2.942  -1.285   0.073  0.00  0.00     0.187 HD
BRANCH  21  24
ATOM     24  C   UNL d   1      -5.090   0.163   0.025  0.00  0.00     0.070 C 
ATOM     25  C   UNL d   1      -5.490  -1.056   0.858  0.00  0.00     0.019 C 
ATOM     26  C   UNL d   1      -6.084   1.300   0.268  0.00  0.00     0.019 C 
ENDBRANCH  21  24
ENDBRANCH   2  20
BRANCH   3  27
ATOM     27  N   UNL d   1       0.978   2.515   0.081  0.00  0.00    -0.159 N 
ATOM     28  C   UNL d   1       2.286   2.832  -0.200  0.00  0.00     0.239 C 
ATOM     29  O   UNL d   1       3.173   2.019  -0.460  0.00  0.00    -0.272 OA
ATOM     30  H   UNL d   1       0.270   3.229   0.160  0.00  0.00     0.187 HD
BRANCH  28  31
ATOM     31  C   UNL d   1       2.571   4.335  -0.194  0.00  0.00     0.070 C 
ATOM     32  C   UNL d   1       2.357   4.930   1.197  0.00  0.00     0.019 C 
ATOM     33  C   UNL d   1       4.004   4.602  -0.660  0.00  0.00     0.019 C 
ENDBRANCH  28  31
ENDBRANCH   3  27
TORSDOF 6
