REMARK  6 active torsions:
REMARK  status: ('A' for Active; 'I' for Inactive)
REMARK    1  A    between atoms: S_10  and  C_3 
REMARK    2  A    between atoms: C_4  and  C_8 
REMARK    3  A    between atoms: O_14  and  C_5 
REMARK    4  A    between atoms: C_8  and  S_10 
REMARK    5  A    between atoms: C_20  and  C_11 
REMARK    6  A    between atoms: C_21  and  C_20 
ROOT
ATOM      1  N   UNL d   1      -0.353  -1.172   0.073  0.00  0.00    -0.318 N 
ATOM      2  HN  UNL d   1      -0.895  -2.036   0.092  1.00  0.00     0.170 HD
ATOM      3  C   UNL d   1       0.985  -1.157   0.180  0.00  0.00     0.146 A 
ATOM      4  C   UNL d   1      -0.919   0.029  -0.059  0.00  0.00     0.143 A 
ATOM      5  N   UNL d   1       1.744  -0.043   0.158  0.00  0.00    -0.340 N 
ATOM      6  HN  UNL d   1       2.759  -0.093   0.247  1.00  0.00     0.167 HD
ATOM      7  C   UNL d   1      -0.260   1.226  -0.097  0.00  0.00     0.081 A 
ATOM      8  C   UNL d   1       1.110   1.143   0.014  0.00  0.00     0.015 A 
ENDROOT
BRANCH   3   9
ATOM      9  S   UNL d   1       1.833  -2.700   0.436  0.00  0.00    -0.089 SA
BRANCH   9  10
ATOM     10  C   UNL d   1       0.595  -3.857  -0.230  0.00  0.00     0.124 C 
BRANCH  10  11
ATOM     11  C   UNL d   1       1.033  -5.302  -0.100  0.00  0.00    -0.005 A 
ATOM     12  C   UNL d   1       0.677  -6.080   1.021  0.00  0.00     0.042 A 
ATOM     13 CL   UNL d   1      -0.284  -5.448   2.316  0.00  0.00    -0.084 Cl
ATOM     14  C   UNL d   1       1.078  -7.419   1.137  0.00  0.00     0.024 A 
ATOM     15  C   UNL d   1       1.851  -8.009   0.143  0.00  0.00     0.003 A 
ATOM     16  C   UNL d   1       2.225  -7.259  -0.968  0.00  0.00     0.024 A 
ATOM     17  C   UNL d   1       1.825  -5.922  -1.087  0.00  0.00     0.042 A 
ATOM     18 CL   UNL d   1       2.341  -5.084  -2.511  0.00  0.00    -0.084 Cl
ENDBRANCH  10  11
ENDBRANCH   9  10
ENDBRANCH   3   9
BRANCH   4  19
ATOM     19  O   UNL d   1      -2.275   0.002  -0.144  0.00  0.00    -0.346 OA
ATOM     20  H   UNL d   1      -2.447  -0.952  -0.053  0.00  0.00     0.219 HD
ENDBRANCH   4  19
BRANCH   8  21
ATOM     21  C   UNL d   1       1.947   2.399   0.019  0.00  0.00     0.057 C 
BRANCH  21  22
ATOM     22  C   UNL d   1       2.913   2.516  -1.163  0.00  0.00     0.002 C 
ATOM     23  C   UNL d   1       2.213   2.607  -2.511  0.00  0.00     0.005 C 
ENDBRANCH  21  22
ENDBRANCH   8  21
TORSDOF 6
