REMARK  1 active torsions:
REMARK  status: ('A' for Active; 'I' for Inactive)
REMARK    1  A    between atoms: C_5  and  C_2 
ROOT
ATOM      1  C   UNL d   1      -3.156  -1.407  -0.113  0.00  0.00    -0.023 A 
ATOM      2  C   UNL d   1      -3.843  -1.182  -1.337  0.00  0.00    -0.016 A 
ATOM      3  C   UNL d   1      -5.248  -0.996  -1.298  0.00  0.00    -0.025 A 
ATOM      4  C   UNL d   1      -3.855  -1.412   1.103  0.00  0.00     0.012 A 
ATOM      5  C   UNL d   1      -5.233  -1.227   1.125  0.00  0.00     0.002 A 
ATOM      6  C   UNL d   1      -3.207  -1.132  -2.599  0.00  0.00     0.013 A 
ATOM      7  C   UNL d   1      -5.924  -1.031  -0.069  0.00  0.00     0.012 A 
ATOM      8  C   UNL d   1      -5.958  -0.777  -2.491  0.00  0.00     0.012 A 
ATOM      9  C   UNL d   1      -3.926  -0.903  -3.775  0.00  0.00     0.001 A 
ATOM     10  C   UNL d   1      -5.302  -0.728  -3.720  0.00  0.00     0.001 A 
ENDROOT
BRANCH   1  11
ATOM     11  C   UNL d   1      -1.716  -1.682  -0.055  0.00  0.00     0.039 C 
ATOM     12  C   UNL d   1      -0.731  -0.777   0.017  0.00  0.00     0.058 C 
ATOM     13  C   UNL d   1      -0.919   0.735   0.030  0.00  0.00     0.174 C 
ATOM     14  N   UNL d   1       0.649  -1.110   0.053  0.00  0.00    -0.280 NA
ATOM     15  C   UNL d   1       0.439   1.433  -0.020  0.00  0.00     0.064 C 
ATOM     16  O   UNL d   1      -1.980   1.330   0.115  0.00  0.00    -0.291 OA
ATOM     17  C   UNL d   1       1.195   0.986   1.245  0.00  0.00     0.027 C 
ATOM     18  C   UNL d   1       1.171   0.902  -1.270  0.00  0.00     0.027 C 
ATOM     19  C   UNL d   1       1.335  -0.552   1.260  0.00  0.00     0.096 C 
ATOM     20  C   UNL d   1       1.380  -0.624  -1.155  0.00  0.00     0.096 C 
ENDBRANCH   1  11
TORSDOF 1
