REMARK  4 active torsions:
REMARK  status: ('A' for Active; 'I' for Inactive)
REMARK    1  A    between atoms: C_5  and  C_1 
REMARK    2  A    between atoms: N_11  and  C_2 
REMARK       I    between atoms: C_10  and  N_11 
REMARK       I    between atoms: N_14  and  C_10 
REMARK    3  A    between atoms: N_20  and  C_12 
REMARK    4  A    between atoms: C_13  and  N_14 
ROOT
ATOM      1  C   UNL d   1       4.748  -3.327  -0.262  0.00  0.00     0.095 C 
ATOM      2  C   UNL d   1       5.942  -3.832   0.317  0.00  0.00     0.083 C 
ATOM      3  C   UNL d   1       6.506  -3.253   1.489  0.00  0.00     0.053 C 
ATOM      4  C   UNL d   1       4.091  -2.229   0.318  0.00  0.00     0.059 C 
ATOM      5  C   UNL d   1       4.276  -3.870  -1.510  0.00  0.00     0.103 C 
ATOM      6  N   UNL d   1       3.932  -4.259  -2.540  0.00  0.00    -0.191 NA
ATOM      7  C   UNL d   1       5.929  -2.035   1.895  0.00  0.00     0.033 C 
ATOM      8  C   UNL d   1       4.756  -1.520   1.318  0.00  0.00     0.033 C 
ATOM      9 CL   UNL d   1       6.766  -5.144  -0.500  0.00  0.00    -0.080 Cl
ENDROOT
BRANCH   4  10
ATOM     10  N   UNL d   1       2.739  -1.838   0.029  0.00  0.00    -0.307 N 
ATOM     11  C   UNL d   1       1.750  -2.801   0.006  0.00  0.00     0.325 C 
ATOM     12  N   UNL d   1       0.454  -2.411   0.130  0.00  0.00    -0.304 N 
ATOM     13  O   UNL d   1       1.963  -4.011   0.056  0.00  0.00    -0.247 OA
ATOM     14  H   UNL d   1      -0.117  -3.202   0.411  0.00  0.00     0.171 HD
ATOM     15  H   UNL d   1       2.433  -0.960   0.426  0.00  0.00     0.170 HD
BRANCH  12  16
ATOM     16  C   UNL d   1      -0.172  -1.180   0.143  0.00  0.00     0.097 C 
ATOM     17  C   UNL d   1      -1.331  -0.826   0.922  0.00  0.00     0.097 C 
ATOM     18  N   UNL d   1      -1.678   0.448   0.678  0.00  0.00    -0.258 N 
ATOM     19  O   UNL d   1      -0.863   0.884  -0.338  0.00  0.00    -0.240 OA
ATOM     20  HN  UNL d   1      -2.403   0.985   1.153  1.00  0.00     0.195 HD
ATOM     21  C   UNL d   1      -0.022  -0.115  -0.718  0.00  0.00     0.101 C 
ATOM     22  C   UNL d   1       0.613   0.102  -2.032  0.00  0.00     0.081 C 
BRANCH  17  23
ATOM     23  C   UNL d   1      -2.141  -1.640   1.837  0.00  0.00     0.038 A 
ATOM     24  C   UNL d   1      -2.451  -1.192   3.138  0.00  0.00     0.048 A 
ATOM     25 CL   UNL d   1      -1.740   0.224   3.843  0.00  0.00    -0.083 Cl
ATOM     26  C   UNL d   1      -3.350  -1.899   3.952  0.00  0.00     0.025 A 
ATOM     27  C   UNL d   1      -3.928  -3.083   3.503  0.00  0.00     0.003 A 
ATOM     28  C   UNL d   1      -3.602  -3.566   2.242  0.00  0.00     0.025 A 
ATOM     29  C   UNL d   1      -2.732  -2.848   1.409  0.00  0.00     0.048 A 
ATOM     30 CL   UNL d   1      -2.490  -3.520  -0.170  0.00  0.00    -0.083 Cl
ENDBRANCH  17  23
ENDBRANCH  12  16
ENDBRANCH   4  10
BRANCH   3  31
ATOM     31  N   UNL d   1       7.564  -3.822   2.204  0.00  0.00    -0.388 N 
ATOM     32  C   UNL d   1       7.534  -5.269   2.466  0.00  0.00     0.149 C 
ATOM     33  C   UNL d   1       8.398  -3.070   3.140  0.00  0.00     0.149 C 
ENDBRANCH   3  31
TORSDOF 4
