REMARK  4 active torsions:
REMARK  status: ('A' for Active; 'I' for Inactive)
REMARK    1  A    between atoms: C_2  and  C_1 
REMARK    2  A    between atoms: C_4  and  C_2 
REMARK    3  A    between atoms: O_16  and  C_3 
REMARK    4  A    between atoms: O_17  and  C_10 
ROOT
ATOM      1  C   UNL d   1       1.407  -0.239   0.104  0.00  0.00     0.051 A 
ATOM      2  C   UNL d   1       0.572  -1.361  -0.023  0.00  0.00     0.082 A 
ATOM      3  C   UNL d   1       0.803   1.041   0.167  0.00  0.00     0.055 A 
ATOM      4  C   UNL d   1      -0.822  -1.152  -0.092  0.00  0.00     0.040 A 
ATOM      5  C   UNL d   1      -0.578   1.228   0.079  0.00  0.00     0.069 A 
ATOM      6  C   UNL d   1      -1.395   0.120  -0.052  0.00  0.00     0.039 A 
ENDROOT
BRANCH   1   7
ATOM      7  C   UNL d   1       2.892  -0.254   0.294  0.00  0.00     0.195 C 
ATOM      8  O   UNL d   1       3.434  -1.111   0.981  0.00  0.00    -0.287 OA
BRANCH   7   9
ATOM      9  C   UNL d   1       3.752   0.864  -0.202  0.00  0.00     0.015 A 
ATOM     10  C   UNL d   1       3.520   1.524  -1.412  0.00  0.00     0.017 A 
ATOM     11  C   UNL d   1       4.293   2.639  -1.757  0.00  0.00     0.025 A 
ATOM     12  C   UNL d   1       5.310   3.075  -0.907  0.00  0.00     0.034 A 
ATOM     13  C   UNL d   1       5.580   2.393   0.278  0.00  0.00     0.025 A 
ATOM     14 CL   UNL d   1       6.223   4.476  -1.308  0.00  0.00    -0.084 Cl
ATOM     15  C   UNL d   1       4.806   1.282   0.626  0.00  0.00     0.017 A 
ENDBRANCH   7   9
ENDBRANCH   1   7
BRANCH   2  16
ATOM     16  O   UNL d   1       0.823  -2.699  -0.111  0.00  0.00    -0.355 OA
ATOM     17  C   UNL d   1       2.130  -3.234  -0.077  0.00  0.00     0.210 C 
ENDBRANCH   2  16
BRANCH   5  18
ATOM     18  O   UNL d   1      -0.983   2.531   0.147  0.00  0.00    -0.356 OA
ATOM     19  C   UNL d   1      -2.385   2.770   0.147  0.00  0.00     0.210 C 
ENDBRANCH   5  18
TORSDOF 4
