REMARK  2 active torsions:
REMARK  status: ('A' for Active; 'I' for Inactive)
REMARK    1  A    between atoms: O_10  and  C_5 
REMARK    2  A    between atoms: O_9  and  C_6 
ROOT
ATOM      1  C   UNL d   1       0.106  -0.336  -0.014  0.00  0.00     0.044 A 
ATOM      2  C   UNL d   1      -0.068   2.423   0.004  0.00  0.00     0.076 A 
ATOM      3  C   UNL d   1      -1.161   0.269   0.003  0.00  0.00     0.045 A 
ATOM      4  C   UNL d   1       1.271   0.434  -0.027  0.00  0.00     0.045 A 
ATOM      5  C   UNL d   1      -1.260   1.665   0.019  0.00  0.00     0.088 A 
ATOM      6  C   UNL d   1       1.198   1.829  -0.024  0.00  0.00     0.088 A 
ATOM      7 BR   UNL d   1      -2.605  -0.969  -0.013  0.00  0.00    -0.048 Br
ATOM      8 BR   UNL d   1       2.937  -0.479  -0.054  0.00  0.00    -0.048 Br
ENDROOT
BRANCH   5   9
ATOM      9  O   UNL d   1      -2.346   2.494   0.043  0.00  0.00    -0.354 OA
ATOM     10  C   UNL d   1      -3.666   1.990   0.110  0.00  0.00     0.210 C 
ENDBRANCH   5   9
BRANCH   6  11
ATOM     11  O   UNL d   1       2.382   2.514  -0.048  0.00  0.00    -0.354 OA
ATOM     12  C   UNL d   1       2.328   3.934  -0.082  0.00  0.00     0.210 C 
ENDBRANCH   6  11
TORSDOF 2
