REMARK  2 active torsions:
REMARK  status: ('A' for Active; 'I' for Inactive)
REMARK    1  A    between atoms: S_2  and  C_1 
REMARK    2  A    between atoms: C_4  and  C_3 
ROOT
ATOM      1  C   UNL d   1       1.034   0.052   0.027  0.00  0.00     0.140 C 
ATOM      2  C   UNL d   1       0.347   1.034  -0.586  0.00  0.00     0.055 C 
ATOM      3  C   UNL d   1       0.444  -0.992   0.781  0.00  0.00     0.111 C 
ATOM      4  N   UNL d   1      -0.063  -1.815   1.422  0.00  0.00    -0.191 NA
ENDROOT
BRANCH   1   5
ATOM      5  S   UNL d   1       2.766   0.064  -0.078  0.00  0.00     0.181 S 
ATOM      6  O   UNL d   1       3.275  -1.291   0.012  0.00  0.00    -0.222 OA
ATOM      7  O   UNL d   1       3.189   0.920  -1.174  0.00  0.00    -0.222 OA
ATOM      8  C   UNL d   1       3.221   0.895   1.424  0.00  0.00     0.168 C 
ENDBRANCH   1   5
BRANCH   2   9
ATOM      9  C   UNL d   1      -1.074   1.102  -0.531  0.00  0.00     0.028 A 
ATOM     10  C   UNL d   1      -1.899   1.692   0.412  0.00  0.00     0.051 A 
ATOM     11  C   UNL d   1      -3.281   1.513   0.124  0.00  0.00     0.032 A 
ATOM     12 CL   UNL d   1      -1.365   2.538   1.804  0.00  0.00    -0.083 Cl
ATOM     13  C   UNL d   1      -3.478   0.807  -1.041  0.00  0.00     0.052 A 
ATOM     14  S   UNL d   1      -2.002   0.386  -1.791  0.00  0.00    -0.100 SA
ENDBRANCH   2   9
TORSDOF 2
