REMARK  6 active torsions:
REMARK  status: ('A' for Active; 'I' for Inactive)
REMARK    1  A    between atoms: C_6  and  N_1 
REMARK    2  A    between atoms: N_15  and  C_4 
REMARK    3  A    between atoms: C_13  and  C_7 
REMARK    4  A    between atoms: C_8  and  C_11 
REMARK    5  A    between atoms: C_10  and  O_14 
REMARK    6  A    between atoms: O_14  and  C_26 
ROOT
ATOM      1  N   UNL d   1       0.889  -0.702  -0.015  0.00  0.00    -0.238 N 
ATOM      2  N   UNL d   1       0.920   0.651   0.037  0.00  0.00    -0.291 N 
ATOM      3  HN  UNL d   1       1.750   1.242   0.084  1.00  0.00     0.187 HD
ATOM      4  C   UNL d   1      -0.433  -1.167  -0.068  0.00  0.00     0.123 A 
ATOM      5  C   UNL d   1      -1.230  -0.049  -0.059  0.00  0.00     0.081 A 
ATOM      6  C   UNL d   1      -0.353   1.058   0.012  0.00  0.00     0.062 A 
ENDROOT
BRANCH   1   7
ATOM      7  C   UNL d   1       2.102  -1.447  -0.097  0.00  0.00     0.081 A 
ATOM      8  C   UNL d   1       2.122  -2.631  -0.863  0.00  0.00     0.049 A 
ATOM      9  C   UNL d   1       3.289  -3.404  -0.991  0.00  0.00     0.050 A 
ATOM     10  C   UNL d   1       4.457  -2.970  -0.354  0.00  0.00     0.018 A 
ATOM     11  C   UNL d   1       4.454  -1.791   0.393  0.00  0.00     0.027 A 
ATOM     12  C   UNL d   1       3.288  -1.023   0.529  0.00  0.00     0.062 A 
ATOM     13 CL   UNL d   1       3.419   0.336   1.590  0.00  0.00    -0.082 Cl
BRANCH   9  14
ATOM     14  C   UNL d   1       3.301  -4.677  -1.805  0.00  0.00     0.417 C 
ATOM     15  F   UNL d   1       2.090  -4.987  -2.343  0.00  0.00    -0.166 F 
ATOM     16  F   UNL d   1       4.174  -4.622  -2.847  0.00  0.00    -0.166 F 
ATOM     17  F   UNL d   1       3.666  -5.759  -1.063  0.00  0.00    -0.166 F 
ENDBRANCH   9  14
ENDBRANCH   1   7
BRANCH   4  18
ATOM     18  N   UNL d   1      -0.823  -2.470  -0.069  0.00  0.00    -0.384 N 
ATOM     19  H   UNL d   1      -0.217  -3.198   0.301  0.00  0.00     0.157 HD
ATOM     20  H   UNL d   1      -1.808  -2.693   0.068  0.00  0.00     0.157 HD
ENDBRANCH   4  18
BRANCH   6  21
ATOM     21  C   UNL d   1      -0.696   2.480   0.058  0.00  0.00    -0.008 A 
ATOM     22  C   UNL d   1       0.189   3.439  -0.458  0.00  0.00     0.016 A 
ATOM     23  C   UNL d   1      -0.123   4.804  -0.423  0.00  0.00     0.038 A 
ATOM     24  C   UNL d   1      -1.308   5.232   0.170  0.00  0.00     0.078 A 
ATOM     25  C   UNL d   1      -2.208   4.280   0.658  0.00  0.00     0.038 A 
ATOM     26  C   UNL d   1      -1.905   2.916   0.606  0.00  0.00     0.016 A 
BRANCH  24  27
ATOM     27  O   UNL d   1      -1.728   6.520   0.284  0.00  0.00    -0.255 OA
BRANCH  27  28
ATOM     28  C   UNL d   1      -0.773   7.558   0.457  0.00  0.00     0.530 C 
ATOM     29  F   UNL d   1       0.492   7.130   0.649  0.00  0.00    -0.144 F 
ATOM     30  F   UNL d   1      -0.799   8.370  -0.622  0.00  0.00    -0.144 F 
ATOM     31  F   UNL d   1      -1.129   8.289   1.538  0.00  0.00    -0.144 F 
ENDBRANCH  27  28
ENDBRANCH  24  27
ENDBRANCH   6  21
TORSDOF 6
