REMARK  5 active torsions:
REMARK  status: ('A' for Active; 'I' for Inactive)
REMARK    1  A    between atoms: C_2  and  N_1 
REMARK    2  A    between atoms: N_8  and  C_6 
REMARK    3  A    between atoms: C_13  and  N_8 
REMARK    4  A    between atoms: C_17  and  C_13 
REMARK    5  A    between atoms: O_15  and  C_17 
ROOT
ATOM      1  C   UNL d   1       0.289   1.024   0.957  0.00  0.00     0.115 A 
ATOM      2  C   UNL d   1      -0.752   0.632   1.835  0.00  0.00     0.025 A 
ATOM      3  C   UNL d   1      -1.288   1.618   2.698  0.00  0.00     0.066 A 
ATOM      4  C   UNL d   1       0.797   2.323   0.922  0.00  0.00     0.039 A 
ATOM      5  C   UNL d   1      -0.776   2.940   2.663  0.00  0.00     0.036 A 
ATOM      6  N   UNL d   1      -2.291   1.336   3.561  0.00  0.00    -0.364 N 
ATOM      7  HN  UNL d   1      -2.675   2.065   4.163  1.00  0.00     0.165 HD
ATOM      8  C   UNL d   1       0.269   3.272   1.787  0.00  0.00     0.028 A 
ATOM      9  C   UNL d   1      -1.293  -0.674   1.934  0.00  0.00     0.017 A 
ATOM     10  C   UNL d   1      -2.778   0.077   3.616  0.00  0.00     0.088 A 
ATOM     11  C   UNL d   1      -2.314  -0.954   2.832  0.00  0.00     0.018 A 
ENDROOT
BRANCH   5  12
ATOM     12  N   UNL d   1      -1.246   3.867   3.636  0.00  0.00    -0.289 NA
ATOM     13  H   UNL d   1      -2.151   3.514   3.971  0.00  0.00     0.127 HD
BRANCH  12  14
ATOM     14  C   UNL d   1      -1.237   5.296   3.309  0.00  0.00     0.123 C 
BRANCH  14  15
ATOM     15  C   UNL d   1      -1.819   6.098   4.488  0.00  0.00     0.127 C 
ATOM     16  C   UNL d   1      -1.755   7.594   4.219  0.00  0.00     0.040 C 
BRANCH  15  17
ATOM     17  O   UNL d   1      -1.066   5.821   5.673  0.00  0.00    -0.395 OA
ATOM     18  H   UNL d   1      -0.851   4.867   5.625  0.00  0.00     0.210 HD
ENDBRANCH  15  17
ENDBRANCH  14  15
ENDBRANCH  12  14
ENDBRANCH   5  12
BRANCH   1  19
ATOM     19  N   UNL d   1       0.903   0.065   0.058  0.00  0.00    -0.115 N 
ATOM     20  O   UNL d   1       0.169  -0.494  -0.770  0.00  0.00    -0.532 OA
ATOM     21  O   UNL d   1       2.125  -0.106   0.164  0.00  0.00    -0.532 OA
ENDBRANCH   1  19
TORSDOF 5
