REMARK  6 active torsions:
REMARK  status: ('A' for Active; 'I' for Inactive)
REMARK    1  A    between atoms: C_2  and  C_1 
REMARK       I    between atoms: N_6  and  C_1 
REMARK    2  A    between atoms: C_8  and  C_3 
REMARK    3  A    between atoms: C_5  and  C_8 
REMARK    4  A    between atoms: C_7  and  C_5 
REMARK    5  A    between atoms: C_16  and  N_6 
REMARK    6  A    between atoms: O_17  and  C_7 
ROOT
ATOM      1  C   UNL d   1       0.103  -0.691   0.973  0.00  0.00     0.044 A 
ATOM      2  C   UNL d   1       0.515  -0.050   2.194  0.00  0.00    -0.040 A 
ATOM      3  C   UNL d   1      -0.950  -1.658   1.049  0.00  0.00    -0.045 A 
ATOM      4  C   UNL d   1      -0.141  -0.372   3.409  0.00  0.00     0.015 A 
ATOM      5  C   UNL d   1      -1.568  -1.921   2.297  0.00  0.00     0.014 A 
ATOM      6  C   UNL d   1      -1.164  -1.309   3.474  0.00  0.00    -0.061 A 
ATOM      7  C   UNL d   1      -1.548  -2.494  -0.057  0.00  0.00     0.049 C 
ATOM      8  C   UNL d   1      -1.772  -1.695   4.789  0.00  0.00     0.048 C 
ENDROOT
BRANCH   1   9
ATOM      9  C   UNL d   1       0.905  -0.401  -0.293  0.00  0.00     0.257 C 
ATOM     10  N   UNL d   1       0.453  -0.887  -1.507  0.00  0.00    -0.322 N 
ATOM     11  H   UNL d   1      -0.541  -0.970  -1.645  0.00  0.00     0.169 HD
ATOM     12  O   UNL d   1       1.927   0.263  -0.248  0.00  0.00    -0.267 OA
BRANCH  10  13
ATOM     13  C   UNL d   1       1.288  -1.111  -2.629  0.00  0.00     0.050 A 
ATOM     14  C   UNL d   1       2.684  -1.124  -2.588  0.00  0.00     0.117 A 
ATOM     15  N   UNL d   1       3.483  -1.350  -3.663  0.00  0.00    -0.373 N 
ATOM     16  C   UNL d   1       2.863  -1.573  -4.837  0.00  0.00     0.088 A 
ATOM     17  HN  UNL d   1       4.500  -1.352  -3.585  1.00  0.00     0.164 HD
ATOM     18  C   UNL d   1       1.486  -1.613  -4.981  0.00  0.00     0.019 A 
ATOM     19  C   UNL d   1       0.690  -1.391  -3.856  0.00  0.00     0.032 A 
ENDBRANCH  10  13
ENDBRANCH   1   9
BRANCH   2  20
ATOM     20  C   UNL d   1       1.710   0.894   2.363  0.00  0.00     0.059 C 
BRANCH  20  21
ATOM     21  C   UNL d   1       1.508   2.434   2.314  0.00  0.00     0.042 C 
ATOM     22  C   UNL d   1       2.902   3.111   2.355  0.00  0.00     0.026 C 
ATOM     23  C   UNL d   1       0.810   2.948   1.042  0.00  0.00     0.026 C 
BRANCH  21  24
ATOM     24  C   UNL d   1       0.663   2.867   3.519  0.00  0.00     0.148 C 
ATOM     25  O   UNL d   1      -0.544   3.079   3.475  0.00  0.00    -0.649 OA
BRANCH  24  26
ATOM     26  O   UNL d   1       1.330   2.956   4.691  0.00  0.00    -0.776 OA
ATOM     27  H   UNL d   1       2.286   2.775   4.649  0.00  0.00     0.167 HD
ENDBRANCH  24  26
ENDBRANCH  21  24
ENDBRANCH  20  21
ENDBRANCH   2  20
TORSDOF 6
