REMARK  2 active torsions:
REMARK  status: ('A' for Active; 'I' for Inactive)
REMARK    1  A    between atoms: C_2  and  N_1 
REMARK    2  A    between atoms: C_10  and  C_3 
ROOT
ATOM      1  C   UNL d   1       0.469   0.367   1.388  0.00  0.00     0.179 C 
ATOM      2  C   UNL d   1       0.459  -1.149   1.657  0.00  0.00     0.117 C 
ATOM      3  N   UNL d   1       1.751  -1.633   2.114  0.00  0.00    -0.354 N 
ATOM      4  C   UNL d   1       2.581  -0.943   2.948  0.00  0.00     0.218 C 
ATOM      5  C   UNL d   1       1.078   1.096   2.591  0.00  0.00     0.043 C 
ATOM      6  O   UNL d   1       3.453  -1.540   3.580  0.00  0.00    -0.274 OA
ATOM      7  C   UNL d   1       2.456   0.564   2.978  0.00  0.00     0.105 C 
ATOM      8  H   UNL d   1       1.929  -2.626   2.159  0.00  0.00     0.162 HD
ENDROOT
BRANCH   2   9
ATOM      9  C   UNL d   1      -0.298  -2.055   0.627  0.00  0.00     0.014 C 
ATOM     10  C   UNL d   1       0.267  -2.143  -0.799  0.00  0.00     0.033 C 
ATOM     11  C   UNL d   1       1.471  -3.024  -0.890  0.00  0.00    -0.030 C 
ATOM     12  C   UNL d   1       1.659  -4.062  -0.064  0.00  0.00    -0.031 C 
ATOM     13  C   UNL d   1       0.689  -4.442   1.016  0.00  0.00     0.027 C 
ATOM     14  C   UNL d   1      -0.524  -3.504   1.141  0.00  0.00     0.011 C 
ENDBRANCH   2   9
BRANCH   1  15
ATOM     15  N   UNL d   1       1.242   0.780   0.159  0.00  0.00    -0.148 N 
ATOM     16  O   UNL d   1       0.740   1.687  -0.517  0.00  0.00    -0.536 OA
ATOM     17  O   UNL d   1       2.328   0.237  -0.082  0.00  0.00    -0.536 OA
ENDBRANCH   1  15
TORSDOF 2
