REMARK  6 active torsions:
REMARK  status: ('A' for Active; 'I' for Inactive)
REMARK    1  A    between atoms: C_7  and  C_1 
REMARK    2  A    between atoms: C_3  and  C_2 
REMARK    3  A    between atoms: N_12  and  C_6 
REMARK    4  A    between atoms: O_17  and  C_7 
REMARK    5  A    between atoms: N_16  and  N_12 
REMARK    6  A    between atoms: C_19  and  O_17 
ROOT
ATOM      1  C   UNL d   1      -0.018  -1.503   0.034  0.00  0.00     0.086 A 
ATOM      2  C   UNL d   1       1.185  -0.817   0.061  0.00  0.00     0.136 A 
ATOM      3  N   UNL d   1       1.205   0.554   0.129  0.00  0.00    -0.327 N 
ATOM      4  HN  UNL d   1       2.094   1.052   0.162  1.00  0.00     0.168 HD
ATOM      5  C   UNL d   1       0.054   1.236   0.151  0.00  0.00     0.171 A 
ATOM      6  N   UNL d   1      -1.145   0.639   0.105  0.00  0.00    -0.341 N 
ATOM      7  HN  UNL d   1      -2.011   1.178   0.116  1.00  0.00     0.167 HD
ATOM      8  C   UNL d   1      -1.150  -0.710   0.042  0.00  0.00     0.110 A 
ENDROOT
BRANCH   1   9
ATOM      9  C   UNL d   1      -0.248  -2.954  -0.038  0.00  0.00     0.296 C 
ATOM     10  O   UNL d   1      -1.192  -3.432  -0.651  0.00  0.00    -0.259 OA
BRANCH   9  11
ATOM     11  O   UNL d   1       0.627  -3.628   0.731  0.00  0.00    -0.318 OA
BRANCH  11  12
ATOM     12  C   UNL d   1       0.498  -5.063   0.723  0.00  0.00     0.174 C 
ATOM     13  C   UNL d   1       0.988  -5.670  -0.584  0.00  0.00     0.034 C 
ENDBRANCH  11  12
ENDBRANCH   9  11
ENDBRANCH   1   9
BRANCH   2  14
ATOM     14  C   UNL d   1       2.555  -1.450  -0.048  0.00  0.00     0.433 C 
ATOM     15  F   UNL d   1       2.621  -2.802  -0.152  0.00  0.00    -0.165 F 
ATOM     16  F   UNL d   1       3.233  -0.996  -1.147  0.00  0.00    -0.165 F 
ATOM     17  F   UNL d   1       3.352  -1.131   1.020  0.00  0.00    -0.165 F 
ENDBRANCH   2  14
BRANCH   5  18
ATOM     18  N   UNL d   1       0.148   2.635   0.242  0.00  0.00    -0.197 NA
ATOM     19  H   UNL d   1       1.097   2.894  -0.025  0.00  0.00     0.149 HD
BRANCH  18  20
ATOM     20  N   UNL d   1      -0.907   3.425  -0.279  0.00  0.00    -0.259 NA
ATOM     21  C   UNL d   1      -0.971   4.662   0.496  0.00  0.00     0.127 C 
ATOM     22  H   UNL d   1      -1.790   2.913  -0.156  0.00  0.00     0.140 HD
ENDBRANCH  18  20
ENDBRANCH   5  18
TORSDOF 6
