REMARK  5 active torsions:
REMARK  status: ('A' for Active; 'I' for Inactive)
REMARK    1  A    between atoms: N_2  and  C_1 
REMARK    2  A    between atoms: C_3  and  O_8 
REMARK    3  A    between atoms: C_5  and  C_3 
REMARK    4  A    between atoms: C_4  and  C_9 
REMARK    5  A    between atoms: O_8  and  C_6 
ROOT
ATOM      1  C   UNL d   1       1.167   0.245  -0.324  0.00  0.00     0.137 A 
ATOM      2  C   UNL d   1       0.615  -1.039  -0.239  0.00  0.00     0.112 A 
ATOM      3  C   UNL d   1       0.387   1.399  -0.294  0.00  0.00     0.055 A 
ATOM      4  C   UNL d   1      -0.993   1.280  -0.103  0.00  0.00     0.050 A 
ATOM      5  C   UNL d   1      -0.760  -1.170  -0.109  0.00  0.00     0.041 A 
ATOM      6  C   UNL d   1      -1.559  -0.012  -0.026  0.00  0.00     0.019 A 
ENDROOT
BRANCH   2   7
ATOM      7  O   UNL d   1       1.539  -2.114  -0.256  0.00  0.00    -0.272 OA
BRANCH   7   8
ATOM      8  C   UNL d   1       1.344  -3.461   0.039  0.00  0.00     0.300 C 
ATOM      9  O   UNL d   1       0.275  -4.006   0.239  0.00  0.00    -0.259 OA
BRANCH   8  10
ATOM     10  C   UNL d   1       2.694  -4.090   0.119  0.00  0.00     0.061 A 
ATOM     11  C   UNL d   1       2.927  -5.415  -0.269  0.00  0.00     0.050 A 
ATOM     12 CL   UNL d   1       1.721  -6.413  -0.996  0.00  0.00    -0.083 Cl
ATOM     13  C   UNL d   1       4.205  -5.975  -0.114  0.00  0.00     0.025 A 
ATOM     14  C   UNL d   1       5.255  -5.222   0.416  0.00  0.00     0.002 A 
ATOM     15  C   UNL d   1       5.035  -3.901   0.789  0.00  0.00     0.001 A 
ATOM     16  C   UNL d   1       3.764  -3.341   0.649  0.00  0.00     0.019 A 
ENDBRANCH   8  10
ENDBRANCH   7   8
ENDBRANCH   2   7
BRANCH   1  17
ATOM     17  N   UNL d   1       2.598   0.396  -0.251  0.00  0.00    -0.113 N 
ATOM     18  O   UNL d   1       3.099   0.428   0.878  0.00  0.00    -0.532 OA
ATOM     19  O   UNL d   1       3.210   0.497  -1.325  0.00  0.00    -0.532 OA
ENDBRANCH   1  17
BRANCH   4  20
ATOM     20  C   UNL d   1      -1.832   2.518   0.125  0.00  0.00     0.417 C 
ATOM     21  F   UNL d   1      -1.115   3.672   0.016  0.00  0.00    -0.166 F 
ATOM     22  F   UNL d   1      -2.867   2.634  -0.748  0.00  0.00    -0.166 F 
ATOM     23  F   UNL d   1      -2.377   2.539   1.372  0.00  0.00    -0.166 F 
ENDBRANCH   4  20
TORSDOF 5
