REMARK  5 active torsions:
REMARK  status: ('A' for Active; 'I' for Inactive)
REMARK    1  A    between atoms: O_6  and  C_1 
REMARK    2  A    between atoms: C_10  and  C_1 
REMARK    3  A    between atoms: C_2  and  C_10 
REMARK    4  A    between atoms: C_3  and  C_4 
REMARK    5  A    between atoms: C_16  and  O_6 
ROOT
ATOM      1  C   UNL d   1       1.153  -0.021  -0.220  0.00  0.00     0.268 C 
ATOM      2  O   UNL d   1       2.347  -0.147  -0.453  0.00  0.00    -0.265 OA
ENDROOT
BRANCH   1   3
ATOM      3  O   UNL d   1       0.242   0.745  -0.952  0.00  0.00    -0.279 OA
BRANCH   3   4
ATOM      4  C   UNL d   1       0.617   1.601  -2.011  0.00  0.00     0.079 A 
ATOM      5  C   UNL d   1      -0.371   1.839  -2.967  0.00  0.00     0.038 A 
ATOM      6  C   UNL d   1      -0.146   2.777  -3.975  0.00  0.00     0.018 A 
ATOM      7  C   UNL d   1       1.057   3.493  -4.012  0.00  0.00     0.009 A 
ATOM      8  C   UNL d   1       2.058   3.223  -3.071  0.00  0.00     0.018 A 
ATOM      9  C   UNL d   1       1.834   2.280  -2.061  0.00  0.00     0.038 A 
BRANCH   7  10
ATOM     10  C   UNL d   1       1.213   4.545  -5.050  0.00  0.00     0.155 C 
ATOM     11  O   UNL d   1       0.679   4.393  -6.148  0.00  0.00    -0.293 OA
ATOM     12  C   UNL d   1       1.960   5.809  -4.713  0.00  0.00     0.096 C 
ENDBRANCH   7  10
ENDBRANCH   3   4
ENDBRANCH   1   3
BRANCH   1  13
ATOM     13  C   UNL d   1       0.448  -0.637   0.968  0.00  0.00     0.150 C 
BRANCH  13  14
ATOM     14  C   UNL d   1      -0.636  -1.620   0.606  0.00  0.00    -0.043 A 
ATOM     15  C   UNL d   1      -0.326  -2.965   0.357  0.00  0.00     0.050 A 
ATOM     16  C   UNL d   1      -1.336  -3.867   0.025  0.00  0.00     0.119 A 
ATOM     17  F   UNL d   1      -1.022  -5.150  -0.198  0.00  0.00    -0.206 F 
ATOM     18  C   UNL d   1      -2.659  -3.463  -0.073  0.00  0.00     0.084 A 
ATOM     19  C   UNL d   1      -2.966  -2.132   0.168  0.00  0.00     0.119 A 
ATOM     20  C   UNL d   1      -1.974  -1.210   0.504  0.00  0.00     0.050 A 
ATOM     21  F   UNL d   1      -4.238  -1.722   0.079  0.00  0.00    -0.206 F 
ENDBRANCH  13  14
ENDBRANCH   1  13
TORSDOF 5
