REMARK  8 active torsions:
REMARK  status: ('A' for Active; 'I' for Inactive)
REMARK    1  A    between atoms: C_2  and  C_14 
REMARK    2  A    between atoms: O_16  and  C_2 
REMARK    3  A    between atoms: C_3  and  C_13 
REMARK    4  A    between atoms: O_15  and  C_3 
REMARK    5  A    between atoms: C_11  and  C_4 
REMARK    6  A    between atoms: C_12  and  C_5 
REMARK    7  A    between atoms: C_14  and  C_11 
REMARK    8  A    between atoms: C_13  and  C_12 
ROOT
ATOM      1  C   UNL d   1       0.678  -0.043   0.006  0.00  0.00     0.135 C 
ATOM      2  C   UNL d   1      -0.195  -1.276   0.076  0.00  0.00     0.056 C 
ATOM      3  C   UNL d   1      -0.111   1.250  -0.052  0.00  0.00     0.056 C 
ATOM      4  O   UNL d   1       1.905  -0.083  -0.001  0.00  0.00    -0.297 OA
ATOM      5  C   UNL d   1      -1.590  -0.707  -0.178  0.00  0.00     0.013 C 
ATOM      6  C   UNL d   1      -1.544   0.772   0.186  0.00  0.00     0.013 C 
ENDROOT
BRANCH   2   7
ATOM      7  C   UNL d   1      -0.013  -1.977   1.424  0.00  0.00     0.022 C 
BRANCH   7   8
ATOM      8  C   UNL d   1      -0.814  -3.276   1.536  0.00  0.00     0.112 C 
BRANCH   8   9
ATOM      9  C   UNL d   1      -0.592  -3.957   2.866  0.00  0.00     0.258 C 
ATOM     10  O   UNL d   1       0.132  -3.544   3.759  0.00  0.00    -0.265 OA
BRANCH   9  11
ATOM     11  O   UNL d   1      -1.338  -5.096   2.926  0.00  0.00    -0.326 OA
ATOM     12  C   UNL d   1      -1.204  -5.806   4.157  0.00  0.00     0.213 C 
ENDBRANCH   9  11
ENDBRANCH   8   9
ENDBRANCH   7   8
ENDBRANCH   2   7
BRANCH   3  13
ATOM     13  C   UNL d   1       0.127   1.961  -1.384  0.00  0.00     0.022 C 
BRANCH  13  14
ATOM     14  C   UNL d   1      -0.587   3.312  -1.476  0.00  0.00     0.112 C 
BRANCH  14  15
ATOM     15  C   UNL d   1      -0.311   4.003  -2.791  0.00  0.00     0.258 C 
ATOM     16  O   UNL d   1       0.398   3.567  -3.687  0.00  0.00    -0.265 OA
BRANCH  15  17
ATOM     17  O   UNL d   1      -0.990   5.185  -2.836  0.00  0.00    -0.326 OA
ATOM     18  C   UNL d   1      -0.808   5.909  -4.053  0.00  0.00     0.213 C 
ENDBRANCH  15  17
ENDBRANCH  14  15
ENDBRANCH  13  14
ENDBRANCH   3  13
TORSDOF 8
