REMARK  4 active torsions:
REMARK  status: ('A' for Active; 'I' for Inactive)
REMARK    1  A    between atoms: S_10  and  C_3 
REMARK    2  A    between atoms: C_9  and  C_6 
REMARK    3  A    between atoms: O_11  and  C_8 
REMARK    4  A    between atoms: C_14  and  S_10 
ROOT
ATOM      1  N   UNL d   1      -0.280  -1.196  -0.089  0.00  0.00    -0.318 N 
ATOM      2  HN  UNL d   1      -0.805  -2.070  -0.124  1.00  0.00     0.170 HD
ATOM      3  C   UNL d   1       1.057  -1.170  -0.067  0.00  0.00     0.146 A 
ATOM      4  N   UNL d   1       1.806  -0.056  -0.028  0.00  0.00    -0.336 N 
ATOM      5  HN  UNL d   1       2.825  -0.103  -0.023  1.00  0.00     0.168 HD
ATOM      6  C   UNL d   1       1.159   1.128   0.005  0.00  0.00     0.048 A 
ATOM      7  C   UNL d   1      -0.221   1.195  -0.018  0.00  0.00     0.086 A 
ATOM      8  C   UNL d   1      -0.881  -0.007  -0.061  0.00  0.00     0.143 A 
ENDROOT
BRANCH   6   9
ATOM      9  C   UNL d   1       2.015   2.333   0.066  0.00  0.00    -0.009 A 
ATOM     10  C   UNL d   1       1.602   3.505   0.730  0.00  0.00     0.013 A 
ATOM     11  C   UNL d   1       2.412   4.645   0.774  0.00  0.00     0.001 A 
ATOM     12  C   UNL d   1       3.658   4.637   0.158  0.00  0.00     0.000 A 
ATOM     13  C   UNL d   1       4.097   3.490  -0.496  0.00  0.00     0.001 A 
ATOM     14  C   UNL d   1       3.285   2.352  -0.539  0.00  0.00     0.013 A 
ENDBRANCH   6   9
BRANCH   8  15
ATOM     15  O   UNL d   1      -2.245  -0.059  -0.077  0.00  0.00    -0.346 OA
ATOM     16  H   UNL d   1      -2.594   0.842  -0.010  0.00  0.00     0.219 HD
ENDBRANCH   8  15
BRANCH   3  17
ATOM     17  S   UNL d   1       1.920  -2.719  -0.033  0.00  0.00    -0.094 SA
BRANCH  17  18
ATOM     18  C   UNL d   1       1.173  -3.490  -1.499  0.00  0.00     0.078 C 
ATOM     19  C   UNL d   1       1.707  -4.902  -1.666  0.00  0.00     0.016 C 
ENDBRANCH  17  18
ENDBRANCH   3  17
TORSDOF 4
