REMARK  4 active torsions:
REMARK  status: ('A' for Active; 'I' for Inactive)
REMARK    1  A    between atoms: C_7  and  C_1 
REMARK    2  A    between atoms: N_4  and  C_2 
REMARK       I    between atoms: C_6  and  N_4 
REMARK    3  A    between atoms: C_9  and  C_6 
REMARK    4  A    between atoms: O_14  and  C_7 
ROOT
ATOM      1  N   UNL d   1       1.303   2.311   0.008  0.00  0.00    -0.321 N 
ATOM      2  C   UNL d   1       2.393   2.634   0.786  0.00  0.00     0.256 C 
ATOM      3  O   UNL d   1       2.824   1.969   1.720  0.00  0.00    -0.267 OA
ATOM      4  H   UNL d   1       0.857   3.072  -0.491  0.00  0.00     0.169 HD
ENDROOT
BRANCH   1   5
ATOM      5  C   UNL d   1       0.488   1.175   0.122  0.00  0.00     0.064 A 
ATOM      6  C   UNL d   1      -0.883   1.326  -0.074  0.00  0.00     0.107 A 
ATOM      7  S   UNL d   1      -1.714  -0.164  -0.060  0.00  0.00    -0.093 SA
ATOM      8  C   UNL d   1      -0.293  -1.009   0.318  0.00  0.00     0.059 A 
ATOM      9  C   UNL d   1       0.828  -0.199   0.422  0.00  0.00    -0.027 A 
ATOM     10  C   UNL d   1       2.158  -0.809   0.729  0.00  0.00     0.051 C 
BRANCH   6  11
ATOM     11  C   UNL d   1      -1.602   2.583  -0.228  0.00  0.00     0.302 C 
ATOM     12  O   UNL d   1      -1.083   3.631  -0.600  0.00  0.00    -0.259 OA
BRANCH  11  13
ATOM     13  O   UNL d   1      -2.884   2.473   0.221  0.00  0.00    -0.322 OA
ATOM     14  C   UNL d   1      -3.571   3.712   0.381  0.00  0.00     0.213 C 
ENDBRANCH  11  13
ENDBRANCH   6  11
ENDBRANCH   1   5
BRANCH   2  15
ATOM     15  C   UNL d   1       3.050   3.961   0.503  0.00  0.00     0.032 A 
ATOM     16  C   UNL d   1       2.493   4.958  -0.316  0.00  0.00     0.020 A 
ATOM     17  C   UNL d   1       3.156   6.178  -0.496  0.00  0.00     0.043 A 
ATOM     18  C   UNL d   1       4.371   6.405   0.137  0.00  0.00     0.116 A 
ATOM     19  C   UNL d   1       4.943   5.434   0.945  0.00  0.00     0.043 A 
ATOM     20  F   UNL d   1       4.993   7.579  -0.031  0.00  0.00    -0.206 F 
ATOM     21  C   UNL d   1       4.285   4.215   1.128  0.00  0.00     0.020 A 
ENDBRANCH   2  15
TORSDOF 4
