REMARK  8 active torsions:
REMARK  status: ('A' for Active; 'I' for Inactive)
REMARK    1  A    between atoms: O_5  and  C_1 
REMARK    2  A    between atoms: C_2  and  N_3 
REMARK    3  A    between atoms: N_6  and  C_2 
REMARK    4  A    between atoms: N_3  and  C_10 
REMARK    5  A    between atoms: C_11  and  O_5 
REMARK    6  A    between atoms: C_17  and  N_6 
REMARK    7  A    between atoms: O_16  and  C_18 
REMARK    8  A    between atoms: C_18  and  C_17 
ROOT
ATOM      1  C   UNL d   1       1.992  -4.160   2.398  0.00  0.00     0.034 A 
ATOM      2  C   UNL d   1       0.788  -1.716   1.644  0.00  0.00     0.078 A 
ATOM      3  C   UNL d   1       2.734  -3.152   1.788  0.00  0.00     0.032 A 
ATOM      4  C   UNL d   1       0.607  -3.973   2.511  0.00  0.00     0.032 A 
ATOM      5  C   UNL d   1       0.014  -2.762   2.143  0.00  0.00     0.039 A 
ATOM      6  C   UNL d   1       2.142  -1.939   1.412  0.00  0.00     0.039 A 
ENDROOT
BRANCH   1   7
ATOM      7  N   UNL d   1       2.508  -5.343   2.985  0.00  0.00    -0.333 N 
ATOM      8  H   UNL d   1       1.799  -5.938   3.390  0.00  0.00     0.168 HD
BRANCH   7   9
ATOM      9  C   UNL d   1       3.790  -5.683   3.411  0.00  0.00     0.172 C 
ATOM     10  S   UNL d   1       5.241  -4.927   3.078  0.00  0.00    -0.041 SA
BRANCH   9  11
ATOM     11  N   UNL d   1       3.691  -6.751   4.305  0.00  0.00    -0.365 N 
ATOM     12  H   UNL d   1       3.006  -7.466   4.091  0.00  0.00     0.161 HD
BRANCH  11  13
ATOM     13  C   UNL d   1       4.758  -7.205   5.197  0.00  0.00     0.148 C 
BRANCH  13  14
ATOM     14  C   UNL d   1       4.205  -8.069   6.328  0.00  0.00     0.183 C 
BRANCH  14  15
ATOM     15  O   UNL d   1       3.688  -9.287   5.796  0.00  0.00    -0.399 OA
ATOM     16  H   UNL d   1       3.528  -9.877   6.553  0.00  0.00     0.209 HD
ENDBRANCH  14  15
ENDBRANCH  13  14
ENDBRANCH  11  13
ENDBRANCH   9  11
ENDBRANCH   7   9
ENDBRANCH   1   7
BRANCH   2  17
ATOM     17  O   UNL d   1       0.113  -0.550   1.436  0.00  0.00    -0.255 OA
BRANCH  17  18
ATOM     18  C   UNL d   1       0.883   0.639   1.335  0.00  0.00     0.530 C 
ATOM     19  F   UNL d   1       1.879   0.688   2.245  0.00  0.00    -0.144 F 
ATOM     20  F   UNL d   1       0.070   1.697   1.558  0.00  0.00    -0.144 F 
ATOM     21  F   UNL d   1       1.400   0.758   0.094  0.00  0.00    -0.144 F 
ENDBRANCH  17  18
ENDBRANCH   2  17
TORSDOF 8
