REMARK  7 active torsions:
REMARK  status: ('A' for Active; 'I' for Inactive)
REMARK    1  A    between atoms: C_8  and  C_1 
REMARK    2  A    between atoms: N_6  and  C_2 
REMARK    3  A    between atoms: O_12  and  C_8 
REMARK    4  A    between atoms: N_9  and  O_12 
REMARK    5  A    between atoms: C_13  and  C_11 
REMARK    6  A    between atoms: N_25  and  C_11 
REMARK    7  A    between atoms: C_16  and  C_17 
ROOT
ATOM      1  N   UNL d   1       3.941   0.543  -0.348  0.00  0.00    -0.246 N 
ATOM      2  HN  UNL d   1       3.892  -0.458  -0.541  1.00  0.00     0.196 HD
ATOM      3  C   UNL d   1       5.061   1.186  -0.202  0.00  0.00     0.109 C 
ENDROOT
BRANCH   1   4
ATOM      4  O   UNL d   1       2.792   1.365  -0.213  0.00  0.00    -0.193 OA
BRANCH   4   5
ATOM      5  C   UNL d   1       1.665   0.556  -0.202  0.00  0.00     0.320 C 
ATOM      6  O   UNL d   1       1.686  -0.668  -0.307  0.00  0.00    -0.257 OA
BRANCH   5   7
ATOM      7  C   UNL d   1       0.416   1.296  -0.090  0.00  0.00     0.104 A 
ATOM      8  C   UNL d   1      -0.812   0.850   0.399  0.00  0.00     0.145 A 
ATOM      9  N   UNL d   1      -1.727   1.835   0.114  0.00  0.00    -0.280 N 
ATOM     10  C   UNL d   1      -3.131   1.944   0.441  0.00  0.00     0.179 C 
ATOM     11  N   UNL d   1      -1.155   2.919  -0.462  0.00  0.00    -0.307 N 
ATOM     12  C   UNL d   1       0.129   2.586  -0.585  0.00  0.00     0.129 A 
ATOM     13  HN  UNL d   1      -1.604   3.792  -0.738  1.00  0.00     0.186 HD
BRANCH   8  14
ATOM     14  N   UNL d   1      -1.084  -0.344   1.076  0.00  0.00    -0.317 N 
ATOM     15  C   UNL d   1      -2.250  -1.087   1.049  0.00  0.00     0.098 A 
ATOM     16  C   UNL d   1      -2.120  -2.182   1.878  0.00  0.00     0.019 A 
ATOM     17  C   UNL d   1      -0.831  -2.124   2.441  0.00  0.00     0.019 A 
ATOM     18  C   UNL d   1      -0.222  -0.998   1.937  0.00  0.00     0.098 A 
ENDBRANCH   8  14
ENDBRANCH   5   7
ENDBRANCH   4   5
ENDBRANCH   1   4
BRANCH   3  19
ATOM     19  C   UNL d   1       6.340   0.397  -0.317  0.00  0.00     0.004 A 
ATOM     20  C   UNL d   1       6.359  -0.829  -0.988  0.00  0.00     0.015 A 
ATOM     21  C   UNL d   1       7.553  -1.558  -1.106  0.00  0.00     0.009 A 
ATOM     22  C   UNL d   1       8.760  -1.096  -0.546  0.00  0.00    -0.051 A 
ATOM     23  C   UNL d   1       8.718   0.137   0.127  0.00  0.00     0.009 A 
ATOM     24  C   UNL d   1       7.527   0.871   0.245  0.00  0.00     0.015 A 
BRANCH  22  25
ATOM     25  C   UNL d   1      10.046  -1.942  -0.648  0.00  0.00    -0.024 C 
ATOM     26  C   UNL d   1      11.268  -1.301   0.051  0.00  0.00     0.019 C 
ATOM     27  C   UNL d   1       9.816  -3.318   0.017  0.00  0.00     0.019 C 
ATOM     28  C   UNL d   1      10.435  -2.162  -2.126  0.00  0.00     0.019 C 
ENDBRANCH  22  25
ENDBRANCH   3  19
BRANCH   3  29
ATOM     29  N   UNL d   1       5.138   2.539   0.032  0.00  0.00    -0.286 NA
ATOM     30  H   UNL d   1       4.274   3.025  -0.172  0.00  0.00     0.125 HD
ATOM     31  H   UNL d   1       5.946   3.005  -0.369  0.00  0.00     0.125 HD
ENDBRANCH   3  29
TORSDOF 7
