REMARK  2 active torsions:
REMARK  status: ('A' for Active; 'I' for Inactive)
REMARK    1  A    between atoms: C_4  and  N_1 
REMARK    2  A    between atoms: C_2  and  C_3 
ROOT
ATOM      1  C   UNL d   1      -1.767  -0.061   0.012  0.00  0.00    -0.006 A 
ATOM      2  N   UNL d   1      -3.314   0.930  -1.225  0.00  0.00    -0.364 N 
ATOM      3  C   UNL d   1      -2.881   0.744   0.064  0.00  0.00     0.100 A 
ATOM      4  C   UNL d   1      -1.532  -0.409  -1.349  0.00  0.00     0.002 A 
ATOM      5  C   UNL d   1      -2.496   0.258  -2.107  0.00  0.00     0.043 A 
ATOM      6  C   UNL d   1      -0.583  -1.210  -2.018  0.00  0.00     0.014 A 
ATOM      7  C   UNL d   1      -2.538   0.191  -3.505  0.00  0.00     0.030 A 
ATOM      8  C   UNL d   1      -0.612  -1.289  -3.414  0.00  0.00     0.001 A 
ATOM      9  C   UNL d   1      -1.570  -0.590  -4.145  0.00  0.00     0.002 A 
ATOM     10  H   UNL d   1      -4.114   1.485  -1.497  0.00  0.00     0.165 HD
ENDROOT
BRANCH   1  11
ATOM     11  C   UNL d   1      -0.995  -0.462   1.140  0.00  0.00     0.045 C 
ATOM     12  C   UNL d   1       0.042   0.238   1.634  0.00  0.00     0.077 C 
ATOM     13  C   UNL d   1       0.566   1.567   1.184  0.00  0.00     0.075 C 
BRANCH  12  14
ATOM     14  N   UNL d   1       0.790  -0.359   2.746  0.00  0.00    -0.120 N 
ATOM     15  O   UNL d   1       0.425  -1.461   3.180  0.00  0.00    -0.532 OA
ATOM     16  O   UNL d   1       1.760   0.274   3.183  0.00  0.00    -0.532 OA
ENDBRANCH  12  14
ENDBRANCH   1  11
TORSDOF 2
