REMARK  2 active torsions:
REMARK  status: ('A' for Active; 'I' for Inactive)
REMARK       I    between atoms: N_2  and  C_1 
REMARK       I    between atoms: N_5  and  C_1 
REMARK    1  A    between atoms: N_3  and  N_2 
REMARK    2  A    between atoms: C_6  and  N_3 
ROOT
ATOM      1  N   UNL d   1       1.070  -1.270   2.190  0.00  0.00    -0.219 NA
ATOM      2  H   UNL d   1       0.487  -0.922   1.420  0.00  0.00     0.147 HD
ENDROOT
BRANCH   1   3
ATOM      3  N   UNL d   1       1.612  -0.197   2.934  0.00  0.00    -0.177 NA
ATOM      4  C   UNL d   1       1.691   1.015   2.286  0.00  0.00     0.284 C 
ATOM      5  O   UNL d   1       1.242   1.266   1.179  0.00  0.00    -0.260 OA
ATOM      6  N   UNL d   1       2.327   1.955   3.042  0.00  0.00    -0.258 NA
ATOM      7  H   UNL d   1       2.123   1.930   4.031  0.00  0.00     0.128 HD
ATOM      8  H   UNL d   1       2.293   2.881   2.632  0.00  0.00     0.128 HD
ATOM      9  H   UNL d   1       2.450  -0.447   3.444  0.00  0.00     0.151 HD
ENDBRANCH   1   3
BRANCH   1  10
ATOM     10  C   UNL d   1       0.395  -2.226   2.990  0.00  0.00     0.023 A 
ATOM     11  C   UNL d   1      -0.642  -2.985   2.427  0.00  0.00     0.025 A 
ATOM     12  C   UNL d   1      -1.274  -3.995   3.160  0.00  0.00     0.002 A 
ATOM     13  C   UNL d   1      -0.857  -4.283   4.457  0.00  0.00     0.000 A 
ATOM     14  C   UNL d   1       0.198  -3.570   5.017  0.00  0.00     0.002 A 
ATOM     15  C   UNL d   1       0.825  -2.561   4.283  0.00  0.00     0.025 A 
ENDBRANCH   1  10
TORSDOF 2
