REMARK  2 active torsions:
REMARK  status: ('A' for Active; 'I' for Inactive)
REMARK    1  A    between atoms: C_6  and  C_3 
REMARK    2  A    between atoms: O_16  and  C_11 
ROOT
ATOM      1  C   UNL d   1       1.179   1.177  -0.112  0.00  0.00     0.176 A 
ATOM      2  C   UNL d   1       1.141  -1.207  -0.140  0.00  0.00     0.176 A 
ATOM      3  C   UNL d   1       2.108  -0.030  -0.156  0.00  0.00     0.168 A 
ATOM      4  C   UNL d   1      -0.204   0.698  -0.074  0.00  0.00     0.025 A 
ATOM      5  C   UNL d   1      -0.224  -0.688  -0.087  0.00  0.00     0.025 A 
ATOM      6  O   UNL d   1       1.480   2.355  -0.113  0.00  0.00    -0.291 OA
ATOM      7  O   UNL d   1       1.409  -2.394  -0.174  0.00  0.00    -0.291 OA
ATOM      8  C   UNL d   1      -1.409  -1.399  -0.044  0.00  0.00     0.016 A 
ATOM      9  C   UNL d   1      -1.369   1.441  -0.022  0.00  0.00     0.016 A 
ATOM     10  C   UNL d   1      -2.580   0.742   0.017  0.00  0.00     0.001 A 
ATOM     11  C   UNL d   1      -2.599  -0.667   0.006  0.00  0.00     0.001 A 
ENDROOT
BRANCH   3  12
ATOM     12  C   UNL d   1       3.104  -0.062   0.981  0.00  0.00    -0.039 A 
ATOM     13  C   UNL d   1       4.480  -0.128   0.716  0.00  0.00     0.011 A 
ATOM     14  C   UNL d   1       5.412  -0.143   1.761  0.00  0.00     0.037 A 
ATOM     15  C   UNL d   1       4.980  -0.095   3.085  0.00  0.00     0.068 A 
ATOM     16  C   UNL d   1       3.615  -0.022   3.356  0.00  0.00     0.037 A 
ATOM     17  C   UNL d   1       2.682  -0.018   2.318  0.00  0.00     0.011 A 
BRANCH  15  18
ATOM     18  O   UNL d   1       5.791  -0.061   4.186  0.00  0.00    -0.356 OA
ATOM     19  C   UNL d   1       7.040  -0.728   4.051  0.00  0.00     0.210 C 
ENDBRANCH  15  18
ENDBRANCH   3  12
TORSDOF 2
