REMARK  6 active torsions:
REMARK  status: ('A' for Active; 'I' for Inactive)
REMARK    1  A    between atoms: C_9  and  C_3 
REMARK    2  A    between atoms: C_11  and  C_4 
REMARK    3  A    between atoms: O_16  and  C_5 
REMARK    4  A    between atoms: C_17  and  C_8 
REMARK    5  A    between atoms: C_10  and  C_9 
REMARK    6  A    between atoms: C_20  and  C_17 
ROOT
ATOM      1  N   UNL d   1      -0.102  -1.225   0.214  0.00  0.00    -0.321 N 
ATOM      2  HN  UNL d   1      -0.540  -2.134   0.359  1.00  0.00     0.169 HD
ATOM      3  C   UNL d   1      -0.282   1.191   0.143  0.00  0.00     0.016 A 
ATOM      4  C   UNL d   1       1.213  -1.098  -0.061  0.00  0.00     0.134 A 
ATOM      5  C   UNL d   1      -0.792  -0.083   0.286  0.00  0.00     0.149 A 
ATOM      6  N   UNL d   1       1.830   0.093  -0.187  0.00  0.00    -0.343 N 
ATOM      7  HN  UNL d   1       2.834   0.142  -0.362  1.00  0.00     0.167 HD
ATOM      8  C   UNL d   1       1.093   1.223  -0.077  0.00  0.00     0.021 A 
ENDROOT
BRANCH   4   9
ATOM      9  C   UNL d   1       2.010  -2.345  -0.220  0.00  0.00     0.076 A 
ATOM     10  N   UNL d   1       3.346  -2.222  -0.493  0.00  0.00    -0.363 N 
ATOM     11  C   UNL d   1       4.072  -3.349  -0.646  0.00  0.00     0.088 A 
ATOM     12  HN  UNL d   1       3.780  -1.303  -0.577  1.00  0.00     0.165 HD
ATOM     13  C   UNL d   1       3.555  -4.628  -0.543  0.00  0.00     0.017 A 
ATOM     14  C   UNL d   1       2.201  -4.758  -0.263  0.00  0.00     0.004 A 
ATOM     15  C   UNL d   1       1.426  -3.610  -0.103  0.00  0.00     0.033 A 
ENDBRANCH   4   9
BRANCH   5  16
ATOM     16  O   UNL d   1      -2.113  -0.244   0.595  0.00  0.00    -0.346 OA
ATOM     17  H   UNL d   1      -2.110  -0.310   1.565  0.00  0.00     0.219 HD
ENDBRANCH   5  16
BRANCH   8  18
ATOM     18  C   UNL d   1       1.886   2.506  -0.154  0.00  0.00     0.057 C 
BRANCH  18  19
ATOM     19  C   UNL d   1       2.604   2.857   1.157  0.00  0.00     0.002 C 
ATOM     20  C   UNL d   1       1.674   3.252   2.296  0.00  0.00     0.005 C 
ENDBRANCH  18  19
ENDBRANCH   8  18
BRANCH   3  21
ATOM     21  C   UNL d   1      -1.160   2.403   0.275  0.00  0.00     0.049 C 
BRANCH  21  22
ATOM     22  C   UNL d   1      -1.833   2.892  -0.977  0.00  0.00    -0.010 A 
ATOM     23  C   UNL d   1      -2.773   2.018  -1.772  0.00  0.00     0.005 A 
ATOM     24  C   UNL d   1      -1.475   2.474  -2.382  0.00  0.00     0.005 A 
ENDBRANCH  21  22
ENDBRANCH   3  21
TORSDOF 6
