REMARK  4 active torsions:
REMARK  status: ('A' for Active; 'I' for Inactive)
REMARK    1  A    between atoms: N_2  and  S_1 
REMARK    2  A    between atoms: C_4  and  S_1 
REMARK    3  A    between atoms: C_3  and  N_2 
REMARK    4  A    between atoms: N_16  and  C_13 
ROOT
ATOM      1  S   UNL d   1       1.042  -0.109   0.056  0.00  0.00     0.246 S 
ATOM      2  O   UNL d   1       0.301  -0.992  -0.820  0.00  0.00    -0.206 OA
ATOM      3  O   UNL d   1       2.488  -0.060   0.029  0.00  0.00    -0.206 OA
ENDROOT
BRANCH   1   4
ATOM      4  N   UNL d   1       0.605  -0.432   1.668  0.00  0.00    -0.178 NA
ATOM      5  H   UNL d   1       1.154   0.156   2.297  0.00  0.00     0.146 HD
BRANCH   4   6
ATOM      6  C   UNL d   1      -0.794  -0.481   1.966  0.00  0.00     0.064 A 
ATOM      7  C   UNL d   1      -1.511  -1.653   1.736  0.00  0.00     0.069 A 
ATOM      8  C   UNL d   1      -2.880  -1.670   1.988  0.00  0.00     0.118 A 
ATOM      9  F   UNL d   1      -3.571  -2.802   1.800  0.00  0.00    -0.206 F 
ATOM     10  C   UNL d   1      -3.549  -0.532   2.434  0.00  0.00     0.045 A 
ATOM     11  C   UNL d   1      -2.836   0.647   2.649  0.00  0.00     0.047 A 
ATOM     12  C   UNL d   1      -1.462   0.660   2.425  0.00  0.00     0.138 A 
ATOM     13  F   UNL d   1      -0.773   1.788   2.652  0.00  0.00    -0.204 F 
ENDBRANCH   4   6
ENDBRANCH   1   4
BRANCH   1  14
ATOM     14  C   UNL d   1       0.457   1.551  -0.210  0.00  0.00     0.074 A 
ATOM     15  C   UNL d   1       1.258   2.630   0.170  0.00  0.00     0.026 A 
ATOM     16  C   UNL d   1       0.800   3.934  -0.040  0.00  0.00     0.025 A 
ATOM     17  C   UNL d   1      -0.422   4.170  -0.677  0.00  0.00     0.005 A 
ATOM     18  C   UNL d   1      -1.228   3.078  -1.017  0.00  0.00     0.025 A 
ATOM     19  C   UNL d   1      -0.782   1.768  -0.817  0.00  0.00     0.026 A 
BRANCH  17  20
ATOM     20  N   UNL d   1      -0.930   5.472  -0.763  0.00  0.00    -0.303 NA
ATOM     21  H   UNL d   1      -1.631   5.593  -1.487  0.00  0.00     0.124 HD
ATOM     22  H   UNL d   1      -0.213   6.190  -0.803  0.00  0.00     0.124 HD
ENDBRANCH  17  20
ENDBRANCH   1  14
TORSDOF 4
