REMARK  6 active torsions:
REMARK  status: ('A' for Active; 'I' for Inactive)
REMARK    1  A    between atoms: C_2  and  C_1 
REMARK       I    between atoms: N_11  and  C_2 
REMARK    2  A    between atoms: O_15  and  C_3 
REMARK    3  A    between atoms: O_16  and  C_6 
REMARK    4  A    between atoms: C_17  and  N_11 
REMARK    5  A    between atoms: C_13  and  C_18 
REMARK    6  A    between atoms: C_18  and  C_17 
ROOT
ATOM      1  C   UNL d   1       1.203   5.835  -0.049  0.00  0.00     0.058 C 
ENDROOT
BRANCH   1   2
ATOM      2  C   UNL d   1       0.883   7.315  -0.074  0.00  0.00    -0.054 A 
ATOM      3  C   UNL d   1       1.933   8.248  -0.162  0.00  0.00     0.046 A 
ATOM      4  C   UNL d   1       1.695   9.634  -0.145  0.00  0.00     0.102 A 
ATOM      5  C   UNL d   1       0.370  10.091  -0.052  0.00  0.00     0.101 A 
ATOM      6  C   UNL d   1      -0.671   9.167   0.074  0.00  0.00     0.040 A 
ATOM      7  C   UNL d   1      -0.421   7.796   0.071  0.00  0.00     0.010 A 
BRANCH   4   8
ATOM      8  O   UNL d   1       2.692  10.573  -0.175  0.00  0.00    -0.353 OA
ATOM      9  C   UNL d   1       4.038  10.122  -0.238  0.00  0.00     0.210 C 
ENDBRANCH   4   8
BRANCH   5  10
ATOM     10  O   UNL d   1      -0.063  11.392   0.001  0.00  0.00    -0.353 OA
ATOM     11  C   UNL d   1       0.682  12.344  -0.746  0.00  0.00     0.210 C 
ENDBRANCH   5  10
ENDBRANCH   1   2
BRANCH   1  12
ATOM     12  C   UNL d   1       0.130   4.931  -0.672  0.00  0.00     0.127 C 
BRANCH  12  13
ATOM     13  N   UNL d   1       0.495   3.532  -0.624  0.00  0.00    -0.355 N 
ATOM     14  C   UNL d   1       0.191   2.733   0.456  0.00  0.00     0.275 C 
ATOM     15  O   UNL d   1      -0.387   3.158   1.451  0.00  0.00    -0.265 OA
ATOM     16  H   UNL d   1       0.993   3.106  -1.397  0.00  0.00     0.162 HD
BRANCH  14  17
ATOM     17  C   UNL d   1       0.608   1.354   0.305  0.00  0.00     0.142 A 
ATOM     18  O   UNL d   1       1.268   0.968  -0.836  0.00  0.00    -0.317 OA
ATOM     19  C   UNL d   1       1.536  -0.357  -0.712  0.00  0.00     0.143 A 
ATOM     20  C   UNL d   1       1.064  -0.836   0.487  0.00  0.00     0.027 A 
ATOM     21  C   UNL d   1       0.465   0.265   1.143  0.00  0.00     0.045 A 
ENDBRANCH  14  17
ENDBRANCH  12  13
ENDBRANCH   1  12
TORSDOF 6
