REMARK  6 active torsions:
REMARK  status: ('A' for Active; 'I' for Inactive)
REMARK    1  A    between atoms: C_6  and  C_1 
REMARK    2  A    between atoms: C_12  and  C_2 
REMARK    3  A    between atoms: O_19  and  C_6 
REMARK    4  A    between atoms: C_7  and  O_17 
REMARK    5  A    between atoms: C_8  and  C_7 
REMARK    6  A    between atoms: O_17  and  N_10 
ROOT
ATOM      1  C   UNL d   1      -0.788  -1.281   0.178  0.00  0.00     0.075 A 
ATOM      2  C   UNL d   1       0.652  -1.356   0.059  0.00  0.00     0.022 A 
ATOM      3  C   UNL d   1      -1.136   0.063   0.062  0.00  0.00     0.022 A 
ATOM      4  N   UNL d   1       0.025   0.784  -0.029  0.00  0.00    -0.362 N 
ATOM      5  C   UNL d   1       1.115  -0.047  -0.007  0.00  0.00     0.018 A 
ATOM      6  C   UNL d   1      -2.445   0.771   0.031  0.00  0.00     0.069 C 
ATOM      7  C   UNL d   1       2.482   0.543  -0.059  0.00  0.00     0.069 C 
ATOM      8  H   UNL d   1       0.075   1.793  -0.097  0.00  0.00     0.165 HD
ENDROOT
BRANCH   2   9
ATOM      9  C   UNL d   1       1.465  -2.568   0.052  0.00  0.00     0.129 C 
ATOM     10  N   UNL d   1       2.698  -2.512   0.439  0.00  0.00    -0.268 N 
ATOM     11  HN  UNL d   1       3.166  -1.671   0.778  1.00  0.00     0.194 HD
BRANCH  10  12
ATOM     12  O   UNL d   1       3.302  -3.782   0.326  0.00  0.00    -0.195 OA
BRANCH  12  13
ATOM     13  C   UNL d   1       4.606  -3.738   0.790  0.00  0.00     0.322 C 
ATOM     14  O   UNL d   1       5.152  -2.756   1.284  0.00  0.00    -0.257 OA
BRANCH  13  15
ATOM     15  C   UNL d   1       5.272  -5.024   0.618  0.00  0.00     0.082 A 
ATOM     16  S   UNL d   1       4.516  -6.373  -0.125  0.00  0.00    -0.096 SA
ATOM     17  C   UNL d   1       5.905  -7.353   0.063  0.00  0.00     0.050 A 
ATOM     18  C   UNL d   1       6.931  -6.680   0.685  0.00  0.00     0.009 A 
ATOM     19  C   UNL d   1       6.567  -5.337   1.002  0.00  0.00     0.026 A 
ENDBRANCH  13  15
ENDBRANCH  12  13
ENDBRANCH  10  12
ENDBRANCH   2   9
BRANCH   1  20
ATOM     20  C   UNL d   1      -1.705  -2.400   0.409  0.00  0.00     0.295 C 
ATOM     21  O   UNL d   1      -1.443  -3.551   0.083  0.00  0.00    -0.259 OA
BRANCH  20  22
ATOM     22  O   UNL d   1      -2.830  -2.019   1.073  0.00  0.00    -0.322 OA
ATOM     23  C   UNL d   1      -3.761  -3.044   1.427  0.00  0.00     0.213 C 
ENDBRANCH  20  22
ENDBRANCH   1  20
TORSDOF 6
