REMARK  2 active torsions:
REMARK  status: ('A' for Active; 'I' for Inactive)
REMARK    1  A    between atoms: N_4  and  C_1 
REMARK    2  A    between atoms: O_11  and  C_2 
ROOT
ATOM      1  C   UNL d   1      -1.828  -0.901   0.010  0.00  0.00     0.204 A 
ATOM      2  C   UNL d   1      -0.581  -1.428   0.004  0.00  0.00     0.117 A 
ATOM      3  C   UNL d   1      -2.050   0.571   0.010  0.00  0.00     0.282 A 
ATOM      4  N   UNL d   1      -0.924   1.359   0.019  0.00  0.00    -0.321 N 
ATOM      5  C   UNL d   1       0.588  -0.524  -0.000  0.00  0.00     0.026 A 
ATOM      6  C   UNL d   1       0.381   0.861   0.011  0.00  0.00     0.048 A 
ATOM      7  O   UNL d   1      -3.143   1.125   0.003  0.00  0.00    -0.265 OA
ATOM      8  C   UNL d   1       1.906  -1.001  -0.014  0.00  0.00     0.016 A 
ATOM      9  C   UNL d   1       1.455   1.753   0.012  0.00  0.00     0.030 A 
ATOM     10  C   UNL d   1       2.985  -0.113  -0.012  0.00  0.00     0.001 A 
ATOM     11  C   UNL d   1       2.760   1.262   0.001  0.00  0.00     0.002 A 
ATOM     12  H   UNL d   1      -1.089   2.359   0.023  0.00  0.00     0.169 HD
ENDROOT
BRANCH   1  13
ATOM     13  N   UNL d   1      -2.974  -1.797   0.019  0.00  0.00    -0.107 N 
ATOM     14  O   UNL d   1      -2.748  -3.021   0.022  0.00  0.00    -0.531 OA
ATOM     15  O   UNL d   1      -4.114  -1.323   0.025  0.00  0.00    -0.531 OA
ENDBRANCH   1  13
BRANCH   2  16
ATOM     16  O   UNL d   1      -0.246  -2.773   0.005  0.00  0.00    -0.357 OA
ATOM     17  H   UNL d   1      -1.060  -3.322   0.013  0.00  0.00     0.217 HD
ENDBRANCH   2  16
TORSDOF 2
