REMARK  7 active torsions:
REMARK  status: ('A' for Active; 'I' for Inactive)
REMARK    1  A    between atoms: C_9  and  C_1 
REMARK    2  A    between atoms: C_8  and  C_2 
REMARK    3  A    between atoms: C_7  and  C_3 
REMARK    4  A    between atoms: O_20  and  C_8 
REMARK    5  A    between atoms: O_21  and  C_9 
REMARK    6  A    between atoms: C_25  and  O_20 
REMARK    7  A    between atoms: C_24  and  O_21 
ROOT
ATOM      1  C   UNL d   1      -1.282  -0.976   0.118  0.00  0.00     0.052 C 
ATOM      2  C   UNL d   1       1.282  -0.997   0.124  0.00  0.00     0.052 C 
ATOM      3  C   UNL d   1      -0.000  -1.811  -0.067  0.00  0.00     0.101 C 
ATOM      4  C   UNL d   1      -1.221   0.380   0.068  0.00  0.00     0.018 C 
ATOM      5  C   UNL d   1       1.238   0.356   0.076  0.00  0.00     0.018 C 
ATOM      6  N   UNL d   1       0.017   0.993  -0.064  0.00  0.00    -0.362 N 
ATOM      7  C   UNL d   1      -2.356   1.373   0.147  0.00  0.00     0.069 C 
ATOM      8  C   UNL d   1       2.444   1.254   0.153  0.00  0.00     0.069 C 
ATOM      9  H   UNL d   1       0.028   2.011  -0.068  0.00  0.00     0.165 HD
ENDROOT
BRANCH   3  10
ATOM     10  C   UNL d   1      -0.003  -2.473  -1.462  0.00  0.00    -0.042 A 
ATOM     11  C   UNL d   1      -0.103  -3.870  -1.594  0.00  0.00     0.048 A 
ATOM     12  C   UNL d   1      -0.083  -4.410  -2.866  0.00  0.00     0.105 A 
ATOM     13  O   UNL d   1      -0.151  -5.735  -3.172  0.00  0.00    -0.323 OA
ATOM     14  C   UNL d   1       0.017  -3.624  -3.990  0.00  0.00     0.105 A 
ATOM     15  C   UNL d   1      -0.111  -5.686  -4.614  0.00  0.00     0.352 A 
ATOM     16  O   UNL d   1       0.021  -4.350  -5.140  0.00  0.00    -0.323 OA
ATOM     17  C   UNL d   1       0.102  -2.254  -3.909  0.00  0.00     0.040 A 
ATOM     18  C   UNL d   1       0.088  -1.678  -2.636  0.00  0.00     0.011 A 
ENDBRANCH   3  10
BRANCH   2  19
ATOM     19  C   UNL d   1       2.569  -1.724   0.275  0.00  0.00     0.292 C 
ATOM     20  O   UNL d   1       3.668  -1.253   0.023  0.00  0.00    -0.259 OA
BRANCH  19  21
ATOM     21  O   UNL d   1       2.348  -2.999   0.686  0.00  0.00    -0.318 OA
BRANCH  21  22
ATOM     22  C   UNL d   1       3.473  -3.881   0.554  0.00  0.00     0.174 C 
ATOM     23  C   UNL d   1       3.442  -4.490  -0.836  0.00  0.00     0.034 C 
ENDBRANCH  21  22
ENDBRANCH  19  21
ENDBRANCH   2  19
BRANCH   1  24
ATOM     24  C   UNL d   1      -2.490  -1.827   0.312  0.00  0.00     0.292 C 
ATOM     25  O   UNL d   1      -2.438  -3.004   0.649  0.00  0.00    -0.259 OA
BRANCH  24  26
ATOM     26  O   UNL d   1      -3.616  -1.165  -0.020  0.00  0.00    -0.318 OA
BRANCH  26  27
ATOM     27  C   UNL d   1      -4.790  -1.954  -0.242  0.00  0.00     0.174 C 
ATOM     28  C   UNL d   1      -4.814  -2.309  -1.716  0.00  0.00     0.034 C 
ENDBRANCH  26  27
ENDBRANCH  24  26
ENDBRANCH   1  24
TORSDOF 7
