REMARK  3 active torsions:
REMARK  status: ('A' for Active; 'I' for Inactive)
REMARK    1  A    between atoms: C_4  and  C_1 
REMARK    2  A    between atoms: C_3  and  C_2 
REMARK    3  A    between atoms: C_13  and  C_4 
ROOT
ATOM      1  C   UNL d   1       0.642   1.032  -0.121  0.00  0.00     0.081 A 
ATOM      2  C   UNL d   1      -0.854   0.952   0.026  0.00  0.00     0.090 A 
ATOM      3  N   UNL d   1       1.239  -0.077  -0.445  0.00  0.00    -0.321 N 
ATOM      4  HN  UNL d   1       2.245  -0.224  -0.531  1.00  0.00     0.180 HD
ATOM      5  N   UNL d   1       0.267  -1.003  -0.647  0.00  0.00    -0.239 NA
ATOM      6  C   UNL d   1      -1.072  -0.528  -0.297  0.00  0.00     0.126 A 
ATOM      7  H   UNL d   1       0.490  -1.917  -0.250  0.00  0.00     0.146 HD
ENDROOT
BRANCH   2   8
ATOM      8  C   UNL d   1      -1.450   1.411   1.363  0.00  0.00    -0.025 A 
ATOM      9  C   UNL d   1      -2.464   2.446   1.355  0.00  0.00    -0.018 A 
ATOM     10  C   UNL d   1      -3.019   2.863   2.588  0.00  0.00    -0.025 A 
ATOM     11  C   UNL d   1      -2.964   3.114   0.203  0.00  0.00     0.013 A 
ATOM     12  C   UNL d   1      -3.989   3.881   2.646  0.00  0.00     0.012 A 
ATOM     13  C   UNL d   1      -2.595   2.281   3.784  0.00  0.00     0.024 A 
ATOM     14  C   UNL d   1      -4.432   4.522   1.495  0.00  0.00     0.001 A 
ATOM     15  C   UNL d   1      -3.921   4.135   0.270  0.00  0.00     0.001 A 
ATOM     16  C   UNL d   1      -1.607   1.297   3.819  0.00  0.00    -0.025 A 
ATOM     17  C   UNL d   1      -1.021   0.830   2.619  0.00  0.00    -0.018 A 
ATOM     18  C   UNL d   1      -1.205   0.796   5.072  0.00  0.00     0.012 A 
ATOM     19  C   UNL d   1      -0.040  -0.186   2.780  0.00  0.00     0.013 A 
ATOM     20  C   UNL d   1       0.358  -0.678   4.027  0.00  0.00     0.001 A 
ATOM     21  C   UNL d   1      -0.218  -0.177   5.178  0.00  0.00     0.001 A 
ENDBRANCH   2   8
BRANCH   1  22
ATOM     22  C   UNL d   1       1.352   2.366  -0.043  0.00  0.00     0.206 C 
ATOM     23  O   UNL d   1       0.666   3.379   0.009  0.00  0.00    -0.285 OA
BRANCH  22  24
ATOM     24  C   UNL d   1       2.829   2.467  -0.180  0.00  0.00     0.016 A 
ATOM     25  C   UNL d   1       3.353   3.579  -0.857  0.00  0.00     0.016 A 
ATOM     26  C   UNL d   1       4.731   3.698  -1.066  0.00  0.00     0.007 A 
ATOM     27  C   UNL d   1       5.607   2.721  -0.583  0.00  0.00    -0.062 A 
ATOM     28  C   UNL d   1       5.086   1.630   0.123  0.00  0.00     0.007 A 
ATOM     29  C   UNL d   1       7.080   2.831  -0.863  0.00  0.00     0.048 C 
ATOM     30  C   UNL d   1       3.705   1.504   0.327  0.00  0.00     0.016 A 
ENDBRANCH  22  24
ENDBRANCH   1  22
TORSDOF 3
