REMARK  0 active torsions:
REMARK  status: ('A' for Active; 'I' for Inactive)
ROOT
ATOM      1  S   UNL d   1      -1.337   1.704   0.125  0.00  0.00     0.176 S 
ATOM      2  C   UNL d   1       0.128   0.725   0.077  0.00  0.00     0.073 A 
ATOM      3  C   UNL d   1       0.062  -0.668  -0.009  0.00  0.00     0.034 A 
ATOM      4  C   UNL d   1      -1.221  -1.423  -0.025  0.00  0.00     0.162 C 
ATOM      5  C   UNL d   1      -2.609   0.590  -0.400  0.00  0.00     0.153 C 
ATOM      6  O   UNL d   1      -1.196   2.728  -0.891  0.00  0.00    -0.223 OA
ATOM      7  O   UNL d   1      -1.561   2.032   1.516  0.00  0.00    -0.223 OA
ATOM      8  C   UNL d   1       1.359   1.393   0.094  0.00  0.00     0.027 A 
ATOM      9  C   UNL d   1      -2.490  -0.707   0.361  0.00  0.00     0.099 C 
ATOM     10  C   UNL d   1       1.257  -1.398  -0.079  0.00  0.00     0.059 A 
ATOM     11  O   UNL d   1      -1.224  -2.616  -0.310  0.00  0.00    -0.292 OA
ATOM     12  C   UNL d   1       2.478  -0.731  -0.050  0.00  0.00     0.117 A 
ATOM     13  C   UNL d   1       2.540   0.656   0.035  0.00  0.00     0.044 A 
ATOM     14  F   UNL d   1       3.614  -1.437  -0.103  0.00  0.00    -0.206 F 
ENDROOT
TORSDOF 0
