REMARK  7 active torsions:
REMARK  status: ('A' for Active; 'I' for Inactive)
REMARK    1  A    between atoms: C_10  and  N_6 
REMARK    2  A    between atoms: C_8  and  C_13 
REMARK    3  A    between atoms: C_12  and  C_10 
REMARK    4  A    between atoms: C_11  and  N_15 
REMARK    5  A    between atoms: N_14  and  C_11 
REMARK       I    between atoms: N_16  and  C_12 
REMARK    6  A    between atoms: C_19  and  N_14 
REMARK    7  A    between atoms: N_15  and  N_16 
ROOT
ATOM      1  C   UNL d   1       3.006   0.719  -0.109  0.00  0.00     0.257 C 
ATOM      2  N   UNL d   1       3.151  -0.465  -0.785  0.00  0.00    -0.266 N 
ATOM      3  O   UNL d   1       4.003   1.260   0.378  0.00  0.00    -0.270 OA
ATOM      4  H   UNL d   1       4.081  -0.885  -0.785  0.00  0.00     0.190 HD
ENDROOT
BRANCH   2   5
ATOM      5  N   UNL d   1       2.114  -1.254  -1.322  0.00  0.00    -0.273 N 
ATOM      6  H   UNL d   1       1.170  -1.067  -0.987  0.00  0.00     0.189 HD
BRANCH   5   7
ATOM      7  C   UNL d   1       2.343  -2.619  -1.527  0.00  0.00     0.191 C 
ATOM      8  S   UNL d   1       3.818  -3.376  -1.269  0.00  0.00    -0.039 SA
BRANCH   7   9
ATOM      9  N   UNL d   1       1.214  -3.219  -2.072  0.00  0.00    -0.332 N 
ATOM     10  H   UNL d   1       0.835  -2.728  -2.875  0.00  0.00     0.168 HD
BRANCH   9  11
ATOM     11  C   UNL d   1       0.769  -4.543  -1.879  0.00  0.00     0.035 A 
ATOM     12  C   UNL d   1       0.011  -5.153  -2.885  0.00  0.00     0.045 A 
ATOM     13  C   UNL d   1      -0.502  -6.452  -2.707  0.00  0.00     0.050 A 
ATOM     14  C   UNL d   1      -0.277  -7.113  -1.493  0.00  0.00     0.016 A 
ATOM     15  C   UNL d   1       0.456  -6.497  -0.480  0.00  0.00     0.003 A 
ATOM     16  C   UNL d   1       0.980  -5.219  -0.675  0.00  0.00     0.029 A 
BRANCH  13  17
ATOM     17  C   UNL d   1      -1.293  -7.139  -3.795  0.00  0.00     0.417 C 
ATOM     18  F   UNL d   1      -1.360  -6.424  -4.954  0.00  0.00    -0.166 F 
ATOM     19  F   UNL d   1      -0.776  -8.351  -4.133  0.00  0.00    -0.166 F 
ATOM     20  F   UNL d   1      -2.583  -7.371  -3.427  0.00  0.00    -0.166 F 
ENDBRANCH  13  17
ENDBRANCH   9  11
ENDBRANCH   7   9
ENDBRANCH   5   7
ENDBRANCH   2   5
BRANCH   1  21
ATOM     21  C   UNL d   1       1.648   1.351   0.015  0.00  0.00     0.272 C 
BRANCH  21  22
ATOM     22  N   UNL d   1       1.061   1.052   1.298  0.00  0.00    -0.194 N 
ATOM     23  N   UNL d   1       0.949  -0.216   1.738  0.00  0.00    -0.115 N 
ATOM     24  C   UNL d   1       0.085  -0.054   2.748  0.00  0.00     0.709 A 
ATOM     25  HN  UNL d   1       1.398  -1.065   1.396  1.00  0.00     0.207 HD
ATOM     26  N   UNL d   1      -0.348   1.246   2.858  0.00  0.00    -0.113 N 
ATOM     27  N   UNL d   1      -0.415  -1.038   3.520  0.00  0.00    -0.211 N 
ATOM     28  N   UNL d   1       0.269   1.945   1.916  0.00  0.00     0.011 NA
ATOM     29  HN  UNL d   1      -1.018   1.605   3.538  1.00  0.00     0.203 HD
ATOM     30  C   UNL d   1      -1.451  -0.767   4.519  0.00  0.00     0.167 C 
ATOM     31  C   UNL d   1       0.387  -2.232   3.804  0.00  0.00     0.167 C 
ATOM     32  C   UNL d   1      -2.324  -2.024   4.673  0.00  0.00     0.188 C 
ATOM     33  O   UNL d   1      -1.535  -3.175   5.020  0.00  0.00    -0.388 OA
ATOM     34  C   UNL d   1      -0.549  -3.433   4.004  0.00  0.00     0.188 C 
ENDBRANCH  21  22
ENDBRANCH   1  21
TORSDOF 7
