REMARK  3 active torsions:
REMARK  status: ('A' for Active; 'I' for Inactive)
REMARK    1  A    between atoms: C_8  and  C_3 
REMARK    2  A    between atoms: C_9  and  C_4 
REMARK    3  A    between atoms: N_7  and  C_9 
ROOT
ATOM      1  N   UNL d   1       0.847  -0.024   1.300  0.00  0.00    -0.351 N 
ATOM      2  HN  UNL d   1       1.374  -0.033   2.174  1.00  0.00     0.166 HD
ATOM      3  C   UNL d   1      -0.232  -0.744   1.066  0.00  0.00     0.084 C 
ATOM      4  C   UNL d   1       1.167   0.751   0.190  0.00  0.00     0.045 C 
ATOM      5  S   UNL d   1      -1.023  -0.380  -0.425  0.00  0.00    -0.081 SA
ATOM      6  C   UNL d   1       0.235   0.698  -0.829  0.00  0.00     0.078 C 
ENDROOT
BRANCH   3   7
ATOM      7  C   UNL d   1      -0.748  -1.797   1.959  0.00  0.00    -0.002 A 
ATOM      8  C   UNL d   1      -0.525  -1.714   3.345  0.00  0.00     0.016 A 
ATOM      9  C   UNL d   1      -0.975  -2.727   4.203  0.00  0.00     0.024 A 
ATOM     10  C   UNL d   1      -1.641  -3.834   3.685  0.00  0.00     0.034 A 
ATOM     11  C   UNL d   1      -1.859  -3.942   2.315  0.00  0.00     0.024 A 
ATOM     12 CL   UNL d   1      -2.190  -5.081   4.735  0.00  0.00    -0.084 Cl
ATOM     13  C   UNL d   1      -1.412  -2.930   1.462  0.00  0.00     0.016 A 
ENDBRANCH   3   7
BRANCH   4  14
ATOM     14  C   UNL d   1       2.424   1.567   0.185  0.00  0.00     0.330 C 
BRANCH  14  15
ATOM     15  N   UNL d   1       3.635   0.843  -0.211  0.00  0.00     0.098 N 
ATOM     16  C   UNL d   1       3.645   0.249  -1.553  0.00  0.00     0.299 C 
ATOM     17  C   UNL d   1       3.237  -1.234  -1.629  0.00  0.00     0.198 C 
ATOM     18  O   UNL d   1       3.945  -2.033  -0.675  0.00  0.00    -0.388 OA
ATOM     19  C   UNL d   1       3.713  -1.544   0.652  0.00  0.00     0.198 C 
ATOM     20  C   UNL d   1       4.172  -0.085   0.793  0.00  0.00     0.299 C 
ENDBRANCH  14  15
ENDBRANCH   4  14
TORSDOF 3
