REMARK  3 active torsions:
REMARK  status: ('A' for Active; 'I' for Inactive)
REMARK    1  A    between atoms: C_9  and  C_5 
REMARK    2  A    between atoms: C_10  and  C_6 
REMARK    3  A    between atoms: O_8  and  C_7 
ROOT
ATOM      1  N   UNL d   1       0.886   0.638  -0.104  0.00  0.00    -0.328 N 
ATOM      2  HN  UNL d   1       1.721   1.199  -0.278  1.00  0.00     0.180 HD
ATOM      3  N   UNL d   1       0.896  -0.614  -0.019  0.00  0.00    -0.328 N 
ATOM      4  HN  UNL d   1       1.746  -1.175  -0.073  1.00  0.00     0.180 HD
ATOM      5  C   UNL d   1      -0.465   1.214   0.074  0.00  0.00     0.069 C 
ATOM      6  C   UNL d   1      -0.456  -1.193   0.170  0.00  0.00     0.069 C 
ATOM      7  C   UNL d   1      -1.399  -0.002  -0.096  0.00  0.00     0.176 C 
ATOM      8  C   UNL d   1      -0.526   1.819   1.484  0.00  0.00     0.043 C 
ATOM      9  C   UNL d   1      -0.583  -2.336  -0.851  0.00  0.00     0.043 C 
ENDROOT
BRANCH   5  10
ATOM     10  C   UNL d   1      -0.628   2.326  -0.990  0.00  0.00     0.030 C 
ATOM     11  C   UNL d   1      -1.956   3.070  -0.937  0.00  0.00     0.007 C 
ENDBRANCH   5  10
BRANCH   7  12
ATOM     12  O   UNL d   1      -1.972  -0.067  -1.407  0.00  0.00    -0.390 OA
ATOM     13  H   UNL d   1      -1.240  -0.082  -2.049  0.00  0.00     0.210 HD
ENDBRANCH   7  12
BRANCH   6  14
ATOM     14  C   UNL d   1      -0.536  -1.754   1.609  0.00  0.00     0.030 C 
ATOM     15  C   UNL d   1      -1.846  -2.457   1.946  0.00  0.00     0.007 C 
ENDBRANCH   6  14
TORSDOF 3
