REMARK  2 active torsions:
REMARK  status: ('A' for Active; 'I' for Inactive)
REMARK    1  A    between atoms: N_8  and  N_2 
REMARK    2  A    between atoms: C_9  and  N_8 
ROOT
ATOM      1  C   UNL d   1       1.126   0.514   0.435  0.00  0.00     0.209 C 
ATOM      2  N   UNL d   1       0.485   1.183  -0.476  0.00  0.00    -0.282 N 
ATOM      3  HN  UNL d   1      -0.517   1.348  -0.384  1.00  0.00     0.188 HD
ATOM      4  N   UNL d   1      -0.311  -0.415   2.388  0.00  0.00    -0.189 NA
ATOM      5  N   UNL d   1       3.684   0.115   0.233  0.00  0.00    -0.189 NA
ATOM      6  C   UNL d   1       0.316   0.013   1.509  0.00  0.00     0.130 C 
ATOM      7  C   UNL d   1       2.540   0.296   0.345  0.00  0.00     0.130 C 
ENDROOT
BRANCH   2   8
ATOM      8  N   UNL d   1       1.168   1.666  -1.563  0.00  0.00    -0.299 N 
ATOM      9  H   UNL d   1       1.918   1.111  -1.985  0.00  0.00     0.187 HD
BRANCH   8  10
ATOM     10  C   UNL d   1       0.401   2.364  -2.525  0.00  0.00     0.051 A 
ATOM     11  C   UNL d   1      -0.719   3.123  -2.158  0.00  0.00     0.054 A 
ATOM     12  C   UNL d   1      -1.438   3.835  -3.119  0.00  0.00     0.037 A 
ATOM     13 CL   UNL d   1      -2.795   4.780  -2.641  0.00  0.00    -0.084 Cl
ATOM     14  C   UNL d   1      -1.065   3.794  -4.459  0.00  0.00     0.048 A 
ATOM     15  C   UNL d   1       0.043   3.039  -4.828  0.00  0.00     0.037 A 
ATOM     16  C   UNL d   1       0.784   2.341  -3.872  0.00  0.00     0.054 A 
ATOM     17 CL   UNL d   1       0.504   2.957  -6.485  0.00  0.00    -0.084 Cl
ENDBRANCH   8  10
ENDBRANCH   2   8
TORSDOF 2
