REMARK  3 active torsions:
REMARK  status: ('A' for Active; 'I' for Inactive)
REMARK    1  A    between atoms: C_2  and  S_1 
REMARK    2  A    between atoms: C_5  and  S_1 
REMARK    3  A    between atoms: C_4  and  C_3 
ROOT
ATOM      1  C   UNL d   1       0.353  -0.660   1.456  0.00  0.00     0.146 C 
ATOM      2  C   UNL d   1      -0.488  -0.003   2.283  0.00  0.00     0.051 C 
ATOM      3  C   UNL d   1       0.855  -0.122   0.249  0.00  0.00     0.112 C 
ATOM      4  N   UNL d   1       1.246   0.333  -0.745  0.00  0.00    -0.191 NA
ENDROOT
BRANCH   1   5
ATOM      5  S   UNL d   1       0.755  -2.306   1.824  0.00  0.00     0.232 S 
ATOM      6  O   UNL d   1      -0.112  -3.166   1.031  0.00  0.00    -0.215 OA
ATOM      7  O   UNL d   1       0.821  -2.505   3.263  0.00  0.00    -0.215 OA
BRANCH   5   8
ATOM      8  C   UNL d   1       2.419  -2.522   1.192  0.00  0.00     0.134 A 
ATOM      9  N   UNL d   1       3.329  -1.659   1.715  0.00  0.00    -0.356 N 
ATOM     10  C   UNL d   1       4.598  -1.811   1.276  0.00  0.00     0.089 A 
ATOM     11  HN  UNL d   1       3.071  -0.943   2.394  1.00  0.00     0.166 HD
ATOM     12  C   UNL d   1       4.982  -2.757   0.335  0.00  0.00     0.017 A 
ATOM     13  C   UNL d   1       4.012  -3.607  -0.193  0.00  0.00     0.004 A 
ATOM     14  C   UNL d   1       2.697  -3.497   0.244  0.00  0.00     0.042 A 
ENDBRANCH   5   8
ENDBRANCH   1   5
BRANCH   2  15
ATOM     15  C   UNL d   1      -0.929   1.381   2.037  0.00  0.00     0.026 A 
ATOM     16  C   UNL d   1      -2.054   1.613   1.236  0.00  0.00     0.128 A 
ATOM     17  F   UNL d   1      -2.767   0.578   0.767  0.00  0.00    -0.205 F 
ATOM     18  C   UNL d   1      -2.448   2.903   0.887  0.00  0.00     0.043 A 
ATOM     19  C   UNL d   1      -1.716   3.996   1.346  0.00  0.00     0.005 A 
ATOM     20  C   UNL d   1      -0.607   3.790   2.167  0.00  0.00     0.025 A 
ATOM     21  C   UNL d   1      -0.216   2.491   2.514  0.00  0.00     0.047 A 
ATOM     22 CL   UNL d   1       1.175   2.308   3.524  0.00  0.00    -0.083 Cl
ENDBRANCH   2  15
TORSDOF 3
