REMARK  3 active torsions:
REMARK  status: ('A' for Active; 'I' for Inactive)
REMARK    1  A    between atoms: C_4  and  N_1 
REMARK    2  A    between atoms: C_5  and  O_9 
REMARK    3  A    between atoms: O_9  and  C_8 
ROOT
ATOM      1  C   UNL d   1      -1.635  -1.914  -0.739  0.00  0.00     0.079 A 
ATOM      2  C   UNL d   1      -1.487  -3.127  -0.040  0.00  0.00     0.105 A 
ATOM      3  C   UNL d   1      -2.647  -1.827  -1.710  0.00  0.00     0.033 A 
ATOM      4  C   UNL d   1      -2.275  -4.237  -0.363  0.00  0.00     0.039 A 
ATOM      5  C   UNL d   1      -3.439  -2.934  -2.023  0.00  0.00     0.002 A 
ATOM      6  C   UNL d   1      -3.248  -4.140  -1.355  0.00  0.00     0.003 A 
ENDROOT
BRANCH   1   7
ATOM      7  N   UNL d   1      -0.796  -0.792  -0.509  0.00  0.00    -0.249 N 
ATOM      8  C   UNL d   1       0.567  -0.866  -0.338  0.00  0.00     0.232 C 
ATOM      9  C   UNL d   1       1.097   0.515  -0.088  0.00  0.00     0.117 C 
ATOM     10  O   UNL d   1       1.296  -1.844  -0.398  0.00  0.00    -0.273 OA
ATOM     11  C   UNL d   1      -0.067   1.435  -0.414  0.00  0.00     0.083 C 
ATOM     12  C   UNL d   1      -1.246   0.506  -0.520  0.00  0.00     0.235 C 
ATOM     13  C   UNL d   1       0.109   2.169  -1.735  0.00  0.00     0.020 C 
ATOM     14  O   UNL d   1      -2.398   0.907  -0.616  0.00  0.00    -0.272 OA
ENDBRANCH   1   7
BRANCH   2  15
ATOM     15  O   UNL d   1      -0.572  -3.300   0.960  0.00  0.00    -0.253 OA
BRANCH  15  16
ATOM     16  C   UNL d   1      -0.957  -2.692   2.188  0.00  0.00     0.530 C 
ATOM     17  F   UNL d   1      -1.764  -1.619   2.026  0.00  0.00    -0.144 F 
ATOM     18  F   UNL d   1      -1.584  -3.594   2.971  0.00  0.00    -0.144 F 
ATOM     19  F   UNL d   1       0.155  -2.269   2.831  0.00  0.00    -0.144 F 
ENDBRANCH  15  16
ENDBRANCH   2  15
TORSDOF 3
