REMARK  5 active torsions:
REMARK  status: ('A' for Active; 'I' for Inactive)
REMARK    1  A    between atoms: C_8  and  C_1 
REMARK    2  A    between atoms: S_2  and  N_10 
REMARK    3  A    between atoms: C_16  and  C_9 
REMARK    4  A    between atoms: N_10  and  C_11 
REMARK    5  A    between atoms: C_14  and  C_16 
ROOT
ATOM      1  C   UNL d   1      -0.138  -1.022   0.246  0.00  0.00     0.176 A 
ATOM      2  N   UNL d   1       0.123  -0.068  -0.625  0.00  0.00    -0.277 N 
ATOM      3  HN  UNL d   1       0.103  -0.152  -1.641  1.00  0.00     0.189 HD
ATOM      4  O   UNL d   1      -0.045  -0.583   1.543  0.00  0.00    -0.277 OA
ATOM      5  N   UNL d   1       0.428   1.061   0.099  0.00  0.00    -0.281 N 
ATOM      6  HN  UNL d   1       0.705   1.970  -0.271  1.00  0.00     0.189 HD
ATOM      7  C   UNL d   1       0.290   0.733   1.367  0.00  0.00     0.144 A 
ENDROOT
BRANCH   1   8
ATOM      8  C   UNL d   1      -0.558  -2.396   0.039  0.00  0.00     0.044 A 
ATOM      9  C   UNL d   1      -1.266  -2.798  -1.112  0.00  0.00     0.056 A 
ATOM     10  C   UNL d   1      -1.683  -4.129  -1.244  0.00  0.00     0.031 A 
ATOM     11  C   UNL d   1      -1.388  -5.071  -0.260  0.00  0.00     0.002 A 
ATOM     12  C   UNL d   1      -0.670  -4.692   0.868  0.00  0.00     0.001 A 
ATOM     13  C   UNL d   1      -0.262  -3.365   1.017  0.00  0.00     0.018 A 
BRANCH   9  14
ATOM     14  N   UNL d   1      -1.618  -1.889  -2.165  0.00  0.00    -0.284 N 
ATOM     15  H   UNL d   1      -1.763  -0.911  -1.902  0.00  0.00     0.178 HD
BRANCH  14  16
ATOM     16  S   UNL d   1      -0.851  -2.043  -3.666  0.00  0.00     0.227 S 
ATOM     17  O   UNL d   1      -0.331  -3.381  -3.832  0.00  0.00    -0.206 OA
ATOM     18  O   UNL d   1      -1.749  -1.461  -4.642  0.00  0.00    -0.206 OA
ATOM     19  C   UNL d   1       0.523  -0.924  -3.501  0.00  0.00     0.186 C 
ENDBRANCH  14  16
ENDBRANCH   9  14
ENDBRANCH   1   8
BRANCH   7  20
ATOM     20  C   UNL d   1       0.357   1.593   2.574  0.00  0.00     0.124 C 
BRANCH  20  21
ATOM     21  C   UNL d   1      -0.960   2.282   2.858  0.00  0.00    -0.045 A 
ATOM     22  C   UNL d   1      -1.667   2.030   4.042  0.00  0.00     0.050 A 
ATOM     23  C   UNL d   1      -2.886   2.665   4.278  0.00  0.00     0.119 A 
ATOM     24  F   UNL d   1      -3.547   2.411   5.415  0.00  0.00    -0.206 F 
ATOM     25  C   UNL d   1      -3.428   3.550   3.358  0.00  0.00     0.084 A 
ATOM     26  C   UNL d   1      -2.730   3.802   2.187  0.00  0.00     0.119 A 
ATOM     27  C   UNL d   1      -1.507   3.186   1.931  0.00  0.00     0.050 A 
ATOM     28  F   UNL d   1      -3.239   4.650   1.284  0.00  0.00    -0.206 F 
ENDBRANCH  20  21
ENDBRANCH   7  20
TORSDOF 5
