REMARK  4 active torsions:
REMARK  status: ('A' for Active; 'I' for Inactive)
REMARK    1  A    between atoms: C_12  and  C_3 
REMARK    2  A    between atoms: C_10  and  N_6 
REMARK    3  A    between atoms: N_8  and  C_11 
REMARK    4  A    between atoms: C_9  and  C_10 
ROOT
ATOM      1  N   UNL d   1      -0.314  -1.181  -0.223  0.00  0.00    -0.268 N 
ATOM      2  HN  UNL d   1      -0.555  -2.155  -0.407  1.00  0.00     0.190 HD
ATOM      3  C   UNL d   1       0.891  -0.612  -0.037  0.00  0.00     0.144 A 
ATOM      4  N   UNL d   1       0.802   0.741   0.193  0.00  0.00    -0.266 N 
ATOM      5  HN  UNL d   1       1.580   1.381   0.355  1.00  0.00     0.186 HD
ATOM      6  N   UNL d   1      -1.117  -0.100  -0.098  0.00  0.00    -0.212 N 
ATOM      7  N   UNL d   1      -0.483   1.056   0.166  0.00  0.00    -0.002 NA
ENDROOT
BRANCH   3   8
ATOM      8  C   UNL d   1       2.163  -1.328  -0.034  0.00  0.00     0.013 A 
ATOM      9  C   UNL d   1       2.220  -2.707  -0.288  0.00  0.00     0.051 A 
ATOM     10  C   UNL d   1       3.458  -3.370  -0.264  0.00  0.00     0.103 A 
ATOM     11  C   UNL d   1       4.641  -2.674   0.012  0.00  0.00     0.036 A 
ATOM     12  C   UNL d   1       4.586  -1.304   0.264  0.00  0.00     0.003 A 
ATOM     13  C   UNL d   1       3.357  -0.638   0.240  0.00  0.00     0.015 A 
BRANCH  10  14
ATOM     14  N   UNL d   1       3.516  -4.815  -0.529  0.00  0.00    -0.116 N 
ATOM     15  O   UNL d   1       2.452  -5.402  -0.766  0.00  0.00    -0.532 OA
ATOM     16  O   UNL d   1       4.628  -5.360  -0.500  0.00  0.00    -0.532 OA
ENDBRANCH  10  14
ENDBRANCH   3   8
BRANCH   6  17
ATOM     17  C   UNL d   1      -2.564  -0.208  -0.020  0.00  0.00     0.210 C 
BRANCH  17  18
ATOM     18  C   UNL d   1      -3.225   0.035  -1.350  0.00  0.00     0.023 A 
ATOM     19  C   UNL d   1      -3.463  -1.055  -2.195  0.00  0.00     0.126 A 
ATOM     20  F   UNL d   1      -3.131  -2.289  -1.792  0.00  0.00    -0.205 F 
ATOM     21  C   UNL d   1      -4.058  -0.905  -3.445  0.00  0.00     0.043 A 
ATOM     22  C   UNL d   1      -4.431   0.360  -3.884  0.00  0.00     0.005 A 
ATOM     23  C   UNL d   1      -4.210   1.464  -3.061  0.00  0.00     0.024 A 
ATOM     24  C   UNL d   1      -3.612   1.304  -1.803  0.00  0.00     0.045 A 
ATOM     25 CL   UNL d   1      -3.407   2.722  -0.839  0.00  0.00    -0.084 Cl
ENDBRANCH  17  18
ENDBRANCH   6  17
TORSDOF 4
