REMARK  7 active torsions:
REMARK  status: ('A' for Active; 'I' for Inactive)
REMARK    1  A    between atoms: C_10  and  C_3 
REMARK    2  A    between atoms: O_9  and  C_4 
REMARK    3  A    between atoms: O_11  and  C_8 
REMARK    4  A    between atoms: C_12  and  O_9 
REMARK    5  A    between atoms: C_13  and  O_11 
REMARK    6  A    between atoms: C_14  and  C_12 
REMARK    7  A    between atoms: C_15  and  C_13 
ROOT
ATOM      1  N   UNL d   1      -1.116  -0.610  -0.082  0.00  0.00    -0.295 N 
ATOM      2  HN  UNL d   1      -2.030  -1.063  -0.075  1.00  0.00     0.187 HD
ATOM      3  C   UNL d   1       0.009  -1.369  -0.038  0.00  0.00     0.091 A 
ATOM      4  C   UNL d   1       1.270  -0.754  -0.046  0.00  0.00     0.102 A 
ATOM      5  N   UNL d   1      -1.040   0.754  -0.134  0.00  0.00    -0.279 N 
ATOM      6  HN  UNL d   1      -1.892   1.314  -0.169  1.00  0.00     0.189 HD
ATOM      7  C   UNL d   1       1.342   0.639  -0.079  0.00  0.00     0.096 A 
ATOM      8  C   UNL d   1       0.164   1.354  -0.139  0.00  0.00     0.160 A 
ENDROOT
BRANCH   4   9
ATOM      9  O   UNL d   1       2.386  -1.539   0.091  0.00  0.00    -0.344 OA
BRANCH   9  10
ATOM     10  C   UNL d   1       3.540  -1.152  -0.663  0.00  0.00     0.214 C 
BRANCH  10  11
ATOM     11  C   UNL d   1       4.578  -2.260  -0.629  0.00  0.00    -0.034 A 
ATOM     12  C   UNL d   1       5.533  -2.357  -1.652  0.00  0.00     0.009 A 
ATOM     13  C   UNL d   1       6.538  -3.327  -1.596  0.00  0.00     0.001 A 
ATOM     14  C   UNL d   1       6.604  -4.206  -0.520  0.00  0.00     0.000 A 
ATOM     15  C   UNL d   1       5.662  -4.122   0.503  0.00  0.00     0.001 A 
ATOM     16  C   UNL d   1       4.658  -3.152   0.450  0.00  0.00     0.009 A 
ENDBRANCH  10  11
ENDBRANCH   9  10
ENDBRANCH   4   9
BRANCH   3  17
ATOM     17  C   UNL d   1      -0.237  -2.831   0.010  0.00  0.00    -0.005 A 
ATOM     18  C   UNL d   1       0.629  -3.764  -0.587  0.00  0.00     0.014 A 
ATOM     19  C   UNL d   1       0.390  -5.139  -0.516  0.00  0.00     0.001 A 
ATOM     20  C   UNL d   1      -0.744  -5.617   0.132  0.00  0.00     0.000 A 
ATOM     21  C   UNL d   1      -1.638  -4.720   0.706  0.00  0.00     0.001 A 
ATOM     22  C   UNL d   1      -1.385  -3.345   0.646  0.00  0.00     0.014 A 
ENDBRANCH   3  17
BRANCH   8  23
ATOM     23  O   UNL d   1       0.251   2.731  -0.158  0.00  0.00    -0.330 OA
BRANCH  23  24
ATOM     24  C   UNL d   1      -0.931   3.326  -0.706  0.00  0.00     0.216 C 
BRANCH  24  25
ATOM     25  C   UNL d   1      -0.827   4.832  -0.647  0.00  0.00    -0.034 A 
ATOM     26  C   UNL d   1       0.272   5.503  -1.202  0.00  0.00     0.009 A 
ATOM     27  C   UNL d   1       0.332   6.898  -1.185  0.00  0.00     0.001 A 
ATOM     28  C   UNL d   1      -0.705   7.636  -0.619  0.00  0.00     0.000 A 
ATOM     29  C   UNL d   1      -1.803   6.982  -0.066  0.00  0.00     0.001 A 
ATOM     30  C   UNL d   1      -1.866   5.588  -0.080  0.00  0.00     0.009 A 
ENDBRANCH  24  25
ENDBRANCH  23  24
ENDBRANCH   8  23
TORSDOF 7
