REMARK  5 active torsions:
REMARK  status: ('A' for Active; 'I' for Inactive)
REMARK    1  A    between atoms: C_6  and  C_1 
REMARK    2  A    between atoms: C_10  and  C_4 
REMARK    3  A    between atoms: S_14  and  C_5 
REMARK       I    between atoms: N_8  and  C_6 
REMARK       I    between atoms: C_9  and  N_8 
REMARK    4  A    between atoms: O_18  and  C_9 
REMARK    5  A    between atoms: C_24  and  O_18 
ROOT
ATOM      1  C   UNL d   1       7.961  -1.734   0.725  0.00  0.00    -0.091 C 
ATOM      2  C   UNL d   1       8.820  -1.077   1.253  0.00  0.00     0.014 C 
ATOM      3  C   UNL d   1       6.944  -2.574   0.075  0.00  0.00     0.273 C 
ENDROOT
BRANCH   3   4
ATOM      4  O   UNL d   1       5.657  -1.942   0.147  0.00  0.00    -0.292 OA
BRANCH   4   5
ATOM      5  C   UNL d   1       5.103  -1.546  -1.024  0.00  0.00     0.368 C 
ATOM      6  N   UNL d   1       3.842  -1.027  -0.886  0.00  0.00    -0.269 N 
ATOM      7  C   UNL d   1       2.904  -1.482   0.013  0.00  0.00     0.265 C 
ATOM      8  H   UNL d   1       3.500  -0.566  -1.714  0.00  0.00     0.174 HD
ATOM      9  O   UNL d   1       3.086  -2.432   0.767  0.00  0.00    -0.267 OA
ATOM     10  O   UNL d   1       5.644  -1.612  -2.122  0.00  0.00    -0.238 OA
BRANCH   7  11
ATOM     11  C   UNL d   1       1.634  -0.764  -0.013  0.00  0.00     0.096 A 
ATOM     12  C   UNL d   1       1.372   0.645  -0.117  0.00  0.00     0.077 A 
ATOM     13  N   UNL d   1       0.053   0.886  -0.071  0.00  0.00    -0.296 N 
ATOM     14  N   UNL d   1      -0.530  -0.317   0.013  0.00  0.00    -0.289 N 
ATOM     15  HN  UNL d   1      -0.409   1.795  -0.094  1.00  0.00     0.187 HD
ATOM     16  C   UNL d   1       0.371  -1.347   0.020  0.00  0.00     0.104 A 
ATOM     17  C   UNL d   1      -1.976  -0.332   0.019  0.00  0.00     0.178 C 
BRANCH  12  18
ATOM     18  C   UNL d   1       2.272   1.792  -0.307  0.00  0.00    -0.007 A 
ATOM     19  C   UNL d   1       3.564   1.846   0.227  0.00  0.00     0.015 A 
ATOM     20  C   UNL d   1       4.392   2.946  -0.034  0.00  0.00     0.024 A 
ATOM     21  C   UNL d   1       3.923   4.013  -0.800  0.00  0.00     0.034 A 
ATOM     22  C   UNL d   1       2.630   3.995  -1.307  0.00  0.00     0.024 A 
ATOM     23 CL   UNL d   1       4.943   5.361  -1.115  0.00  0.00    -0.084 Cl
ATOM     24  C   UNL d   1       1.814   2.889  -1.064  0.00  0.00     0.015 A 
ENDBRANCH  12  18
BRANCH  16  25
ATOM     25  S   UNL d   1      -0.152  -3.004  -0.123  0.00  0.00    -0.114 SA
ATOM     26  C   UNL d   1       0.263  -3.706   1.487  0.00  0.00     0.097 C 
ENDBRANCH  16  25
ENDBRANCH   7  11
ENDBRANCH   4   5
ENDBRANCH   3   4
TORSDOF 5
