REMARK  3 active torsions:
REMARK  status: ('A' for Active; 'I' for Inactive)
REMARK    1  A    between atoms: C_3  and  C_1 
REMARK    2  A    between atoms: C_2  and  C_3 
REMARK    3  A    between atoms: C_14  and  C_7 
ROOT
ATOM      1  C   UNL d   1       1.429   2.267  -0.083  0.00  0.00     0.207 C 
ATOM      2  O   UNL d   1       0.676   2.286  -1.052  0.00  0.00    -0.285 OA
ENDROOT
BRANCH   1   3
ATOM      3  C   UNL d   1       2.920   2.213  -0.232  0.00  0.00     0.028 A 
ATOM      4  C   UNL d   1       3.555   1.558  -1.327  0.00  0.00    -0.011 A 
ATOM      5  C   UNL d   1       4.982   1.504  -1.359  0.00  0.00    -0.014 A 
ATOM      6  C   UNL d   1       2.848   0.948  -2.400  0.00  0.00     0.013 A 
ATOM      7  C   UNL d   1       5.594   0.859  -2.465  0.00  0.00     0.013 A 
ATOM      8  C   UNL d   1       5.755   2.095  -0.295  0.00  0.00    -0.015 A 
ATOM      9  C   UNL d   1       4.866   0.292  -3.511  0.00  0.00     0.001 A 
ATOM     10  C   UNL d   1       3.488   0.338  -3.478  0.00  0.00     0.001 A 
ATOM     11  C   UNL d   1       5.087   2.781   0.743  0.00  0.00    -0.024 A 
ATOM     12  C   UNL d   1       7.173   2.048  -0.200  0.00  0.00     0.013 A 
ATOM     13  C   UNL d   1       3.695   2.852   0.745  0.00  0.00     0.028 A 
ATOM     14  C   UNL d   1       5.804   3.387   1.790  0.00  0.00     0.012 A 
ATOM     15  C   UNL d   1       7.192   3.322   1.844  0.00  0.00     0.001 A 
ATOM     16  C   UNL d   1       7.878   2.647   0.849  0.00  0.00     0.001 A 
ENDBRANCH   1   3
BRANCH   1  17
ATOM     17  C   UNL d   1       0.767   2.272   1.277  0.00  0.00     0.081 C 
ATOM     18  N   UNL d   1       1.407   2.152   2.404  0.00  0.00    -0.321 N 
ATOM     19  N   UNL d   1       0.480   2.275   3.381  0.00  0.00    -0.239 NA
ATOM     20  HN  UNL d   1       2.408   1.997   2.526  1.00  0.00     0.180 HD
ATOM     21  C   UNL d   1      -0.877   2.061   2.881  0.00  0.00     0.126 C 
ATOM     22  H   UNL d   1       0.699   1.739   4.222  0.00  0.00     0.146 HD
ATOM     23  C   UNL d   1      -0.731   2.355   1.383  0.00  0.00     0.088 C 
BRANCH  23  24
ATOM     24  C   UNL d   1      -1.312   3.682   0.950  0.00  0.00    -0.047 A 
ATOM     25  C   UNL d   1      -2.212   3.722  -0.125  0.00  0.00     0.008 A 
ATOM     26  C   UNL d   1      -2.793   4.926  -0.523  0.00  0.00     0.001 A 
ATOM     27  C   UNL d   1      -2.476   6.107   0.146  0.00  0.00     0.000 A 
ATOM     28  C   UNL d   1      -1.565   6.085   1.200  0.00  0.00     0.001 A 
ATOM     29  C   UNL d   1      -0.981   4.881   1.597  0.00  0.00     0.008 A 
ENDBRANCH  23  24
ENDBRANCH   1  17
TORSDOF 3
