REMARK  1 active torsions:
REMARK  status: ('A' for Active; 'I' for Inactive)
REMARK    1  A    between atoms: C_11  and  C_6 
ROOT
ATOM      1  C   UNL d   1      -0.227   0.730   0.015  0.00  0.00     0.129 A 
ATOM      2  N   UNL d   1      -0.264  -0.672   0.040  0.00  0.00    -0.244 N 
ATOM      3  N   UNL d   1      -1.545  -1.129   0.057  0.00  0.00    -0.296 N 
ATOM      4  HN  UNL d   1      -1.862  -2.099   0.089  1.00  0.00     0.187 HD
ATOM      5  C   UNL d   1      -1.535   1.150  -0.002  0.00  0.00     0.077 A 
ATOM      6  C   UNL d   1      -2.295  -0.027   0.022  0.00  0.00     0.034 A 
ATOM      7  N   UNL d   1       0.944   1.435   0.004  0.00  0.00    -0.345 N 
ATOM      8  HN  UNL d   1       0.956   2.455  -0.004  1.00  0.00     0.167 HD
ATOM      9  C   UNL d   1       0.928  -1.414   0.037  0.00  0.00     0.034 A 
ATOM     10  C   UNL d   1       2.104  -0.759   0.015  0.00  0.00     0.051 A 
ATOM     11  C   UNL d   1       2.041   0.737   0.005  0.00  0.00     0.009 A 
ATOM     12  C   UNL d   1       0.868  -2.910   0.047  0.00  0.00     0.070 C 
ATOM     13  C   UNL d   1       3.351   1.483  -0.002  0.00  0.00     0.068 C 
ENDROOT
BRANCH   6  14
ATOM     14  C   UNL d   1      -3.816  -0.027   0.001  0.00  0.00     0.037 A 
ATOM     15  C   UNL d   1      -4.566  -1.104   0.758  0.00  0.00     0.011 A 
ATOM     16  C   UNL d   1      -4.530  -1.145  -0.731  0.00  0.00     0.011 A 
ENDBRANCH   6  14
TORSDOF 1
