REMARK  6 active torsions:
REMARK  status: ('A' for Active; 'I' for Inactive)
REMARK    1  A    between atoms: C_10  and  N_1 
REMARK    2  A    between atoms: C_11  and  C_4 
REMARK    3  A    between atoms: C_8  and  C_13 
REMARK    4  A    between atoms: C_9  and  C_12 
REMARK    5  A    between atoms: C_14  and  C_10 
REMARK    6  A    between atoms: C_19  and  C_14 
ROOT
ATOM      1  N   UNL d   1      -0.009  -1.242   0.097  0.00  0.00    -0.209 N 
ATOM      2  N   UNL d   1       1.211  -0.774  -0.222  0.00  0.00    -0.268 N 
ATOM      3  HN  UNL d   1       2.041  -1.274  -0.541  1.00  0.00     0.190 HD
ATOM      4  C   UNL d   1       1.026   0.540  -0.002  0.00  0.00     0.144 C 
ATOM      5  N   UNL d   1      -0.280   0.843   0.308  0.00  0.00    -0.266 N 
ATOM      6  HN  UNL d   1      -0.663   1.772   0.485  1.00  0.00     0.186 HD
ATOM      7  N   UNL d   1      -0.944  -0.305   0.334  0.00  0.00    -0.002 NA
ENDROOT
BRANCH   4   8
ATOM      8  C   UNL d   1       2.092   1.530  -0.080  0.00  0.00     0.012 A 
ATOM      9  C   UNL d   1       3.384   1.133  -0.462  0.00  0.00     0.031 A 
ATOM     10  C   UNL d   1       4.442   2.048  -0.522  0.00  0.00     0.049 A 
ATOM     11  C   UNL d   1       4.194   3.388  -0.188  0.00  0.00     0.032 A 
ATOM     12  C   UNL d   1       2.910   3.816   0.193  0.00  0.00     0.049 A 
ATOM     13  C   UNL d   1       1.865   2.876   0.243  0.00  0.00     0.031 A 
BRANCH  10  14
ATOM     14  C   UNL d   1       5.825   1.601  -0.931  0.00  0.00     0.417 C 
ATOM     15  F   UNL d   1       5.898   0.283  -1.266  0.00  0.00    -0.166 F 
ATOM     16  F   UNL d   1       6.291   2.286  -2.012  0.00  0.00    -0.166 F 
ATOM     17  F   UNL d   1       6.744   1.787   0.056  0.00  0.00    -0.166 F 
ENDBRANCH  10  14
BRANCH  12  18
ATOM     18  C   UNL d   1       2.681   5.268   0.546  0.00  0.00     0.417 C 
ATOM     19  F   UNL d   1       1.390   5.560   0.862  0.00  0.00    -0.166 F 
ATOM     20  F   UNL d   1       3.429   5.664   1.612  0.00  0.00    -0.166 F 
ATOM     21  F   UNL d   1       3.015   6.104  -0.475  0.00  0.00    -0.166 F 
ENDBRANCH  12  18
ENDBRANCH   4   8
BRANCH   1  22
ATOM     22  C   UNL d   1      -0.324  -2.651   0.036  0.00  0.00     0.251 C 
BRANCH  22  23
ATOM     23  C   UNL d   1      -0.017  -3.333   1.346  0.00  0.00     0.180 C 
ATOM     24  O   UNL d   1       0.365  -2.728   2.347  0.00  0.00    -0.290 OA
BRANCH  23  25
ATOM     25  C   UNL d   1      -0.191  -4.815   1.435  0.00  0.00     0.011 A 
ATOM     26  C   UNL d   1      -0.700  -5.583   0.380  0.00  0.00     0.015 A 
ATOM     27  C   UNL d   1      -0.847  -6.966   0.530  0.00  0.00     0.001 A 
ATOM     28  C   UNL d   1      -0.487  -7.587   1.725  0.00  0.00     0.000 A 
ATOM     29  C   UNL d   1       0.022  -6.830   2.777  0.00  0.00     0.001 A 
ATOM     30  C   UNL d   1       0.169  -5.450   2.633  0.00  0.00     0.015 A 
ENDBRANCH  23  25
ENDBRANCH  22  23
ENDBRANCH   1  22
TORSDOF 6
