REMARK  5 active torsions:
REMARK  status: ('A' for Active; 'I' for Inactive)
REMARK    1  A    between atoms: C_2  and  N_1 
REMARK    2  A    between atoms: C_3  and  N_1 
REMARK    3  A    between atoms: N_5  and  C_2 
REMARK    4  A    between atoms: C_11  and  C_3 
REMARK    5  A    between atoms: C_4  and  N_5 
ROOT
ATOM      1  N   UNL d   1       1.221   0.356  -0.009  0.00  0.00    -0.319 N 
ATOM      2  H   UNL d   1       0.684   0.395   0.846  0.00  0.00     0.170 HD
ENDROOT
BRANCH   1   3
ATOM      3  C   UNL d   1       0.439  -0.020  -1.103  0.00  0.00     0.177 C 
ATOM      4  S   UNL d   1       0.764   0.267  -2.707  0.00  0.00    -0.040 SA
BRANCH   3   5
ATOM      5  N   UNL d   1      -0.795  -0.545  -0.744  0.00  0.00    -0.332 N 
ATOM      6  H   UNL d   1      -1.576  -0.209  -1.301  0.00  0.00     0.168 HD
BRANCH   5   7
ATOM      7  C   UNL d   1      -1.073  -1.175   0.488  0.00  0.00     0.057 A 
ATOM      8  C   UNL d   1      -0.195  -2.161   0.959  0.00  0.00     0.055 A 
ATOM      9  C   UNL d   1      -0.405  -2.738   2.208  0.00  0.00     0.036 A 
ATOM     10 CL   UNL d   1       0.666  -3.955   2.775  0.00  0.00    -0.084 Cl
ATOM     11  C   UNL d   1      -1.470  -2.320   3.002  0.00  0.00     0.026 A 
ATOM     12  C   UNL d   1      -2.364  -1.356   2.524  0.00  0.00     0.028 A 
ATOM     13  C   UNL d   1      -2.185  -0.804   1.254  0.00  0.00     0.060 A 
ATOM     14 CL   UNL d   1      -3.268   0.428   0.722  0.00  0.00    -0.082 Cl
ENDBRANCH   5   7
ENDBRANCH   3   5
ENDBRANCH   1   3
BRANCH   1  15
ATOM     15  C   UNL d   1       2.494   0.898   0.096  0.00  0.00     0.111 C 
ATOM     16  N   UNL d   1       3.392   0.664  -0.798  0.00  0.00    -0.385 N 
ATOM     17  H   UNL d   1       2.989   0.070  -1.534  0.00  0.00     0.157 HD
ATOM     18  HN  UNL d   1       4.351   1.012  -0.779  1.00  0.00     0.157 HD
BRANCH  15  19
ATOM     19  C   UNL d   1       2.784   1.751   1.290  0.00  0.00     0.007 A 
ATOM     20  C   UNL d   1       1.775   2.258   2.127  0.00  0.00     0.015 A 
ATOM     21  C   UNL d   1       2.094   3.127   3.176  0.00  0.00     0.001 A 
ATOM     22  C   UNL d   1       3.417   3.506   3.392  0.00  0.00     0.000 A 
ATOM     23  C   UNL d   1       4.426   3.008   2.569  0.00  0.00     0.001 A 
ATOM     24  C   UNL d   1       4.110   2.133   1.526  0.00  0.00     0.015 A 
ENDBRANCH  15  19
ENDBRANCH   1  15
TORSDOF 5
