REMARK  5 active torsions:
REMARK  status: ('A' for Active; 'I' for Inactive)
REMARK    1  A    between atoms: O_10  and  C_1 
REMARK    2  A    between atoms: N_4  and  C_2 
REMARK    3  A    between atoms: N_5  and  C_3 
REMARK    4  A    between atoms: C_6  and  C_7 
REMARK    5  A    between atoms: N_11  and  O_10 
ROOT
ATOM      1  C   UNL d   1       2.860  -0.624   0.220  0.00  0.00     0.164 A 
ATOM      2  C   UNL d   1       1.499  -0.777   0.533  0.00  0.00     0.142 A 
ATOM      3  C   UNL d   1       3.351   0.679   0.265  0.00  0.00     0.142 A 
ATOM      4  C   UNL d   1       1.162   1.606   0.858  0.00  0.00     0.052 A 
ATOM      5  C   UNL d   1       2.523   1.787   0.573  0.00  0.00     0.055 A 
ATOM      6  C   UNL d   1       0.655   0.302   0.855  0.00  0.00     0.055 A 
ENDROOT
BRANCH   1   7
ATOM      7  O   UNL d   1       3.513  -1.782  -0.102  0.00  0.00    -0.233 OA
BRANCH   7   8
ATOM      8  N   UNL d   1       4.899  -1.707  -0.091  0.00  0.00    -0.263 N 
ATOM      9  C   UNL d   1       5.402  -2.824   0.358  0.00  0.00     0.052 C 
ATOM     10  C   UNL d   1       6.864  -3.009   0.458  0.00  0.00    -0.004 A 
ATOM     11  C   UNL d   1       4.610  -3.982   0.925  0.00  0.00     0.134 C 
ATOM     12  C   UNL d   1       7.406  -3.538   1.642  0.00  0.00    -0.037 A 
ATOM     13  C   UNL d   1       7.672  -2.727  -0.649  0.00  0.00     0.014 A 
ATOM     14  C   UNL d   1       8.801  -3.693   1.714  0.00  0.00     0.009 A 
ATOM     15  C   UNL d   1       6.588  -3.994   2.829  0.00  0.00     0.113 C 
ATOM     16  C   UNL d   1       9.614  -3.406   0.615  0.00  0.00     0.001 A 
ATOM     17  C   UNL d   1       9.047  -2.949  -0.573  0.00  0.00     0.001 A 
ATOM     18  S   UNL d   1       4.781  -3.861   2.724  0.00  0.00    -0.158 SA
ATOM     19  HN  UNL d   1       5.443  -0.898  -0.389  1.00  0.00     0.194 HD
ENDBRANCH   7   8
ENDBRANCH   1   7
BRANCH   2  20
ATOM     20  N   UNL d   1       0.908  -2.105   0.562  0.00  0.00    -0.113 N 
ATOM     21  O   UNL d   1       0.971  -2.779  -0.477  0.00  0.00    -0.532 OA
ATOM     22  O   UNL d   1       0.345  -2.443   1.609  0.00  0.00    -0.532 OA
ENDBRANCH   2  20
BRANCH   3  23
ATOM     23  N   UNL d   1       4.738   0.991  -0.013  0.00  0.00    -0.113 N 
ATOM     24  O   UNL d   1       5.478   1.128   0.970  0.00  0.00    -0.532 OA
ATOM     25  O   UNL d   1       5.024   1.232  -1.194  0.00  0.00    -0.532 OA
ENDBRANCH   3  23
BRANCH   4  26
ATOM     26  C   UNL d   1       0.237   2.767   1.154  0.00  0.00     0.417 C 
ATOM     27  F   UNL d   1       0.857   3.975   1.122  0.00  0.00    -0.166 F 
ATOM     28  F   UNL d   1      -0.784   2.840   0.257  0.00  0.00    -0.166 F 
ATOM     29  F   UNL d   1      -0.344   2.666   2.378  0.00  0.00    -0.166 F 
ENDBRANCH   4  26
TORSDOF 5
