REMARK  4 active torsions:
REMARK  status: ('A' for Active; 'I' for Inactive)
REMARK    1  A    between atoms: C_5  and  C_1 
REMARK    2  A    between atoms: C_8  and  C_2 
REMARK    3  A    between atoms: C_6  and  N_10 
REMARK       I    between atoms: N_11  and  C_8 
REMARK    4  A    between atoms: N_10  and  N_11 
ROOT
ATOM      1  C   UNL d   1      -1.395  -0.739   0.042  0.00  0.00     0.086 A 
ATOM      2  C   UNL d   1      -0.086  -1.319   0.011  0.00  0.00     0.094 A 
ATOM      3  N   UNL d   1      -1.321   0.580  -0.206  0.00  0.00    -0.259 N 
ATOM      4  HN  UNL d   1      -2.104   1.227  -0.292  1.00  0.00     0.195 HD
ATOM      5  O   UNL d   1       0.013   0.889  -0.321  0.00  0.00    -0.241 OA
ATOM      6  C   UNL d   1       0.753  -0.237  -0.188  0.00  0.00     0.090 A 
ATOM      7  C   UNL d   1       2.218  -0.048  -0.245  0.00  0.00     0.080 C 
ENDROOT
BRANCH   2   8
ATOM      8  C   UNL d   1       0.382  -2.683   0.119  0.00  0.00     0.275 C 
ATOM      9  N   UNL d   1      -0.291  -3.486   1.037  0.00  0.00    -0.265 N 
ATOM     10  H   UNL d   1      -0.836  -3.046   1.771  0.00  0.00     0.190 HD
ATOM     11  O   UNL d   1       1.335  -3.097  -0.534  0.00  0.00    -0.266 OA
BRANCH   9  12
ATOM     12  N   UNL d   1       0.377  -4.668   1.379  0.00  0.00    -0.295 N 
ATOM     13  H   UNL d   1       0.769  -5.146   0.557  0.00  0.00     0.187 HD
BRANCH  12  14
ATOM     14  C   UNL d   1      -0.193  -5.561   2.323  0.00  0.00     0.091 A 
ATOM     15  C   UNL d   1      -1.024  -5.196   3.403  0.00  0.00     0.063 A 
ATOM     16 CL   UNL d   1      -1.647  -3.593   3.631  0.00  0.00    -0.082 Cl
ATOM     17  C   UNL d   1      -1.379  -6.128   4.393  0.00  0.00     0.026 A 
ATOM     18  C   UNL d   1      -0.910  -7.438   4.342  0.00  0.00     0.003 A 
ATOM     19  C   UNL d   1      -0.094  -7.832   3.289  0.00  0.00     0.026 A 
ATOM     20  C   UNL d   1       0.259  -6.907   2.301  0.00  0.00     0.063 A 
ATOM     21 CL   UNL d   1       1.290  -7.472   1.023  0.00  0.00    -0.082 Cl
ENDBRANCH  12  14
ENDBRANCH   9  12
ENDBRANCH   2   8
BRANCH   1  22
ATOM     22  C   UNL d   1      -2.705  -1.353   0.274  0.00  0.00     0.037 A 
ATOM     23  C   UNL d   1      -3.566  -0.848   1.275  0.00  0.00     0.048 A 
ATOM     24 CL   UNL d   1      -3.129   0.452   2.338  0.00  0.00    -0.083 Cl
ATOM     25  C   UNL d   1      -4.832  -1.409   1.491  0.00  0.00     0.025 A 
ATOM     26  C   UNL d   1      -5.256  -2.499   0.739  0.00  0.00     0.003 A 
ATOM     27  C   UNL d   1      -4.422  -3.014  -0.248  0.00  0.00     0.025 A 
ATOM     28  C   UNL d   1      -3.169  -2.436  -0.497  0.00  0.00     0.048 A 
ATOM     29 CL   UNL d   1      -2.276  -3.103  -1.823  0.00  0.00    -0.083 Cl
ENDBRANCH   1  22
TORSDOF 4
