REMARK  2 active torsions:
REMARK  status: ('A' for Active; 'I' for Inactive)
REMARK    1  A    between atoms: C_7  and  C_1 
REMARK    2  A    between atoms: C_14  and  C_11 
ROOT
ATOM      1  C   UNL d   1      -1.915   1.098  -0.284  0.00  0.00     0.123 C 
ATOM      2  N   UNL d   1      -1.599  -0.283   0.216  0.00  0.00    -0.243 NA
ATOM      3  C   UNL d   1      -0.933   1.378  -1.478  0.00  0.00     0.025 C 
ATOM      4  N   UNL d   1      -1.672   1.892   0.907  0.00  0.00    -0.333 N 
ATOM      5  C   UNL d   1       0.277   0.719  -0.879  0.00  0.00    -0.024 C 
ATOM      6  C   UNL d   1      -0.148  -0.291  -0.000  0.00  0.00     0.020 C 
ATOM      7  C   UNL d   1      -1.804   1.161   2.070  0.00  0.00     0.233 C 
ATOM      8  C   UNL d   1      -1.880  -0.304   1.677  0.00  0.00     0.201 C 
ATOM      9  C   UNL d   1       0.793  -1.047   0.683  0.00  0.00     0.025 C 
ATOM     10  C   UNL d   1       1.607   1.107  -0.952  0.00  0.00     0.016 C 
ATOM     11  O   UNL d   1      -1.876   1.630   3.192  0.00  0.00    -0.272 OA
ATOM     12  C   UNL d   1       2.134  -0.642   0.641  0.00  0.00     0.008 C 
ATOM     13  C   UNL d   1       2.532   0.477  -0.115  0.00  0.00    -0.061 C 
ATOM     14  C   UNL d   1      -0.745   2.863  -1.814  0.00  0.00     0.024 C 
ATOM     15  C   UNL d   1      -1.339   0.617  -2.761  0.00  0.00     0.024 C 
ATOM     16  C   UNL d   1       3.926   1.024  -0.002  0.00  0.00     0.048 C 
ATOM     17  H   UNL d   1      -1.732   2.899   0.941  0.00  0.00     0.165 HD
ENDROOT
BRANCH   1  18
ATOM     18  C   UNL d   1      -3.359   1.416  -0.598  0.00  0.00     0.023 C 
ATOM     19  C   UNL d   1      -4.486   1.030   0.028  0.00  0.00     0.011 C 
BRANCH  19  20
ATOM     20  C   UNL d   1      -5.633   1.951   0.019  0.00  0.00    -0.036 A 
ATOM     21  C   UNL d   1      -5.442   3.275   0.465  0.00  0.00     0.012 A 
ATOM     22  C   UNL d   1      -6.501   4.179   0.514  0.00  0.00     0.020 A 
ATOM     23  C   UNL d   1      -7.769   3.759   0.136  0.00  0.00     0.011 A 
ATOM     24  C   UNL d   1      -7.982   2.446  -0.284  0.00  0.00     0.020 A 
ATOM     25 BR   UNL d   1      -9.212   4.977   0.206  0.00  0.00    -0.051 Br
ATOM     26  C   UNL d   1      -6.915   1.538  -0.339  0.00  0.00     0.012 A 
ENDBRANCH  19  20
ENDBRANCH   1  18
TORSDOF 2
