REMARK  4 active torsions:
REMARK  status: ('A' for Active; 'I' for Inactive)
REMARK    1  A    between atoms: C_10  and  C_1 
REMARK    2  A    between atoms: C_4  and  C_11 
REMARK       I    between atoms: C_7  and  N_9 
REMARK    3  A    between atoms: C_11  and  C_7 
REMARK    4  A    between atoms: N_9  and  C_8 
ROOT
ATOM      1  C   UNL d   1      -2.247   1.104  -4.179  0.00  0.00     0.229 C 
ATOM      2  N   UNL d   1      -1.936   2.156  -3.346  0.00  0.00    -0.325 N 
ATOM      3  O   UNL d   1      -2.040  -0.082  -3.900  0.00  0.00    -0.273 OA
ATOM      4  H   UNL d   1      -2.312   3.075  -3.593  0.00  0.00     0.169 HD
ENDROOT
BRANCH   2   5
ATOM      5  C   UNL d   1      -1.183   2.107  -2.140  0.00  0.00     0.057 A 
ATOM      6  C   UNL d   1      -0.524   0.950  -1.706  0.00  0.00     0.047 A 
ATOM      7  C   UNL d   1       0.248   0.934  -0.529  0.00  0.00     0.050 A 
ATOM      8  C   UNL d   1       0.377   2.116   0.214  0.00  0.00     0.018 A 
ATOM      9  C   UNL d   1      -0.279   3.277  -0.197  0.00  0.00     0.027 A 
ATOM     10  C   UNL d   1      -1.058   3.271  -1.360  0.00  0.00     0.060 A 
ATOM     11 CL   UNL d   1      -1.865   4.737  -1.800  0.00  0.00    -0.082 Cl
BRANCH   7  12
ATOM     12  C   UNL d   1       0.935  -0.332  -0.070  0.00  0.00     0.417 C 
ATOM     13  F   UNL d   1       0.647  -1.424  -0.829  0.00  0.00    -0.166 F 
ATOM     14  F   UNL d   1       0.599  -0.666   1.207  0.00  0.00    -0.166 F 
ATOM     15  F   UNL d   1       2.291  -0.217  -0.080  0.00  0.00    -0.166 F 
ENDBRANCH   7  12
ENDBRANCH   2   5
BRANCH   1  16
ATOM     16  C   UNL d   1      -2.925   1.400  -5.502  0.00  0.00     0.181 C 
BRANCH  16  17
ATOM     17  C   UNL d   1      -2.967   2.802  -5.965  0.00  0.00     0.112 A 
ATOM     18  N   UNL d   1      -3.156   3.883  -5.134  0.00  0.00    -0.333 N 
ATOM     19  C   UNL d   1      -3.234   4.871  -5.993  0.00  0.00     0.260 A 
ATOM     20  HN  UNL d   1      -3.220   3.908  -4.116  1.00  0.00     0.168 HD
ATOM     21  O   UNL d   1      -3.105   4.490  -7.288  0.00  0.00    -0.232 OA
ATOM     22  N   UNL d   1      -2.930   3.106  -7.272  0.00  0.00    -0.247 N 
ATOM     23  HN  UNL d   1      -2.805   2.476  -8.064  1.00  0.00     0.196 HD
ENDBRANCH  16  17
ENDBRANCH   1  16
TORSDOF 4
