REMARK  2 active torsions:
REMARK  status: ('A' for Active; 'I' for Inactive)
REMARK    1  A    between atoms: C_2  and  C_1 
REMARK    2  A    between atoms: N_6  and  C_1 
ROOT
ATOM      1  C   UNL d   1       0.215  -1.258   0.484  0.00  0.00     0.002 A 
ATOM      2  C   UNL d   1      -0.845  -1.734  -0.305  0.00  0.00     0.017 A 
ATOM      3  C   UNL d   1       0.563  -1.955   1.654  0.00  0.00     0.017 A 
ATOM      4  C   UNL d   1      -1.174  -3.567   1.222  0.00  0.00     0.116 A 
ATOM      5  C   UNL d   1      -1.539  -2.889   0.066  0.00  0.00     0.043 A 
ATOM      6  C   UNL d   1      -0.131  -3.111   2.019  0.00  0.00     0.043 A 
ATOM      7  F   UNL d   1      -1.840  -4.674   1.577  0.00  0.00    -0.206 F 
ENDROOT
BRANCH   1   8
ATOM      8  C   UNL d   1       0.963  -0.025   0.104  0.00  0.00     0.104 C 
ATOM      9  S   UNL d   1       0.311   1.304  -0.673  0.00  0.00    -0.060 SA
BRANCH   8  10
ATOM     10  N   UNL d   1       2.298   0.007   0.419  0.00  0.00    -0.390 N 
ATOM     11  H   UNL d   1       2.808  -0.785   0.788  0.00  0.00     0.157 HD
ATOM     12  H   UNL d   1       2.839   0.817   0.137  0.00  0.00     0.157 HD
ENDBRANCH   8  10
ENDBRANCH   1   8
TORSDOF 2
