REMARK  11 active torsions:
REMARK  status: ('A' for Active; 'I' for Inactive)
REMARK       I    between atoms: N_17  and  C1_1 
REMARK    1  A    between atoms: O1_4  and  C1_1 
REMARK    2  A    between atoms: C2_2  and  C3_3 
REMARK    3  A    between atoms: C3_3  and  O1_4 
REMARK    4  A    between atoms: O5_11  and  C9_9 
REMARK    5  A    between atoms: O6_12  and  C10_10 
REMARK    6  A    between atoms: CA_18  and  N_17 
REMARK    7  A    between atoms: CB_21  and  CA_18 
REMARK    8  A    between atoms: CA_18  and  C_19 
REMARK    9  A    between atoms: OXT_22  and  C_19 
REMARK   10  A    between atoms: C_28  and  N_27 
REMARK   11  A    between atoms: C_29  and  N_27 
ROOT
ATOM      1  N   UNL d   1       1.086  -0.530   0.874  0.00  0.00     0.092 N 
ATOM      2  H   UNL d   1       0.184  -0.677   1.326  0.00  0.00     0.316 HD
ENDROOT
BRANCH   1   3
ATOM      3  C   UNL d   1       1.531   0.861   1.114  0.00  0.00     0.221 C 
ATOM      4  C   UNL d   1       2.815   1.309   0.383  0.00  0.00     0.035 C 
ATOM      5  C   UNL d   1       4.085   0.663   0.931  0.00  0.00     0.002 C 
ATOM      6  C   UNL d   1       4.263   0.988   2.410  0.00  0.00     0.000 C 
ATOM      7  C   UNL d   1       3.036   0.580   3.220  0.00  0.00     0.002 C 
ATOM      8  C   UNL d   1       1.725   1.116   2.631  0.00  0.00     0.035 C 
ENDBRANCH   1   3
BRANCH   1   9
ATOM      9  C   UNL d   1       1.015  -0.965  -0.534  0.00  0.00     0.221 C 
ATOM     10  C   UNL d   1      -0.008  -0.221  -1.431  0.00  0.00     0.035 C 
ATOM     11  C   UNL d   1      -1.454  -0.714  -1.360  0.00  0.00     0.002 C 
ATOM     12  C   UNL d   1      -1.578  -2.229  -1.469  0.00  0.00     0.000 C 
ATOM     13  C   UNL d   1      -0.665  -2.937  -0.479  0.00  0.00     0.002 C 
ATOM     14  C   UNL d   1       0.786  -2.486  -0.624  0.00  0.00     0.035 C 
ENDBRANCH   1   9
TORSDOF 11
