REMARK  2 active torsions:
REMARK  status: ('A' for Active; 'I' for Inactive)
REMARK    1  A    between atoms: C_9  and  C_3 
REMARK    2  A    between atoms: C_10  and  C_4 
ROOT
ATOM      1  C   UNL d   1      -0.443  -1.003   0.013  0.00  0.00    -0.037 A 
ATOM      2  C   UNL d   1       0.066   0.305   0.002  0.00  0.00    -0.042 A 
ATOM      3  C   UNL d   1      -1.819  -1.210   0.002  0.00  0.00     0.017 A 
ATOM      4  C   UNL d   1      -2.164   1.248  -0.022  0.00  0.00    -0.049 A 
ATOM      5  C   UNL d   1      -0.774   1.415  -0.024  0.00  0.00     0.016 A 
ATOM      6  C   UNL d   1      -2.661  -0.077  -0.002  0.00  0.00     0.023 A 
ATOM      7  C   UNL d   1       1.579   0.320   0.007  0.00  0.00    -0.020 C 
ATOM      8  C   UNL d   1       0.685  -1.988   0.012  0.00  0.00     0.041 C 
ATOM      9  C   UNL d   1       1.874  -1.128   0.461  0.00  0.00     0.018 C 
ATOM     10  C   UNL d   1       2.172   1.326   1.000  0.00  0.00     0.020 C 
ATOM     11  C   UNL d   1       2.107   0.597  -1.407  0.00  0.00     0.020 C 
ENDROOT
BRANCH   4  12
ATOM     12  C   UNL d   1      -3.135   2.443  -0.036  0.00  0.00    -0.024 C 
ATOM     13  C   UNL d   1      -4.024   2.409   1.225  0.00  0.00     0.019 C 
ATOM     14  C   UNL d   1      -2.426   3.819  -0.054  0.00  0.00     0.019 C 
ATOM     15  C   UNL d   1      -4.029   2.379  -1.292  0.00  0.00     0.019 C 
ENDBRANCH   4  12
BRANCH   3  16
ATOM     16  C   UNL d   1      -2.489  -2.542   0.032  0.00  0.00     0.156 C 
ATOM     17  O   UNL d   1      -3.586  -2.651   0.581  0.00  0.00    -0.293 OA
ATOM     18  C   UNL d   1      -1.855  -3.732  -0.636  0.00  0.00     0.097 C 
ENDBRANCH   3  16
TORSDOF 2
