REMARK  4 active torsions:
REMARK  status: ('A' for Active; 'I' for Inactive)
REMARK    1  A    between atoms: C_3  and  C_1 
REMARK    2  A    between atoms: O_10  and  N_4 
REMARK    3  A    between atoms: C_17  and  O_10 
REMARK    4  A    between atoms: C_11  and  C_17 
ROOT
ATOM      1  O   UNL d   1       0.374   4.895  -0.032  0.00  0.00    -0.276 OA
ENDROOT
BRANCH   1   2
ATOM      2  N   UNL d   1       0.916   3.598  -0.048  0.00  0.00    -0.276 N 
ATOM      3  C   UNL d   1      -0.048   2.730  -0.045  0.00  0.00     0.132 C 
ATOM      4  HN  UNL d   1       1.911   3.374  -0.059  1.00  0.00     0.193 HD
BRANCH   3   5
ATOM      5  C   UNL d   1       0.249   1.319  -0.057  0.00  0.00     0.022 A 
ATOM      6  S   UNL d   1      -1.031   0.187  -0.063  0.00  0.00    -0.101 SA
ATOM      7  C   UNL d   1       0.055  -1.135  -0.076  0.00  0.00     0.050 A 
ATOM      8  C   UNL d   1       1.369  -0.725  -0.075  0.00  0.00     0.008 A 
ATOM      9  C   UNL d   1       1.481   0.696  -0.064  0.00  0.00     0.021 A 
ENDBRANCH   3   5
ENDBRANCH   1   2
BRANCH   1  10
ATOM     10  C   UNL d   1       1.456   5.831  -0.030  0.00  0.00     0.239 C 
BRANCH  10  11
ATOM     11  C   UNL d   1       0.910   7.237  -0.037  0.00  0.00    -0.032 A 
ATOM     12  C   UNL d   1       1.212   8.127   1.004  0.00  0.00     0.011 A 
ATOM     13  C   UNL d   1       0.721   9.435   0.983  0.00  0.00     0.024 A 
ATOM     14  C   UNL d   1      -0.074   9.859  -0.080  0.00  0.00     0.034 A 
ATOM     15  C   UNL d   1      -0.382   8.988  -1.122  0.00  0.00     0.024 A 
ATOM     16 CL   UNL d   1      -0.678  11.470  -0.105  0.00  0.00    -0.084 Cl
ATOM     17  C   UNL d   1       0.110   7.681  -1.101  0.00  0.00     0.011 A 
ENDBRANCH  10  11
ENDBRANCH   1  10
TORSDOF 4
