REMARK  2 active torsions:
REMARK  status: ('A' for Active; 'I' for Inactive)
REMARK    1  A    between atoms: C_2  and  C_1 
REMARK       I    between atoms: N_4  and  C_2 
REMARK    2  A    between atoms: C_5  and  N_4 
ROOT
ATOM      1  C   UNL d   1      -0.291  -4.107   1.194  0.00  0.00     0.109 A 
ATOM      2  C   UNL d   1      -1.229  -4.349   0.173  0.00  0.00     0.059 A 
ATOM      3  C   UNL d   1      -0.540  -3.203   2.279  0.00  0.00     0.105 C 
ATOM      4  N   UNL d   1      -0.774  -2.520   3.192  0.00  0.00    -0.191 NA
ATOM      5  C   UNL d   1       0.877  -4.872   1.228  0.00  0.00     0.139 A 
ATOM      6  F   UNL d   1       1.785  -4.683   2.197  0.00  0.00    -0.204 F 
ATOM      7  C   UNL d   1      -1.011  -5.392  -0.740  0.00  0.00     0.031 A 
ATOM      8  C   UNL d   1       0.171  -6.133  -0.700  0.00  0.00     0.005 A 
ATOM      9  C   UNL d   1       1.121  -5.864   0.281  0.00  0.00     0.044 A 
ENDROOT
BRANCH   2  10
ATOM     10  N   UNL d   1      -2.416  -3.601   0.002  0.00  0.00    -0.321 N 
ATOM     11  C   UNL d   1      -2.418  -2.217  -0.021  0.00  0.00     0.257 C 
ATOM     12  O   UNL d   1      -1.395  -1.540   0.053  0.00  0.00    -0.267 OA
ATOM     13  H   UNL d   1      -3.177  -4.053  -0.494  0.00  0.00     0.169 HD
BRANCH  11  14
ATOM     14  C   UNL d   1      -3.733  -1.520  -0.161  0.00  0.00     0.054 A 
ATOM     15  C   UNL d   1      -4.915  -2.075  -0.676  0.00  0.00     0.051 A 
ATOM     16  C   UNL d   1      -6.101  -1.326  -0.684  0.00  0.00     0.048 A 
ATOM     17 CL   UNL d   1      -5.016  -3.656  -1.373  0.00  0.00    -0.083 Cl
ATOM     18  C   UNL d   1      -6.109  -0.020  -0.201  0.00  0.00     0.035 A 
ATOM     19  C   UNL d   1      -4.939   0.559   0.276  0.00  0.00     0.025 A 
ATOM     20 CL   UNL d   1      -7.572   0.881  -0.198  0.00  0.00    -0.084 Cl
ATOM     21  C   UNL d   1      -3.759  -0.187   0.294  0.00  0.00     0.020 A 
ENDBRANCH  11  14
ENDBRANCH   2  10
TORSDOF 2
