REMARK  5 active torsions:
REMARK  status: ('A' for Active; 'I' for Inactive)
REMARK    1  A    between atoms: C_2  and  C_1 
REMARK    2  A    between atoms: O_4  and  C_2 
REMARK    3  A    between atoms: O_5  and  C_3 
REMARK    4  A    between atoms: C_9  and  O_4 
REMARK    5  A    between atoms: C_10  and  O_5 
ROOT
ATOM      1  C   UNL d   1       1.340   0.848   0.006  0.00  0.00     0.091 A 
ATOM      2  C   UNL d   1       0.047   0.369   0.217  0.00  0.00     0.164 A 
ATOM      3  N   UNL d   1      -0.259  -0.955   0.299  0.00  0.00    -0.346 N 
ATOM      4  HN  UNL d   1      -1.207  -1.268   0.511  1.00  0.00     0.167 HD
ATOM      5  C   UNL d   1       2.335  -0.099  -0.261  0.00  0.00     0.023 A 
ATOM      6  C   UNL d   1       0.737  -1.836   0.090  0.00  0.00     0.090 A 
ATOM      7  C   UNL d   1       2.034  -1.459  -0.204  0.00  0.00     0.018 A 
ENDROOT
BRANCH   1   8
ATOM      8  C   UNL d   1       1.601   2.299  -0.054  0.00  0.00     0.302 C 
ATOM      9  O   UNL d   1       0.779   3.087  -0.503  0.00  0.00    -0.259 OA
BRANCH   8  10
ATOM     10  O   UNL d   1       2.863   2.758   0.374  0.00  0.00    -0.275 OA
BRANCH  10  11
ATOM     11  C   UNL d   1       4.096   2.379   1.010  0.00  0.00     0.079 A 
ATOM     12  C   UNL d   1       5.203   3.150   0.651  0.00  0.00     0.037 A 
ATOM     13  C   UNL d   1       6.449   2.859   1.201  0.00  0.00     0.003 A 
ATOM     14  C   UNL d   1       6.575   1.804   2.106  0.00  0.00     0.000 A 
ATOM     15  C   UNL d   1       5.452   1.057   2.477  0.00  0.00     0.003 A 
ATOM     16  C   UNL d   1       4.195   1.353   1.941  0.00  0.00     0.037 A 
ENDBRANCH  10  11
ENDBRANCH   8  10
ENDBRANCH   1   8
BRANCH   2  17
ATOM     17  O   UNL d   1      -1.005   1.253   0.383  0.00  0.00    -0.293 OA
BRANCH  17  18
ATOM     18  C   UNL d   1      -2.123   1.028  -0.397  0.00  0.00     0.077 A 
ATOM     19  C   UNL d   1      -3.365   1.265   0.194  0.00  0.00     0.037 A 
ATOM     20  C   UNL d   1      -4.539   1.082  -0.543  0.00  0.00     0.003 A 
ATOM     21  C   UNL d   1      -4.471   0.677  -1.876  0.00  0.00     0.000 A 
ATOM     22  C   UNL d   1      -3.232   0.468  -2.478  0.00  0.00     0.003 A 
ATOM     23  C   UNL d   1      -2.057   0.653  -1.744  0.00  0.00     0.037 A 
ENDBRANCH  17  18
ENDBRANCH   2  17
TORSDOF 5
