REMARK  2 active torsions:
REMARK  status: ('A' for Active; 'I' for Inactive)
REMARK    1  A    between atoms: C_12  and  C_4 
REMARK    2  A    between atoms: N_7  and  N_10 
ROOT
ATOM      1  N   UNL d   1      -1.404  -3.639  -1.377  0.00  0.00    -0.334 N 
ATOM      2  HN  UNL d   1      -1.068  -4.589  -1.216  1.00  0.00     0.168 HD
ATOM      3  C   UNL d   1      -0.962  -2.572  -0.750  0.00  0.00     0.163 A 
ATOM      4  C   UNL d   1      -2.388  -3.294  -2.287  0.00  0.00     0.051 A 
ATOM      5  S   UNL d   1      -1.761  -1.101  -1.184  0.00  0.00    -0.062 SA
ATOM      6  C   UNL d   1      -2.693  -1.952  -2.343  0.00  0.00     0.083 A 
ATOM      7  N   UNL d   1       0.038  -2.534   0.172  0.00  0.00    -0.279 N 
ATOM      8  H   UNL d   1       0.224  -1.610   0.554  0.00  0.00     0.189 HD
ENDROOT
BRANCH   7   9
ATOM      9  N   UNL d   1       1.046  -3.455   0.170  0.00  0.00    -0.302 N 
ATOM     10  C   UNL d   1       2.075  -3.283   0.946  0.00  0.00     0.036 C 
ATOM     11  C   UNL d   1       3.222  -4.243   0.845  0.00  0.00    -0.006 A 
ATOM     12  C   UNL d   1       2.215  -2.124   1.924  0.00  0.00     0.060 C 
ATOM     13  C   UNL d   1       4.385  -4.047   1.610  0.00  0.00    -0.046 A 
ATOM     14  C   UNL d   1       3.141  -5.334  -0.032  0.00  0.00     0.014 A 
ATOM     15  C   UNL d   1       5.451  -4.951   1.483  0.00  0.00     0.008 A 
ATOM     16  C   UNL d   1       4.526  -2.862   2.525  0.00  0.00     0.040 C 
ATOM     17  C   UNL d   1       5.356  -6.042   0.619  0.00  0.00     0.001 A 
ATOM     18  C   UNL d   1       4.204  -6.232  -0.140  0.00  0.00     0.001 A 
ATOM     19  C   UNL d   1       3.170  -2.440   3.063  0.00  0.00     0.011 C 
ATOM     20  HN  UNL d   1       0.992  -4.272  -0.438  1.00  0.00     0.186 HD
ENDBRANCH   7   9
BRANCH   4  21
ATOM     21  C   UNL d   1      -3.056  -4.320  -3.076  0.00  0.00    -0.009 A 
ATOM     22  C   UNL d   1      -3.338  -5.560  -2.484  0.00  0.00     0.014 A 
ATOM     23  C   UNL d   1      -3.975  -6.567  -3.213  0.00  0.00     0.001 A 
ATOM     24  C   UNL d   1      -4.327  -6.347  -4.542  0.00  0.00     0.000 A 
ATOM     25  C   UNL d   1      -4.046  -5.120  -5.143  0.00  0.00     0.001 A 
ATOM     26  C   UNL d   1      -3.414  -4.108  -4.413  0.00  0.00     0.014 A 
ENDBRANCH   4  21
TORSDOF 2
