REMARK  6 active torsions:
REMARK  status: ('A' for Active; 'I' for Inactive)
REMARK    1  A    between atoms: C_7  and  C_1 
REMARK    2  A    between atoms: O_13  and  C_7 
REMARK    3  A    between atoms: N_8  and  N_10 
REMARK    4  A    between atoms: C_14  and  C_12 
REMARK    5  A    between atoms: C_22  and  O_13 
REMARK    6  A    between atoms: O_20  and  C_15 
ROOT
ATOM      1  C   UNL d   1      -0.974  -0.396   0.082  0.00  0.00     0.109 A 
ATOM      2  C   UNL d   1      -1.395   0.906  -0.098  0.00  0.00     0.153 A 
ATOM      3  N   UNL d   1       0.877   0.956  -0.103  0.00  0.00    -0.302 N 
ATOM      4  HN  UNL d   1       1.837   1.299  -0.154  1.00  0.00     0.186 HD
ATOM      5  N   UNL d   1      -0.260   1.658  -0.190  0.00  0.00    -0.283 N 
ATOM      6  C   UNL d   1       0.455  -0.305   0.064  0.00  0.00     0.042 A 
ATOM      7  N   UNL d   1      -2.604   1.510  -0.195  0.00  0.00    -0.284 N 
ATOM      8  C   UNL d   1       1.459  -1.388   0.214  0.00  0.00     0.071 C 
ATOM      9  H   UNL d   1      -0.234   2.663  -0.313  0.00  0.00     0.188 HD
ATOM     10  H   UNL d   1      -3.454   0.956  -0.039  0.00  0.00     0.188 HD
ENDROOT
BRANCH   1  11
ATOM     11  C   UNL d   1      -1.828  -1.543   0.292  0.00  0.00     0.299 C 
ATOM     12  O   UNL d   1      -3.052  -1.463   0.363  0.00  0.00    -0.259 OA
BRANCH  11  13
ATOM     13  O   UNL d   1      -1.124  -2.690   0.501  0.00  0.00    -0.318 OA
BRANCH  13  14
ATOM     14  C   UNL d   1      -1.822  -3.720   1.211  0.00  0.00     0.174 C 
ATOM     15  C   UNL d   1      -1.642  -3.459   2.697  0.00  0.00     0.034 C 
ENDBRANCH  13  14
ENDBRANCH  11  13
ENDBRANCH   1  11
BRANCH   7  16
ATOM     16  N   UNL d   1      -2.673   2.864  -0.224  0.00  0.00    -0.309 N 
ATOM     17  C   UNL d   1      -3.726   3.386  -0.766  0.00  0.00     0.118 C 
ATOM     18  HN  UNL d   1      -1.930   3.444   0.164  1.00  0.00     0.186 HD
BRANCH  17  19
ATOM     19  C   UNL d   1      -3.867   4.857  -0.821  0.00  0.00    -0.019 A 
ATOM     20  C   UNL d   1      -2.875   5.669  -0.259  0.00  0.00     0.015 A 
ATOM     21  C   UNL d   1      -3.015   7.058  -0.254  0.00  0.00     0.037 A 
ATOM     22  C   UNL d   1      -4.149   7.647  -0.811  0.00  0.00     0.068 A 
ATOM     23  C   UNL d   1      -5.127   6.832  -1.395  0.00  0.00     0.037 A 
ATOM     24  C   UNL d   1      -4.991   5.438  -1.407  0.00  0.00     0.015 A 
BRANCH  22  25
ATOM     25  O   UNL d   1      -4.420   8.987  -0.838  0.00  0.00    -0.356 OA
ATOM     26  C   UNL d   1      -3.462   9.848  -0.232  0.00  0.00     0.210 C 
ENDBRANCH  22  25
ENDBRANCH  17  19
ENDBRANCH   7  16
TORSDOF 6
