REMARK  6 active torsions:
REMARK  status: ('A' for Active; 'I' for Inactive)
REMARK    1  A    between atoms: C_2  and  S_1 
REMARK    2  A    between atoms: N_7  and  S_1 
REMARK    3  A    between atoms: C_10  and  C_3 
REMARK    4  A    between atoms: C_5  and  C_11 
REMARK    5  A    between atoms: C_25  and  N_15 
REMARK    6  A    between atoms: C_26  and  C_25 
ROOT
ATOM      1  S   UNL d   1       1.234  -0.325   0.180  0.00  0.00     0.250 S 
ATOM      2  O   UNL d   1       1.034  -0.212   1.610  0.00  0.00    -0.205 OA
ATOM      3  O   UNL d   1       0.889  -1.540  -0.524  0.00  0.00    -0.205 OA
ENDROOT
BRANCH   1   4
ATOM      4  C   UNL d   1       2.987  -0.128  -0.015  0.00  0.00     0.116 A 
ATOM      5  S   UNL d   1       3.562   0.036  -1.614  0.00  0.00    -0.075 SA
ATOM      6  C   UNL d   1       5.138   0.415  -1.075  0.00  0.00     0.035 A 
ATOM      7  C   UNL d   1       5.255   0.299   0.295  0.00  0.00     0.023 A 
ATOM      8  C   UNL d   1       4.011  -0.027   0.908  0.00  0.00     0.034 A 
BRANCH   6   9
ATOM      9  C   UNL d   1       6.244   0.859  -1.980  0.00  0.00     0.074 A 
ATOM     10  C   UNL d   1       6.191   0.956  -3.387  0.00  0.00     0.077 A 
ATOM     11  C   UNL d   1       7.410   1.487  -3.740  0.00  0.00     0.184 A 
ATOM     12  O   UNL d   1       8.155   1.674  -2.618  0.00  0.00    -0.233 OA
ATOM     13  N   UNL d   1       7.429   1.271  -1.511  0.00  0.00    -0.260 N 
ATOM     14  HN  UNL d   1       7.734   1.286  -0.538  1.00  0.00     0.195 HD
BRANCH  11  15
ATOM     15  C   UNL d   1       8.025   1.888  -5.015  0.00  0.00     0.441 C 
ATOM     16  F   UNL d   1       7.257   1.521  -6.075  0.00  0.00    -0.164 F 
ATOM     17  F   UNL d   1       8.184   3.233  -5.101  0.00  0.00    -0.164 F 
ATOM     18  F   UNL d   1       9.244   1.327  -5.203  0.00  0.00    -0.164 F 
ENDBRANCH  11  15
ENDBRANCH   6   9
ENDBRANCH   1   4
BRANCH   1  19
ATOM     19  N   UNL d   1       0.452   0.982  -0.588  0.00  0.00    -0.203 NA
ATOM     20  C   UNL d   1       0.924   2.358  -0.258  0.00  0.00     0.138 C 
ATOM     21  C   UNL d   1       0.378   2.865   1.087  0.00  0.00     0.288 C 
ATOM     22  N   UNL d   1      -1.086   2.783   1.236  0.00  0.00     0.095 N 
ATOM     23  C   UNL d   1      -1.573   1.442   0.836  0.00  0.00     0.288 C 
ATOM     24  C   UNL d   1      -1.042   0.919  -0.517  0.00  0.00     0.138 C 
BRANCH  22  25
ATOM     25  C   UNL d   1      -1.775   3.878   0.540  0.00  0.00     0.311 C 
BRANCH  25  26
ATOM     26  C   UNL d   1      -3.231   3.994   0.940  0.00  0.00    -0.030 A 
ATOM     27  C   UNL d   1      -3.593   4.065   2.295  0.00  0.00     0.009 A 
ATOM     28  C   UNL d   1      -4.934   4.143   2.670  0.00  0.00     0.001 A 
ATOM     29  C   UNL d   1      -5.928   4.162   1.694  0.00  0.00     0.000 A 
ATOM     30  C   UNL d   1      -5.581   4.110   0.344  0.00  0.00     0.001 A 
ATOM     31  C   UNL d   1      -4.240   4.029  -0.033  0.00  0.00     0.009 A 
ENDBRANCH  25  26
ENDBRANCH  22  25
ENDBRANCH   1  19
TORSDOF 6
