REMARK  6 active torsions:
REMARK  status: ('A' for Active; 'I' for Inactive)
REMARK    1  A    between atoms: C_7  and  N_1 
REMARK    2  A    between atoms: C_8  and  N_3 
REMARK    3  A    between atoms: C_18  and  C_7 
REMARK    4  A    between atoms: O_20  and  C_10 
REMARK    5  A    between atoms: O_21  and  C_13 
REMARK    6  A    between atoms: C_17  and  C_18 
ROOT
ATOM      1  C   UNL d   1      -0.706   2.308  -0.083  0.00  0.00     0.138 C 
ENDROOT
BRANCH   1   2
ATOM      2  N   UNL d   1      -0.474   0.875   0.002  0.00  0.00    -0.297 N 
ATOM      3  C   UNL d   1      -0.399   0.222   1.201  0.00  0.00     0.145 A 
ATOM      4  N   UNL d   1      -0.573   0.844   2.318  0.00  0.00    -0.366 N 
ATOM      5  S   UNL d   1      -0.046  -1.466   0.965  0.00  0.00    -0.085 SA
ATOM      6  HN  UNL d   1      -0.741   1.850   2.303  1.00  0.00     0.162 HD
ATOM      7  C   UNL d   1       0.034  -1.307  -0.830  0.00  0.00     0.185 A 
ATOM      8  C   UNL d   1      -0.304   0.125  -1.141  0.00  0.00     0.235 A 
ATOM      9  O   UNL d   1      -0.394   0.553  -2.286  0.00  0.00    -0.272 OA
BRANCH   4  10
ATOM     10  C   UNL d   1      -0.537   0.166   3.574  0.00  0.00     0.083 A 
ATOM     11  C   UNL d   1      -1.429   0.767   4.632  0.00  0.00     0.027 A 
ATOM     12  C   UNL d   1       0.051   0.934   4.730  0.00  0.00     0.027 A 
ENDBRANCH   4  10
ENDBRANCH   1   2
BRANCH   1  13
ATOM     13  C   UNL d   1      -2.192   2.696  -0.120  0.00  0.00     0.059 C 
BRANCH  13  14
ATOM     14  C   UNL d   1      -2.466   4.189  -0.160  0.00  0.00    -0.054 A 
ATOM     15  C   UNL d   1      -1.442   5.150  -0.155  0.00  0.00     0.046 A 
ATOM     16  C   UNL d   1      -1.704   6.529  -0.161  0.00  0.00     0.102 A 
ATOM     17  C   UNL d   1      -3.038   6.959  -0.209  0.00  0.00     0.101 A 
ATOM     18  C   UNL d   1      -4.068   6.010  -0.203  0.00  0.00     0.040 A 
ATOM     19  C   UNL d   1      -3.790   4.641  -0.182  0.00  0.00     0.010 A 
BRANCH  16  20
ATOM     20  O   UNL d   1      -0.715   7.475  -0.088  0.00  0.00    -0.353 OA
ATOM     21  C   UNL d   1       0.632   7.028   0.015  0.00  0.00     0.210 C 
ENDBRANCH  16  20
BRANCH  17  22
ATOM     22  O   UNL d   1      -3.488   8.256  -0.212  0.00  0.00    -0.353 OA
ATOM     23  C   UNL d   1      -2.662   9.211  -0.868  0.00  0.00     0.210 C 
ENDBRANCH  17  22
ENDBRANCH  13  14
ENDBRANCH   1  13
TORSDOF 6
