REMARK  4 active torsions:
REMARK  status: ('A' for Active; 'I' for Inactive)
REMARK    1  A    between atoms: N_3  and  C_1 
REMARK       I    between atoms: C_2  and  N_3 
REMARK    2  A    between atoms: C_4  and  C_2 
REMARK    3  A    between atoms: C_5  and  C_6 
REMARK    4  A    between atoms: O_16  and  C_5 
ROOT
ATOM      1  C   UNL d   1      -1.383  -4.055  -0.189  0.00  0.00     0.245 C 
ATOM      2  N   UNL d   1      -0.158  -3.439  -0.016  0.00  0.00    -0.324 N 
ATOM      3  O   UNL d   1      -2.485  -3.527  -0.185  0.00  0.00    -0.268 OA
ATOM      4  H   UNL d   1       0.667  -4.024  -0.059  0.00  0.00     0.169 HD
ENDROOT
BRANCH   2   5
ATOM      5  C   UNL d   1       0.080  -2.050   0.107  0.00  0.00     0.038 A 
ATOM      6  C   UNL d   1      -0.931  -1.088   0.150  0.00  0.00     0.053 A 
ATOM      7  C   UNL d   1      -0.611   0.272   0.161  0.00  0.00     0.037 A 
ATOM      8 CL   UNL d   1      -1.872   1.444   0.156  0.00  0.00    -0.084 Cl
ATOM      9  C   UNL d   1       0.715   0.692   0.156  0.00  0.00     0.048 A 
ATOM     10  C   UNL d   1       1.723  -0.264   0.167  0.00  0.00     0.037 A 
ATOM     11  C   UNL d   1       1.416  -1.627   0.145  0.00  0.00     0.053 A 
ATOM     12 CL   UNL d   1       3.370   0.236   0.186  0.00  0.00    -0.084 Cl
ENDBRANCH   2   5
BRANCH   1  13
ATOM     13  C   UNL d   1      -1.252  -5.516  -0.422  0.00  0.00     0.081 C 
ATOM     14  C   UNL d   1      -2.357  -6.236  -0.669  0.00  0.00     0.086 C 
BRANCH  14  15
ATOM     15  C   UNL d   1      -2.218  -7.680  -0.904  0.00  0.00     0.165 C 
ATOM     16  O   UNL d   1      -1.153  -8.273  -0.899  0.00  0.00    -0.647 OA
BRANCH  15  17
ATOM     17  O   UNL d   1      -3.401  -8.282  -1.127  0.00  0.00    -0.773 OA
ATOM     18  H   UNL d   1      -4.184  -7.701  -1.104  0.00  0.00     0.167 HD
ENDBRANCH  15  17
ENDBRANCH  14  15
ENDBRANCH   1  13
TORSDOF 4
