REMARK  7 active torsions:
REMARK  status: ('A' for Active; 'I' for Inactive)
REMARK    1  A    between atoms: S_11  and  C_3 
REMARK    2  A    between atoms: C_4  and  C_10 
REMARK    3  A    between atoms: N_5  and  C_12 
REMARK    4  A    between atoms: S_15  and  C_7 
REMARK    5  A    between atoms: O_21  and  C_9 
REMARK    6  A    between atoms: C_20  and  S_11 
REMARK    7  A    between atoms: C_23  and  S_15 
ROOT
ATOM      1  N   UNL d   1      -1.236   0.026  -0.006  0.00  0.00    -0.343 N 
ATOM      2  HN  UNL d   1      -2.255   0.053  -0.032  1.00  0.00     0.167 HD
ATOM      3  C   UNL d   1      -0.504   1.169   0.125  0.00  0.00     0.102 A 
ATOM      4  C   UNL d   1      -0.567  -1.143  -0.101  0.00  0.00     0.075 A 
ATOM      5  C   UNL d   1       0.902   1.186   0.198  0.00  0.00     0.066 A 
ATOM      6  C   UNL d   1       1.550  -0.045   0.047  0.00  0.00     0.035 A 
ATOM      7  C   UNL d   1       0.817  -1.220  -0.084  0.00  0.00     0.039 A 
ENDROOT
BRANCH   5   8
ATOM      8  N   UNL d   1       1.671   2.369   0.347  0.00  0.00    -0.363 N 
ATOM      9  C   UNL d   1       2.607   2.359   1.248  0.00  0.00     0.102 C 
ATOM     10  HN  UNL d   1       1.497   3.192  -0.230  1.00  0.00     0.165 HD
BRANCH   9  11
ATOM     11  C   UNL d   1       3.549   3.484   1.422  0.00  0.00     0.015 A 
ATOM     12  C   UNL d   1       4.719   3.305   2.174  0.00  0.00     0.094 A 
ATOM     13  C   UNL d   1       5.637   4.354   2.287  0.00  0.00     0.046 A 
ATOM     14 BR   UNL d   1       7.245   4.133   3.268  0.00  0.00    -0.048 Br
ATOM     15  C   UNL d   1       5.392   5.579   1.666  0.00  0.00     0.041 A 
ATOM     16  C   UNL d   1       4.222   5.748   0.927  0.00  0.00     0.013 A 
ATOM     17  C   UNL d   1       3.300   4.710   0.797  0.00  0.00     0.034 A 
ATOM     18 BR   UNL d   1       3.889   7.406   0.080  0.00  0.00    -0.051 Br
BRANCH  12  19
ATOM     19  O   UNL d   1       4.961   2.095   2.767  0.00  0.00    -0.358 OA
ATOM     20  H   UNL d   1       5.814   2.159   3.244  0.00  0.00     0.217 HD
ENDBRANCH  12  19
ENDBRANCH   9  11
ENDBRANCH   5   8
BRANCH   3  21
ATOM     21  S   UNL d   1      -1.476   2.663   0.286  0.00  0.00    -0.070 SA
BRANCH  21  22
ATOM     22  C   UNL d   1      -1.694   3.133  -1.423  0.00  0.00     0.007 A 
ATOM     23  C   UNL d   1      -2.962   3.080  -2.011  0.00  0.00     0.019 A 
ATOM     24  C   UNL d   1      -3.155   3.534  -3.322  0.00  0.00     0.001 A 
ATOM     25  C   UNL d   1      -2.080   4.042  -4.050  0.00  0.00     0.000 A 
ATOM     26  C   UNL d   1      -0.813   4.094  -3.471  0.00  0.00     0.001 A 
ATOM     27  C   UNL d   1      -0.622   3.645  -2.162  0.00  0.00     0.019 A 
ENDBRANCH  21  22
ENDBRANCH   3  21
BRANCH   4  28
ATOM     28  S   UNL d   1      -1.498  -2.658  -0.173  0.00  0.00    -0.073 SA
BRANCH  28  29
ATOM     29  C   UNL d   1      -2.535  -2.469  -1.610  0.00  0.00     0.007 A 
ATOM     30  C   UNL d   1      -2.148  -1.764  -2.755  0.00  0.00     0.019 A 
ATOM     31  C   UNL d   1      -2.995  -1.697  -3.865  0.00  0.00     0.001 A 
ATOM     32  C   UNL d   1      -4.229  -2.344  -3.846  0.00  0.00     0.000 A 
ATOM     33  C   UNL d   1      -4.618  -3.061  -2.718  0.00  0.00     0.001 A 
ATOM     34  C   UNL d   1      -3.774  -3.125  -1.607  0.00  0.00     0.019 A 
ENDBRANCH  28  29
ENDBRANCH   4  28
TORSDOF 7
