REMARK  3 active torsions:
REMARK  status: ('A' for Active; 'I' for Inactive)
REMARK    1  A    between atoms: C_2  and  C_1 
REMARK       I    between atoms: N_4  and  C_1 
REMARK    2  A    between atoms: O_5  and  C_3 
REMARK    3  A    between atoms: C_10  and  O_5 
ROOT
ATOM      1  C   UNL d   1       0.258   0.211   1.211  0.00  0.00     0.083 C 
ATOM      2  C   UNL d   1      -0.818  -0.665   1.389  0.00  0.00     0.163 C 
ATOM      3  N   UNL d   1      -1.599  -0.645   2.505  0.00  0.00    -0.346 N 
ATOM      4  HN  UNL d   1      -2.441  -1.217   2.569  1.00  0.00     0.167 HD
ATOM      5  C   UNL d   1       0.635   1.003   2.306  0.00  0.00     0.023 C 
ATOM      6  C   UNL d   1      -1.222   0.155   3.524  0.00  0.00     0.090 C 
ATOM      7  C   UNL d   1      -0.115   0.975   3.478  0.00  0.00     0.018 C 
ENDROOT
BRANCH   1   8
ATOM      8  C   UNL d   1       1.082   0.234  -0.025  0.00  0.00     0.258 C 
ATOM      9  N   UNL d   1       1.611   1.451  -0.510  0.00  0.00    -0.344 N 
ATOM     10  C   UNL d   1       2.423   1.346  -1.732  0.00  0.00     0.152 C 
ATOM     11  C   UNL d   1       0.930   2.750  -0.370  0.00  0.00     0.152 C 
ATOM     12  C   UNL d   1       3.259   2.599  -2.018  0.00  0.00     0.187 C 
ATOM     13  O   UNL d   1       2.475   3.797  -1.941  0.00  0.00    -0.388 OA
ATOM     14  C   UNL d   1       1.888   3.916  -0.640  0.00  0.00     0.187 C 
ATOM     15  O   UNL d   1       1.349  -0.841  -0.558  0.00  0.00    -0.267 OA
ENDBRANCH   1   8
BRANCH   2  16
ATOM     16  O   UNL d   1      -1.166  -1.544   0.373  0.00  0.00    -0.293 OA
BRANCH  16  17
ATOM     17  C   UNL d   1      -1.659  -2.805   0.661  0.00  0.00     0.077 A 
ATOM     18  C   UNL d   1      -1.666  -3.443   1.904  0.00  0.00     0.037 A 
ATOM     19  C   UNL d   1      -2.181  -4.738   2.047  0.00  0.00     0.003 A 
ATOM     20  C   UNL d   1      -2.664  -5.428   0.936  0.00  0.00     0.000 A 
ATOM     21  C   UNL d   1      -2.638  -4.817  -0.312  0.00  0.00     0.003 A 
ATOM     22  C   UNL d   1      -2.143  -3.514  -0.451  0.00  0.00     0.037 A 
ENDBRANCH  16  17
ENDBRANCH   2  16
TORSDOF 3
