REMARK  3 active torsions:
REMARK  status: ('A' for Active; 'I' for Inactive)
REMARK    1  A    between atoms: N_9  and  C_3 
REMARK    2  A    between atoms: N_16  and  C_4 
REMARK    3  A    between atoms: C_8  and  N_9 
ROOT
ATOM      1  N   UNL d   1       1.166   0.960  -0.169  0.00  0.00    -0.319 N 
ATOM      2  HN  UNL d   1       2.079   1.409  -0.237  1.00  0.00     0.170 HD
ATOM      3  C   UNL d   1       0.039   1.686  -0.081  0.00  0.00     0.109 A 
ATOM      4  C   UNL d   1       1.049  -0.366  -0.164  0.00  0.00     0.156 A 
ATOM      5  N   UNL d   1      -0.103  -1.029  -0.061  0.00  0.00    -0.337 N 
ATOM      6  HN  UNL d   1      -0.133  -2.048  -0.041  1.00  0.00     0.168 HD
ATOM      7  C   UNL d   1      -1.200   1.089   0.028  0.00  0.00     0.073 A 
ATOM      8  C   UNL d   1      -1.226  -0.290   0.015  0.00  0.00     0.011 A 
ATOM      9  C   UNL d   1      -2.530  -1.026   0.052  0.00  0.00     0.068 C 
ENDROOT
BRANCH   3  10
ATOM     10  N   UNL d   1       0.106   3.101  -0.119  0.00  0.00    -0.342 N 
ATOM     11  H   UNL d   1      -0.308   3.493   0.719  0.00  0.00     0.167 HD
BRANCH  10  12
ATOM     12  C   UNL d   1       1.201   3.844  -0.614  0.00  0.00     0.036 A 
ATOM     13  C   UNL d   1       1.875   3.447  -1.780  0.00  0.00     0.053 A 
ATOM     14  C   UNL d   1       2.952   4.186  -2.268  0.00  0.00     0.037 A 
ATOM     15 CL   UNL d   1       3.759   3.672  -3.699  0.00  0.00    -0.084 Cl
ATOM     16  C   UNL d   1       3.375   5.333  -1.610  0.00  0.00     0.048 A 
ATOM     17  C   UNL d   1       2.702   5.743  -0.464  0.00  0.00     0.037 A 
ATOM     18  C   UNL d   1       1.613   5.016   0.029  0.00  0.00     0.053 A 
ATOM     19 CL   UNL d   1       3.220   7.161   0.364  0.00  0.00    -0.084 Cl
ENDBRANCH  10  12
ENDBRANCH   3  10
BRANCH   4  20
ATOM     20  N   UNL d   1       2.212  -1.106  -0.221  0.00  0.00    -0.274 NA
ATOM     21  H   UNL d   1       2.981  -0.552   0.128  0.00  0.00     0.127 HD
ATOM     22  H   UNL d   1       2.058  -2.010   0.203  0.00  0.00     0.127 HD
ENDBRANCH   4  20
TORSDOF 3
