REMARK  4 active torsions:
REMARK  status: ('A' for Active; 'I' for Inactive)
REMARK    1  A    between atoms: C_4  and  C_1 
REMARK    2  A    between atoms: C_2  and  C_3 
REMARK    3  A    between atoms: N_6  and  C_8 
REMARK    4  A    between atoms: C_18  and  C_11 
ROOT
ATOM      1  C   UNL d   1      -0.214   1.256  -3.238  0.00  0.00     0.050 A 
ATOM      2  C   UNL d   1       0.665   0.050  -1.308  0.00  0.00     0.050 A 
ATOM      3  C   UNL d   1       0.346   1.255  -1.951  0.00  0.00     0.032 A 
ATOM      4  C   UNL d   1      -0.179  -1.191  -3.239  0.00  0.00     0.033 A 
ATOM      5  C   UNL d   1      -0.474   0.023  -3.864  0.00  0.00     0.045 A 
ATOM      6  C   UNL d   1       0.421  -1.163  -1.976  0.00  0.00     0.045 A 
ENDROOT
BRANCH   4   7
ATOM      7  N   UNL d   1      -0.477  -2.378  -3.933  0.00  0.00    -0.365 N 
ATOM      8  C   UNL d   1      -0.921  -3.397  -3.268  0.00  0.00     0.099 C 
ATOM      9  HN  UNL d   1      -0.346  -2.435  -4.943  1.00  0.00     0.165 HD
BRANCH   8  10
ATOM     10  C   UNL d   1      -1.306  -4.664  -3.921  0.00  0.00    -0.021 A 
ATOM     11  C   UNL d   1      -1.360  -4.774  -5.314  0.00  0.00     0.014 A 
ATOM     12  C   UNL d   1      -1.788  -5.970  -5.897  0.00  0.00     0.024 A 
ATOM     13  C   UNL d   1      -2.151  -7.047  -5.089  0.00  0.00     0.034 A 
ATOM     14  C   UNL d   1      -2.083  -6.944  -3.700  0.00  0.00     0.024 A 
ATOM     15 CL   UNL d   1      -2.696  -8.512  -5.807  0.00  0.00    -0.084 Cl
ATOM     16  C   UNL d   1      -1.661  -5.749  -3.112  0.00  0.00     0.014 A 
ENDBRANCH   8  10
ENDBRANCH   4   7
BRANCH   2  17
ATOM     17  C   UNL d   1       1.242   0.025   0.085  0.00  0.00     0.417 C 
ATOM     18  F   UNL d   1       1.426   1.262   0.622  0.00  0.00    -0.166 F 
ATOM     19  F   UNL d   1       2.454  -0.593   0.138  0.00  0.00    -0.166 F 
ATOM     20  F   UNL d   1       0.442  -0.647   0.959  0.00  0.00    -0.166 F 
ENDBRANCH   2  17
BRANCH   1  21
ATOM     21  C   UNL d   1      -0.540   2.544  -3.952  0.00  0.00     0.417 C 
ATOM     22  F   UNL d   1      -0.248   3.655  -3.219  0.00  0.00    -0.166 F 
ATOM     23  F   UNL d   1       0.141   2.681  -5.122  0.00  0.00    -0.166 F 
ATOM     24  F   UNL d   1      -1.860   2.646  -4.269  0.00  0.00    -0.166 F 
ENDBRANCH   1  21
TORSDOF 4
