REMARK  4 active torsions:
REMARK  status: ('A' for Active; 'I' for Inactive)
REMARK    1  A    between atoms: C_3  and  C_1 
REMARK       I    between atoms: C_2  and  N_4 
REMARK    2  A    between atoms: C_6  and  C_2 
REMARK    3  A    between atoms: N_4  and  C_14 
REMARK    4  A    between atoms: C_5  and  C_6 
ROOT
ATOM      1  C   UNL d   1      -0.835   1.567  -5.945  0.00  0.00     0.226 C 
ATOM      2  N   UNL d   1       0.210   1.939  -5.115  0.00  0.00    -0.327 N 
ATOM      3  O   UNL d   1      -1.218   2.174  -6.941  0.00  0.00    -0.273 OA
ATOM      4  H   UNL d   1       0.552   1.227  -4.478  0.00  0.00     0.169 HD
ENDROOT
BRANCH   2   5
ATOM      5  C   UNL d   1       0.906   3.165  -5.112  0.00  0.00     0.034 A 
ATOM      6  C   UNL d   1       0.504   4.278  -5.851  0.00  0.00     0.030 A 
ATOM      7  C   UNL d   1       1.178   5.496  -5.726  0.00  0.00     0.018 A 
ATOM      8  C   UNL d   1       2.272   5.626  -4.861  0.00  0.00     0.048 A 
ATOM      9  C   UNL d   1       2.701   4.498  -4.150  0.00  0.00     0.018 A 
ATOM     10  C   UNL d   1       2.021   3.279  -4.272  0.00  0.00     0.030 A 
BRANCH   8  11
ATOM     11  C   UNL d   1       2.929   6.972  -4.687  0.00  0.00     0.417 C 
ATOM     12  F   UNL d   1       3.976   6.958  -3.811  0.00  0.00    -0.166 F 
ATOM     13  F   UNL d   1       2.068   7.916  -4.220  0.00  0.00    -0.166 F 
ATOM     14  F   UNL d   1       3.432   7.467  -5.853  0.00  0.00    -0.166 F 
ENDBRANCH   8  11
ENDBRANCH   2   5
BRANCH   1  15
ATOM     15  C   UNL d   1      -1.526   0.281  -5.507  0.00  0.00     0.143 C 
BRANCH  15  16
ATOM     16  C   UNL d   1      -0.999  -0.947  -6.209  0.00  0.00    -0.028 A 
ATOM     17  C   UNL d   1       0.216  -1.560  -5.860  0.00  0.00     0.040 A 
ATOM     18 CL   UNL d   1       1.157  -1.030  -4.511  0.00  0.00    -0.084 Cl
ATOM     19  C   UNL d   1       0.696  -2.653  -6.587  0.00  0.00     0.024 A 
ATOM     20  C   UNL d   1      -0.041  -3.167  -7.653  0.00  0.00     0.002 A 
ATOM     21  C   UNL d   1      -1.264  -2.596  -7.987  0.00  0.00     0.001 A 
ATOM     22  C   UNL d   1      -1.737  -1.490  -7.276  0.00  0.00     0.009 A 
ENDBRANCH  15  16
ENDBRANCH   1  15
TORSDOF 4
