REMARK  5 active torsions:
REMARK  status: ('A' for Active; 'I' for Inactive)
REMARK    1  A    between atoms: C_3  and  C_1 
REMARK       I    between atoms: N_5  and  C_3 
REMARK    2  A    between atoms: C_8  and  N_5 
REMARK    3  A    between atoms: C_14  and  C_9 
REMARK    4  A    between atoms: O_16  and  C_13 
REMARK    5  A    between atoms: C_19  and  C_14 
ROOT
ATOM      1  C   UNL d   1      -3.685  -0.030  -0.705  0.00  0.00     0.272 C 
ATOM      2  N   UNL d   1      -4.396  -1.189  -0.445  0.00  0.00    -0.321 N 
ATOM      3  O   UNL d   1      -2.466   0.093  -0.603  0.00  0.00    -0.266 OA
ATOM      4  H   UNL d   1      -5.267  -1.235  -0.955  0.00  0.00     0.169 HD
ENDROOT
BRANCH   1   5
ATOM      5  C   UNL d   1      -4.504   1.047  -1.249  0.00  0.00     0.102 C 
ATOM      6  N   UNL d   1      -3.949   2.209  -1.749  0.00  0.00    -0.351 N 
ATOM      7  C   UNL d   1      -4.904   2.995  -2.353  0.00  0.00     0.043 A 
ATOM      8  H   UNL d   1      -2.955   2.401  -1.738  0.00  0.00     0.166 HD
ATOM      9  C   UNL d   1      -4.789   4.202  -3.055  0.00  0.00     0.033 A 
ATOM     10  C   UNL d   1      -6.128   2.361  -2.165  0.00  0.00    -0.004 A 
ATOM     11  C   UNL d   1      -5.953   4.745  -3.622  0.00  0.00     0.039 A 
ATOM     12  C   UNL d   1      -7.189   4.118  -3.473  0.00  0.00     0.069 A 
ATOM     13  C   UNL d   1      -7.286   2.940  -2.719  0.00  0.00     0.050 A 
ATOM     14  C   UNL d   1      -5.875   1.176  -1.419  0.00  0.00     0.049 C 
BRANCH  12  15
ATOM     15  O   UNL d   1      -8.378   4.545  -4.003  0.00  0.00    -0.356 OA
ATOM     16  C   UNL d   1      -8.326   5.622  -4.930  0.00  0.00     0.210 C 
ENDBRANCH  12  15
ENDBRANCH   1   5
BRANCH   2  17
ATOM     17  C   UNL d   1      -3.824  -2.451  -0.157  0.00  0.00     0.041 A 
ATOM     18  C   UNL d   1      -2.935  -2.731   0.903  0.00  0.00    -0.028 A 
ATOM     19  C   UNL d   1      -2.497  -4.070   1.048  0.00  0.00     0.010 A 
ATOM     20  C   UNL d   1      -2.911  -5.086   0.185  0.00  0.00     0.001 A 
ATOM     21  C   UNL d   1      -3.808  -4.801  -0.830  0.00  0.00     0.002 A 
ATOM     22  C   UNL d   1      -4.274  -3.498  -0.985  0.00  0.00     0.030 A 
BRANCH  18  23
ATOM     23  C   UNL d   1      -2.527  -1.717   1.973  0.00  0.00     0.016 C 
ATOM     24  C   UNL d   1      -1.040  -1.839   2.359  0.00  0.00     0.015 C 
BRANCH  23  25
ATOM     25  C   UNL d   1      -3.379  -1.841   3.257  0.00  0.00     0.004 C 
ATOM     26  C   UNL d   1      -4.837  -1.445   3.074  0.00  0.00     0.006 C 
ENDBRANCH  23  25
ENDBRANCH  18  23
ENDBRANCH   2  17
TORSDOF 5
