REMARK  5 active torsions:
REMARK  status: ('A' for Active; 'I' for Inactive)
REMARK    1  A    between atoms: C_11  and  C_1 
REMARK    2  A    between atoms: C_3  and  C_4 
REMARK       I    between atoms: C_4  and  N_9 
REMARK    3  A    between atoms: C_7  and  C_5 
REMARK    4  A    between atoms: O_14  and  C_7 
REMARK    5  A    between atoms: N_9  and  C_11 
ROOT
ATOM      1  C   UNL d   1      -0.457  -5.036  -0.210  0.00  0.00     0.253 C 
ATOM      2  N   UNL d   1      -0.258  -3.683  -0.169  0.00  0.00    -0.353 N 
ATOM      3  O   UNL d   1       0.448  -5.836  -0.451  0.00  0.00    -0.268 OA
ATOM      4  H   UNL d   1      -1.051  -3.051  -0.077  0.00  0.00     0.163 HD
ENDROOT
BRANCH   1   5
ATOM      5  C   UNL d   1      -1.812  -5.567   0.133  0.00  0.00     0.048 A 
ATOM      6  C   UNL d   1      -3.053  -4.990  -0.182  0.00  0.00     0.053 A 
ATOM      7  C   UNL d   1      -4.243  -5.602   0.268  0.00  0.00     0.019 A 
ATOM      8  C   UNL d   1      -4.210  -6.809   0.965  0.00  0.00     0.001 A 
ATOM      9  C   UNL d   1      -2.991  -7.414   1.232  0.00  0.00     0.001 A 
ATOM     10  C   UNL d   1      -1.804  -6.797   0.825  0.00  0.00     0.018 A 
BRANCH   6  11
ATOM     11  C   UNL d   1      -3.204  -3.750  -0.978  0.00  0.00     0.177 C 
ATOM     12  O   UNL d   1      -2.557  -2.737  -0.787  0.00  0.00    -0.646 OA
BRANCH  11  13
ATOM     13  O   UNL d   1      -4.165  -3.837  -1.926  0.00  0.00    -0.773 OA
ATOM     14  H   UNL d   1      -4.572  -4.716  -2.045  0.00  0.00     0.167 HD
ENDBRANCH  11  13
ENDBRANCH   6  11
ENDBRANCH   1   5
BRANCH   2  15
ATOM     15  C   UNL d   1       1.011  -3.061  -0.458  0.00  0.00     0.162 C 
BRANCH  15  16
ATOM     16  C   UNL d   1       1.429  -2.241   0.728  0.00  0.00    -0.022 A 
ATOM     17  C   UNL d   1       2.218  -2.737   1.749  0.00  0.00     0.060 A 
ATOM     18  S   UNL d   1       2.605  -1.568   2.921  0.00  0.00    -0.101 SA
ATOM     19  C   UNL d   1       1.706  -0.349   2.106  0.00  0.00     0.015 A 
ATOM     20  C   UNL d   1       1.093  -0.847   0.952  0.00  0.00    -0.011 A 
ATOM     21  C   UNL d   1       1.569   0.998   2.501  0.00  0.00     0.019 A 
ATOM     22  C   UNL d   1       0.287   0.049   0.201  0.00  0.00     0.013 A 
ATOM     23  C   UNL d   1       0.139   1.383   0.597  0.00  0.00     0.001 A 
ATOM     24  C   UNL d   1       0.782   1.855   1.731  0.00  0.00     0.001 A 
ENDBRANCH  15  16
ENDBRANCH   2  15
TORSDOF 5
