REMARK  7 active torsions:
REMARK  status: ('A' for Active; 'I' for Inactive)
REMARK    1  A    between atoms: O_15  and  C_3 
REMARK    2  A    between atoms: S_10  and  C_4 
REMARK    3  A    between atoms: C_17  and  C_5 
REMARK    4  A    between atoms: C_9  and  C_12 
REMARK    5  A    between atoms: C_11  and  C_9 
REMARK    6  A    between atoms: C_12  and  S_10 
REMARK    7  A    between atoms: C_14  and  C_17 
ROOT
ATOM      1  N   UNL d   1      -0.720   1.265  -0.080  0.00  0.00    -0.317 N 
ATOM      2  HN  UNL d   1      -1.206   2.162  -0.098  1.00  0.00     0.170 HD
ATOM      3  C   UNL d   1      -1.369   0.087  -0.026  0.00  0.00     0.150 A 
ATOM      4  C   UNL d   1       0.615   1.163  -0.108  0.00  0.00     0.146 A 
ATOM      5  C   UNL d   1      -0.800  -1.172   0.016  0.00  0.00     0.018 A 
ATOM      6  N   UNL d   1       1.289  -0.000  -0.065  0.00  0.00    -0.340 N 
ATOM      7  HN  UNL d   1       2.309  -0.013  -0.075  1.00  0.00     0.167 HD
ATOM      8  C   UNL d   1       0.583  -1.153  -0.009  0.00  0.00     0.018 A 
ATOM      9  C   UNL d   1       1.409  -2.405   0.016  0.00  0.00     0.069 C 
ENDROOT
BRANCH   4  10
ATOM     10  S   UNL d   1       1.647   2.593  -0.334  0.00  0.00    -0.086 SA
BRANCH  10  11
ATOM     11  C   UNL d   1       0.605   3.953   0.258  0.00  0.00     0.161 C 
BRANCH  11  12
ATOM     12  C   UNL d   1       1.246   5.284  -0.134  0.00  0.00     0.144 C 
ATOM     13  O   UNL d   1       0.963   5.785  -1.231  0.00  0.00    -0.296 OA
BRANCH  12  14
ATOM     14  C   UNL d   1       2.299   5.968   0.781  0.00  0.00     0.010 C 
ATOM     15  C   UNL d   1       3.704   5.446   0.452  0.00  0.00     0.022 C 
ATOM     16  C   UNL d   1       2.271   7.487   0.495  0.00  0.00     0.022 C 
ATOM     17  C   UNL d   1       2.018   5.773   2.275  0.00  0.00     0.022 C 
ENDBRANCH  12  14
ENDBRANCH  11  12
ENDBRANCH  10  11
ENDBRANCH   4  10
BRANCH   3  18
ATOM     18  O   UNL d   1      -2.724   0.225  -0.018  0.00  0.00    -0.346 OA
ATOM     19  H   UNL d   1      -2.816   1.191  -0.087  0.00  0.00     0.219 HD
ENDBRANCH   3  18
BRANCH   5  20
ATOM     20  C   UNL d   1      -1.613  -2.438   0.064  0.00  0.00     0.071 C 
BRANCH  20  21
ATOM     21  C   UNL d   1      -1.857  -3.058  -1.286  0.00  0.00    -0.032 C 
ATOM     22  C   UNL d   1      -1.435  -4.272  -1.658  0.00  0.00     0.007 C 
ENDBRANCH  20  21
ENDBRANCH   5  20
TORSDOF 7
