REMARK  6 active torsions:
REMARK  status: ('A' for Active; 'I' for Inactive)
REMARK    1  A    between atoms: C_8  and  N_1 
REMARK    2  A    between atoms: C_9  and  C_2 
REMARK    3  A    between atoms: S_12  and  C_5 
REMARK    4  A    between atoms: C_10  and  C_11 
REMARK    5  A    between atoms: C_25  and  S_12 
REMARK    6  A    between atoms: C_19  and  C_25 
ROOT
ATOM      1  N   UNL d   1      -0.358  -1.299  -0.007  0.00  0.00    -0.275 N 
ATOM      2  C   UNL d   1       0.894  -0.659  -0.028  0.00  0.00     0.139 A 
ATOM      3  N   UNL d   1       0.704   0.651  -0.025  0.00  0.00    -0.282 N 
ATOM      4  HN  UNL d   1       1.438   1.357   0.023  1.00  0.00     0.188 HD
ATOM      5  C   UNL d   1      -1.263  -0.246  -0.104  0.00  0.00     0.168 A 
ATOM      6  N   UNL d   1      -0.633   0.904  -0.097  0.00  0.00    -0.278 N 
ATOM      7  HN  UNL d   1      -1.067   1.826  -0.138  1.00  0.00     0.189 HD
ENDROOT
BRANCH   2   8
ATOM      8  C   UNL d   1       2.232  -1.265  -0.107  0.00  0.00     0.010 A 
ATOM      9  C   UNL d   1       2.515  -2.373  -0.912  0.00  0.00     0.016 A 
ATOM     10  C   UNL d   1       3.783  -2.967  -0.899  0.00  0.00     0.009 A 
ATOM     11  C   UNL d   1       4.838  -2.442  -0.130  0.00  0.00    -0.051 A 
ATOM     12  C   UNL d   1       4.565  -1.283   0.613  0.00  0.00     0.009 A 
ATOM     13  C   UNL d   1       3.286  -0.707   0.625  0.00  0.00     0.016 A 
BRANCH  11  14
ATOM     14  C   UNL d   1       6.212  -3.136  -0.123  0.00  0.00    -0.024 C 
ATOM     15  C   UNL d   1       7.281  -2.389   0.706  0.00  0.00     0.019 C 
ATOM     16  C   UNL d   1       6.070  -4.550   0.482  0.00  0.00     0.019 C 
ATOM     17  C   UNL d   1       6.756  -3.257  -1.563  0.00  0.00     0.019 C 
ENDBRANCH  11  14
ENDBRANCH   2   8
BRANCH   1  18
ATOM     18  C   UNL d   1      -0.614  -2.707   0.078  0.00  0.00     0.043 A 
ATOM     19  C   UNL d   1       0.241  -3.538   0.821  0.00  0.00     0.032 A 
ATOM     20  C   UNL d   1       0.076  -4.928   0.806  0.00  0.00     0.026 A 
ATOM     21  C   UNL d   1      -0.974  -5.493   0.090  0.00  0.00     0.034 A 
ATOM     22  C   UNL d   1      -1.863  -4.680  -0.606  0.00  0.00     0.026 A 
ATOM     23 CL   UNL d   1      -1.165  -7.201   0.051  0.00  0.00    -0.084 Cl
ATOM     24  C   UNL d   1      -1.679  -3.292  -0.622  0.00  0.00     0.032 A 
ENDBRANCH   1  18
BRANCH   5  25
ATOM     25  S   UNL d   1      -2.996  -0.364  -0.037  0.00  0.00    -0.088 SA
BRANCH  25  26
ATOM     26  C   UNL d   1      -3.466   1.129  -0.964  0.00  0.00     0.108 C 
BRANCH  26  27
ATOM     27  C   UNL d   1      -4.964   1.173  -1.093  0.00  0.00    -0.026 C 
ATOM     28  C   UNL d   1      -5.633   1.153  -2.251  0.00  0.00     0.007 C 
ENDBRANCH  26  27
ENDBRANCH  25  26
ENDBRANCH   5  25
TORSDOF 6
