REMARK  4 active torsions:
REMARK  status: ('A' for Active; 'I' for Inactive)
REMARK    1  A    between atoms: C_10  and  N_1 
REMARK    2  A    between atoms: C_7  and  C_3 
REMARK    3  A    between atoms: N_6  and  C_8 
REMARK    4  A    between atoms: C_9  and  C_7 
ROOT
ATOM      1  N   UNL d   1       1.011   0.607  -0.143  0.00  0.00    -0.262 N 
ATOM      2  C   UNL d   1       0.771  -0.754  -0.291  0.00  0.00     0.153 A 
ATOM      3  C   UNL d   1      -1.351   0.600  -0.100  0.00  0.00     0.077 A 
ATOM      4  C   UNL d   1      -0.113   1.421  -0.014  0.00  0.00     0.271 A 
ATOM      5  S   UNL d   1      -0.964  -1.046  -0.392  0.00  0.00    -0.054 SA
ATOM      6  S   UNL d   1       1.840  -2.043  -0.285  0.00  0.00    -0.052 SA
ATOM      7  O   UNL d   1      -0.148   2.640   0.116  0.00  0.00    -0.266 OA
ENDROOT
BRANCH   3   8
ATOM      8  C   UNL d   1      -2.570   1.129   0.072  0.00  0.00     0.038 C 
BRANCH   8   9
ATOM      9  C   UNL d   1      -3.812   0.344   0.109  0.00  0.00    -0.002 A 
ATOM     10  C   UNL d   1      -4.389  -0.136   1.296  0.00  0.00     0.113 A 
ATOM     11  C   UNL d   1      -5.568  -0.897   1.289  0.00  0.00     0.037 A 
ATOM     12  C   UNL d   1      -6.179  -1.192   0.072  0.00  0.00     0.002 A 
ATOM     13  C   UNL d   1      -5.623  -0.724  -1.119  0.00  0.00     0.001 A 
ATOM     14  C   UNL d   1      -4.450   0.042  -1.102  0.00  0.00     0.014 A 
BRANCH  10  15
ATOM     15  N   UNL d   1      -3.789   0.152   2.590  0.00  0.00    -0.115 N 
ATOM     16  O   UNL d   1      -2.607  -0.169   2.763  0.00  0.00    -0.532 OA
ATOM     17  O   UNL d   1      -4.518   0.682   3.439  0.00  0.00    -0.532 OA
ENDBRANCH  10  15
ENDBRANCH   8   9
ENDBRANCH   3   8
BRANCH   1  18
ATOM     18  C   UNL d   1       2.312   1.190  -0.092  0.00  0.00     0.044 A 
ATOM     19  C   UNL d   1       2.639   2.111   0.914  0.00  0.00     0.032 A 
ATOM     20  C   UNL d   1       3.919   2.672   0.982  0.00  0.00     0.026 A 
ATOM     21  C   UNL d   1       4.873   2.338   0.025  0.00  0.00     0.034 A 
ATOM     22  C   UNL d   1       4.557   1.450  -1.000  0.00  0.00     0.026 A 
ATOM     23 CL   UNL d   1       6.445   3.029   0.103  0.00  0.00    -0.084 Cl
ATOM     24  C   UNL d   1       3.283   0.876  -1.056  0.00  0.00     0.032 A 
ENDBRANCH   1  18
TORSDOF 4
