REMARK  3 active torsions:
REMARK  status: ('A' for Active; 'I' for Inactive)
REMARK    1  A    between atoms: N_8  and  C_2 
REMARK    2  A    between atoms: C_12  and  C_6 
REMARK    3  A    between atoms: O_14  and  N_10 
ROOT
ATOM      1  C   UNL d   1      -0.356   0.365   0.016  0.00  0.00     0.110 A 
ATOM      2  C   UNL d   1       0.414   1.555   0.012  0.00  0.00     0.053 A 
ATOM      3  C   UNL d   1       0.261  -0.900  -0.019  0.00  0.00     0.151 A 
ATOM      4  C   UNL d   1      -1.789   0.354   0.124  0.00  0.00     0.105 C 
ATOM      5  N   UNL d   1      -2.945   0.335   0.187  0.00  0.00    -0.191 NA
ATOM      6  C   UNL d   1       1.643  -1.025  -0.041  0.00  0.00     0.021 A 
ATOM      7  C   UNL d   1       1.816   1.379  -0.029  0.00  0.00     0.032 A 
ATOM      8  C   UNL d   1       2.429   0.119  -0.044  0.00  0.00     0.018 A 
ATOM      9  F   UNL d   1      -0.499  -2.009  -0.014  0.00  0.00    -0.203 F 
ENDROOT
BRANCH   2  10
ATOM     10  N   UNL d   1      -0.113   2.840   0.072  0.00  0.00    -0.388 N 
ATOM     11  C   UNL d   1       0.634   3.954   0.660  0.00  0.00     0.149 C 
ATOM     12  C   UNL d   1      -1.347   3.240  -0.608  0.00  0.00     0.149 C 
ENDBRANCH   2  10
BRANCH   6  13
ATOM     13  C   UNL d   1       2.248  -2.368  -0.052  0.00  0.00     0.128 C 
ATOM     14  N   UNL d   1       3.533  -2.536  -0.059  0.00  0.00    -0.280 N 
ATOM     15  HN  UNL d   1       4.229  -1.790  -0.056  1.00  0.00     0.193 HD
BRANCH  14  16
ATOM     16  O   UNL d   1       3.810  -3.907  -0.070  0.00  0.00    -0.290 OA
ATOM     17  H   UNL d   1       4.785  -3.926  -0.071  0.00  0.00     0.244 HD
ENDBRANCH  14  16
ENDBRANCH   6  13
TORSDOF 3
