REMARK  7 active torsions:
REMARK  status: ('A' for Active; 'I' for Inactive)
REMARK    1  A    between atoms: C_2  and  S_1 
REMARK    2  A    between atoms: C_5  and  S_1 
REMARK    3  A    between atoms: C_4  and  C_2 
REMARK    4  A    between atoms: N_10  and  C_3 
REMARK    5  A    between atoms: O_18  and  C_4 
REMARK    6  A    between atoms: C_13  and  N_10 
REMARK    7  A    between atoms: C_25  and  O_18 
ROOT
ATOM      1  C   UNL d   1       0.453   1.747  -0.215  0.00  0.00     0.154 C 
ATOM      2  C   UNL d   1      -0.231   2.022  -1.343  0.00  0.00     0.118 C 
ENDROOT
BRANCH   1   3
ATOM      3  S   UNL d   1       0.719   3.038   0.912  0.00  0.00     0.214 S 
ATOM      4  O   UNL d   1      -0.004   2.765   2.137  0.00  0.00    -0.217 OA
ATOM      5  O   UNL d   1       0.534   4.320   0.249  0.00  0.00    -0.217 OA
BRANCH   3   6
ATOM      6  C   UNL d   1       2.469   2.983   1.283  0.00  0.00     0.064 A 
ATOM      7  C   UNL d   1       3.390   3.264   0.267  0.00  0.00     0.025 A 
ATOM      8  C   UNL d   1       4.752   3.328   0.571  0.00  0.00     0.025 A 
ATOM      9  C   UNL d   1       5.183   3.122   1.884  0.00  0.00     0.034 A 
ATOM     10  C   UNL d   1       4.263   2.836   2.895  0.00  0.00     0.025 A 
ATOM     11 CL   UNL d   1       6.856   3.251   2.261  0.00  0.00    -0.084 Cl
ATOM     12  C   UNL d   1       2.900   2.765   2.596  0.00  0.00     0.025 A 
ENDBRANCH   3   6
ENDBRANCH   1   3
BRANCH   1  13
ATOM     13  C   UNL d   1       0.995   0.433   0.156  0.00  0.00     0.306 C 
ATOM     14  O   UNL d   1       1.362   0.129   1.278  0.00  0.00    -0.258 OA
BRANCH  13  15
ATOM     15  O   UNL d   1       1.179  -0.332  -0.955  0.00  0.00    -0.317 OA
BRANCH  15  16
ATOM     16  C   UNL d   1       2.143  -1.387  -0.820  0.00  0.00     0.174 C 
ATOM     17  C   UNL d   1       3.534  -0.798  -0.984  0.00  0.00     0.034 C 
ENDBRANCH  15  16
ENDBRANCH  13  15
ENDBRANCH   1  13
BRANCH   2  18
ATOM     18  N   UNL d   1      -0.673   1.173  -2.334  0.00  0.00    -0.364 N 
ATOM     19  H   UNL d   1      -0.559   0.174  -2.165  0.00  0.00     0.165 HD
BRANCH  18  20
ATOM     20  C   UNL d   1      -1.188   1.516  -3.594  0.00  0.00     0.033 A 
ATOM     21  C   UNL d   1      -0.777   2.659  -4.293  0.00  0.00     0.056 A 
ATOM     22  C   UNL d   1      -1.336   2.970  -5.536  0.00  0.00     0.074 A 
ATOM     23 CL   UNL d   1      -0.762   4.343  -6.404  0.00  0.00    -0.081 Cl
ATOM     24  C   UNL d   1      -2.340   2.167  -6.069  0.00  0.00     0.138 A 
ATOM     25  C   UNL d   1      -2.785   1.048  -5.376  0.00  0.00     0.046 A 
ATOM     26  F   UNL d   1      -2.897   2.455  -7.255  0.00  0.00    -0.204 F 
ATOM     27  C   UNL d   1      -2.205   0.722  -4.147  0.00  0.00     0.032 A 
ENDBRANCH  18  20
ENDBRANCH   2  18
TORSDOF 7
