REMARK  3 active torsions:
REMARK  status: ('A' for Active; 'I' for Inactive)
REMARK    1  A    between atoms: C_7  and  C_1 
REMARK    2  A    between atoms: N_8  and  C_2 
REMARK    3  A    between atoms: C_9  and  C_3 
REMARK       I    between atoms: C_10  and  N_8 
ROOT
ATOM      1  C   UNL d   1       1.346   0.654  -0.266  0.00  0.00     0.147 A 
ATOM      2  C   UNL d   1       0.072  -1.185  -0.133  0.00  0.00     0.138 A 
ATOM      3  C   UNL d   1       1.395  -0.765  -0.099  0.00  0.00     0.053 A 
ATOM      4  N   UNL d   1       0.070   1.075  -0.357  0.00  0.00    -0.292 N 
ATOM      5  HN  UNL d   1      -0.258   2.034  -0.470  1.00  0.00     0.187 HD
ATOM      6  N   UNL d   1      -0.679  -0.040  -0.268  0.00  0.00    -0.280 N 
ATOM      7  C   UNL d   1      -2.109   0.134  -0.155  0.00  0.00     0.179 C 
ENDROOT
BRANCH   3   8
ATOM      8  C   UNL d   1       2.542  -1.655   0.012  0.00  0.00    -0.020 A 
ATOM      9  C   UNL d   1       2.667  -2.761  -0.845  0.00  0.00     0.014 A 
ATOM     10  C   UNL d   1       3.749  -3.636  -0.725  0.00  0.00     0.020 A 
ATOM     11  C   UNL d   1       4.729  -3.392   0.233  0.00  0.00     0.011 A 
ATOM     12  C   UNL d   1       4.634  -2.284   1.073  0.00  0.00     0.020 A 
ATOM     13 BR   UNL d   1       6.199  -4.568   0.388  0.00  0.00    -0.051 Br
ATOM     14  C   UNL d   1       3.538  -1.420   0.967  0.00  0.00     0.014 A 
ENDBRANCH   3   8
BRANCH   2  15
ATOM     15  N   UNL d   1      -0.306  -2.522  -0.005  0.00  0.00    -0.311 N 
ATOM     16  C   UNL d   1      -1.476  -3.086  -0.598  0.00  0.00     0.219 C 
ATOM     17  O   UNL d   1      -2.240  -2.406  -1.259  0.00  0.00    -0.274 OA
ATOM     18  C   UNL d   1      -1.602  -4.572  -0.438  0.00  0.00     0.117 C 
ATOM     19  H   UNL d   1       0.374  -3.148   0.413  0.00  0.00     0.170 HD
ENDBRANCH   2  15
BRANCH   1  20
ATOM     20  C   UNL d   1       2.505   1.620  -0.327  0.00  0.00     0.434 C 
ATOM     21  F   UNL d   1       3.635   1.039  -0.812  0.00  0.00    -0.165 F 
ATOM     22  F   UNL d   1       2.260   2.697  -1.116  0.00  0.00    -0.165 F 
ATOM     23  F   UNL d   1       2.817   2.092   0.910  0.00  0.00    -0.165 F 
ENDBRANCH   1  20
TORSDOF 3
