REMARK  6 active torsions:
REMARK  status: ('A' for Active; 'I' for Inactive)
REMARK    1  A    between atoms: C_11  and  N_3 
REMARK    2  A    between atoms: C_14  and  C_4 
REMARK    3  A    between atoms: C_8  and  C_10 
REMARK    4  A    between atoms: C_9  and  C_15 
REMARK       I    between atoms: C_10  and  N_16 
REMARK    5  A    between atoms: C_13  and  C_11 
REMARK       I    between atoms: N_20  and  C_13 
REMARK    6  A    between atoms: N_16  and  N_20 
ROOT
ATOM      1  N   UNL d   1      -0.470  -0.832  -0.010  0.00  0.00    -0.268 N 
ATOM      2  HN  UNL d   1      -0.814  -1.792   0.017  1.00  0.00     0.190 HD
ATOM      3  N   UNL d   1       0.791  -0.365   0.067  0.00  0.00    -0.207 N 
ATOM      4  C   UNL d   1      -1.152   0.326  -0.131  0.00  0.00     0.144 A 
ATOM      5  N   UNL d   1      -0.329   1.426  -0.090  0.00  0.00    -0.266 N 
ATOM      6  HN  UNL d   1      -0.616   2.403  -0.151  1.00  0.00     0.186 HD
ATOM      7  N   UNL d   1       0.908   0.976   0.043  0.00  0.00    -0.002 NA
ENDROOT
BRANCH   3   8
ATOM      8  C   UNL d   1       1.985  -1.182   0.061  0.00  0.00     0.271 C 
BRANCH   8   9
ATOM      9  C   UNL d   1       1.873  -2.678  -0.034  0.00  0.00     0.257 C 
ATOM     10  N   UNL d   1       0.659  -3.306   0.101  0.00  0.00    -0.266 N 
ATOM     11  H   UNL d   1      -0.234  -2.804   0.045  0.00  0.00     0.190 HD
ATOM     12  O   UNL d   1       2.905  -3.352  -0.186  0.00  0.00    -0.270 OA
BRANCH  10  13
ATOM     13  N   UNL d   1       0.636  -4.703  -0.062  0.00  0.00    -0.263 N 
ATOM     14  C   UNL d   1      -0.529  -5.335  -0.436  0.00  0.00     0.271 C 
ATOM     15  O   UNL d   1      -1.586  -4.734  -0.600  0.00  0.00    -0.266 OA
ATOM     16  H   UNL d   1       1.542  -5.174  -0.021  0.00  0.00     0.190 HD
BRANCH  14  17
ATOM     17  C   UNL d   1      -0.454  -6.805  -0.712  0.00  0.00     0.055 A 
ATOM     18  C   UNL d   1       0.380  -7.712  -0.041  0.00  0.00     0.051 A 
ATOM     19  C   UNL d   1       0.368  -9.073  -0.385  0.00  0.00     0.048 A 
ATOM     20 CL   UNL d   1       1.423  -7.265   1.263  0.00  0.00    -0.083 Cl
ATOM     21  C   UNL d   1      -0.481  -9.534  -1.388  0.00  0.00     0.035 A 
ATOM     22  C   UNL d   1      -1.326  -8.652  -2.051  0.00  0.00     0.025 A 
ATOM     23 CL   UNL d   1      -0.491 -11.204  -1.800  0.00  0.00    -0.084 Cl
ATOM     24  C   UNL d   1      -1.315  -7.295  -1.712  0.00  0.00     0.020 A 
ENDBRANCH  14  17
ENDBRANCH  10  13
ENDBRANCH   8   9
ENDBRANCH   3   8
BRANCH   4  25
ATOM     25  C   UNL d   1      -2.589   0.428  -0.352  0.00  0.00     0.011 A 
ATOM     26  C   UNL d   1      -3.186   1.665  -0.656  0.00  0.00     0.031 A 
ATOM     27  C   UNL d   1      -4.562   1.757  -0.934  0.00  0.00     0.048 A 
ATOM     28  C   UNL d   1      -5.340   0.590  -0.894  0.00  0.00     0.016 A 
ATOM     29  C   UNL d   1      -4.762  -0.637  -0.575  0.00  0.00     0.002 A 
ATOM     30  C   UNL d   1      -3.395  -0.717  -0.305  0.00  0.00     0.015 A 
BRANCH  27  31
ATOM     31  C   UNL d   1      -5.212   3.073  -1.288  0.00  0.00     0.417 C 
ATOM     32  F   UNL d   1      -4.354   4.130  -1.277  0.00  0.00    -0.166 F 
ATOM     33  F   UNL d   1      -5.769   3.058  -2.531  0.00  0.00    -0.166 F 
ATOM     34  F   UNL d   1      -6.221   3.401  -0.433  0.00  0.00    -0.166 F 
ENDBRANCH  27  31
ENDBRANCH   4  25
TORSDOF 6
