REMARK  2 active torsions:
REMARK  status: ('A' for Active; 'I' for Inactive)
REMARK    1  A    between atoms: C_8  and  C_2 
REMARK    2  A    between atoms: O_16  and  C_7 
ROOT
ATOM      1  C   UNL d   1      -0.802  -0.388   0.108  0.00  0.00     0.052 A 
ATOM      2  C   UNL d   1      -2.558   1.279  -0.093  0.00  0.00     0.013 A 
ATOM      3  C   UNL d   1      -1.204   0.957   0.085  0.00  0.00    -0.013 A 
ATOM      4  C   UNL d   1      -3.420   0.162  -0.305  0.00  0.00     0.107 A 
ATOM      5  N   UNL d   1      -1.609  -1.448  -0.001  0.00  0.00    -0.335 N 
ATOM      6  HN  UNL d   1      -1.270  -2.408   0.063  1.00  0.00     0.168 HD
ATOM      7  C   UNL d   1      -2.909  -1.147  -0.201  0.00  0.00     0.164 A 
ATOM      8  C   UNL d   1       0.637  -0.477   0.178  0.00  0.00    -0.002 A 
ATOM      9  C   UNL d   1       0.024   1.836   0.236  0.00  0.00     0.081 A 
ATOM     10  C   UNL d   1       1.157   0.827   0.238  0.00  0.00    -0.041 A 
ATOM     11  C   UNL d   1      -4.787   0.331  -0.700  0.00  0.00     0.104 C 
ATOM     12  N   UNL d   1      -5.882   0.501  -1.049  0.00  0.00    -0.191 NA
ATOM     13  C   UNL d   1       1.478  -1.578   0.117  0.00  0.00     0.014 A 
ATOM     14  C   UNL d   1       2.522   1.061   0.224  0.00  0.00     0.008 A 
ATOM     15  C   UNL d   1       2.857  -1.351   0.100  0.00  0.00     0.001 A 
ATOM     16  C   UNL d   1       3.373  -0.045   0.147  0.00  0.00     0.001 A 
ENDROOT
BRANCH   7  17
ATOM     17  O   UNL d   1      -3.808  -2.196  -0.314  0.00  0.00    -0.340 OA
ATOM     18  C   UNL d   1      -3.226  -3.476  -0.080  0.00  0.00     0.211 C 
ENDBRANCH   7  17
BRANCH   2  19
ATOM     19  C   UNL d   1      -3.043   2.691  -0.093  0.00  0.00     0.037 A 
ATOM     20  C   UNL d   1      -2.458   3.649  -0.940  0.00  0.00     0.129 A 
ATOM     21  F   UNL d   1      -1.498   3.287  -1.803  0.00  0.00    -0.205 F 
ATOM     22  C   UNL d   1      -2.838   4.994  -0.946  0.00  0.00     0.043 A 
ATOM     23  C   UNL d   1      -3.890   5.419  -0.149  0.00  0.00     0.005 A 
ATOM     24  C   UNL d   1      -4.524   4.501   0.680  0.00  0.00     0.025 A 
ATOM     25  C   UNL d   1      -4.080   3.167   0.746  0.00  0.00     0.048 A 
ATOM     26 CL   UNL d   1      -4.829   2.182   1.960  0.00  0.00    -0.083 Cl
ENDBRANCH   2  19
TORSDOF 2
