REMARK  5 active torsions:
REMARK  status: ('A' for Active; 'I' for Inactive)
REMARK    1  A    between atoms: C_3  and  O_5 
REMARK       I    between atoms: N_10  and  C_3 
REMARK    2  A    between atoms: O_5  and  C_4 
REMARK    3  A    between atoms: S_13  and  C_6 
REMARK    4  A    between atoms: C_15  and  C_11 
REMARK    5  A    between atoms: O_14  and  C_15 
ROOT
ATOM      1  N   UNL d   1       1.240   0.583  -0.027  0.00  0.00    -0.317 N 
ATOM      2  HN  UNL d   1       2.185   0.953  -0.127  1.00  0.00     0.170 HD
ATOM      3  C   UNL d   1       1.008  -0.731   0.140  0.00  0.00     0.156 A 
ATOM      4  C   UNL d   1       0.164   1.378  -0.056  0.00  0.00     0.146 A 
ATOM      5  N   UNL d   1      -1.106   0.952   0.018  0.00  0.00    -0.338 N 
ATOM      6  HN  UNL d   1      -1.890   1.601  -0.042  1.00  0.00     0.168 HD
ATOM      7  C   UNL d   1      -0.252  -1.268   0.264  0.00  0.00     0.084 A 
ATOM      8  C   UNL d   1      -1.300  -0.375   0.177  0.00  0.00     0.039 A 
ENDROOT
BRANCH   3   9
ATOM      9  O   UNL d   1       2.173  -1.519   0.006  0.00  0.00    -0.244 OA
BRANCH   9  10
ATOM     10  C   UNL d   1       2.284  -2.869   0.318  0.00  0.00     0.368 C 
ATOM     11  N   UNL d   1       3.465  -3.428  -0.155  0.00  0.00    -0.336 N 
ATOM     12  C   UNL d   1       4.523  -2.646  -0.776  0.00  0.00     0.154 C 
ATOM     13  C   UNL d   1       3.765  -4.813   0.148  0.00  0.00     0.154 C 
ATOM     14  O   UNL d   1       1.434  -3.506   0.932  0.00  0.00    -0.238 OA
ENDBRANCH   9  10
ENDBRANCH   3   9
BRANCH   4  15
ATOM     15  S   UNL d   1       0.459   3.115  -0.273  0.00  0.00    -0.098 SA
ATOM     16  C   UNL d   1      -1.030   3.767   0.520  0.00  0.00     0.099 C 
ENDBRANCH   4  15
BRANCH   8  17
ATOM     17  C   UNL d   1      -2.724  -0.874   0.193  0.00  0.00     0.224 C 
BRANCH  17  18
ATOM     18  O   UNL d   1      -3.083  -1.301   1.506  0.00  0.00    -0.390 OA
ATOM     19  C   UNL d   1      -4.415  -1.798   1.534  0.00  0.00     0.201 C 
ENDBRANCH  17  18
ENDBRANCH   8  17
TORSDOF 5
