REMARK  5 active torsions:
REMARK  status: ('A' for Active; 'I' for Inactive)
REMARK    1  A    between atoms: O_8  and  S_1 
REMARK    2  A    between atoms: C_9  and  S_1 
REMARK    3  A    between atoms: C_23  and  C_3 
REMARK    4  A    between atoms: C_14  and  O_8 
REMARK    5  A    between atoms: C_24  and  C_23 
ROOT
ATOM      1  C   UNL d   1       2.284   3.919  -1.348  0.00  0.00     0.093 A 
ATOM      2  C   UNL d   1       1.786   6.269  -1.927  0.00  0.00    -0.039 A 
ATOM      3  O   UNL d   1       3.622   4.269  -1.076  0.00  0.00    -0.275 OA
ATOM      4  C   UNL d   1       4.052   5.580  -1.185  0.00  0.00     0.288 A 
ATOM      5  C   UNL d   1       1.354   4.871  -1.771  0.00  0.00     0.004 A 
ATOM      6  C   UNL d   1       3.064   6.567  -1.645  0.00  0.00     0.090 A 
ATOM      7  C   UNL d   1       1.946   2.578  -1.146  0.00  0.00     0.076 A 
ATOM      8  C   UNL d   1       0.050   4.429  -2.015  0.00  0.00     0.017 A 
ATOM      9  C   UNL d   1       0.631   2.167  -1.348  0.00  0.00     0.092 A 
ATOM     10  O   UNL d   1       5.200   5.919  -0.922  0.00  0.00    -0.260 OA
ATOM     11  C   UNL d   1      -0.306   3.088  -1.817  0.00  0.00     0.039 A 
ENDROOT
BRANCH   9  12
ATOM     12  O   UNL d   1       0.351   0.856  -1.051  0.00  0.00    -0.229 OA
BRANCH  12  13
ATOM     13  S   UNL d   1      -1.170   0.381  -0.693  0.00  0.00     0.303 S 
ATOM     14  O   UNL d   1      -1.862   0.077  -1.933  0.00  0.00    -0.193 OA
ATOM     15  O   UNL d   1      -1.753   1.300   0.269  0.00  0.00    -0.193 OA
BRANCH  13  16
ATOM     16  C   UNL d   1      -0.940  -1.159   0.175  0.00  0.00     0.086 A 
ATOM     17  C   UNL d   1      -0.673  -1.130   1.550  0.00  0.00     0.027 A 
ATOM     18  C   UNL d   1      -0.595  -2.329   2.261  0.00  0.00     0.025 A 
ATOM     19  C   UNL d   1      -0.787  -3.543   1.599  0.00  0.00     0.034 A 
ATOM     20  C   UNL d   1      -1.051  -3.570   0.228  0.00  0.00     0.025 A 
ATOM     21 CL   UNL d   1      -0.721  -5.016   2.484  0.00  0.00    -0.084 Cl
ATOM     22  C   UNL d   1      -1.132  -2.373  -0.490  0.00  0.00     0.027 A 
ENDBRANCH  13  16
ENDBRANCH  12  13
ENDBRANCH   9  12
BRANCH   2  23
ATOM     23  C   UNL d   1       0.837   7.337  -2.418  0.00  0.00     0.039 C 
BRANCH  23  24
ATOM     24  C   UNL d   1       0.020   7.965  -1.285  0.00  0.00     0.000 C 
ATOM     25  C   UNL d   1      -0.953   9.006  -1.819  0.00  0.00     0.005 C 
ENDBRANCH  23  24
ENDBRANCH   2  23
TORSDOF 5
