REMARK  1 active torsions:
REMARK  status: ('A' for Active; 'I' for Inactive)
REMARK       I    between atoms: C_2  and  N_1 
REMARK       I    between atoms: N_3  and  C_2 
REMARK    1  A    between atoms: C_5  and  N_3 
ROOT
ATOM      1  N   UNL d   1      -0.784  -0.532  -1.098  0.00  0.00    -0.304 N 
ATOM      2  C   UNL d   1      -0.121  -0.822  -2.264  0.00  0.00     0.303 C 
ATOM      3  N   UNL d   1      -0.907  -1.341  -3.279  0.00  0.00    -0.207 NA
ATOM      4  C   UNL d   1      -0.152   0.018   0.105  0.00  0.00     0.139 C 
ATOM      5  O   UNL d   1      -1.278   0.322   0.992  0.00  0.00    -0.359 OA
ATOM      6  O   UNL d   1       1.068  -0.583  -2.438  0.00  0.00    -0.254 OA
ATOM      7  C   UNL d   1      -2.126  -0.942  -0.769  0.00  0.00     0.156 C 
ATOM      8  C   UNL d   1      -2.499   0.050   0.296  0.00  0.00     0.191 C 
ATOM      9  C   UNL d   1       0.681  -1.007   0.892  0.00  0.00     0.061 C 
ATOM     10  C   UNL d   1       0.614   1.343  -0.072  0.00  0.00     0.061 C 
ATOM     11  C   UNL d   1       2.088  -1.211   0.356  0.00  0.00     0.005 C 
ATOM     12  C   UNL d   1       2.093   1.229  -0.453  0.00  0.00     0.005 C 
ATOM     13  C   UNL d   1       2.848   0.107   0.255  0.00  0.00     0.000 C 
ATOM     14  H   UNL d   1      -1.781  -0.831  -3.354  0.00  0.00     0.138 HD
ENDROOT
BRANCH   3  15
ATOM     15  C   UNL d   1      -0.309  -1.612  -4.543  0.00  0.00     0.060 A 
ATOM     16  C   UNL d   1       0.801  -2.465  -4.700  0.00  0.00     0.057 A 
ATOM     17 CL   UNL d   1       1.366  -3.502  -3.432  0.00  0.00    -0.082 Cl
ATOM     18  C   UNL d   1       1.442  -2.571  -5.941  0.00  0.00     0.026 A 
ATOM     19  C   UNL d   1       0.967  -1.859  -7.042  0.00  0.00     0.003 A 
ATOM     20  C   UNL d   1      -0.174  -1.069  -6.917  0.00  0.00     0.026 A 
ATOM     21  C   UNL d   1      -0.814  -0.957  -5.680  0.00  0.00     0.057 A 
ATOM     22 CL   UNL d   1      -2.211   0.060  -5.572  0.00  0.00    -0.082 Cl
ENDBRANCH   3  15
TORSDOF 1
