REMARK  4 active torsions:
REMARK  status: ('A' for Active; 'I' for Inactive)
REMARK    1  A    between atoms: C_9  and  C_1 
REMARK    2  A    between atoms: O_11  and  C_3 
REMARK    3  A    between atoms: C_20  and  N_5 
REMARK    4  A    between atoms: C_14  and  C_20 
ROOT
ATOM      1  N   UNL d   1      -1.064   4.773   0.046  0.00  0.00    -0.394 N 
ATOM      2  HN  UNL d   1      -1.965   4.299   0.122  1.00  0.00     0.159 HD
ATOM      3  C   UNL d   1       0.042   4.117   0.006  0.00  0.00     0.097 C 
ENDROOT
BRANCH   3   4
ATOM      4  C   UNL d   1       0.029   2.638   0.018  0.00  0.00     0.015 A 
ATOM      5  C   UNL d   1       1.219   1.906   0.010  0.00  0.00     0.093 A 
ATOM      6  C   UNL d   1       1.167   0.505   0.010  0.00  0.00     0.041 A 
ATOM      7  I   UNL d   1       2.914  -0.645   0.000  0.00  0.00    -0.042 I 
ATOM      8  C   UNL d   1      -0.063  -0.160   0.015  0.00  0.00     0.039 A 
ATOM      9  C   UNL d   1      -1.244   0.579   0.019  0.00  0.00     0.008 A 
ATOM     10  C   UNL d   1      -1.206   1.971   0.021  0.00  0.00     0.033 A 
ATOM     11  I   UNL d   1      -3.079  -0.398   0.020  0.00  0.00    -0.045 I 
BRANCH   5  12
ATOM     12  O   UNL d   1       2.415   2.574   0.002  0.00  0.00    -0.358 OA
ATOM     13  H   UNL d   1       3.129   1.910  -0.004  0.00  0.00     0.217 HD
ENDBRANCH   5  12
ENDBRANCH   3   4
BRANCH   1  14
ATOM     14  C   UNL d   1      -0.968   6.232  -0.022  0.00  0.00     0.157 C 
BRANCH  14  15
ATOM     15  C   UNL d   1      -2.168   6.831  -0.730  0.00  0.00    -0.040 A 
ATOM     16  C   UNL d   1      -3.420   6.191  -0.703  0.00  0.00     0.012 A 
ATOM     17  C   UNL d   1      -4.522   6.748  -1.351  0.00  0.00     0.043 A 
ATOM     18  C   UNL d   1      -4.382   7.960  -2.012  0.00  0.00     0.116 A 
ATOM     19  C   UNL d   1      -3.162   8.627  -2.032  0.00  0.00     0.043 A 
ATOM     20  F   UNL d   1      -5.438   8.498  -2.637  0.00  0.00    -0.206 F 
ATOM     21  C   UNL d   1      -2.057   8.066  -1.387  0.00  0.00     0.012 A 
ENDBRANCH  14  15
ENDBRANCH   1  14
TORSDOF 4
