REMARK  8 active torsions:
REMARK  status: ('A' for Active; 'I' for Inactive)
REMARK    1  A    between atoms: C_4  and  S_1 
REMARK    2  A    between atoms: N_14  and  S_1 
REMARK    3  A    between atoms: C_2  and  C_6 
REMARK    4  A    between atoms: C_3  and  C_5 
REMARK    5  A    between atoms: N_7  and  C_25 
REMARK    6  A    between atoms: C_27  and  N_14 
REMARK    7  A    between atoms: C_25  and  C_26 
REMARK    8  A    between atoms: C_26  and  C_27 
ROOT
ATOM      1  S   UNL d   1       0.860   0.049   0.078  0.00  0.00     0.258 S 
ATOM      2  O   UNL d   1       0.339   0.146   1.418  0.00  0.00    -0.201 OA
ATOM      3  O   UNL d   1       0.560   1.018  -0.957  0.00  0.00    -0.201 OA
ENDROOT
BRANCH   1   4
ATOM      4  C   UNL d   1       0.426  -1.545  -0.564  0.00  0.00     0.081 A 
ATOM      5  C   UNL d   1       1.417  -2.481  -0.871  0.00  0.00     0.041 A 
ATOM      6  C   UNL d   1       1.071  -3.794  -1.212  0.00  0.00     0.050 A 
ATOM      7  C   UNL d   1      -0.290  -4.144  -1.266  0.00  0.00     0.032 A 
ATOM      8  C   UNL d   1      -1.295  -3.207  -0.959  0.00  0.00     0.050 A 
ATOM      9  C   UNL d   1      -0.923  -1.893  -0.625  0.00  0.00     0.041 A 
BRANCH   6  10
ATOM     10  C   UNL d   1       2.143  -4.832  -1.449  0.00  0.00     0.417 C 
ATOM     11  F   UNL d   1       3.407  -4.348  -1.293  0.00  0.00    -0.166 F 
ATOM     12  F   UNL d   1       2.039  -5.878  -0.587  0.00  0.00    -0.166 F 
ATOM     13  F   UNL d   1       2.092  -5.364  -2.698  0.00  0.00    -0.166 F 
ENDBRANCH   6  10
BRANCH   8  14
ATOM     14  C   UNL d   1      -2.751  -3.618  -0.913  0.00  0.00     0.417 C 
ATOM     15  F   UNL d   1      -3.577  -2.604  -0.527  0.00  0.00    -0.166 F 
ATOM     16  F   UNL d   1      -3.217  -4.045  -2.117  0.00  0.00    -0.166 F 
ATOM     17  F   UNL d   1      -2.974  -4.633  -0.037  0.00  0.00    -0.166 F 
ENDBRANCH   8  14
ENDBRANCH   1   4
BRANCH   1  18
ATOM     18  N   UNL d   1       2.549  -0.005   0.166  0.00  0.00    -0.315 N 
ATOM     19  H   UNL d   1       2.967   0.846  -0.232  0.00  0.00     0.172 HD
BRANCH  18  20
ATOM     20  C   UNL d   1       3.124  -0.542   1.406  0.00  0.00     0.134 C 
BRANCH  20  21
ATOM     21  C   UNL d   1       4.645  -0.572   1.299  0.00  0.00     0.050 C 
BRANCH  21  22
ATOM     22  C   UNL d   1       5.229  -1.105   2.612  0.00  0.00     0.274 C 
BRANCH  22  23
ATOM     23  N   UNL d   1       6.699  -1.172   2.646  0.00  0.00     0.093 N 
ATOM     24  C   UNL d   1       7.163  -1.702   3.955  0.00  0.00     0.303 C 
ATOM     25  C   UNL d   1       6.949  -0.716   5.132  0.00  0.00     0.146 C 
ATOM     26  C   UNL d   1       7.531  -1.275   6.423  0.00  0.00     0.041 C 
ATOM     27  O   UNL d   1       7.571   0.555   4.865  0.00  0.00    -0.378 OA
ATOM     28  C   UNL d   1       7.090   1.116   3.631  0.00  0.00     0.146 C 
ATOM     29  C   UNL d   1       7.356   0.143   2.462  0.00  0.00     0.303 C 
ATOM     30  C   UNL d   1       7.782   2.450   3.391  0.00  0.00     0.041 C 
ENDBRANCH  22  23
ENDBRANCH  21  22
ENDBRANCH  20  21
ENDBRANCH  18  20
ENDBRANCH   1  18
TORSDOF 8
