REMARK  1 active torsions:
REMARK  status: ('A' for Active; 'I' for Inactive)
REMARK    1  A    between atoms: N_2  and  C_8 
ROOT
ATOM      1  C   UNL d   1       0.287  -0.702   0.000  0.00  0.00     0.029 A 
ATOM      2  N   UNL d   1       2.578  -0.135  -0.001  0.00  0.00    -0.312 N 
ATOM      3  HN  UNL d   1       3.589  -0.268  -0.002  1.00  0.00     0.176 HD
ATOM      4  C   UNL d   1       1.677  -1.107  -0.001  0.00  0.00     0.117 A 
ATOM      5  S   UNL d   1       1.808   1.322   0.001  0.00  0.00    -0.013 SA
ATOM      6  C   UNL d   1      -0.930  -1.434   0.001  0.00  0.00     0.052 A 
ATOM      7  C   UNL d   1      -2.156  -0.744   0.003  0.00  0.00     0.103 A 
ATOM      8  C   UNL d   1       0.209   0.695   0.001  0.00  0.00     0.035 A 
ATOM      9  C   UNL d   1      -2.199   0.652   0.002  0.00  0.00     0.037 A 
ATOM     10  C   UNL d   1      -1.012   1.390   0.002  0.00  0.00     0.024 A 
ATOM     11  N   UNL d   1       2.054  -2.397  -0.002  0.00  0.00    -0.384 N 
ATOM     12  H   UNL d   1       3.044  -2.618  -0.004  0.00  0.00     0.157 HD
ATOM     13  H   UNL d   1       1.425  -3.188  -0.004  0.00  0.00     0.157 HD
ENDROOT
BRANCH   7  14
ATOM     14  N   UNL d   1      -3.414  -1.503   0.006  0.00  0.00    -0.116 N 
ATOM     15  O   UNL d   1      -3.339  -2.740   0.009  0.00  0.00    -0.532 OA
ATOM     16  O   UNL d   1      -4.475  -0.863   0.007  0.00  0.00    -0.532 OA
ENDBRANCH   7  14
TORSDOF 1
