REMARK  2 active torsions:
REMARK  status: ('A' for Active; 'I' for Inactive)
REMARK    1  A    between atoms: C_14  and  C_6 
REMARK    2  A    between atoms: N_10  and  N_12 
ROOT
ATOM      1  N   UNL d   1       1.503  -0.715   0.271  0.00  0.00    -0.334 N 
ATOM      2  HN  UNL d   1       0.539  -0.944   0.516  1.00  0.00     0.168 HD
ATOM      3  C   UNL d   1       2.436  -1.604  -0.004  0.00  0.00     0.163 A 
ATOM      4  C   UNL d   1       2.009   0.574   0.183  0.00  0.00     0.051 A 
ATOM      5  S   UNL d   1       3.990  -0.925  -0.341  0.00  0.00    -0.062 SA
ATOM      6  C   UNL d   1       3.343   0.647  -0.157  0.00  0.00     0.083 A 
ATOM      7  N   UNL d   1       2.298  -2.960  -0.045  0.00  0.00    -0.279 N 
ATOM      8  H   UNL d   1       3.142  -3.448  -0.328  0.00  0.00     0.189 HD
ENDROOT
BRANCH   7   9
ATOM      9  N   UNL d   1       1.106  -3.563  -0.318  0.00  0.00    -0.302 N 
ATOM     10  C   UNL d   1       1.033  -4.865  -0.295  0.00  0.00     0.032 C 
ATOM     11  C   UNL d   1      -0.254  -5.531  -0.722  0.00  0.00    -0.035 C 
ATOM     12  C   UNL d   1       2.201  -5.767   0.108  0.00  0.00     0.060 C 
ATOM     13  C   UNL d   1      -0.333  -6.875  -0.669  0.00  0.00    -0.068 C 
ATOM     14  C   UNL d   1      -1.380  -4.669  -1.214  0.00  0.00     0.050 C 
ATOM     15  C   UNL d   1      -1.568  -7.693  -0.940  0.00  0.00     0.035 C 
ATOM     16  C   UNL d   1       0.774  -7.778  -0.205  0.00  0.00     0.015 C 
ATOM     17  C   UNL d   1      -1.212  -9.102  -0.464  0.00  0.00     0.005 C 
ATOM     18  C   UNL d   1       0.022  -8.947   0.418  0.00  0.00     0.009 C 
ATOM     19  C   UNL d   1       1.720  -7.065   0.746  0.00  0.00     0.015 C 
ATOM     20  HN  UNL d   1       0.281  -3.003  -0.536  1.00  0.00     0.186 HD
ENDBRANCH   7   9
BRANCH   4  21
ATOM     21  C   UNL d   1       1.187   1.742   0.483  0.00  0.00    -0.009 A 
ATOM     22  C   UNL d   1       0.183   1.648   1.454  0.00  0.00     0.014 A 
ATOM     23  C   UNL d   1      -0.590   2.765   1.792  0.00  0.00     0.001 A 
ATOM     24  C   UNL d   1      -0.373   3.983   1.148  0.00  0.00     0.000 A 
ATOM     25  C   UNL d   1       0.611   4.086   0.169  0.00  0.00     0.001 A 
ATOM     26  C   UNL d   1       1.389   2.970  -0.164  0.00  0.00     0.014 A 
ENDBRANCH   4  21
TORSDOF 2
