REMARK  4 active torsions:
REMARK  status: ('A' for Active; 'I' for Inactive)
REMARK    1  A    between atoms: C_10  and  C_3 
REMARK    2  A    between atoms: N_4  and  C_9 
REMARK    3  A    between atoms: C_15  and  C_7 
REMARK    4  A    between atoms: N_12  and  C_15 
ROOT
ATOM      1  N   UNL d   1       0.788   0.236  -0.730  0.00  0.00    -0.321 N 
ATOM      2  HN  UNL d   1       1.551   0.377  -1.392  1.00  0.00     0.169 HD
ATOM      3  C   UNL d   1      -0.046   1.168  -0.167  0.00  0.00     0.138 C 
ATOM      4  N   UNL d   1      -1.053   0.644   0.553  0.00  0.00    -0.242 N 
ATOM      5  HN  UNL d   1      -1.826   1.131   1.005  1.00  0.00     0.196 HD
ATOM      6  C   UNL d   1       0.354  -0.887  -0.199  0.00  0.00     0.177 C 
ATOM      7  O   UNL d   1      -0.786  -0.726   0.534  0.00  0.00    -0.221 OA
ENDROOT
BRANCH   3   8
ATOM      8  C   UNL d   1       0.311   2.578  -0.180  0.00  0.00     0.012 A 
ATOM      9  C   UNL d   1       1.108   3.089  -1.214  0.00  0.00     0.051 A 
ATOM     10  C   UNL d   1       1.575   4.409  -1.141  0.00  0.00     0.103 A 
ATOM     11  C   UNL d   1       1.260   5.220  -0.044  0.00  0.00     0.036 A 
ATOM     12  C   UNL d   1       0.458   4.714   0.978  0.00  0.00     0.003 A 
ATOM     13  C   UNL d   1      -0.018   3.403   0.908  0.00  0.00     0.015 A 
BRANCH  10  14
ATOM     14  N   UNL d   1       2.428   4.937  -2.213  0.00  0.00    -0.116 N 
ATOM     15  O   UNL d   1       2.670   4.194  -3.175  0.00  0.00    -0.532 OA
ATOM     16  O   UNL d   1       2.854   6.093  -2.092  0.00  0.00    -0.532 OA
ENDBRANCH  10  14
ENDBRANCH   3   8
BRANCH   6  17
ATOM     17  C   UNL d   1       1.024  -2.217  -0.128  0.00  0.00     0.358 C 
BRANCH  17  18
ATOM     18  N   UNL d   1       2.329  -2.252   0.572  0.00  0.00     0.096 N 
ATOM     19  C   UNL d   1       2.277  -1.826   1.974  0.00  0.00     0.273 C 
ATOM     20  C   UNL d   1       2.680  -0.362   1.998  0.00  0.00     0.032 C 
ATOM     21  C   UNL d   1       3.587  -0.194   0.790  0.00  0.00     0.032 C 
ATOM     22  C   UNL d   1       3.366  -1.434  -0.072  0.00  0.00     0.273 C 
ENDBRANCH  17  18
ENDBRANCH   6  17
TORSDOF 4
