REMARK  3 active torsions:
REMARK  status: ('A' for Active; 'I' for Inactive)
REMARK    1  A    between atoms: C_7  and  S_1 
REMARK    2  A    between atoms: C_14  and  S_1 
REMARK    3  A    between atoms: C_5  and  C_7 
ROOT
ATOM      1  C   UNL d   1       0.683   3.273   3.136  0.00  0.00     0.207 A 
ATOM      2  N   UNL d   1       0.032   2.410   2.376  0.00  0.00    -0.320 N 
ATOM      3  HN  UNL d   1      -0.845   1.926   2.569  1.00  0.00     0.169 HD
ATOM      4  C   UNL d   1       0.830   2.325   1.261  0.00  0.00     0.118 A 
ATOM      5  C   UNL d   1       0.259   3.679   4.435  0.00  0.00     0.153 A 
ATOM      6  N   UNL d   1       1.905   3.119   1.285  0.00  0.00    -0.246 N 
ATOM      7  HN  UNL d   1       2.615   3.244   0.564  1.00  0.00     0.196 HD
ATOM      8  O   UNL d   1       1.823   3.737   2.533  0.00  0.00    -0.215 OA
ATOM      9  N   UNL d   1       0.302   4.785   6.400  0.00  0.00    -0.272 N 
ATOM     10  HN  UNL d   1       0.581   5.410   7.157  1.00  0.00     0.194 HD
ATOM     11  O   UNL d   1       0.937   4.603   5.184  0.00  0.00    -0.234 OA
ATOM     12  C   UNL d   1      -0.834   3.258   5.166  0.00  0.00     0.063 A 
ATOM     13  C   UNL d   1      -0.753   3.970   6.373  0.00  0.00     0.117 A 
ENDROOT
BRANCH   4  14
ATOM     14  C   UNL d   1       0.455   1.531   0.082  0.00  0.00     0.224 C 
BRANCH  14  15
ATOM     15  S   UNL d   1       1.074  -0.133   0.144  0.00  0.00     0.182 S 
ATOM     16  O   UNL d   1       2.510  -0.106   0.337  0.00  0.00    -0.222 OA
ATOM     17  O   UNL d   1       0.505  -0.854  -0.984  0.00  0.00    -0.222 OA
BRANCH  15  18
ATOM     18  C   UNL d   1       0.347  -0.867   1.594  0.00  0.00     0.059 A 
ATOM     19  C   UNL d   1      -1.048  -0.964   1.668  0.00  0.00     0.026 A 
ATOM     20  C   UNL d   1      -1.637  -1.530   2.796  0.00  0.00     0.044 A 
ATOM     21  C   UNL d   1      -0.832  -2.008   3.825  0.00  0.00     0.116 A 
ATOM     22  C   UNL d   1       0.556  -1.942   3.744  0.00  0.00     0.044 A 
ATOM     23  F   UNL d   1      -1.405  -2.542   4.912  0.00  0.00    -0.206 F 
ATOM     24  C   UNL d   1       1.157  -1.371   2.620  0.00  0.00     0.026 A 
ENDBRANCH  15  18
ENDBRANCH  14  15
ENDBRANCH   4  14
TORSDOF 3
