REMARK  4 active torsions:
REMARK  status: ('A' for Active; 'I' for Inactive)
REMARK       I    between atoms: N_4  and  C_1 
REMARK       I    between atoms: C_2  and  N_3 
REMARK    1  A    between atoms: N_3  and  C_7 
REMARK    2  A    between atoms: C_8  and  N_4 
REMARK    3  A    between atoms: C_11  and  C_9 
REMARK    4  A    between atoms: C_10  and  C_11 
ROOT
ATOM      1  C   UNL d   1       2.992   6.092   1.987  0.00  0.00     0.077 C 
ENDROOT
BRANCH   1   2
ATOM      2  C   UNL d   1       4.165   6.519   1.132  0.00  0.00    -0.054 A 
ATOM      3  C   UNL d   1       3.991   7.347   0.016  0.00  0.00     0.010 A 
ATOM      4  C   UNL d   1       5.098   7.804  -0.713  0.00  0.00     0.030 A 
ATOM      5  C   UNL d   1       6.400   7.438  -0.346  0.00  0.00     0.034 A 
ATOM      6  C   UNL d   1       6.567   6.577   0.738  0.00  0.00     0.030 A 
ATOM      7  C   UNL d   1       5.463   6.121   1.466  0.00  0.00     0.010 A 
BRANCH   5   8
ATOM      8  N   UNL d   1       7.471   7.989  -1.086  0.00  0.00    -0.328 N 
ATOM      9  C   UNL d   1       8.824   7.809  -0.858  0.00  0.00     0.218 C 
ATOM     10  O   UNL d   1       9.338   7.108   0.008  0.00  0.00    -0.274 OA
ATOM     11  C   UNL d   1       9.701   8.595  -1.802  0.00  0.00     0.117 C 
ATOM     12  H   UNL d   1       7.208   8.607  -1.841  0.00  0.00     0.169 HD
ENDBRANCH   5   8
ENDBRANCH   1   2
BRANCH   1  13
ATOM     13  C   UNL d   1       2.309   4.819   1.548  0.00  0.00    -0.054 A 
ATOM     14  C   UNL d   1       2.747   3.566   1.993  0.00  0.00     0.010 A 
ATOM     15  C   UNL d   1       2.096   2.394   1.583  0.00  0.00     0.030 A 
ATOM     16  C   UNL d   1       1.013   2.454   0.699  0.00  0.00     0.034 A 
ATOM     17  C   UNL d   1       0.562   3.705   0.277  0.00  0.00     0.030 A 
ATOM     18  C   UNL d   1       1.203   4.875   0.693  0.00  0.00     0.010 A 
BRANCH  16  19
ATOM     19  N   UNL d   1       0.428   1.238   0.280  0.00  0.00    -0.328 N 
ATOM     20  C   UNL d   1      -0.452   1.078  -0.775  0.00  0.00     0.218 C 
ATOM     21  O   UNL d   1      -0.830   1.948  -1.556  0.00  0.00    -0.274 OA
ATOM     22  C   UNL d   1      -0.924  -0.343  -0.956  0.00  0.00     0.117 C 
ATOM     23  H   UNL d   1       0.779   0.398   0.722  0.00  0.00     0.169 HD
ENDBRANCH  16  19
ENDBRANCH   1  13
TORSDOF 4
