REMARK  3 active torsions:
REMARK  status: ('A' for Active; 'I' for Inactive)
REMARK    1  A    between atoms: C_7  and  C_4 
REMARK    2  A    between atoms: N_14  and  C_5 
REMARK    3  A    between atoms: C_8  and  C_9 
ROOT
ATOM      1  C   UNL d   1      -1.171   0.578  -0.642  0.00  0.00     0.081 A 
ATOM      2  N   UNL d   1      -0.152  -1.137   0.459  0.00  0.00    -0.298 N 
ATOM      3  HN  UNL d   1       0.032  -2.002   0.968  1.00  0.00     0.187 HD
ATOM      4  C   UNL d   1      -1.325  -0.700  -0.028  0.00  0.00     0.062 A 
ATOM      5  C   UNL d   1       0.162   0.882  -0.530  0.00  0.00     0.115 A 
ATOM      6  N   UNL d   1       0.726  -0.176   0.123  0.00  0.00    -0.285 N 
ATOM      7  H   UNL d   1       1.698  -0.305   0.367  0.00  0.00     0.188 HD
ENDROOT
BRANCH   4   8
ATOM      8  C   UNL d   1      -2.550  -1.494   0.076  0.00  0.00    -0.008 A 
ATOM      9  C   UNL d   1      -2.739  -2.402   1.122  0.00  0.00     0.014 A 
ATOM     10  C   UNL d   1      -3.904  -3.179   1.194  0.00  0.00     0.009 A 
ATOM     11  C   UNL d   1      -4.912  -3.086   0.214  0.00  0.00    -0.051 A 
ATOM     12  C   UNL d   1      -4.712  -2.158  -0.820  0.00  0.00     0.009 A 
ATOM     13  C   UNL d   1      -3.554  -1.375  -0.888  0.00  0.00     0.014 A 
BRANCH  11  14
ATOM     14  C   UNL d   1      -6.151  -3.998   0.273  0.00  0.00    -0.024 C 
ATOM     15  C   UNL d   1      -7.126  -3.779  -0.907  0.00  0.00     0.019 C 
ATOM     16  C   UNL d   1      -5.709  -5.477   0.231  0.00  0.00     0.019 C 
ATOM     17  C   UNL d   1      -6.944  -3.749   1.573  0.00  0.00     0.019 C 
ENDBRANCH  11  14
ENDBRANCH   4   8
BRANCH   5  18
ATOM     18  N   UNL d   1       0.871   1.947  -0.940  0.00  0.00    -0.384 N 
ATOM     19  H   UNL d   1       0.427   2.734  -1.409  0.00  0.00     0.157 HD
ATOM     20  H   UNL d   1       1.867   2.063  -0.789  0.00  0.00     0.157 HD
ENDBRANCH   5  18
TORSDOF 3
