REMARK  9 active torsions:
REMARK  status: ('A' for Active; 'I' for Inactive)
REMARK    1  A    between atoms: C_3  and  S_1 
REMARK    2  A    between atoms: C_5  and  S_1 
REMARK    3  A    between atoms: C_2  and  C_3 
REMARK    4  A    between atoms: C_4  and  C_2 
REMARK    5  A    between atoms: C_7  and  C_3 
REMARK    6  A    between atoms: C_6  and  C_4 
REMARK    7  A    between atoms: N_14  and  C_8 
REMARK    8  A    between atoms: C_21  and  C_16 
REMARK    9  A    between atoms: C_24  and  C_21 
ROOT
ATOM      1  C   UNL d   1       0.013   1.801  -0.693  0.00  0.00     0.092 C 
ENDROOT
BRANCH   1   2
ATOM      2  C   UNL d   1       0.723   2.873  -1.548  0.00  0.00     0.104 C 
BRANCH   2   3
ATOM      3  C   UNL d   1       2.137   3.251  -1.138  0.00  0.00     0.161 C 
ATOM      4  O   UNL d   1       2.991   2.401  -0.890  0.00  0.00    -0.292 OA
BRANCH   3   5
ATOM      5  C   UNL d   1       2.524   4.700  -1.084  0.00  0.00     0.010 A 
ATOM      6  C   UNL d   1       1.792   5.706  -1.720  0.00  0.00     0.015 A 
ATOM      7  C   UNL d   1       2.141   7.051  -1.545  0.00  0.00     0.008 A 
ATOM      8  C   UNL d   1       3.237   7.426  -0.751  0.00  0.00    -0.058 A 
ATOM      9  C   UNL d   1       4.009   6.411  -0.177  0.00  0.00     0.008 A 
ATOM     10  C   UNL d   1       3.660   5.062  -0.349  0.00  0.00     0.015 A 
BRANCH   8  11
ATOM     11  C   UNL d   1       3.425   8.903  -0.461  0.00  0.00     0.042 C 
BRANCH  11  12
ATOM     12  C   UNL d   1       4.771   9.406   0.100  0.00  0.00    -0.019 C 
ATOM     13  C   UNL d   1       5.870   9.396  -0.964  0.00  0.00     0.010 C 
ATOM     14  C   UNL d   1       4.598  10.832   0.639  0.00  0.00     0.010 C 
ENDBRANCH  11  12
ENDBRANCH   8  11
ENDBRANCH   3   5
ENDBRANCH   2   3
ENDBRANCH   1   2
BRANCH   1  15
ATOM     15  S   UNL d   1      -0.125   2.260   1.117  0.00  0.00    -0.118 SA
BRANCH  15  16
ATOM     16  C   UNL d   1      -0.700   3.946   1.252  0.00  0.00     0.022 C 
ATOM     17  C   UNL d   1      -1.629   4.623   0.442  0.00  0.00     0.022 C 
ATOM     18  C   UNL d   1      -1.838   5.996   0.657  0.00  0.00     0.024 C 
ATOM     19  C   UNL d   1      -1.294   6.646   1.768  0.00  0.00     0.002 C 
ATOM     20  C   UNL d   1      -0.501   5.939   2.656  0.00  0.00     0.001 C 
ATOM     21  C   UNL d   1      -0.194   4.607   2.390  0.00  0.00     0.020 C 
BRANCH  17  22
ATOM     22  N   UNL d   1      -2.253   4.030  -0.676  0.00  0.00    -0.302 NA
ATOM     23  H   UNL d   1      -2.503   3.065  -0.468  0.00  0.00     0.124 HD
ATOM     24  H   UNL d   1      -3.069   4.548  -0.989  0.00  0.00     0.124 HD
ENDBRANCH  17  22
ENDBRANCH  15  16
ENDBRANCH   1  15
BRANCH   1  25
ATOM     25  C   UNL d   1       0.497   0.337  -0.835  0.00  0.00    -0.043 A 
ATOM     26  C   UNL d   1       1.280  -0.096  -1.919  0.00  0.00     0.010 A 
ATOM     27  C   UNL d   1       1.663  -1.439  -2.055  0.00  0.00     0.024 A 
ATOM     28  C   UNL d   1       1.274  -2.378  -1.105  0.00  0.00     0.034 A 
ATOM     29  C   UNL d   1       0.481  -1.992  -0.038  0.00  0.00     0.024 A 
ATOM     30 CL   UNL d   1       1.756  -4.022  -1.268  0.00  0.00    -0.084 Cl
ATOM     31  C   UNL d   1       0.082  -0.655   0.083  0.00  0.00     0.010 A 
ENDBRANCH   1  25
TORSDOF 9
