REMARK  9 active torsions:
REMARK  status: ('A' for Active; 'I' for Inactive)
REMARK    1  A    between atoms: C_5  and  C_1 
REMARK    2  A    between atoms: N_11  and  C_4 
REMARK    3  A    between atoms: C_19  and  N_11 
REMARK    4  A    between atoms: C_12  and  C_15 
REMARK    5  A    between atoms: C_15  and  C_18 
REMARK    6  A    between atoms: O_17  and  C_15 
REMARK    7  A    between atoms: N_16  and  C_22 
REMARK    8  A    between atoms: C_18  and  N_16 
REMARK    9  A    between atoms: C_22  and  C_19 
ROOT
ATOM      1  N   UNL d   1       0.820   6.298  -0.018  0.00  0.00    -0.262 NA
ATOM      2  H   UNL d   1       0.637   5.316  -0.192  0.00  0.00     0.130 HD
ENDROOT
BRANCH   1   3
ATOM      3  C   UNL d   1       0.292   6.586   1.231  0.00  0.00     0.157 A 
ATOM      4  N   UNL d   1       0.092   5.535   2.030  0.00  0.00    -0.329 N 
ATOM      5  C   UNL d   1      -0.408   5.769   3.273  0.00  0.00     0.120 A 
ATOM      6  HN  UNL d   1       0.308   4.588   1.719  1.00  0.00     0.168 HD
ATOM      7  C   UNL d   1      -0.723   7.043   3.704  0.00  0.00     0.051 A 
ATOM      8  C   UNL d   1      -0.494   8.054   2.806  0.00  0.00     0.093 A 
ATOM      9  N   UNL d   1       0.004   7.847   1.577  0.00  0.00    -0.343 N 
ATOM     10  HN  UNL d   1       0.159   8.621   0.931  1.00  0.00     0.167 HD
BRANCH   5  11
ATOM     11  C   UNL d   1      -0.624   4.603   4.220  0.00  0.00     0.432 C 
ATOM     12  F   UNL d   1      -0.304   3.385   3.699  0.00  0.00    -0.165 F 
ATOM     13  F   UNL d   1      -1.923   4.502   4.628  0.00  0.00    -0.165 F 
ATOM     14  F   UNL d   1       0.107   4.723   5.367  0.00  0.00    -0.165 F 
ENDBRANCH   5  11
ENDBRANCH   1   3
BRANCH   1  15
ATOM     15  C   UNL d   1       0.426   7.226  -1.066  0.00  0.00     0.125 C 
BRANCH  15  16
ATOM     16  C   UNL d   1       1.056   6.815  -2.413  0.00  0.00     0.284 C 
BRANCH  16  17
ATOM     17  N   UNL d   1       0.707   7.664  -3.561  0.00  0.00     0.087 N 
ATOM     18  H   UNL d   1      -0.301   7.629  -3.711  0.00  0.00     0.316 HD
BRANCH  17  19
ATOM     19  C   UNL d   1       1.106   9.073  -3.410  0.00  0.00     0.306 C 
BRANCH  19  20
ATOM     20  C   UNL d   1       2.615   9.380  -3.206  0.00  0.00     0.179 C 
BRANCH  20  21
ATOM     21  C   UNL d   1       3.489   9.029  -4.397  0.00  0.00    -0.028 A 
ATOM     22  C   UNL d   1       3.304   9.632  -5.651  0.00  0.00     0.010 A 
ATOM     23  C   UNL d   1       4.139   9.312  -6.728  0.00  0.00     0.001 A 
ATOM     24  C   UNL d   1       5.153   8.373  -6.568  0.00  0.00     0.000 A 
ATOM     25  C   UNL d   1       5.342   7.758  -5.336  0.00  0.00     0.001 A 
ATOM     26  C   UNL d   1       4.519   8.085  -4.256  0.00  0.00     0.010 A 
ENDBRANCH  20  21
BRANCH  20  27
ATOM     27  O   UNL d   1       2.734  10.775  -2.892  0.00  0.00    -0.389 OA
ATOM     28  H   UNL d   1       3.038  11.238  -3.689  0.00  0.00     0.210 HD
ENDBRANCH  20  27
ENDBRANCH  19  20
ENDBRANCH  17  19
ENDBRANCH  16  17
ENDBRANCH  15  16
ENDBRANCH   1  15
TORSDOF 9
