REMARK  5 active torsions:
REMARK  status: ('A' for Active; 'I' for Inactive)
REMARK    1  A    between atoms: C_2  and  C_1 
REMARK    2  A    between atoms: C_3  and  C_8 
REMARK    3  A    between atoms: O_9  and  C_3 
REMARK    4  A    between atoms: O_5  and  C_4 
REMARK    5  A    between atoms: C_8  and  O_5 
ROOT
ATOM      1  C   UNL d   1       1.387  -0.281   0.006  0.00  0.00     0.043 A 
ATOM      2  C   UNL d   1       0.488  -1.368  -0.049  0.00  0.00     0.083 A 
ATOM      3  C   UNL d   1       0.858   1.033   0.040  0.00  0.00     0.018 A 
ATOM      4  C   UNL d   1      -0.895  -1.088  -0.130  0.00  0.00     0.038 A 
ATOM      5  C   UNL d   1      -0.513   1.281   0.003  0.00  0.00     0.001 A 
ATOM      6  C   UNL d   1      -1.389   0.217  -0.093  0.00  0.00     0.003 A 
ENDROOT
BRANCH   2   7
ATOM      7  O   UNL d   1       0.954  -2.669  -0.026  0.00  0.00    -0.340 OA
BRANCH   7   8
ATOM      8  C   UNL d   1      -0.036  -3.669   0.266  0.00  0.00     0.285 C 
BRANCH   8   9
ATOM      9  C   UNL d   1       0.525  -5.050   0.575  0.00  0.00     0.164 C 
ATOM     10  O   UNL d   1      -0.154  -5.980   0.978  0.00  0.00    -0.648 OA
BRANCH   9  11
ATOM     11  O   UNL d   1       1.849  -5.166   0.336  0.00  0.00    -0.775 OA
ATOM     12  H   UNL d   1       2.219  -4.323   0.007  0.00  0.00     0.167 HD
ENDBRANCH   9  11
ENDBRANCH   8   9
ENDBRANCH   7   8
ENDBRANCH   2   7
BRANCH   1  13
ATOM     13  C   UNL d   1       2.892  -0.330   0.034  0.00  0.00     0.158 C 
ATOM     14  O   UNL d   1       3.525   0.730   0.040  0.00  0.00    -0.293 OA
ATOM     15  C   UNL d   1       3.663  -1.618   0.009  0.00  0.00     0.097 C 
ENDBRANCH   1  13
TORSDOF 5
