REMARK  5 active torsions:
REMARK  status: ('A' for Active; 'I' for Inactive)
REMARK    1  A    between atoms: C_7  and  C_1 
REMARK    2  A    between atoms: C_9  and  C_3 
REMARK    3  A    between atoms: C_8  and  C_4 
REMARK    4  A    between atoms: O_19  and  C_7 
REMARK    5  A    between atoms: C_26  and  O_19 
ROOT
ATOM      1  C   UNL d   1       0.226   1.290   0.268  0.00  0.00     0.168 C 
ATOM      2  C   UNL d   1       0.994  -0.014   0.331  0.00  0.00     0.164 C 
ATOM      3  C   UNL d   1      -1.101   1.164  -0.503  0.00  0.00     0.044 C 
ATOM      4  C   UNL d   1      -1.110  -1.268   0.198  0.00  0.00    -0.044 C 
ATOM      5  C   UNL d   1       0.229  -1.288   0.288  0.00  0.00     0.059 C 
ATOM      6  C   UNL d   1      -1.919  -0.001   0.100  0.00  0.00     0.050 C 
ATOM      7  O   UNL d   1       2.211  -0.079   0.488  0.00  0.00    -0.292 OA
ENDROOT
BRANCH   4   8
ATOM      8  C   UNL d   1      -1.841  -2.535   0.087  0.00  0.00    -0.029 A 
ATOM      9  C   UNL d   1      -2.141  -3.050  -1.181  0.00  0.00     0.024 A 
ATOM     10  C   UNL d   1      -2.846  -4.253  -1.326  0.00  0.00    -0.025 A 
ATOM     11  C   UNL d   1      -3.155  -4.770  -2.593  0.00  0.00     0.012 A 
ATOM     12  C   UNL d   1      -3.256  -4.961  -0.169  0.00  0.00    -0.026 A 
ATOM     13  C   UNL d   1      -3.860  -5.964  -2.726  0.00  0.00     0.001 A 
ATOM     14  C   UNL d   1      -4.267  -6.660  -1.590  0.00  0.00     0.001 A 
ATOM     15  C   UNL d   1      -3.965  -6.161  -0.321  0.00  0.00     0.012 A 
ATOM     16  C   UNL d   1      -2.940  -4.441   1.097  0.00  0.00     0.013 A 
ATOM     17  C   UNL d   1      -2.238  -3.239   1.226  0.00  0.00     0.013 A 
ENDBRANCH   4   8
BRANCH   3  18
ATOM     18  C   UNL d   1      -1.021   1.033  -2.027  0.00  0.00    -0.052 A 
ATOM     19  C   UNL d   1       0.080   0.476  -2.701  0.00  0.00     0.010 A 
ATOM     20  C   UNL d   1       0.091   0.356  -4.091  0.00  0.00     0.043 A 
ATOM     21  C   UNL d   1      -0.999   0.793  -4.824  0.00  0.00     0.116 A 
ATOM     22  C   UNL d   1      -2.101   1.352  -4.192  0.00  0.00     0.043 A 
ATOM     23  F   UNL d   1      -0.987   0.675  -6.158  0.00  0.00    -0.206 F 
ATOM     24  C   UNL d   1      -2.114   1.470  -2.800  0.00  0.00     0.010 A 
ENDBRANCH   3  18
BRANCH   1  25
ATOM     25  C   UNL d   1       1.037   2.462  -0.230  0.00  0.00     0.271 C 
ATOM     26  O   UNL d   1       1.946   2.415  -1.043  0.00  0.00    -0.264 OA
BRANCH  25  27
ATOM     27  O   UNL d   1       0.605   3.604   0.387  0.00  0.00    -0.321 OA
BRANCH  27  28
ATOM     28  C   UNL d   1       1.490   4.728   0.271  0.00  0.00     0.174 C 
ATOM     29  C   UNL d   1       2.501   4.652   1.401  0.00  0.00     0.034 C 
ENDBRANCH  27  28
ENDBRANCH  25  27
ENDBRANCH   1  25
TORSDOF 5
