REMARK  1 active torsions:
REMARK  status: ('A' for Active; 'I' for Inactive)
REMARK    1  A    between atoms: C_8  and  C_4 
ROOT
ATOM      1  C   UNL d   1       1.235  -1.414   0.120  0.00  0.00     0.305 A 
ATOM      2  N   UNL d   1       1.183   1.375  -0.028  0.00  0.00    -0.336 N 
ATOM      3  HN  UNL d   1       1.204   2.395  -0.051  1.00  0.00     0.168 HD
ATOM      4  C   UNL d   1       2.270   0.679  -0.030  0.00  0.00     0.152 A 
ATOM      5  C   UNL d   1      -0.049  -0.712   0.057  0.00  0.00     0.105 A 
ATOM      6  O   UNL d   1       2.358  -0.659   0.077  0.00  0.00    -0.257 OA
ATOM      7  C   UNL d   1      -0.020   0.674   0.007  0.00  0.00     0.053 A 
ATOM      8  O   UNL d   1       1.302  -2.634   0.205  0.00  0.00    -0.259 OA
ATOM      9  C   UNL d   1      -1.268  -1.389   0.041  0.00  0.00     0.135 A 
ATOM     10  F   UNL d   1      -1.328  -2.727   0.074  0.00  0.00    -0.205 F 
ATOM     11  C   UNL d   1      -1.224   1.385  -0.043  0.00  0.00     0.031 A 
ATOM     12  C   UNL d   1      -2.447   0.711  -0.058  0.00  0.00     0.005 A 
ATOM     13  C   UNL d   1      -2.467  -0.682  -0.021  0.00  0.00     0.043 A 
ENDROOT
BRANCH   4  14
ATOM     14  C   UNL d   1       3.604   1.317  -0.089  0.00  0.00     0.058 C 
ATOM     15  C   UNL d   1       4.745   0.844  -0.630  0.00  0.00    -0.084 C 
ATOM     16  C   UNL d   1       4.930  -0.467  -1.347  0.00  0.00     0.043 C 
ATOM     17  C   UNL d   1       6.001   1.679  -0.583  0.00  0.00     0.043 C 
ENDBRANCH   4  14
TORSDOF 1
