REMARK  6 active torsions:
REMARK  status: ('A' for Active; 'I' for Inactive)
REMARK    1  A    between atoms: C_5  and  C_1 
REMARK    2  A    between atoms: C_2  and  C_4 
REMARK       I    between atoms: C_3  and  N_7 
REMARK    3  A    between atoms: C_6  and  C_3 
REMARK    4  A    between atoms: N_7  and  C_24 
REMARK    5  A    between atoms: O_16  and  C_9 
REMARK    6  A    between atoms: C_25  and  O_16 
ROOT
ATOM      1  C   UNL d   1       2.681  -6.090   0.653  0.00  0.00     0.035 A 
ATOM      2  C   UNL d   1       1.073  -4.481   2.317  0.00  0.00     0.076 A 
ATOM      3  C   UNL d   1       1.611  -6.643   1.368  0.00  0.00     0.032 A 
ATOM      4  C   UNL d   1       2.905  -4.717   0.743  0.00  0.00     0.032 A 
ATOM      5  C   UNL d   1       0.808  -5.843   2.197  0.00  0.00     0.039 A 
ATOM      6  C   UNL d   1       2.092  -3.912   1.549  0.00  0.00     0.039 A 
ENDROOT
BRANCH   2   7
ATOM      7  O   UNL d   1       0.285  -3.754   3.189  0.00  0.00    -0.311 OA
BRANCH   7   8
ATOM      8  C   UNL d   1       0.877  -2.709   3.867  0.00  0.00     0.077 A 
ATOM      9  C   UNL d   1       0.151  -1.523   3.990  0.00  0.00     0.053 A 
ATOM     10  C   UNL d   1       0.737  -0.392   4.585  0.00  0.00     0.051 A 
ATOM     11  C   UNL d   1       2.053  -0.482   5.072  0.00  0.00     0.032 A 
ATOM     12  C   UNL d   1       2.774  -1.683   4.990  0.00  0.00     0.051 A 
ATOM     13  C   UNL d   1       2.159  -2.803   4.417  0.00  0.00     0.053 A 
BRANCH  10  14
ATOM     14  C   UNL d   1      -0.032   0.907   4.665  0.00  0.00     0.417 C 
ATOM     15  F   UNL d   1       0.711   1.945   5.144  0.00  0.00    -0.166 F 
ATOM     16  F   UNL d   1      -1.121   0.822   5.476  0.00  0.00    -0.166 F 
ATOM     17  F   UNL d   1      -0.495   1.313   3.451  0.00  0.00    -0.166 F 
ENDBRANCH  10  14
BRANCH  12  18
ATOM     18  C   UNL d   1       4.210  -1.785   5.445  0.00  0.00     0.417 C 
ATOM     19  F   UNL d   1       4.684  -0.639   6.006  0.00  0.00    -0.166 F 
ATOM     20  F   UNL d   1       4.396  -2.764   6.371  0.00  0.00    -0.166 F 
ATOM     21  F   UNL d   1       5.053  -2.074   4.416  0.00  0.00    -0.166 F 
ENDBRANCH  12  18
ENDBRANCH   7   8
ENDBRANCH   2   7
BRANCH   1  22
ATOM     22  N   UNL d   1       3.465  -6.956  -0.139  0.00  0.00    -0.323 N 
ATOM     23  C   UNL d   1       4.598  -6.642  -0.879  0.00  0.00     0.263 C 
ATOM     24  O   UNL d   1       5.125  -5.534  -0.892  0.00  0.00    -0.267 OA
ATOM     25  H   UNL d   1       3.175  -7.926  -0.179  0.00  0.00     0.169 HD
BRANCH  23  26
ATOM     26  C   UNL d   1       5.137  -7.732  -1.689  0.00  0.00     0.072 A 
ATOM     27  S   UNL d   1       4.511  -9.327  -1.645  0.00  0.00    -0.097 SA
ATOM     28  C   UNL d   1       5.590  -9.860  -2.863  0.00  0.00     0.050 A 
ATOM     29  C   UNL d   1       6.435  -8.856  -3.279  0.00  0.00     0.009 A 
ATOM     30  C   UNL d   1       6.187  -7.637  -2.587  0.00  0.00     0.025 A 
ENDBRANCH  23  26
ENDBRANCH   1  22
TORSDOF 6
