REMARK  8 active torsions:
REMARK  status: ('A' for Active; 'I' for Inactive)
REMARK    1  A    between atoms: C_9  and  C_3 
REMARK    2  A    between atoms: C_7  and  C_4 
REMARK    3  A    between atoms: C_5  and  O_12 
REMARK    4  A    between atoms: C_8  and  C_7 
REMARK       I    between atoms: N_11  and  C_8 
REMARK    5  A    between atoms: O_21  and  C_9 
REMARK    6  A    between atoms: C_19  and  N_11 
REMARK    7  A    between atoms: O_12  and  C_20 
REMARK    8  A    between atoms: C_26  and  O_21 
ROOT
ATOM      1  C   UNL d   1       2.979  -2.154  -0.190  0.00  0.00     0.223 C 
ATOM      2  N   UNL d   1       3.132  -2.039  -1.557  0.00  0.00    -0.327 N 
ATOM      3  O   UNL d   1       3.881  -2.111   0.644  0.00  0.00    -0.273 OA
ATOM      4  H   UNL d   1       2.279  -1.964  -2.113  0.00  0.00     0.169 HD
ENDROOT
BRANCH   1   5
ATOM      5  C   UNL d   1       1.555  -2.430   0.254  0.00  0.00     0.128 C 
BRANCH   5   6
ATOM      6  C   UNL d   1       0.582  -1.255   0.251  0.00  0.00     0.148 C 
ATOM      7  C   UNL d   1       0.099  -0.860  -1.143  0.00  0.00     0.232 C 
ATOM      8  N   UNL d   1      -0.838   0.143  -1.224  0.00  0.00    -0.345 N 
ATOM      9  O   UNL d   1       0.429  -1.469  -2.156  0.00  0.00    -0.272 OA
ATOM     10  C   UNL d   1      -0.881   1.335  -0.353  0.00  0.00     0.193 C 
ATOM     11  H   UNL d   1      -1.163   0.293  -2.175  0.00  0.00     0.163 HD
ATOM     12  C   UNL d   1      -0.427   1.105   1.093  0.00  0.00     0.110 C 
ATOM     13  S   UNL d   1       1.150   0.206   1.169  0.00  0.00    -0.152 SA
BRANCH  10  14
ATOM     14  C   UNL d   1      -2.273   1.983  -0.268  0.00  0.00     0.282 C 
ATOM     15  O   UNL d   1      -2.505   2.984   0.402  0.00  0.00    -0.263 OA
BRANCH  14  16
ATOM     16  O   UNL d   1      -3.213   1.284  -0.964  0.00  0.00    -0.320 OA
BRANCH  16  17
ATOM     17  C   UNL d   1      -4.577   1.686  -0.749  0.00  0.00     0.174 C 
ATOM     18  C   UNL d   1      -5.174   0.830   0.355  0.00  0.00     0.034 C 
ENDBRANCH  16  17
ENDBRANCH  14  16
ENDBRANCH  10  14
ENDBRANCH   5   6
ENDBRANCH   1   5
BRANCH   2  19
ATOM     19  C   UNL d   1       4.349  -2.026  -2.276  0.00  0.00     0.034 A 
ATOM     20  C   UNL d   1       5.601  -2.260  -1.700  0.00  0.00     0.032 A 
ATOM     21  C   UNL d   1       6.766  -2.294  -2.484  0.00  0.00     0.039 A 
ATOM     22  C   UNL d   1       6.690  -2.109  -3.862  0.00  0.00     0.078 A 
ATOM     23  C   UNL d   1       5.444  -1.842  -4.436  0.00  0.00     0.039 A 
ATOM     24  C   UNL d   1       4.283  -1.809  -3.654  0.00  0.00     0.032 A 
BRANCH  22  25
ATOM     25  O   UNL d   1       7.719  -2.172  -4.755  0.00  0.00    -0.255 OA
BRANCH  25  26
ATOM     26  C   UNL d   1       8.975  -2.656  -4.308  0.00  0.00     0.530 C 
ATOM     27  F   UNL d   1       8.857  -3.775  -3.561  0.00  0.00    -0.144 F 
ATOM     28  F   UNL d   1       9.723  -2.963  -5.392  0.00  0.00    -0.144 F 
ATOM     29  F   UNL d   1       9.626  -1.708  -3.603  0.00  0.00    -0.144 F 
ENDBRANCH  25  26
ENDBRANCH  22  25
ENDBRANCH   2  19
TORSDOF 8
