REMARK  2 active torsions:
REMARK  status: ('A' for Active; 'I' for Inactive)
REMARK    1  A    between atoms: O_7  and  C_1 
REMARK    2  A    between atoms: C_10  and  O_7 
ROOT
ATOM      1  C   UNL d   1      -0.676   1.678  -0.060  0.00  0.00     0.090 A 
ATOM      2  N   UNL d   1      -1.055  -1.076  -0.032  0.00  0.00    -0.359 N 
ATOM      3  HN  UNL d   1      -1.202  -2.084   0.016  1.00  0.00     0.166 HD
ATOM      4  C   UNL d   1       0.442   0.822  -0.012  0.00  0.00     0.025 A 
ATOM      5  C   UNL d   1       0.187  -0.564  -0.006  0.00  0.00     0.045 A 
ATOM      6  C   UNL d   1      -1.957   1.142  -0.186  0.00  0.00     0.062 A 
ATOM      7  C   UNL d   1      -2.107  -0.233  -0.123  0.00  0.00     0.008 A 
ATOM      8  C   UNL d   1       1.781   1.279   0.022  0.00  0.00     0.016 A 
ATOM      9  C   UNL d   1       1.265  -1.440   0.030  0.00  0.00     0.030 A 
ATOM     10  C   UNL d   1      -3.478  -0.836  -0.094  0.00  0.00     0.068 C 
ATOM     11  C   UNL d   1       2.845   0.379   0.047  0.00  0.00     0.001 A 
ATOM     12  C   UNL d   1       2.586  -0.986   0.051  0.00  0.00     0.002 A 
ENDROOT
BRANCH   1  13
ATOM     13  O   UNL d   1      -0.439   3.042  -0.031  0.00  0.00    -0.310 OA
BRANCH  13  14
ATOM     14  C   UNL d   1      -1.354   3.886   0.559  0.00  0.00     0.076 A 
ATOM     15  C   UNL d   1      -2.145   3.547   1.663  0.00  0.00     0.045 A 
ATOM     16  C   UNL d   1      -3.123   4.433   2.147  0.00  0.00    -0.038 A 
ATOM     17  C   UNL d   1      -4.052   3.977   3.236  0.00  0.00     0.050 C 
ATOM     18  C   UNL d   1      -3.219   5.707   1.569  0.00  0.00     0.040 A 
ATOM     19  C   UNL d   1      -2.371   6.078   0.522  0.00  0.00     0.027 A 
ATOM     20 CL   UNL d   1      -4.383   6.861   2.116  0.00  0.00    -0.084 Cl
ATOM     21  C   UNL d   1      -1.445   5.166   0.013  0.00  0.00     0.039 A 
ENDBRANCH  13  14
ENDBRANCH   1  13
TORSDOF 2
