REMARK  9 active torsions:
REMARK  status: ('A' for Active; 'I' for Inactive)
REMARK    1  A    between atoms: N_3  and  S_1 
REMARK    2  A    between atoms: C_9  and  S_1 
REMARK    3  A    between atoms: C_2  and  C_4 
REMARK    4  A    between atoms: C_7  and  N_3 
REMARK    5  A    between atoms: C_5  and  N_14 
REMARK    6  A    between atoms: N_6  and  C_5 
REMARK       I    between atoms: C_8  and  N_6 
REMARK    7  A    between atoms: C_15  and  C_8 
REMARK    8  A    between atoms: N_14  and  C_27 
REMARK    9  A    between atoms: C_16  and  C_15 
ROOT
ATOM      1  C   UNL d   1      -0.756   0.466   1.400  0.00  0.00     0.080 A 
ATOM      2  C   UNL d   1      -1.114  -0.386   2.451  0.00  0.00     0.027 A 
ATOM      3  C   UNL d   1      -0.820   1.850   1.573  0.00  0.00     0.027 A 
ATOM      4  C   UNL d   1      -1.378   1.527   3.926  0.00  0.00     0.034 A 
ATOM      5  C   UNL d   1      -1.115   2.373   2.840  0.00  0.00     0.031 A 
ATOM      6  C   UNL d   1      -1.440   0.147   3.705  0.00  0.00     0.031 A 
ENDROOT
BRANCH   1   7
ATOM      7  S   UNL d   1       0.161  -0.211   0.022  0.00  0.00     0.263 S 
ATOM      8  O   UNL d   1       0.833   0.883  -0.645  0.00  0.00    -0.200 OA
ATOM      9  O   UNL d   1       0.916  -1.336   0.543  0.00  0.00    -0.200 OA
BRANCH   7  10
ATOM     10  N   UNL d   1      -0.995  -0.873  -0.997  0.00  0.00    -0.280 N 
ATOM     11  H   UNL d   1      -1.269  -1.822  -0.735  0.00  0.00     0.179 HD
BRANCH  10  12
ATOM     12  C   UNL d   1      -1.881  -0.066  -1.755  0.00  0.00     0.057 A 
ATOM     13  C   UNL d   1      -3.266  -0.120  -1.562  0.00  0.00     0.075 A 
ATOM     14  C   UNL d   1      -4.091   0.700  -2.360  0.00  0.00     0.018 A 
ATOM     15  C   UNL d   1      -3.551   1.523  -3.348  0.00  0.00     0.001 A 
ATOM     16  C   UNL d   1      -2.176   1.540  -3.556  0.00  0.00     0.002 A 
ATOM     17  C   UNL d   1      -1.347   0.751  -2.760  0.00  0.00     0.031 A 
BRANCH  13  18
ATOM     18  C   UNL d   1      -3.920  -1.012  -0.542  0.00  0.00     0.419 C 
ATOM     19  F   UNL d   1      -3.082  -1.942   0.007  0.00  0.00    -0.166 F 
ATOM     20  F   UNL d   1      -4.434  -0.313   0.506  0.00  0.00    -0.166 F 
ATOM     21  F   UNL d   1      -4.957  -1.726  -1.061  0.00  0.00    -0.166 F 
ENDBRANCH  13  18
ENDBRANCH  10  12
ENDBRANCH   7  10
ENDBRANCH   1   7
BRANCH   4  22
ATOM     22  N   UNL d   1      -1.370   2.097   5.222  0.00  0.00    -0.333 N 
ATOM     23  H   UNL d   1      -0.829   2.957   5.312  0.00  0.00     0.168 HD
BRANCH  22  24
ATOM     24  C   UNL d   1      -1.878   1.612   6.398  0.00  0.00     0.179 C 
ATOM     25  S   UNL d   1      -3.217   0.626   6.595  0.00  0.00    -0.040 SA
BRANCH  24  26
ATOM     26  N   UNL d   1      -1.236   2.017   7.557  0.00  0.00    -0.300 N 
ATOM     27  C   UNL d   1      -0.055   2.734   7.723  0.00  0.00     0.247 C 
ATOM     28  O   UNL d   1       0.527   3.331   6.829  0.00  0.00    -0.268 OA
ATOM     29  H   UNL d   1      -1.654   1.602   8.380  0.00  0.00     0.171 HD
BRANCH  27  30
ATOM     30  C   UNL d   1       0.406   2.731   9.143  0.00  0.00     0.076 C 
BRANCH  30  31
ATOM     31  C   UNL d   1       1.578   3.284   9.491  0.00  0.00     0.024 C 
ATOM     32  C   UNL d   1       2.087   3.300  10.831  0.00  0.00     0.004 A 
ATOM     33  S   UNL d   1       1.129   2.935  12.225  0.00  0.00    -0.102 SA
ATOM     34  C   UNL d   1       3.379   3.616  11.231  0.00  0.00     0.019 A 
ATOM     35  C   UNL d   1       2.429   3.179  13.301  0.00  0.00     0.050 A 
ATOM     36  C   UNL d   1       3.579   3.541  12.641  0.00  0.00     0.008 A 
ENDBRANCH  30  31
ENDBRANCH  27  30
ENDBRANCH  24  26
ENDBRANCH  22  24
ENDBRANCH   4  22
TORSDOF 9
