REMARK  2 active torsions:
REMARK  status: ('A' for Active; 'I' for Inactive)
REMARK    1  A    between atoms: C_2  and  C_1 
REMARK    2  A    between atoms: C_10  and  C_6 
ROOT
ATOM      1  C   UNL d   1       1.014  -3.114   0.034  0.00  0.00     0.057 C 
ATOM      2  C   UNL d   1       2.215  -3.739   0.030  0.00  0.00     0.035 C 
ATOM      3  C   UNL d   1       0.967  -1.678   0.077  0.00  0.00     0.100 C 
ATOM      4  N   UNL d   1       0.935  -0.518   0.095  0.00  0.00    -0.191 NA
ENDROOT
BRANCH   1   5
ATOM      5  C   UNL d   1      -0.244  -3.845   0.026  0.00  0.00     0.003 A 
ATOM      6  C   UNL d   1      -0.374  -5.077   0.642  0.00  0.00     0.064 A 
ATOM      7  S   UNL d   1      -1.939  -5.729   0.520  0.00  0.00    -0.100 SA
ATOM      8  C   UNL d   1      -2.512  -4.372  -0.364  0.00  0.00     0.016 A 
ATOM      9  C   UNL d   1      -1.502  -3.424  -0.579  0.00  0.00    -0.007 A 
ATOM     10  C   UNL d   1      -3.829  -4.189  -0.838  0.00  0.00     0.019 A 
ATOM     11  C   UNL d   1      -1.863  -2.267  -1.324  0.00  0.00     0.014 A 
ATOM     12  C   UNL d   1      -3.170  -2.077  -1.788  0.00  0.00     0.001 A 
ATOM     13  C   UNL d   1      -4.144  -3.030  -1.545  0.00  0.00     0.001 A 
ENDBRANCH   1   5
BRANCH   2  14
ATOM     14  C   UNL d   1       3.521  -3.072   0.072  0.00  0.00    -0.035 A 
ATOM     15  C   UNL d   1       4.105  -2.746   1.304  0.00  0.00     0.014 A 
ATOM     16  C   UNL d   1       5.349  -2.113   1.343  0.00  0.00     0.043 A 
ATOM     17  C   UNL d   1       6.002  -1.811   0.154  0.00  0.00     0.116 A 
ATOM     18  C   UNL d   1       5.434  -2.128  -1.075  0.00  0.00     0.043 A 
ATOM     19  F   UNL d   1       7.197  -1.208   0.193  0.00  0.00    -0.206 F 
ATOM     20  C   UNL d   1       4.191  -2.761  -1.118  0.00  0.00     0.014 A 
ENDBRANCH   2  14
TORSDOF 2
