REMARK  7 active torsions:
REMARK  status: ('A' for Active; 'I' for Inactive)
REMARK    1  A    between atoms: N_2  and  S_1 
REMARK    2  A    between atoms: C_10  and  S_1 
REMARK       I    between atoms: N_5  and  C_4 
REMARK       I    between atoms: N_7  and  C_4 
REMARK    3  A    between atoms: C_6  and  N_11 
REMARK    4  A    between atoms: N_12  and  C_6 
REMARK    5  A    between atoms: N_11  and  N_7 
REMARK    6  A    between atoms: C_14  and  N_12 
REMARK    7  A    between atoms: S_17  and  C_16 
ROOT
ATOM      1  N   UNL d   1       0.830  -0.244  -2.236  0.00  0.00    -0.260 N 
ATOM      2  HN  UNL d   1       0.802   0.529  -1.571  1.00  0.00     0.181 HD
ATOM      3  C   UNL d   1       1.593  -0.160  -3.279  0.00  0.00     0.157 C 
ATOM      4  N   UNL d   1       2.445   0.937  -3.408  0.00  0.00    -0.258 NA
ATOM      5  N   UNL d   1       1.675  -1.066  -4.327  0.00  0.00    -0.195 NA
ATOM      6  C   UNL d   1       3.234   1.307  -2.200  0.00  0.00     0.098 C 
ATOM      7  C   UNL d   1       1.825   2.187  -3.918  0.00  0.00     0.098 C 
ATOM      8  C   UNL d   1       2.875   2.753  -1.883  0.00  0.00     0.016 C 
ATOM      9  C   UNL d   1       2.595   3.323  -3.255  0.00  0.00     0.016 C 
ATOM     10  H   UNL d   1       0.884  -0.969  -4.967  0.00  0.00     0.149 HD
ENDROOT
BRANCH   1  11
ATOM     11  S   UNL d   1      -0.080  -1.558  -1.972  0.00  0.00     0.264 S 
ATOM     12  O   UNL d   1      -0.783  -1.915  -3.192  0.00  0.00    -0.200 OA
ATOM     13  O   UNL d   1      -0.822  -1.367  -0.744  0.00  0.00    -0.200 OA
BRANCH  11  14
ATOM     14  C   UNL d   1       1.125  -2.830  -1.625  0.00  0.00     0.079 A 
ATOM     15  C   UNL d   1       1.879  -2.744  -0.449  0.00  0.00     0.025 A 
ATOM     16  C   UNL d   1       2.844  -3.713  -0.182  0.00  0.00     0.002 A 
ATOM     17  C   UNL d   1       3.051  -4.758  -1.084  0.00  0.00     0.000 A 
ATOM     18  C   UNL d   1       2.293  -4.840  -2.255  0.00  0.00     0.002 A 
ATOM     19  C   UNL d   1       1.322  -3.876  -2.528  0.00  0.00     0.025 A 
ENDBRANCH  11  14
ENDBRANCH   1  11
BRANCH   5  20
ATOM     20  N   UNL d   1       2.916  -1.100  -5.047  0.00  0.00    -0.196 NA
ATOM     21  H   UNL d   1       3.489  -0.339  -4.668  0.00  0.00     0.149 HD
BRANCH  20  22
ATOM     22  C   UNL d   1       3.589  -2.280  -4.964  0.00  0.00     0.165 C 
ATOM     23  S   UNL d   1       5.053  -2.327  -4.146  0.00  0.00    -0.046 SA
BRANCH  22  24
ATOM     24  N   UNL d   1       3.157  -3.434  -5.538  0.00  0.00    -0.337 N 
ATOM     25  H   UNL d   1       3.761  -4.206  -5.274  0.00  0.00     0.168 HD
BRANCH  24  26
ATOM     26  C   UNL d   1       2.195  -3.768  -6.515  0.00  0.00     0.035 A 
ATOM     27  C   UNL d   1       2.152  -5.122  -6.915  0.00  0.00     0.048 A 
ATOM     28  C   UNL d   1       1.282  -5.589  -7.919  0.00  0.00     0.002 A 
ATOM     29  C   UNL d   1       0.412  -4.674  -8.508  0.00  0.00     0.018 A 
ATOM     30  C   UNL d   1       0.451  -3.327  -8.126  0.00  0.00     0.004 A 
ATOM     31  C   UNL d   1       1.348  -2.872  -7.151  0.00  0.00     0.029 A 
BRANCH  28  32
ATOM     32  S   UNL d   1       1.435  -7.319  -8.366  0.00  0.00    -0.134 SA
ATOM     33  C   UNL d   1       0.159  -7.591  -9.629  0.00  0.00     0.095 C 
ENDBRANCH  28  32
ENDBRANCH  24  26
ENDBRANCH  22  24
ENDBRANCH  20  22
ENDBRANCH   5  20
TORSDOF 7
