REMARK  5 active torsions:
REMARK  status: ('A' for Active; 'I' for Inactive)
REMARK    1  A    between atoms: C_5  and  C_1 
REMARK    2  A    between atoms: C_8  and  C_2 
REMARK    3  A    between atoms: C_9  and  C_17 
REMARK    4  A    between atoms: O_16  and  C_11 
REMARK    5  A    between atoms: C_17  and  O_16 
ROOT
ATOM      1  C   UNL d   1       0.842  -0.093  -0.869  0.00  0.00     0.072 C 
ATOM      2  C   UNL d   1       0.421  -1.082  -0.050  0.00  0.00     0.036 C 
ATOM      3  C   UNL d   1       1.953  -0.307  -1.744  0.00  0.00     0.102 C 
ATOM      4  N   UNL d   1       2.849  -0.441  -2.472  0.00  0.00    -0.191 NA
ENDROOT
BRANCH   1   5
ATOM      5  C   UNL d   1       0.167   1.231  -0.867  0.00  0.00     0.052 A 
ATOM      6  N   UNL d   1      -0.889   1.377  -0.024  0.00  0.00    -0.365 N 
ATOM      7  C   UNL d   1      -1.508   2.578   0.022  0.00  0.00     0.088 A 
ATOM      8  HN  UNL d   1      -1.206   0.601   0.559  1.00  0.00     0.165 HD
ATOM      9  C   UNL d   1      -1.130   3.667  -0.739  0.00  0.00     0.017 A 
ATOM     10  C   UNL d   1      -0.058   3.515  -1.605  0.00  0.00     0.004 A 
ATOM     11  C   UNL d   1       0.598   2.287  -1.674  0.00  0.00     0.031 A 
ENDBRANCH   1   5
BRANCH   2  12
ATOM     12  C   UNL d   1       1.042  -2.405   0.026  0.00  0.00    -0.035 A 
ATOM     13  C   UNL d   1       2.078  -2.648   0.933  0.00  0.00     0.014 A 
ATOM     14  C   UNL d   1       2.692  -3.903   0.975  0.00  0.00     0.037 A 
ATOM     15  C   UNL d   1       2.267  -4.923   0.123  0.00  0.00     0.069 A 
ATOM     16  C   UNL d   1       1.257  -4.666  -0.808  0.00  0.00     0.037 A 
ATOM     17  C   UNL d   1       0.637  -3.417  -0.847  0.00  0.00     0.014 A 
BRANCH  15  18
ATOM     18  O   UNL d   1       2.900  -6.129   0.278  0.00  0.00    -0.348 OA
BRANCH  18  19
ATOM     19  C   UNL d   1       2.166  -7.254  -0.206  0.00  0.00     0.202 C 
BRANCH  19  20
ATOM     20  C   UNL d   1       2.684  -8.490   0.463  0.00  0.00    -0.011 C 
ATOM     21  C   UNL d   1       1.941  -9.262   1.269  0.00  0.00     0.009 C 
ENDBRANCH  19  20
ENDBRANCH  18  19
ENDBRANCH  15  18
ENDBRANCH   2  12
TORSDOF 5
