REMARK  6 active torsions:
REMARK  status: ('A' for Active; 'I' for Inactive)
REMARK    1  A    between atoms: N_2  and  C_1 
REMARK    2  A    between atoms: N_7  and  N_2 
REMARK    3  A    between atoms: C_3  and  O_20 
REMARK    4  A    between atoms: C_6  and  C_3 
REMARK    5  A    between atoms: O_20  and  N_12 
REMARK    6  A    between atoms: C_16  and  C_14 
ROOT
ATOM      1  N   UNL d   1      -0.299   3.714  -0.157  0.00  0.00    -0.320 N 
ATOM      2  HN  UNL d   1       0.399   2.971  -0.144  1.00  0.00     0.181 HD
ATOM      3  C   UNL d   1       0.067   4.961  -0.141  0.00  0.00     0.034 C 
ATOM      4  C   UNL d   1      -0.821   6.175  -0.168  0.00  0.00     0.070 C 
ENDROOT
BRANCH   1   5
ATOM      5  N   UNL d   1      -1.623   3.414  -0.191  0.00  0.00    -0.202 NA
ATOM      6  H   UNL d   1      -2.234   3.962   0.419  0.00  0.00     0.153 HD
BRANCH   5   7
ATOM      7  C   UNL d   1      -1.977   2.034  -0.109  0.00  0.00     0.071 A 
ATOM      8  C   UNL d   1      -3.190   1.691   0.538  0.00  0.00     0.060 A 
ATOM      9  C   UNL d   1      -3.643   0.373   0.613  0.00  0.00     0.049 A 
ATOM     10 CL   UNL d   1      -4.162   2.918   1.285  0.00  0.00    -0.082 Cl
ATOM     11  C   UNL d   1      -2.894  -0.639   0.034  0.00  0.00     0.037 A 
ATOM     12  C   UNL d   1      -1.701  -0.346  -0.620  0.00  0.00     0.049 A 
ATOM     13 CL   UNL d   1      -3.455  -2.265   0.097  0.00  0.00    -0.084 Cl
ATOM     14  C   UNL d   1      -1.248   0.981  -0.703  0.00  0.00     0.060 A 
ATOM     15 CL   UNL d   1       0.203   1.208  -1.627  0.00  0.00    -0.082 Cl
ENDBRANCH   5   7
ENDBRANCH   1   5
BRANCH   3  16
ATOM     16  C   UNL d   1       1.544   5.255  -0.153  0.00  0.00     0.140 C 
ATOM     17  N   UNL d   1       2.378   4.514   0.490  0.00  0.00    -0.267 N 
ATOM     18  HN  UNL d   1       2.135   3.705   1.063  1.00  0.00     0.194 HD
BRANCH  17  19
ATOM     19  O   UNL d   1       3.683   5.006   0.273  0.00  0.00    -0.195 OA
BRANCH  19  20
ATOM     20  C   UNL d   1       4.626   4.170   0.835  0.00  0.00     0.322 C 
ATOM     21  O   UNL d   1       4.388   3.132   1.446  0.00  0.00    -0.257 OA
BRANCH  20  22
ATOM     22  C   UNL d   1       5.972   4.685   0.618  0.00  0.00     0.082 A 
ATOM     23  S   UNL d   1       6.290   6.135  -0.241  0.00  0.00    -0.096 SA
ATOM     24  C   UNL d   1       7.978   5.992  -0.007  0.00  0.00     0.050 A 
ATOM     25  C   UNL d   1       8.306   4.861   0.703  0.00  0.00     0.009 A 
ATOM     26  C   UNL d   1       7.151   4.106   1.060  0.00  0.00     0.026 A 
ENDBRANCH  20  22
ENDBRANCH  19  20
ENDBRANCH  17  19
ENDBRANCH   3  16
TORSDOF 6
