REMARK  4 active torsions:
REMARK  status: ('A' for Active; 'I' for Inactive)
REMARK    1  A    between atoms: C_3  and  C_1 
REMARK    2  A    between atoms: C_12  and  N_2 
REMARK    3  A    between atoms: C_17  and  N_6 
REMARK    4  A    between atoms: S_19  and  C_11 
ROOT
ATOM      1  C   UNL d   1      -0.219  -1.486   0.042  0.00  0.00     0.160 C 
ATOM      2  N   UNL d   1       1.023  -0.860   0.003  0.00  0.00    -0.273 N 
ATOM      3  N   UNL d   1      -1.167  -0.585  -0.138  0.00  0.00    -0.281 N 
ATOM      4  HN  UNL d   1      -2.160  -0.780  -0.263  1.00  0.00     0.188 HD
ATOM      5  C   UNL d   1       0.706   0.493  -0.041  0.00  0.00     0.165 C 
ATOM      6  N   UNL d   1      -0.592   0.654  -0.129  0.00  0.00    -0.278 N 
ATOM      7  HN  UNL d   1      -1.085   1.545  -0.182  1.00  0.00     0.189 HD
ENDROOT
BRANCH   1   8
ATOM      8  C   UNL d   1      -0.545  -2.931   0.253  0.00  0.00     0.119 A 
ATOM      9  N   UNL d   1      -1.551  -3.504  -0.420  0.00  0.00    -0.274 N 
ATOM     10  N   UNL d   1      -1.466  -4.801  -0.044  0.00  0.00    -0.196 N 
ATOM     11  HN  UNL d   1      -2.217  -3.070  -1.058  1.00  0.00     0.189 HD
ATOM     12  N   UNL d   1      -0.535  -5.082   0.909  0.00  0.00    -0.281 N 
ATOM     13  C   UNL d   1       0.065  -3.894   1.092  0.00  0.00     0.056 A 
ATOM     14  HN  UNL d   1      -0.343  -5.971   1.370  1.00  0.00     0.189 HD
ATOM     15  C   UNL d   1       1.132  -3.778   2.107  0.00  0.00     0.072 C 
BRANCH  10  16
ATOM     16  C   UNL d   1      -2.237  -5.822  -0.658  0.00  0.00     0.074 A 
ATOM     17  C   UNL d   1      -3.070  -5.516  -1.748  0.00  0.00     0.033 A 
ATOM     18  C   UNL d   1      -3.789  -6.537  -2.377  0.00  0.00     0.002 A 
ATOM     19  C   UNL d   1      -3.691  -7.849  -1.919  0.00  0.00     0.000 A 
ATOM     20  C   UNL d   1      -2.872  -8.153  -0.828  0.00  0.00     0.002 A 
ATOM     21  C   UNL d   1      -2.143  -7.142  -0.201  0.00  0.00     0.033 A 
ENDBRANCH  10  16
ENDBRANCH   1   8
BRANCH   2  22
ATOM     22  C   UNL d   1       2.315  -1.463  -0.056  0.00  0.00     0.051 A 
ATOM     23  C   UNL d   1       2.619  -2.540  -0.929  0.00  0.00    -0.013 A 
ATOM     24  C   UNL d   1       3.903  -3.123  -0.830  0.00  0.00     0.042 A 
ATOM     25  C   UNL d   1       1.674  -3.071  -1.981  0.00  0.00     0.052 C 
ATOM     26 CL   UNL d   1       4.353  -4.512  -1.761  0.00  0.00    -0.084 Cl
ATOM     27  C   UNL d   1       4.872  -2.609   0.036  0.00  0.00     0.024 A 
ATOM     28  C   UNL d   1       4.577  -1.522   0.848  0.00  0.00     0.004 A 
ATOM     29  C   UNL d   1       3.301  -0.964   0.819  0.00  0.00     0.031 A 
ENDBRANCH   2  22
BRANCH   5  30
ATOM     30  S   UNL d   1       1.810   1.829  -0.160  0.00  0.00    -0.105 SA
ATOM     31  H   UNL d   1       2.914   1.191  -0.567  0.00  0.00     0.110 HD
ENDBRANCH   5  30
TORSDOF 4
