REMARK  16 active torsions:
REMARK  status: ('A' for Active; 'I' for Inactive)
REMARK    1  A    between atoms: C_1  and  O_6 
REMARK    2  A    between atoms: C_2  and  O_7 
REMARK    3  A    between atoms: C_3  and  O_10 
REMARK    4  A    between atoms: C_4  and  O_9 
REMARK    5  A    between atoms: C_12  and  O_6 
REMARK    6  A    between atoms: C_11  and  O_7 
REMARK    7  A    between atoms: C_8  and  C_17 
REMARK    8  A    between atoms: C_13  and  O_9 
REMARK    9  A    between atoms: C_14  and  O_10 
REMARK   10  A    between atoms: C_22  and  C_11 
REMARK   11  A    between atoms: C_23  and  C_12 
REMARK   12  A    between atoms: C_24  and  C_13 
REMARK   13  A    between atoms: C_25  and  C_14 
REMARK   14  A    between atoms: C_15  and  O_16 
REMARK   15  A    between atoms: C_27  and  C_15 
REMARK   16  A    between atoms: O_16  and  C_17 
ROOT
ATOM      1  C   UNL d   1       0.832  -1.355  -0.171  0.00  0.00     0.220 C 
ATOM      2  C   UNL d   1       1.606  -0.032   0.049  0.00  0.00     0.198 C 
ATOM      3  C   UNL d   1      -0.606  -1.271   0.392  0.00  0.00     0.302 C 
ATOM      4  C   UNL d   1       0.765   1.247  -0.169  0.00  0.00     0.195 C 
ATOM      5  O   UNL d   1      -1.259  -0.062  -0.022  0.00  0.00    -0.348 OA
ATOM      6  C   UNL d   1      -0.617   1.117   0.488  0.00  0.00     0.181 C 
ENDROOT
BRANCH   6   7
ATOM      7  C   UNL d   1      -1.496   2.337   0.156  0.00  0.00     0.213 C 
BRANCH   7   8
ATOM      8  O   UNL d   1      -2.767   2.266   0.835  0.00  0.00    -0.315 OA
BRANCH   8   9
ATOM      9  C   UNL d   1      -2.769   2.673   2.128  0.00  0.00     0.293 C 
ATOM     10  O   UNL d   1      -1.794   3.073   2.747  0.00  0.00    -0.259 OA
BRANCH   9  11
ATOM     11  C   UNL d   1      -4.137   2.574   2.707  0.00  0.00     0.039 A 
ATOM     12  C   UNL d   1      -4.308   2.871   4.066  0.00  0.00     0.017 A 
ATOM     13  C   UNL d   1      -5.578   2.809   4.647  0.00  0.00     0.001 A 
ATOM     14  C   UNL d   1      -6.681   2.452   3.873  0.00  0.00     0.000 A 
ATOM     15  C   UNL d   1      -6.520   2.152   2.521  0.00  0.00     0.001 A 
ATOM     16  C   UNL d   1      -5.251   2.212   1.938  0.00  0.00     0.017 A 
ENDBRANCH   9  11
ENDBRANCH   8   9
ENDBRANCH   7   8
ENDBRANCH   6   7
BRANCH   4  17
ATOM     17  O   UNL d   1       1.477   2.458   0.207  0.00  0.00    -0.307 OA
BRANCH  17  18
ATOM     18  C   UNL d   1       1.815   2.633   1.506  0.00  0.00     0.293 C 
ATOM     19  O   UNL d   1       1.599   1.830   2.403  0.00  0.00    -0.259 OA
BRANCH  18  20
ATOM     20  C   UNL d   1       2.473   3.944   1.734  0.00  0.00     0.039 A 
ATOM     21  C   UNL d   1       2.678   4.349   3.060  0.00  0.00     0.017 A 
ATOM     22  C   UNL d   1       3.281   5.577   3.340  0.00  0.00     0.001 A 
ATOM     23  C   UNL d   1       3.687   6.405   2.296  0.00  0.00     0.000 A 
ATOM     24  C   UNL d   1       3.497   6.005   0.972  0.00  0.00     0.001 A 
ATOM     25  C   UNL d   1       2.892   4.777   0.688  0.00  0.00     0.017 A 
ENDBRANCH  18  20
ENDBRANCH  17  18
ENDBRANCH   4  17
BRANCH   3  26
ATOM     26  O   UNL d   1      -1.397  -2.354  -0.144  0.00  0.00    -0.283 OA
BRANCH  26  27
ATOM     27  C   UNL d   1      -1.384  -3.518   0.541  0.00  0.00     0.295 C 
ATOM     28  O   UNL d   1      -0.747  -3.748   1.556  0.00  0.00    -0.259 OA
BRANCH  27  29
ATOM     29  C   UNL d   1      -2.274  -4.522  -0.111  0.00  0.00     0.039 A 
ATOM     30  C   UNL d   1      -2.308  -5.820   0.418  0.00  0.00     0.017 A 
ATOM     31  C   UNL d   1      -3.136  -6.793  -0.148  0.00  0.00     0.001 A 
ATOM     32  C   UNL d   1      -3.937  -6.476  -1.244  0.00  0.00     0.000 A 
ATOM     33  C   UNL d   1      -3.911  -5.187  -1.776  0.00  0.00     0.001 A 
ATOM     34  C   UNL d   1      -3.082  -4.211  -1.214  0.00  0.00     0.017 A 
ENDBRANCH  27  29
ENDBRANCH  26  27
ENDBRANCH   3  26
BRANCH   2  35
ATOM     35  O   UNL d   1       2.845   0.026  -0.718  0.00  0.00    -0.306 OA
BRANCH  35  36
ATOM     36  C   UNL d   1       2.734  -0.015  -2.070  0.00  0.00     0.293 C 
ATOM     37  O   UNL d   1       1.682  -0.056  -2.692  0.00  0.00    -0.259 OA
BRANCH  36  38
ATOM     38  C   UNL d   1       4.050   0.063  -2.743  0.00  0.00     0.039 A 
ATOM     39  C   UNL d   1       4.059  -0.070  -4.138  0.00  0.00     0.017 A 
ATOM     40  C   UNL d   1       5.234   0.129  -4.858  0.00  0.00     0.001 A 
ATOM     41  C   UNL d   1       6.410   0.451  -4.184  0.00  0.00     0.000 A 
ATOM     42  C   UNL d   1       6.420   0.537  -2.790  0.00  0.00     0.001 A 
ATOM     43  C   UNL d   1       5.243   0.337  -2.064  0.00  0.00     0.017 A 
ENDBRANCH  36  38
ENDBRANCH  35  36
ENDBRANCH   2  35
BRANCH   1  44
ATOM     44  O   UNL d   1       1.553  -2.415   0.525  0.00  0.00    -0.304 OA
BRANCH  44  45
ATOM     45  C   UNL d   1       2.545  -3.041  -0.153  0.00  0.00     0.293 C 
ATOM     46  O   UNL d   1       2.853  -2.837  -1.317  0.00  0.00    -0.259 OA
BRANCH  45  47
ATOM     47  C   UNL d   1       3.285  -3.993   0.716  0.00  0.00     0.039 A 
ATOM     48  C   UNL d   1       4.438  -4.597   0.189  0.00  0.00     0.017 A 
ATOM     49  C   UNL d   1       5.209  -5.457   0.972  0.00  0.00     0.001 A 
ATOM     50  C   UNL d   1       4.832  -5.724   2.287  0.00  0.00     0.000 A 
ATOM     51  C   UNL d   1       3.675  -5.146   2.812  0.00  0.00     0.001 A 
ATOM     52  C   UNL d   1       2.898  -4.285   2.030  0.00  0.00     0.017 A 
ENDBRANCH  45  47
ENDBRANCH  44  45
ENDBRANCH   1  44
TORSDOF 16
