REMARK  1 active torsions:
REMARK  status: ('A' for Active; 'I' for Inactive)
REMARK    1  A    between atoms: C_6  and  N_5 
ROOT
ATOM      1  C   UNL d   1       0.912   0.768   0.030  0.00  0.00     0.141 C 
ATOM      2  N   UNL d   1      -0.150   1.071   0.693  0.00  0.00    -0.370 N 
ATOM      3  HN  UNL d   1      -0.289   1.950   1.190  1.00  0.00     0.161 HD
ATOM      4  S   UNL d   1       0.975  -0.854  -0.637  0.00  0.00    -0.088 SA
ATOM      5  N   UNL d   1       2.011   1.529  -0.234  0.00  0.00    -0.335 N 
ATOM      6  C   UNL d   1      -1.138  -0.018   0.639  0.00  0.00     0.137 C 
ATOM      7  C   UNL d   1      -0.445  -1.348   0.370  0.00  0.00     0.069 C 
ATOM      8  C   UNL d   1       0.019  -2.034   1.648  0.00  0.00     0.023 C 
ATOM      9  H   UNL d   1       2.683   1.123  -0.876  0.00  0.00     0.168 HD
ENDROOT
BRANCH   5  10
ATOM     10  C   UNL d   1       2.171   2.911  -0.026  0.00  0.00     0.073 A 
ATOM     11  C   UNL d   1       3.155   3.599  -0.753  0.00  0.00     0.143 A 
ATOM     12  F   UNL d   1       3.933   2.917  -1.609  0.00  0.00    -0.204 F 
ATOM     13  C   UNL d   1       3.336   4.976  -0.634  0.00  0.00     0.044 A 
ATOM     14  C   UNL d   1       2.530   5.702   0.237  0.00  0.00     0.003 A 
ATOM     15  C   UNL d   1       1.559   5.043   0.987  0.00  0.00     0.002 A 
ATOM     16  C   UNL d   1       1.385   3.660   0.857  0.00  0.00     0.033 A 
ENDBRANCH   5  10
TORSDOF 1
