REMARK  2 active torsions:
REMARK  status: ('A' for Active; 'I' for Inactive)
REMARK    1  A    between atoms: C_5  and  C_1 
REMARK    2  A    between atoms: N_6  and  C_2 
REMARK       I    between atoms: C_7  and  N_6 
REMARK       I    between atoms: N_10  and  C_7 
ROOT
ATOM      1  C   UNL d   1      -1.568  -1.002  -0.084  0.00  0.00     0.097 A 
ATOM      2  C   UNL d   1      -0.149  -1.244  -0.093  0.00  0.00     0.097 A 
ATOM      3  N   UNL d   1      -1.824   0.254  -0.483  0.00  0.00    -0.258 N 
ATOM      4  HN  UNL d   1      -2.741   0.694  -0.560  1.00  0.00     0.195 HD
ATOM      5  C   UNL d   1       0.391  -0.065  -0.571  0.00  0.00     0.101 A 
ATOM      6  O   UNL d   1      -0.612   0.831  -0.767  0.00  0.00    -0.240 OA
ATOM      7  C   UNL d   1       1.737   0.460  -0.873  0.00  0.00     0.081 C 
ENDROOT
BRANCH   2   8
ATOM      8  N   UNL d   1       0.519  -2.416   0.277  0.00  0.00    -0.304 N 
ATOM      9  C   UNL d   1       1.472  -2.979  -0.552  0.00  0.00     0.323 C 
ATOM     10  N   UNL d   1       1.994  -4.180  -0.094  0.00  0.00    -0.330 N 
ATOM     11  O   UNL d   1       1.792  -2.518  -1.641  0.00  0.00    -0.247 OA
ATOM     12  C   UNL d   1       1.840  -4.752   1.247  0.00  0.00     0.153 C 
ATOM     13  C   UNL d   1       2.579  -5.094  -1.080  0.00  0.00     0.153 C 
ATOM     14  C   UNL d   1       3.117  -5.483   1.690  0.00  0.00     0.187 C 
ATOM     15  O   UNL d   1       3.556  -6.430   0.704  0.00  0.00    -0.388 OA
ATOM     16  C   UNL d   1       3.838  -5.765  -0.537  0.00  0.00     0.187 C 
ATOM     17  H   UNL d   1      -0.067  -3.111   0.714  0.00  0.00     0.171 HD
ENDBRANCH   2   8
BRANCH   1  18
ATOM     18  C   UNL d   1      -2.691  -1.915   0.162  0.00  0.00     0.038 A 
ATOM     19  C   UNL d   1      -3.747  -1.558   1.029  0.00  0.00     0.048 A 
ATOM     20 CL   UNL d   1      -3.720  -0.134   2.018  0.00  0.00    -0.083 Cl
ATOM     21  C   UNL d   1      -4.889  -2.365   1.151  0.00  0.00     0.025 A 
ATOM     22  C   UNL d   1      -4.992  -3.557   0.440  0.00  0.00     0.003 A 
ATOM     23  C   UNL d   1      -3.952  -3.942  -0.396  0.00  0.00     0.025 A 
ATOM     24  C   UNL d   1      -2.823  -3.126  -0.553  0.00  0.00     0.048 A 
ATOM     25 CL   UNL d   1      -1.671  -3.686  -1.717  0.00  0.00    -0.083 Cl
ENDBRANCH   1  18
TORSDOF 2
