REMARK  2 active torsions:
REMARK  status: ('A' for Active; 'I' for Inactive)
REMARK    1  A    between atoms: C_2  and  N_1 
REMARK    2  A    between atoms: N_3  and  C_4 
ROOT
ATOM      1  C   UNL d   1       0.266   1.058  -0.393  0.00  0.00     0.130 A 
ATOM      2  C   UNL d   1       0.756   1.883  -1.418  0.00  0.00     0.071 A 
ATOM      3  C   UNL d   1      -0.915   1.371   0.303  0.00  0.00     0.038 A 
ATOM      4  C   UNL d   1       0.029   3.050  -1.721  0.00  0.00     0.032 A 
ATOM      5  C   UNL d   1      -1.623   2.524  -0.025  0.00  0.00     0.003 A 
ATOM      6  C   UNL d   1      -1.150   3.361  -1.033  0.00  0.00     0.002 A 
ENDROOT
BRANCH   2   7
ATOM      7  N   UNL d   1       1.930   1.598  -2.175  0.00  0.00    -0.331 N 
ATOM      8  C   UNL d   1       2.447   0.357  -2.494  0.00  0.00     0.097 A 
ATOM      9  C   UNL d   1       3.609   0.520  -3.217  0.00  0.00     0.019 A 
ATOM     10  C   UNL d   1       3.799   1.903  -3.395  0.00  0.00     0.019 A 
ATOM     11  C   UNL d   1       2.745   2.540  -2.778  0.00  0.00     0.097 A 
ENDBRANCH   2   7
BRANCH   1  12
ATOM     12  N   UNL d   1       1.012  -0.073   0.122  0.00  0.00    -0.113 N 
ATOM     13  O   UNL d   1       2.094   0.165   0.672  0.00  0.00    -0.532 OA
ATOM     14  O   UNL d   1       0.484  -1.187   0.010  0.00  0.00    -0.532 OA
ENDBRANCH   1  12
TORSDOF 2
