REMARK  4 active torsions:
REMARK  status: ('A' for Active; 'I' for Inactive)
REMARK    1  A    between atoms: C_2  and  C_1 
REMARK       I    between atoms: C_8  and  N_9 
REMARK    2  A    between atoms: C_12  and  C_8 
REMARK    3  A    between atoms: N_9  and  C_13 
REMARK    4  A    between atoms: C_14  and  C_15 
ROOT
ATOM      1  C   UNL d   1       8.359  -1.065   0.640  0.00  0.00     0.066 C 
ATOM      2  C   UNL d   1       5.971  -0.608   1.023  0.00  0.00     0.092 A 
ATOM      3  C   UNL d   1       7.201  -0.169   0.524  0.00  0.00     0.013 A 
ATOM      4  O   UNL d   1       5.841  -1.840   1.692  0.00  0.00    -0.275 OA
ATOM      5  C   UNL d   1       6.951  -2.619   1.963  0.00  0.00     0.289 C 
ATOM      6  C   UNL d   1       8.209  -2.203   1.340  0.00  0.00     0.099 C 
ATOM      7  C   UNL d   1       4.800   0.154   0.936  0.00  0.00     0.067 A 
ATOM      8  C   UNL d   1       7.227   1.106  -0.042  0.00  0.00     0.017 A 
ATOM      9  C   UNL d   1       4.844   1.430   0.376  0.00  0.00     0.037 A 
ATOM     10  O   UNL d   1       6.895  -3.623   2.659  0.00  0.00    -0.260 OA
ATOM     11  C   UNL d   1       6.064   1.895  -0.114  0.00  0.00     0.030 A 
ENDROOT
BRANCH   9  12
ATOM     12  N   UNL d   1       3.644   2.171   0.348  0.00  0.00    -0.323 N 
ATOM     13  C   UNL d   1       3.486   3.487  -0.051  0.00  0.00     0.256 C 
ATOM     14  O   UNL d   1       4.365   4.234  -0.464  0.00  0.00    -0.267 OA
ATOM     15  H   UNL d   1       2.814   1.672   0.639  0.00  0.00     0.169 HD
BRANCH  13  16
ATOM     16  C   UNL d   1       2.093   4.003  -0.011  0.00  0.00     0.032 A 
ATOM     17  C   UNL d   1       1.165   3.605   0.955  0.00  0.00     0.017 A 
ATOM     18  C   UNL d   1      -0.151   4.081   0.897  0.00  0.00     0.009 A 
ATOM     19  C   UNL d   1      -0.575   4.966  -0.117  0.00  0.00    -0.051 A 
ATOM     20  C   UNL d   1       0.391   5.395  -1.040  0.00  0.00     0.009 A 
ATOM     21  C   UNL d   1       1.706   4.923  -0.989  0.00  0.00     0.017 A 
BRANCH  19  22
ATOM     22  C   UNL d   1      -2.049   5.400  -0.203  0.00  0.00    -0.024 C 
ATOM     23  C   UNL d   1      -2.350   6.350  -1.385  0.00  0.00     0.019 C 
ATOM     24  C   UNL d   1      -2.932   4.146  -0.391  0.00  0.00     0.019 C 
ATOM     25  C   UNL d   1      -2.471   6.128   1.089  0.00  0.00     0.019 C 
ENDBRANCH  19  22
ENDBRANCH  13  16
ENDBRANCH   9  12
BRANCH   1  26
ATOM     26  C   UNL d   1       9.689  -0.779   0.001  0.00  0.00     0.418 C 
ATOM     27  F   UNL d   1       9.651   0.112  -1.017  0.00  0.00    -0.166 F 
ATOM     28  F   UNL d   1      10.579  -0.308   0.910  0.00  0.00    -0.166 F 
ATOM     29  F   UNL d   1      10.236  -1.913  -0.519  0.00  0.00    -0.166 F 
ENDBRANCH   1  26
TORSDOF 4
