REMARK  8 active torsions:
REMARK  status: ('A' for Active; 'I' for Inactive)
REMARK    1  A    between atoms: C_7  and  C_1 
REMARK    2  A    between atoms: C_2  and  C_10 
REMARK       I    between atoms: N_3  and  C_2 
REMARK    3  A    between atoms: C_4  and  N_3 
REMARK    4  A    between atoms: C_6  and  C_12 
REMARK    5  A    between atoms: C_10  and  C_6 
REMARK    6  A    between atoms: C_11  and  C_6 
REMARK    7  A    between atoms: C_9  and  C_11 
REMARK    8  A    between atoms: O_25  and  C_9 
ROOT
ATOM      1  C   UNL d   1      -0.419   0.271  -5.520  0.00  0.00     0.037 C 
ENDROOT
BRANCH   1   2
ATOM      2  C   UNL d   1       0.361  -0.289  -4.330  0.00  0.00    -0.053 A 
ATOM      3  C   UNL d   1      -0.293  -0.416  -3.093  0.00  0.00     0.008 A 
ATOM      4  C   UNL d   1       0.228  -1.230  -2.082  0.00  0.00     0.017 A 
ATOM      5  C   UNL d   1       1.431  -1.921  -2.269  0.00  0.00     0.047 A 
ATOM      6  C   UNL d   1       2.137  -1.720  -3.461  0.00  0.00     0.017 A 
ATOM      7  C   UNL d   1       1.607  -0.917  -4.479  0.00  0.00     0.008 A 
BRANCH   5   8
ATOM      8  C   UNL d   1       1.909  -2.913  -1.238  0.00  0.00     0.417 C 
ATOM      9  F   UNL d   1       3.107  -3.481  -1.536  0.00  0.00    -0.166 F 
ATOM     10  F   UNL d   1       1.036  -3.952  -1.090  0.00  0.00    -0.166 F 
ATOM     11  F   UNL d   1       2.047  -2.368   0.002  0.00  0.00    -0.166 F 
ENDBRANCH   5   8
ENDBRANCH   1   2
BRANCH   1  12
ATOM     12  C   UNL d   1       0.087   1.533  -6.251  0.00  0.00     0.113 C 
BRANCH  12  13
ATOM     13  C   UNL d   1       1.560   1.642  -6.583  0.00  0.00     0.222 C 
ATOM     14  N   UNL d   1       2.229   2.835  -6.525  0.00  0.00    -0.325 N 
ATOM     15  H   UNL d   1       3.089   2.784  -7.058  0.00  0.00     0.169 HD
ATOM     16  O   UNL d   1       2.145   0.690  -7.109  0.00  0.00    -0.273 OA
BRANCH  14  17
ATOM     17  C   UNL d   1       1.891   4.093  -5.990  0.00  0.00     0.073 A 
ATOM     18  C   UNL d   1       1.051   4.310  -4.895  0.00  0.00     0.144 A 
ATOM     19  C   UNL d   1       0.693   5.594  -4.490  0.00  0.00     0.062 A 
ATOM     20  F   UNL d   1       0.634   3.287  -4.131  0.00  0.00    -0.204 F 
ATOM     21  C   UNL d   1       1.231   6.695  -5.148  0.00  0.00     0.009 A 
ATOM     22  C   UNL d   1       2.152   6.510  -6.179  0.00  0.00     0.020 A 
ATOM     23  I   UNL d   1       0.685   8.613  -4.572  0.00  0.00    -0.044 I 
ATOM     24  C   UNL d   1       2.485   5.215  -6.592  0.00  0.00     0.034 A 
ENDBRANCH  14  17
ENDBRANCH  12  13
ENDBRANCH   1  12
BRANCH   1  25
ATOM     25  C   UNL d   1      -0.760  -0.875  -6.493  0.00  0.00     0.119 C 
BRANCH  25  26
ATOM     26  C   UNL d   1      -1.830  -1.766  -5.902  0.00  0.00     0.140 C 
ATOM     27  O   UNL d   1      -3.027  -1.544  -6.015  0.00  0.00    -0.650 OA
BRANCH  26  28
ATOM     28  O   UNL d   1      -1.354  -2.810  -5.192  0.00  0.00    -0.776 OA
ATOM     29  H   UNL d   1      -0.383  -2.801  -5.084  0.00  0.00     0.167 HD
ENDBRANCH  26  28
ENDBRANCH  25  26
ENDBRANCH   1  25
TORSDOF 8
