REMARK  6 active torsions:
REMARK  status: ('A' for Active; 'I' for Inactive)
REMARK    1  A    between atoms: C_8  and  N_1 
REMARK    2  A    between atoms: C_13  and  C_2 
REMARK    3  A    between atoms: S_19  and  C_3 
REMARK    4  A    between atoms: C_9  and  C_11 
REMARK    5  A    between atoms: C_10  and  C_12 
REMARK    6  A    between atoms: C_16  and  C_13 
ROOT
ATOM      1  N   UNL d   1      -0.359  -1.320  -0.278  0.00  0.00    -0.279 N 
ATOM      2  C   UNL d   1       0.912  -0.763  -0.509  0.00  0.00     0.109 A 
ATOM      3  C   UNL d   1      -1.181  -0.184  -0.229  0.00  0.00     0.164 A 
ATOM      4  N   UNL d   1       0.821   0.551  -0.549  0.00  0.00    -0.286 N 
ATOM      5  HN  UNL d   1       1.600   1.198  -0.670  1.00  0.00     0.188 HD
ATOM      6  N   UNL d   1      -0.482   0.901  -0.402  0.00  0.00    -0.278 N 
ATOM      7  HN  UNL d   1      -0.850   1.852  -0.423  1.00  0.00     0.189 HD
ENDROOT
BRANCH   1   8
ATOM      8  C   UNL d   1      -0.727  -2.695  -0.113  0.00  0.00     0.044 A 
ATOM      9  C   UNL d   1       0.155  -3.607   0.492  0.00  0.00     0.046 A 
ATOM     10  C   UNL d   1      -0.216  -4.954   0.692  0.00  0.00     0.050 A 
ATOM     11  C   UNL d   1      -1.505  -5.371   0.339  0.00  0.00     0.032 A 
ATOM     12  C   UNL d   1      -2.412  -4.475  -0.244  0.00  0.00     0.050 A 
ATOM     13  C   UNL d   1      -1.988  -3.161  -0.511  0.00  0.00     0.046 A 
BRANCH  10  14
ATOM     14  C   UNL d   1       0.751  -5.952   1.294  0.00  0.00     0.417 C 
ATOM     15  F   UNL d   1       1.964  -5.416   1.598  0.00  0.00    -0.166 F 
ATOM     16  F   UNL d   1       0.279  -6.497   2.449  0.00  0.00    -0.166 F 
ATOM     17  F   UNL d   1       1.000  -6.998   0.460  0.00  0.00    -0.166 F 
ENDBRANCH  10  14
BRANCH  12  18
ATOM     18  C   UNL d   1      -3.819  -4.929  -0.563  0.00  0.00     0.417 C 
ATOM     19  F   UNL d   1      -4.633  -3.914  -0.962  0.00  0.00    -0.166 F 
ATOM     20  F   UNL d   1      -3.858  -5.862  -1.551  0.00  0.00    -0.166 F 
ATOM     21  F   UNL d   1      -4.432  -5.492   0.514  0.00  0.00    -0.166 F 
ENDBRANCH  12  18
ENDBRANCH   1   8
BRANCH   2  22
ATOM     22  C   UNL d   1       2.225  -1.445  -0.792  0.00  0.00     0.118 C 
BRANCH  22  23
ATOM     23  C   UNL d   1       2.283  -2.444  -1.935  0.00  0.00    -0.040 C 
ATOM     24  C   UNL d   1       1.544  -2.317  -3.142  0.00  0.00    -0.019 C 
ATOM     25  C   UNL d   1       1.433  -3.454  -3.980  0.00  0.00    -0.025 C 
ATOM     26  C   UNL d   1       0.899  -1.138  -3.573  0.00  0.00     0.013 C 
ATOM     27  C   UNL d   1       0.472  -3.469  -5.001  0.00  0.00     0.012 C 
ATOM     28  C   UNL d   1       2.278  -4.553  -3.778  0.00  0.00     0.012 C 
ATOM     29  C   UNL d   1      -0.281  -2.335  -5.291  0.00  0.00     0.001 C 
ATOM     30  C   UNL d   1      -0.002  -1.144  -4.636  0.00  0.00     0.001 C 
ATOM     31  C   UNL d   1       3.159  -4.584  -2.704  0.00  0.00     0.001 C 
ATOM     32  C   UNL d   1       3.124  -3.561  -1.762  0.00  0.00     0.008 C 
ENDBRANCH  22  23
ENDBRANCH   2  22
BRANCH   3  33
ATOM     33  S   UNL d   1      -2.870  -0.076   0.189  0.00  0.00    -0.105 SA
ATOM     34  H   UNL d   1      -3.111  -1.294   0.681  0.00  0.00     0.110 HD
ENDBRANCH   3  33
TORSDOF 6
