REMARK  3 active torsions:
REMARK  status: ('A' for Active; 'I' for Inactive)
REMARK    1  A    between atoms: C_4  and  C_1 
REMARK    2  A    between atoms: C_3  and  C_2 
REMARK    3  A    between atoms: C_13  and  C_4 
ROOT
ATOM      1  C   UNL d   1       0.582   1.133  -0.300  0.00  0.00     0.081 C 
ATOM      2  C   UNL d   1      -0.873   0.954   0.021  0.00  0.00     0.090 C 
ATOM      3  N   UNL d   1       1.224   0.052  -0.628  0.00  0.00    -0.321 N 
ATOM      4  HN  UNL d   1       2.219  -0.021  -0.838  1.00  0.00     0.180 HD
ATOM      5  N   UNL d   1       0.323  -0.958  -0.639  0.00  0.00    -0.239 NA
ATOM      6  C   UNL d   1      -0.991  -0.568  -0.129  0.00  0.00     0.126 C 
ATOM      7  H   UNL d   1       0.678  -1.819  -0.217  0.00  0.00     0.146 HD
ENDROOT
BRANCH   2   8
ATOM      8  C   UNL d   1      -1.361   1.514   1.361  0.00  0.00    -0.025 A 
ATOM      9  C   UNL d   1      -2.407   2.513   1.353  0.00  0.00    -0.018 A 
ATOM     10  C   UNL d   1      -2.946   2.940   2.588  0.00  0.00    -0.025 A 
ATOM     11  C   UNL d   1      -2.959   3.129   0.195  0.00  0.00     0.013 A 
ATOM     12  C   UNL d   1      -3.976   3.897   2.640  0.00  0.00     0.012 A 
ATOM     13  C   UNL d   1      -2.460   2.414   3.787  0.00  0.00     0.024 A 
ATOM     14  C   UNL d   1      -4.496   4.463   1.481  0.00  0.00     0.001 A 
ATOM     15  C   UNL d   1      -3.982   4.082   0.255  0.00  0.00     0.001 A 
ATOM     16  C   UNL d   1      -1.426   1.476   3.820  0.00  0.00    -0.025 A 
ATOM     17  C   UNL d   1      -0.838   1.022   2.617  0.00  0.00    -0.018 A 
ATOM     18  C   UNL d   1      -0.995   0.994   5.069  0.00  0.00     0.012 A 
ATOM     19  C   UNL d   1       0.231   0.096   2.773  0.00  0.00     0.013 A 
ATOM     20  C   UNL d   1       0.651  -0.384   4.018  0.00  0.00     0.001 A 
ATOM     21  C   UNL d   1       0.031   0.061   5.170  0.00  0.00     0.001 A 
ENDBRANCH   2   8
BRANCH   1  22
ATOM     22  C   UNL d   1       1.192   2.512  -0.360  0.00  0.00     0.206 C 
ATOM     23  O   UNL d   1       0.439   3.477  -0.289  0.00  0.00    -0.285 OA
BRANCH  22  24
ATOM     24  C   UNL d   1       2.641   2.720  -0.624  0.00  0.00     0.016 A 
ATOM     25  C   UNL d   1       3.031   3.924  -1.236  0.00  0.00     0.018 A 
ATOM     26  C   UNL d   1       4.370   4.151  -1.563  0.00  0.00     0.043 A 
ATOM     27  C   UNL d   1       5.318   3.178  -1.270  0.00  0.00     0.116 A 
ATOM     28  C   UNL d   1       4.955   1.993  -0.641  0.00  0.00     0.043 A 
ATOM     29  F   UNL d   1       6.600   3.384  -1.598  0.00  0.00    -0.206 F 
ATOM     30  C   UNL d   1       3.616   1.767  -0.306  0.00  0.00     0.018 A 
ENDBRANCH  22  24
ENDBRANCH   1  22
TORSDOF 3
