REMARK  7 active torsions:
REMARK  status: ('A' for Active; 'I' for Inactive)
REMARK    1  A    between atoms: N_5  and  S_1 
REMARK    2  A    between atoms: C_15  and  S_1 
REMARK    3  A    between atoms: N_4  and  C_2 
REMARK    4  A    between atoms: C_3  and  C_7 
REMARK    5  A    between atoms: N_9  and  N_5 
REMARK       I    between atoms: C_7  and  N_9 
REMARK    6  A    between atoms: O_23  and  C_14 
REMARK    7  A    between atoms: O_24  and  C_16 
ROOT
ATOM      1  C   UNL d   1      -1.407  -0.088  -3.841  0.00  0.00     0.058 A 
ATOM      2  C   UNL d   1      -0.279   0.599  -4.319  0.00  0.00     0.063 A 
ATOM      3  C   UNL d   1      -2.087  -0.951  -4.717  0.00  0.00     0.070 A 
ATOM      4  C   UNL d   1       0.106   0.439  -5.673  0.00  0.00     0.059 A 
ATOM      5  C   UNL d   1      -1.699  -1.116  -6.052  0.00  0.00     0.103 A 
ATOM      6  C   UNL d   1      -0.597  -0.406  -6.547  0.00  0.00     0.102 A 
ENDROOT
BRANCH   2   7
ATOM      7  C   UNL d   1       0.451   1.634  -3.531  0.00  0.00     0.273 C 
ATOM      8  N   UNL d   1       1.840   1.529  -3.585  0.00  0.00    -0.256 N 
ATOM      9  H   UNL d   1       2.270   0.771  -4.108  0.00  0.00     0.191 HD
ATOM     10  O   UNL d   1      -0.190   2.486  -2.936  0.00  0.00    -0.266 OA
BRANCH   8  11
ATOM     11  N   UNL d   1       2.760   2.444  -2.895  0.00  0.00    -0.220 N 
ATOM     12  H   UNL d   1       3.765   2.295  -2.963  0.00  0.00     0.200 HD
BRANCH  11  13
ATOM     13  S   UNL d   1       2.252   3.635  -1.789  0.00  0.00     0.276 S 
ATOM     14  O   UNL d   1       1.715   2.985  -0.617  0.00  0.00    -0.199 OA
ATOM     15  O   UNL d   1       1.577   4.697  -2.504  0.00  0.00    -0.199 OA
BRANCH  13  16
ATOM     16  C   UNL d   1       3.829   4.329  -1.278  0.00  0.00     0.081 A 
ATOM     17  C   UNL d   1       4.310   5.479  -1.913  0.00  0.00     0.027 A 
ATOM     18  C   UNL d   1       5.449   6.119  -1.418  0.00  0.00     0.025 A 
ATOM     19  C   UNL d   1       6.098   5.608  -0.294  0.00  0.00     0.034 A 
ATOM     20  C   UNL d   1       5.627   4.453   0.333  0.00  0.00     0.025 A 
ATOM     21 CL   UNL d   1       7.470   6.428   0.344  0.00  0.00    -0.084 Cl
ATOM     22  C   UNL d   1       4.485   3.810  -0.155  0.00  0.00     0.027 A 
ENDBRANCH  13  16
ENDBRANCH  11  13
ENDBRANCH   8  11
ENDBRANCH   2   7
BRANCH   1  23
ATOM     23  N   UNL d   1      -1.924   0.030  -2.511  0.00  0.00    -0.319 N 
ATOM     24  C   UNL d   1      -3.282   0.143  -2.179  0.00  0.00     0.013 A 
ATOM     25  C   UNL d   1      -3.399   0.137  -0.804  0.00  0.00     0.027 A 
ATOM     26  C   UNL d   1      -4.404   0.325  -3.149  0.00  0.00     0.068 C 
ATOM     27  C   UNL d   1      -2.111   0.018  -0.266  0.00  0.00     0.027 A 
ATOM     28  C   UNL d   1      -1.215  -0.088  -1.315  0.00  0.00     0.013 A 
ATOM     29  C   UNL d   1       0.242  -0.351  -1.171  0.00  0.00     0.068 C 
ENDBRANCH   1  23
BRANCH   6  30
ATOM     30  O   UNL d   1      -0.300  -0.545  -7.875  0.00  0.00    -0.353 OA
ATOM     31  C   UNL d   1       0.808   0.166  -8.409  0.00  0.00     0.210 C 
ENDBRANCH   6  30
BRANCH   5  32
ATOM     32  O   UNL d   1      -2.543  -1.943  -6.745  0.00  0.00    -0.353 OA
ATOM     33  C   UNL d   1      -1.994  -2.682  -7.827  0.00  0.00     0.210 C 
ENDBRANCH   5  32
TORSDOF 7
