REMARK  7 active torsions:
REMARK  status: ('A' for Active; 'I' for Inactive)
REMARK    1  A    between atoms: N_3  and  C_1 
REMARK    2  A    between atoms: N_6  and  C_1 
REMARK    3  A    between atoms: C_2  and  C_11 
REMARK    4  A    between atoms: C_12  and  N_3 
REMARK    5  A    between atoms: C_11  and  N_6 
REMARK    6  A    between atoms: O_10  and  C_14 
REMARK    7  A    between atoms: C_13  and  O_10 
ROOT
ATOM      1  C   UNL d   1       0.859  -0.315  -2.493  0.00  0.00     0.034 C 
ATOM      2  C   UNL d   1       2.170  -0.383  -4.955  0.00  0.00     0.076 C 
ATOM      3  C   UNL d   1       1.746  -1.355  -2.789  0.00  0.00     0.032 C 
ATOM      4  C   UNL d   1       0.539   0.624  -3.476  0.00  0.00     0.032 C 
ATOM      5  C   UNL d   1       1.215   0.603  -4.700  0.00  0.00     0.039 C 
ATOM      6  C   UNL d   1       2.376  -1.408  -4.029  0.00  0.00     0.039 C 
ENDROOT
BRANCH   1   7
ATOM      7  N   UNL d   1       0.254  -0.237  -1.225  0.00  0.00    -0.333 N 
ATOM      8  H   UNL d   1      -0.612   0.294  -1.162  0.00  0.00     0.168 HD
BRANCH   7   9
ATOM      9  C   UNL d   1       0.914  -0.310  -0.019  0.00  0.00     0.172 C 
ATOM     10  S   UNL d   1       2.541  -0.054   0.274  0.00  0.00    -0.041 SA
BRANCH   9  11
ATOM     11  N   UNL d   1       0.117  -0.576   1.059  0.00  0.00    -0.361 N 
ATOM     12  H   UNL d   1       0.620  -0.578   1.938  0.00  0.00     0.162 HD
BRANCH  11  13
ATOM     13  C   UNL d   1      -1.078  -1.397   1.003  0.00  0.00     0.187 C 
BRANCH  13  14
ATOM     14  C   UNL d   1      -2.297  -0.556   0.998  0.00  0.00     0.070 A 
ATOM     15  O   UNL d   1      -2.511   0.231  -0.098  0.00  0.00    -0.325 OA
ATOM     16  C   UNL d   1      -3.703   0.854   0.090  0.00  0.00     0.142 A 
ATOM     17  C   UNL d   1      -4.262   0.475   1.288  0.00  0.00     0.027 A 
ATOM     18  C   UNL d   1      -3.351  -0.430   1.881  0.00  0.00     0.036 A 
ENDBRANCH  13  14
ENDBRANCH  11  13
ENDBRANCH   9  11
ENDBRANCH   7   9
ENDBRANCH   1   7
BRANCH   2  19
ATOM     19  O   UNL d   1       2.856  -0.305  -6.147  0.00  0.00    -0.311 OA
BRANCH  19  20
ATOM     20  C   UNL d   1       4.206  -0.596  -6.139  0.00  0.00     0.076 A 
ATOM     21  C   UNL d   1       4.717  -1.190  -7.294  0.00  0.00     0.039 A 
ATOM     22  C   UNL d   1       6.067  -1.546  -7.360  0.00  0.00     0.026 A 
ATOM     23  C   UNL d   1       6.903  -1.301  -6.271  0.00  0.00     0.034 A 
ATOM     24  C   UNL d   1       6.408  -0.674  -5.129  0.00  0.00     0.026 A 
ATOM     25 CL   UNL d   1       8.555  -1.774  -6.337  0.00  0.00    -0.084 Cl
ATOM     26  C   UNL d   1       5.064  -0.299  -5.072  0.00  0.00     0.039 A 
ENDBRANCH  19  20
ENDBRANCH   2  19
TORSDOF 7
