REMARK  5 active torsions:
REMARK  status: ('A' for Active; 'I' for Inactive)
REMARK    1  A    between atoms: N_4  and  C_1 
REMARK    2  A    between atoms: N_5  and  C_2 
REMARK    3  A    between atoms: O_10  and  C_3 
REMARK    4  A    between atoms: C_6  and  C_7 
REMARK    5  A    between atoms: C_16  and  O_10 
ROOT
ATOM      1  C   UNL d   1       1.397  -0.021  -0.032  0.00  0.00     0.140 A 
ATOM      2  C   UNL d   1      -0.738  -1.074   0.020  0.00  0.00     0.140 A 
ATOM      3  C   UNL d   1       0.657  -1.210  -0.047  0.00  0.00     0.142 A 
ATOM      4  C   UNL d   1      -0.622   1.350   0.133  0.00  0.00     0.052 A 
ATOM      5  C   UNL d   1      -1.383   0.174   0.114  0.00  0.00     0.055 A 
ATOM      6  C   UNL d   1       0.773   1.244   0.036  0.00  0.00     0.055 A 
ENDROOT
BRANCH   3   7
ATOM      7  O   UNL d   1       1.156  -2.482   0.069  0.00  0.00    -0.306 OA
BRANCH   7   8
ATOM      8  C   UNL d   1       2.179  -2.950  -0.717  0.00  0.00     0.076 A 
ATOM      9  C   UNL d   1       2.526  -2.469  -1.980  0.00  0.00     0.045 A 
ATOM     10  C   UNL d   1       3.639  -2.998  -2.662  0.00  0.00    -0.038 A 
ATOM     11  C   UNL d   1       4.046  -2.405  -3.982  0.00  0.00     0.050 C 
ATOM     12  C   UNL d   1       4.347  -4.066  -2.086  0.00  0.00     0.040 A 
ATOM     13  C   UNL d   1       3.957  -4.589  -0.853  0.00  0.00     0.027 A 
ATOM     14 CL   UNL d   1       5.712  -4.777  -2.868  0.00  0.00    -0.084 Cl
ATOM     15  C   UNL d   1       2.878  -4.030  -0.171  0.00  0.00     0.039 A 
ENDBRANCH   7   8
ENDBRANCH   3   7
BRANCH   2  16
ATOM     16  N   UNL d   1      -1.577  -2.260   0.010  0.00  0.00    -0.113 N 
ATOM     17  O   UNL d   1      -1.500  -2.997  -0.981  0.00  0.00    -0.532 OA
ATOM     18  O   UNL d   1      -2.346  -2.406   0.968  0.00  0.00    -0.532 OA
ENDBRANCH   2  16
BRANCH   1  19
ATOM     19  N   UNL d   1       2.845  -0.015  -0.027  0.00  0.00    -0.113 N 
ATOM     20  O   UNL d   1       3.410  -0.538   0.940  0.00  0.00    -0.532 OA
ATOM     21  O   UNL d   1       3.401   0.574  -0.966  0.00  0.00    -0.532 OA
ENDBRANCH   1  19
BRANCH   4  22
ATOM     22  C   UNL d   1      -1.269   2.709   0.295  0.00  0.00     0.417 C 
ATOM     23  F   UNL d   1      -2.623   2.652   0.402  0.00  0.00    -0.166 F 
ATOM     24  F   UNL d   1      -0.826   3.351   1.408  0.00  0.00    -0.166 F 
ATOM     25  F   UNL d   1      -1.002   3.532  -0.752  0.00  0.00    -0.166 F 
ENDBRANCH   4  22
TORSDOF 5
