REMARK  5 active torsions:
REMARK  status: ('A' for Active; 'I' for Inactive)
REMARK    1  A    between atoms: C_4  and  C_1 
REMARK    2  A    between atoms: C_2  and  C_9 
REMARK       I    between atoms: C_3  and  N_5 
REMARK       I    between atoms: N_12  and  C_3 
REMARK    3  A    between atoms: N_5  and  C_6 
REMARK    4  A    between atoms: N_10  and  N_12 
REMARK    5  A    between atoms: C_26  and  C_24 
ROOT
ATOM      1  C   UNL d   1       0.262   5.654  -3.233  0.00  0.00     0.339 C 
ATOM      2  N   UNL d   1      -0.141   4.381  -3.521  0.00  0.00    -0.306 N 
ATOM      3  N   UNL d   1       1.040   5.773  -2.102  0.00  0.00    -0.252 N 
ATOM      4  O   UNL d   1       0.026   6.670  -3.882  0.00  0.00    -0.245 OA
ATOM      5  H   UNL d   1       0.062   3.710  -2.787  0.00  0.00     0.171 HD
ATOM      6  H   UNL d   1       1.383   6.712  -1.936  0.00  0.00     0.191 HD
ENDROOT
BRANCH   2   7
ATOM      7  C   UNL d   1      -0.733   3.914  -4.721  0.00  0.00     0.058 A 
ATOM      8  C   UNL d   1      -0.897   4.736  -5.842  0.00  0.00     0.032 A 
ATOM      9  C   UNL d   1      -1.333   4.214  -7.065  0.00  0.00     0.018 A 
ATOM     10  C   UNL d   1      -1.627   2.852  -7.199  0.00  0.00     0.049 A 
ATOM     11  C   UNL d   1      -1.547   2.037  -6.060  0.00  0.00     0.042 A 
ATOM     12  C   UNL d   1      -1.102   2.563  -4.837  0.00  0.00     0.061 A 
ATOM     13 CL   UNL d   1      -1.000   1.488  -3.484  0.00  0.00    -0.082 Cl
BRANCH  10  14
ATOM     14  C   UNL d   1      -1.972   2.293  -8.557  0.00  0.00     0.417 C 
ATOM     15  F   UNL d   1      -2.166   0.946  -8.559  0.00  0.00    -0.166 F 
ATOM     16  F   UNL d   1      -0.987   2.526  -9.471  0.00  0.00    -0.166 F 
ATOM     17  F   UNL d   1      -3.103   2.838  -9.081  0.00  0.00    -0.166 F 
ENDBRANCH  10  14
ENDBRANCH   2   7
BRANCH   3  18
ATOM     18  N   UNL d   1       1.481   4.724  -1.344  0.00  0.00    -0.307 N 
ATOM     19  C   UNL d   1       2.342   5.091  -0.443  0.00  0.00     0.118 C 
ATOM     20  HN  UNL d   1       1.170   3.761  -1.472  1.00  0.00     0.186 HD
BRANCH  19  21
ATOM     21  C   UNL d   1       2.981   4.160   0.506  0.00  0.00    -0.019 A 
ATOM     22  C   UNL d   1       2.637   2.809   0.541  0.00  0.00     0.013 A 
ATOM     23  C   UNL d   1       3.280   1.953   1.441  0.00  0.00     0.017 A 
ATOM     24  C   UNL d   1       4.274   2.438   2.308  0.00  0.00     0.048 A 
ATOM     25  C   UNL d   1       4.601   3.803   2.269  0.00  0.00     0.017 A 
ATOM     26  C   UNL d   1       3.958   4.661   1.374  0.00  0.00     0.013 A 
BRANCH  24  27
ATOM     27  C   UNL d   1       4.997   1.519   3.265  0.00  0.00     0.417 C 
ATOM     28  F   UNL d   1       4.603   0.219   3.177  0.00  0.00    -0.166 F 
ATOM     29  F   UNL d   1       6.343   1.516   3.062  0.00  0.00    -0.166 F 
ATOM     30  F   UNL d   1       4.817   1.878   4.566  0.00  0.00    -0.166 F 
ENDBRANCH  24  27
ENDBRANCH  19  21
ENDBRANCH   3  18
TORSDOF 5
