REMARK  4 active torsions:
REMARK  status: ('A' for Active; 'I' for Inactive)
REMARK    1  A    between atoms: C_4  and  S_1 
REMARK    2  A    between atoms: C_6  and  S_1 
REMARK    3  A    between atoms: C_2  and  C_6 
REMARK    4  A    between atoms: O_8  and  C_2 
ROOT
ATOM      1  C   UNL d   1      -0.284  -0.505  -2.466  0.00  0.00    -0.009 A 
ATOM      2  C   UNL d   1       0.466  -0.980  -1.352  0.00  0.00     0.012 A 
ATOM      3  C   UNL d   1      -0.637  -1.428  -3.485  0.00  0.00    -0.025 A 
ATOM      4  C   UNL d   1       0.505  -3.216  -2.295  0.00  0.00     0.002 A 
ATOM      5  C   UNL d   1       0.851  -2.327  -1.280  0.00  0.00     0.019 A 
ATOM      6  C   UNL d   1      -0.718   0.836  -2.627  0.00  0.00     0.013 A 
ATOM      7  C   UNL d   1      -0.238  -2.768  -3.384  0.00  0.00     0.012 A 
ATOM      8  C   UNL d   1      -1.397  -1.006  -4.588  0.00  0.00     0.012 A 
ATOM      9  C   UNL d   1      -1.469   1.241  -3.733  0.00  0.00     0.001 A 
ATOM     10  C   UNL d   1      -1.813   0.319  -4.712  0.00  0.00     0.001 A 
ENDROOT
BRANCH   2  11
ATOM     11  S   UNL d   1       0.829   0.066   0.068  0.00  0.00    -0.119 SA
BRANCH  11  12
ATOM     12  C   UNL d   1       2.658   0.091   0.015  0.00  0.00     0.189 C 
BRANCH  12  13
ATOM     13  C   UNL d   1       3.242   0.942   1.127  0.00  0.00     0.149 C 
ATOM     14  O   UNL d   1       4.449   1.090   1.282  0.00  0.00    -0.649 OA
BRANCH  13  15
ATOM     15  O   UNL d   1       2.349   1.534   1.952  0.00  0.00    -0.776 OA
ATOM     16  H   UNL d   1       1.430   1.310   1.694  0.00  0.00     0.167 HD
ENDBRANCH  13  15
ENDBRANCH  12  13
ENDBRANCH  11  12
ENDBRANCH   2  11
TORSDOF 4
