REMARK  3 active torsions:
REMARK  status: ('A' for Active; 'I' for Inactive)
REMARK    1  A    between atoms: N_9  and  C_3 
REMARK    2  A    between atoms: N_13  and  C_6 
REMARK    3  A    between atoms: C_11  and  N_9 
ROOT
ATOM      1  N   UNL d   1      -1.645   1.993  -0.932  0.00  0.00    -0.166 N 
ATOM      2  HN  UNL d   1      -0.670   1.700  -0.866  1.00  0.00     0.187 HD
ATOM      3  C   UNL d   1      -2.644   1.223  -0.514  0.00  0.00     0.685 A 
ATOM      4  N   UNL d   1      -3.925   1.578  -0.576  0.00  0.00    -0.188 N 
ATOM      5  HN  UNL d   1      -4.678   0.963  -0.268  1.00  0.00     0.185 HD
ATOM      6  C   UNL d   1      -1.997   3.168  -1.443  0.00  0.00     0.170 A 
ATOM      7  N   UNL d   1      -3.238   3.619  -1.534  0.00  0.00    -0.328 N 
ATOM      8  HN  UNL d   1      -3.469   4.530  -1.931  1.00  0.00     0.169 HD
ATOM      9  C   UNL d   1      -4.153   2.786  -1.065  0.00  0.00     0.200 A 
ENDROOT
BRANCH   3  10
ATOM     10  N   UNL d   1      -2.304   0.001   0.067  0.00  0.00    -0.191 N 
ATOM     11  H   UNL d   1      -1.302  -0.081   0.169  0.00  0.00     0.184 HD
BRANCH  10  12
ATOM     12  C   UNL d   1      -3.003  -1.220   0.030  0.00  0.00     0.055 A 
ATOM     13  C   UNL d   1      -2.844  -2.169   1.060  0.00  0.00    -0.035 A 
ATOM     14  C   UNL d   1      -1.957  -1.937   2.253  0.00  0.00     0.050 C 
ATOM     15  C   UNL d   1      -3.557  -3.382   1.005  0.00  0.00     0.009 A 
ATOM     16  C   UNL d   1      -4.426  -3.657  -0.049  0.00  0.00     0.001 A 
ATOM     17  C   UNL d   1      -4.593  -2.723  -1.063  0.00  0.00     0.002 A 
ATOM     18  C   UNL d   1      -3.891  -1.517  -1.019  0.00  0.00     0.030 A 
ENDBRANCH  10  12
ENDBRANCH   3  10
BRANCH   6  19
ATOM     19  N   UNL d   1      -1.005   3.968  -1.976  0.00  0.00    -0.273 NA
ATOM     20  H   UNL d   1      -0.234   3.404  -2.298  0.00  0.00     0.127 HD
ATOM     21  H   UNL d   1      -1.413   4.611  -2.645  0.00  0.00     0.127 HD
ENDBRANCH   6  19
TORSDOF 3
