REMARK  1 active torsions:
REMARK  status: ('A' for Active; 'I' for Inactive)
REMARK    1  A    between atoms: C_6  and  N_1 
ROOT
ATOM      1  N   UNL d   1      -2.426  -0.035   0.014  0.00  0.00    -0.298 N 
ATOM      2  C   UNL d   1      -1.618  -1.180   0.030  0.00  0.00     0.133 A 
ATOM      3  C   UNL d   1      -0.303  -0.762   0.007  0.00  0.00     0.014 A 
ATOM      4  C   UNL d   1      -1.595   1.084  -0.070  0.00  0.00     0.112 A 
ATOM      5  C   UNL d   1      -0.298   0.655  -0.049  0.00  0.00    -0.007 A 
ATOM      6  C   UNL d   1      -2.073  -2.531   0.082  0.00  0.00     0.119 C 
ATOM      7  N   UNL d   1      -2.361  -3.656   0.119  0.00  0.00    -0.190 NA
ATOM      8  C   UNL d   1       0.842  -1.556   0.042  0.00  0.00     0.015 A 
ATOM      9  C   UNL d   1       0.824   1.470  -0.073  0.00  0.00     0.014 A 
ATOM     10  C   UNL d   1       2.007  -0.752   0.020  0.00  0.00     0.001 A 
ATOM     11  C   UNL d   1       1.998   0.686  -0.033  0.00  0.00     0.001 A 
ENDROOT
BRANCH   1  12
ATOM     12  C   UNL d   1      -3.859  -0.001   0.116  0.00  0.00     0.112 A 
ATOM     13  N   UNL d   1      -4.508  -1.179   0.263  0.00  0.00    -0.351 N 
ATOM     14  C   UNL d   1      -5.846  -1.149   0.464  0.00  0.00     0.096 A 
ATOM     15  HN  UNL d   1      -4.003  -2.065   0.224  1.00  0.00     0.166 HD
ATOM     16  C   UNL d   1      -6.595   0.016   0.532  0.00  0.00    -0.046 A 
ATOM     17  C   UNL d   1      -5.920   1.217   0.334  0.00  0.00     0.012 A 
ATOM     18  C   UNL d   1      -8.058  -0.024   0.834  0.00  0.00     0.049 C 
ATOM     19  C   UNL d   1      -4.542   1.214   0.121  0.00  0.00     0.050 A 
ENDBRANCH   1  12
TORSDOF 1
