REMARK  4 active torsions:
REMARK  status: ('A' for Active; 'I' for Inactive)
REMARK    1  A    between atoms: N_2  and  C_1 
REMARK    2  A    between atoms: N_3  and  C_1 
REMARK    3  A    between atoms: C_4  and  N_2 
REMARK    4  A    between atoms: C_8  and  N_3 
ROOT
ATOM      1  C   UNL d   1       1.080   0.158   0.024  0.00  0.00     0.168 C 
ATOM      2  S   UNL d   1       2.608   0.065  -0.644  0.00  0.00    -0.041 SA
ENDROOT
BRANCH   1   3
ATOM      3  N   UNL d   1       0.555  -0.705   0.939  0.00  0.00    -0.363 N 
ATOM      4  H   UNL d   1      -0.090  -0.290   1.593  0.00  0.00     0.162 HD
BRANCH   3   5
ATOM      5  C   UNL d   1       1.097  -1.973   1.315  0.00  0.00     0.084 A 
ATOM      6  C   UNL d   1       0.914  -3.172   0.427  0.00  0.00     0.027 A 
ATOM      7  C   UNL d   1       0.156  -3.078   1.717  0.00  0.00     0.027 A 
ENDBRANCH   3   5
ENDBRANCH   1   3
BRANCH   1   8
ATOM      8  N   UNL d   1       0.256   1.156  -0.412  0.00  0.00    -0.359 N 
ATOM      9  H   UNL d   1       0.733   1.708  -1.118  0.00  0.00     0.162 HD
BRANCH   8  10
ATOM     10  C   UNL d   1      -1.224   1.169  -0.524  0.00  0.00     0.021 C 
ATOM     11  C   UNL d   1      -1.935   1.209   0.838  0.00  0.00     0.037 C 
ATOM     12  C   UNL d   1      -1.617   2.449  -1.288  0.00  0.00     0.037 C 
ATOM     13  C   UNL d   1      -1.706  -0.046  -1.335  0.00  0.00     0.037 C 
ENDBRANCH   8  10
ENDBRANCH   1   8
TORSDOF 4
