REMARK  4 active torsions:
REMARK  status: ('A' for Active; 'I' for Inactive)
REMARK    1  A    between atoms: C_12  and  N_3 
REMARK    2  A    between atoms: C_8  and  C_4 
REMARK    3  A    between atoms: C_11  and  C_5 
REMARK    4  A    between atoms: C_7  and  C_10 
ROOT
ATOM      1  N   UNL d   1       1.166  -0.171   0.104  0.00  0.00    -0.301 N 
ATOM      2  HN  UNL d   1       2.166  -0.363   0.159  1.00  0.00     0.187 HD
ATOM      3  N   UNL d   1       0.159  -1.094   0.105  0.00  0.00    -0.283 N 
ATOM      4  C   UNL d   1       0.609   0.998   0.018  0.00  0.00     0.038 A 
ATOM      5  C   UNL d   1      -1.175  -0.505  -0.007  0.00  0.00     0.147 A 
ATOM      6  C   UNL d   1      -0.895   0.994  -0.012  0.00  0.00     0.091 A 
ENDROOT
BRANCH   4   7
ATOM      7  C   UNL d   1       1.368   2.272  -0.048  0.00  0.00    -0.011 A 
ATOM      8  C   UNL d   1       2.768   2.240  -0.056  0.00  0.00     0.025 A 
ATOM      9  C   UNL d   1       3.515   3.430  -0.106  0.00  0.00    -0.025 A 
ATOM     10  C   UNL d   1       4.919   3.418  -0.108  0.00  0.00     0.012 A 
ATOM     11  C   UNL d   1       2.839   4.672  -0.153  0.00  0.00    -0.026 A 
ATOM     12  C   UNL d   1       5.644   4.611  -0.143  0.00  0.00     0.001 A 
ATOM     13  C   UNL d   1       4.977   5.832  -0.181  0.00  0.00     0.001 A 
ATOM     14  C   UNL d   1       3.582   5.862  -0.189  0.00  0.00     0.012 A 
ATOM     15  C   UNL d   1       1.438   4.691  -0.159  0.00  0.00     0.013 A 
ATOM     16  C   UNL d   1       0.707   3.502  -0.106  0.00  0.00     0.014 A 
ENDBRANCH   4   7
BRANCH   3  17
ATOM     17  C   UNL d   1       0.432  -2.459   0.041  0.00  0.00     0.051 A 
ATOM     18  C   UNL d   1       1.641  -2.974   0.535  0.00  0.00     0.031 A 
ATOM     19  C   UNL d   1       1.910  -4.347   0.533  0.00  0.00     0.002 A 
ATOM     20  C   UNL d   1       0.980  -5.239   0.007  0.00  0.00     0.000 A 
ATOM     21  C   UNL d   1      -0.217  -4.756  -0.508  0.00  0.00     0.002 A 
ATOM     22  C   UNL d   1      -0.488  -3.384  -0.483  0.00  0.00     0.031 A 
ENDBRANCH   3  17
BRANCH   5  23
ATOM     23  C   UNL d   1      -2.097  -0.891   1.142  0.00  0.00    -0.033 A 
ATOM     24  C   UNL d   1      -1.602  -1.144   2.432  0.00  0.00     0.010 A 
ATOM     25  C   UNL d   1      -2.460  -1.517   3.467  0.00  0.00     0.017 A 
ATOM     26  C   UNL d   1      -3.838  -1.627   3.245  0.00  0.00     0.047 A 
ATOM     27  C   UNL d   1      -4.340  -1.353   1.964  0.00  0.00     0.017 A 
ATOM     28  C   UNL d   1      -3.479  -0.988   0.925  0.00  0.00     0.010 A 
BRANCH  26  29
ATOM     29  C   UNL d   1      -4.749  -2.036   4.376  0.00  0.00     0.417 C 
ATOM     30  F   UNL d   1      -6.066  -2.080   4.026  0.00  0.00    -0.166 F 
ATOM     31  F   UNL d   1      -4.453  -3.272   4.866  0.00  0.00    -0.166 F 
ATOM     32  F   UNL d   1      -4.675  -1.186   5.438  0.00  0.00    -0.166 F 
ENDBRANCH  26  29
ENDBRANCH   5  23
TORSDOF 4
