REMARK  6 active torsions:
REMARK  status: ('A' for Active; 'I' for Inactive)
REMARK       I    between atoms: N_2  and  C_1 
REMARK    1  A    between atoms: C_3  and  C_1 
REMARK       I    between atoms: C_4  and  N_2 
REMARK       I    between atoms: N_7  and  C_4 
REMARK    2  A    between atoms: C_5  and  C_8 
REMARK    3  A    between atoms: C_6  and  N_7 
REMARK    4  A    between atoms: O_10  and  C_9 
REMARK    5  A    between atoms: C_12  and  O_10 
REMARK    6  A    between atoms: O_25  and  C_19 
ROOT
ATOM      1  C   UNL d   1       2.860  -0.541   1.018  0.00  0.00     0.071 A 
ATOM      2  C   UNL d   1       4.940  -0.449  -0.264  0.00  0.00     0.050 A 
ATOM      3  C   UNL d   1       2.595   0.801   0.698  0.00  0.00     0.103 A 
ATOM      4  C   UNL d   1       4.054  -1.138   0.580  0.00  0.00     0.048 A 
ATOM      5  C   UNL d   1       4.636   0.869  -0.626  0.00  0.00     0.019 A 
ATOM      6  C   UNL d   1       3.501   1.500  -0.115  0.00  0.00     0.040 A 
ENDROOT
BRANCH   1   7
ATOM      7  N   UNL d   1       2.022  -1.341   1.814  0.00  0.00    -0.306 N 
ATOM      8  C   UNL d   1       0.724  -1.736   1.604  0.00  0.00     0.327 C 
ATOM      9  N   UNL d   1       0.079  -1.247   0.500  0.00  0.00    -0.275 N 
ATOM     10  O   UNL d   1       0.270  -2.564   2.389  0.00  0.00    -0.247 OA
ATOM     11  C   UNL d   1      -1.107  -1.768  -0.009  0.00  0.00     0.264 C 
ATOM     12  H   UNL d   1       0.606  -0.619  -0.077  0.00  0.00     0.173 HD
ATOM     13  O   UNL d   1      -1.781  -2.634   0.532  0.00  0.00    -0.267 OA
ATOM     14  H   UNL d   1       2.470  -2.036   2.402  0.00  0.00     0.171 HD
BRANCH  11  15
ATOM     15  C   UNL d   1      -1.560  -1.252  -1.332  0.00  0.00     0.092 A 
ATOM     16  C   UNL d   1      -0.617  -0.984  -2.330  0.00  0.00     0.133 A 
ATOM     17  F   UNL d   1       0.696  -1.095  -2.073  0.00  0.00    -0.205 F 
ATOM     18  C   UNL d   1      -0.993  -0.583  -3.613  0.00  0.00     0.043 A 
ATOM     19  C   UNL d   1      -2.341  -0.461  -3.932  0.00  0.00     0.005 A 
ATOM     20  C   UNL d   1      -3.300  -0.723  -2.955  0.00  0.00     0.025 A 
ATOM     21  C   UNL d   1      -2.918  -1.109  -1.660  0.00  0.00     0.052 A 
ATOM     22 CL   UNL d   1      -4.207  -1.327  -0.526  0.00  0.00    -0.083 Cl
ENDBRANCH  11  15
ENDBRANCH   1   7
BRANCH   3  23
ATOM     23  O   UNL d   1       1.516   1.443   1.288  0.00  0.00    -0.306 OA
BRANCH  23  24
ATOM     24  C   UNL d   1       0.825   2.377   0.541  0.00  0.00     0.109 A 
ATOM     25  C   UNL d   1       0.357   3.578   1.105  0.00  0.00     0.102 A 
ATOM     26  C   UNL d   1      -0.408   4.438   0.296  0.00  0.00     0.039 A 
ATOM     27  C   UNL d   1      -0.705   4.140  -1.031  0.00  0.00     0.003 A 
ATOM     28  C   UNL d   1      -0.231   2.959  -1.585  0.00  0.00     0.003 A 
ATOM     29  C   UNL d   1       0.515   2.090  -0.799  0.00  0.00     0.040 A 
BRANCH  25  30
ATOM     30  O   UNL d   1       0.536   4.103   2.348  0.00  0.00    -0.353 OA
ATOM     31  C   UNL d   1       1.329   3.444   3.317  0.00  0.00     0.210 C 
ENDBRANCH  25  30
ENDBRANCH  23  24
ENDBRANCH   3  23
BRANCH   2  32
ATOM     32  C   UNL d   1       6.200  -1.099  -0.784  0.00  0.00     0.417 C 
ATOM     33  F   UNL d   1       6.441  -2.327  -0.248  0.00  0.00    -0.166 F 
ATOM     34  F   UNL d   1       6.169  -1.278  -2.134  0.00  0.00    -0.166 F 
ATOM     35  F   UNL d   1       7.309  -0.354  -0.529  0.00  0.00    -0.166 F 
ENDBRANCH   2  32
TORSDOF 6
