REMARK  6 active torsions:
REMARK  status: ('A' for Active; 'I' for Inactive)
REMARK       I    between atoms: N_2  and  C_1 
REMARK       I    between atoms: N_8  and  C_1 
REMARK    1  A    between atoms: C_3  and  N_2 
REMARK    2  A    between atoms: S_9  and  C_3 
REMARK    3  A    between atoms: N_6  and  N_4 
REMARK    4  A    between atoms: C_13  and  N_8 
REMARK    5  A    between atoms: C_12  and  S_9 
REMARK    6  A    between atoms: C_14  and  C_12 
ROOT
ATOM      1  C   UNL d   1       1.027   1.685  -1.876  0.00  0.00     0.163 C 
ATOM      2  N   UNL d   1       2.260   1.390  -2.158  0.00  0.00    -0.280 N 
ATOM      3  HN  UNL d   1       2.676   1.615  -3.062  1.00  0.00     0.189 HD
ENDROOT
BRANCH   1   4
ATOM      4  N   UNL d   1       0.265   1.368  -0.765  0.00  0.00    -0.288 N 
ATOM      5  C   UNL d   1       0.278   0.310   0.138  0.00  0.00     0.326 C 
ATOM      6  N   UNL d   1       1.110  -0.714  -0.215  0.00  0.00    -0.309 N 
ATOM      7  O   UNL d   1      -0.505   0.325   1.082  0.00  0.00    -0.247 OA
ATOM      8  H   UNL d   1       1.780  -0.450  -0.932  0.00  0.00     0.170 HD
ATOM      9  H   UNL d   1      -0.551   1.947  -0.639  0.00  0.00     0.172 HD
BRANCH   6  10
ATOM     10  C   UNL d   1       1.324  -1.959   0.388  0.00  0.00     0.036 A 
ATOM     11  C   UNL d   1       0.645  -2.420   1.513  0.00  0.00     0.029 A 
ATOM     12  C   UNL d   1       0.963  -3.670   2.055  0.00  0.00     0.002 A 
ATOM     13  C   UNL d   1       1.947  -4.466   1.469  0.00  0.00     0.000 A 
ATOM     14  C   UNL d   1       2.614  -4.019   0.332  0.00  0.00     0.002 A 
ATOM     15  C   UNL d   1       2.302  -2.771  -0.204  0.00  0.00     0.029 A 
ENDBRANCH   6  10
ENDBRANCH   1   4
BRANCH   1  16
ATOM     16  S   UNL d   1       0.086   2.647  -2.994  0.00  0.00    -0.088 SA
BRANCH  16  17
ATOM     17  C   UNL d   1       0.712   1.962  -4.559  0.00  0.00     0.121 C 
BRANCH  17  18
ATOM     18  C   UNL d   1      -0.033   2.509  -5.754  0.00  0.00    -0.049 A 
ATOM     19  C   UNL d   1       0.364   3.718  -6.345  0.00  0.00     0.008 A 
ATOM     20  C   UNL d   1      -0.315   4.224  -7.455  0.00  0.00     0.001 A 
ATOM     21  C   UNL d   1      -1.400   3.531  -7.985  0.00  0.00     0.000 A 
ATOM     22  C   UNL d   1      -1.811   2.332  -7.403  0.00  0.00     0.001 A 
ATOM     23  C   UNL d   1      -1.133   1.824  -6.293  0.00  0.00     0.008 A 
ENDBRANCH  17  18
ENDBRANCH  16  17
ENDBRANCH   1  16
BRANCH   2  24
ATOM     24  N   UNL d   1       2.974   0.753  -1.162  0.00  0.00    -0.307 N 
ATOM     25  C   UNL d   1       4.261   0.913  -1.190  0.00  0.00     0.004 C 
ATOM     26  C   UNL d   1       5.049   1.716  -2.199  0.00  0.00     0.054 C 
ATOM     27  C   UNL d   1       5.087   0.220  -0.128  0.00  0.00     0.054 C 
ATOM     28  C   UNL d   1       6.069   0.797  -2.868  0.00  0.00     0.006 C 
ATOM     29  C   UNL d   1       6.906  -0.006  -1.865  0.00  0.00     0.001 C 
ATOM     30  C   UNL d   1       6.051  -0.731  -0.823  0.00  0.00     0.006 C 
ATOM     31  HN  UNL d   1       2.515   0.189  -0.446  1.00  0.00     0.186 HD
ENDBRANCH   2  24
TORSDOF 6
