REMARK  5 active torsions:
REMARK  status: ('A' for Active; 'I' for Inactive)
REMARK    1  A    between atoms: N_10  and  C_1 
REMARK    2  A    between atoms: N_11  and  C_8 
REMARK    3  A    between atoms: S_12  and  C_9 
REMARK    4  A    between atoms: C_13  and  N_10 
REMARK    5  A    between atoms: C_14  and  N_11 
ROOT
ATOM      1  C   UNL d   1      -1.284  -0.088  -0.056  0.00  0.00     0.682 A 
ATOM      2  N   UNL d   1      -0.568  -1.201   0.015  0.00  0.00    -0.166 N 
ATOM      3  HN  UNL d   1      -1.007  -2.115   0.118  1.00  0.00     0.187 HD
ATOM      4  N   UNL d   1      -0.758   1.121  -0.128  0.00  0.00    -0.170 N 
ATOM      5  HN  UNL d   1      -1.329   1.963  -0.210  1.00  0.00     0.186 HD
ATOM      6  N   UNL d   1       1.369   0.105  -0.064  0.00  0.00    -0.312 N 
ATOM      7  HN  UNL d   1       2.385   0.187  -0.055  1.00  0.00     0.170 HD
ATOM      8  C   UNL d   1       0.748  -1.063  -0.055  0.00  0.00     0.174 A 
ATOM      9  C   UNL d   1       0.565   1.161  -0.085  0.00  0.00     0.161 A 
ENDROOT
BRANCH   1  10
ATOM     10  N   UNL d   1      -2.646  -0.241  -0.050  0.00  0.00    -0.222 N 
ATOM     11  H   UNL d   1      -2.965  -1.033   0.484  0.00  0.00     0.178 HD
BRANCH  10  12
ATOM     12  C   UNL d   1      -3.552   0.820  -0.429  0.00  0.00     0.091 C 
ATOM     13  C   UNL d   1      -4.868   0.185  -0.884  0.00  0.00     0.032 C 
ATOM     14  C   UNL d   1      -3.802   1.784   0.724  0.00  0.00     0.032 C 
ENDBRANCH  10  12
ENDBRANCH   1  10
BRANCH   8  15
ATOM     15  N   UNL d   1       1.576  -2.170  -0.163  0.00  0.00    -0.264 NA
ATOM     16  H   UNL d   1       2.507  -1.897   0.129  0.00  0.00     0.130 HD
BRANCH  15  17
ATOM     17  C   UNL d   1       1.063  -3.425   0.343  0.00  0.00     0.091 C 
ATOM     18  C   UNL d   1       2.118  -4.506   0.164  0.00  0.00     0.021 C 
ENDBRANCH  15  17
ENDBRANCH   8  15
BRANCH   9  19
ATOM     19  S   UNL d   1       1.296   2.780   0.017  0.00  0.00    -0.098 SA
ATOM     20  C   UNL d   1       2.889   2.442  -0.766  0.00  0.00     0.099 C 
ENDBRANCH   9  19
TORSDOF 5
