REMARK  2 active torsions:
REMARK  status: ('A' for Active; 'I' for Inactive)
REMARK    1  A    between atoms: C_4  and  N_1 
REMARK    2  A    between atoms: C_5  and  C_3 
ROOT
ATOM      1  N   UNL d   1       1.035   0.070  -0.116  0.00  0.00    -0.365 N 
ATOM      2  HN  UNL d   1       0.567  -0.833  -0.191  1.00  0.00     0.165 HD
ATOM      3  C   UNL d   1       0.339   1.157  -0.048  0.00  0.00     0.099 C 
ENDROOT
BRANCH   1   4
ATOM      4  C   UNL d   1       2.440   0.137  -0.086  0.00  0.00     0.031 A 
ATOM      5  C   UNL d   1       3.124  -0.889   0.573  0.00  0.00     0.030 A 
ATOM      6  C   UNL d   1       4.522  -0.921   0.607  0.00  0.00     0.009 A 
ATOM      7  C   UNL d   1       5.268   0.080  -0.023  0.00  0.00    -0.062 A 
ATOM      8  C   UNL d   1       4.590   1.106  -0.691  0.00  0.00     0.009 A 
ATOM      9  C   UNL d   1       6.766   0.029   0.002  0.00  0.00     0.048 C 
ATOM     10  C   UNL d   1       3.191   1.125  -0.730  0.00  0.00     0.030 A 
ENDBRANCH   1   4
BRANCH   3  11
ATOM     11  C   UNL d   1      -1.140   1.139  -0.054  0.00  0.00    -0.021 A 
ATOM     12  C   UNL d   1      -1.842  -0.067  -0.022  0.00  0.00     0.013 A 
ATOM     13  C   UNL d   1      -3.239  -0.059   0.002  0.00  0.00     0.007 A 
ATOM     14  C   UNL d   1      -3.942   1.153  -0.010  0.00  0.00    -0.062 A 
ATOM     15  C   UNL d   1      -3.228   2.358  -0.052  0.00  0.00     0.007 A 
ATOM     16  C   UNL d   1      -5.442   1.146   0.030  0.00  0.00     0.048 C 
ATOM     17  C   UNL d   1      -1.830   2.353  -0.073  0.00  0.00     0.013 A 
ENDBRANCH   3  11
TORSDOF 2
