REMARK  2 active torsions:
REMARK  status: ('A' for Active; 'I' for Inactive)
REMARK    1  A    between atoms: C_6  and  N_1 
REMARK    2  A    between atoms: N_7  and  C_4 
ROOT
ATOM      1  N   UNL d   1       0.052   0.875  -0.015  0.00  0.00    -0.250 N 
ATOM      2  C   UNL d   1      -1.073   0.125   0.266  0.00  0.00     0.265 C 
ATOM      3  C   UNL d   1       1.159   0.067  -0.167  0.00  0.00     0.233 C 
ATOM      4  C   UNL d   1      -0.744  -1.345   0.046  0.00  0.00     0.323 C 
ATOM      5  C   UNL d   1       0.773  -1.359   0.094  0.00  0.00     0.149 C 
ATOM      6  O   UNL d   1      -2.187   0.507   0.602  0.00  0.00    -0.270 OA
ATOM      7  O   UNL d   1       2.322   0.383  -0.382  0.00  0.00    -0.273 OA
ENDROOT
BRANCH   1   8
ATOM      8  C   UNL d   1       0.072   2.302  -0.093  0.00  0.00     0.045 A 
ATOM      9  C   UNL d   1      -0.925   3.090   0.503  0.00  0.00     0.037 A 
ATOM     10  C   UNL d   1      -0.916   4.497   0.439  0.00  0.00    -0.054 A 
ATOM     11  C   UNL d   1      -1.994   5.271   1.151  0.00  0.00     0.049 C 
ATOM     12  C   UNL d   1       0.105   5.147  -0.272  0.00  0.00    -0.056 A 
ATOM     13  C   UNL d   1       1.099   4.373  -0.880  0.00  0.00     0.009 A 
ATOM     14  C   UNL d   1       0.164   6.645  -0.375  0.00  0.00     0.049 C 
ATOM     15  C   UNL d   1       1.087   2.977  -0.784  0.00  0.00     0.031 A 
ENDBRANCH   1   8
BRANCH   4  16
ATOM     16  N   UNL d   1      -1.348  -1.926  -1.187  0.00  0.00     0.102 N 
ATOM     17  C   UNL d   1      -2.823  -1.856  -1.149  0.00  0.00     0.273 C 
ATOM     18  C   UNL d   1      -3.468  -2.588  -2.326  0.00  0.00     0.030 C 
ATOM     19  C   UNL d   1      -2.931  -2.068  -3.653  0.00  0.00     0.003 C 
ATOM     20  C   UNL d   1      -1.410  -2.134  -3.656  0.00  0.00     0.030 C 
ATOM     21  C   UNL d   1      -0.824  -1.391  -2.453  0.00  0.00     0.273 C 
ENDBRANCH   4  16
TORSDOF 2
