REMARK  2 active torsions:
REMARK  status: ('A' for Active; 'I' for Inactive)
REMARK    1  A    between atoms: C_14  and  C_5 
REMARK    2  A    between atoms: C_13  and  C_6 
ROOT
ATOM      1  N   UNL d   1      -1.225   1.374  -0.294  0.00  0.00    -0.343 N 
ATOM      2  HN  UNL d   1      -1.239   2.370  -0.517  1.00  0.00     0.167 HD
ATOM      3  N   UNL d   1      -1.159  -1.369   0.343  0.00  0.00    -0.343 N 
ATOM      4  HN  UNL d   1      -1.125  -2.363   0.565  1.00  0.00     0.167 HD
ATOM      5  C   UNL d   1      -2.383   0.657  -0.162  0.00  0.00     0.071 A 
ATOM      6  C   UNL d   1      -2.351  -0.709   0.214  0.00  0.00     0.071 A 
ATOM      7  C   UNL d   1      -0.052   0.705  -0.118  0.00  0.00     0.152 A 
ATOM      8  C   UNL d   1      -0.022  -0.647   0.164  0.00  0.00     0.152 A 
ATOM      9  C   UNL d   1       1.140   1.496  -0.210  0.00  0.00     0.120 C 
ATOM     10  C   UNL d   1       1.206  -1.387   0.259  0.00  0.00     0.120 C 
ATOM     11  N   UNL d   1       2.121   2.116  -0.254  0.00  0.00    -0.190 NA
ATOM     12  N   UNL d   1       2.204  -1.973   0.311  0.00  0.00    -0.190 NA
ENDROOT
BRANCH   5  13
ATOM     13  C   UNL d   1      -3.614   1.440  -0.430  0.00  0.00    -0.007 A 
ATOM     14  C   UNL d   1      -4.704   0.903  -1.142  0.00  0.00     0.014 A 
ATOM     15  C   UNL d   1      -5.935   1.563  -1.196  0.00  0.00     0.001 A 
ATOM     16  C   UNL d   1      -6.075   2.817  -0.614  0.00  0.00     0.000 A 
ATOM     17  C   UNL d   1      -4.978   3.425  -0.010  0.00  0.00     0.001 A 
ATOM     18  C   UNL d   1      -3.760   2.743   0.080  0.00  0.00     0.014 A 
ENDBRANCH   5  13
BRANCH   6  19
ATOM     19  C   UNL d   1      -3.538  -1.556   0.495  0.00  0.00    -0.007 A 
ATOM     20  C   UNL d   1      -3.587  -2.888   0.043  0.00  0.00     0.014 A 
ATOM     21  C   UNL d   1      -4.740  -3.665   0.188  0.00  0.00     0.001 A 
ATOM     22  C   UNL d   1      -5.876  -3.126   0.784  0.00  0.00     0.000 A 
ATOM     23  C   UNL d   1      -5.838  -1.832   1.291  0.00  0.00     0.001 A 
ATOM     24  C   UNL d   1      -4.668  -1.074   1.183  0.00  0.00     0.014 A 
ENDBRANCH   6  19
TORSDOF 2
