REMARK  4 active torsions:
REMARK  status: ('A' for Active; 'I' for Inactive)
REMARK    1  A    between atoms: C_2  and  S_1 
REMARK    2  A    between atoms: C_7  and  S_1 
REMARK    3  A    between atoms: N_8  and  C_3 
REMARK    4  A    between atoms: C_11  and  N_8 
ROOT
ATOM      1  C   UNL d   1       0.339   1.612  -0.123  0.00  0.00     0.159 C 
ATOM      2  C   UNL d   1      -0.318   2.034  -1.219  0.00  0.00     0.123 C 
ATOM      3  C   UNL d   1       0.784   0.277   0.018  0.00  0.00     0.113 C 
ATOM      4  N   UNL d   1       1.122  -0.827   0.111  0.00  0.00    -0.191 NA
ENDROOT
BRANCH   1   5
ATOM      5  S   UNL d   1       0.817   2.756   1.090  0.00  0.00     0.218 S 
ATOM      6  O   UNL d   1       0.321   4.077   0.740  0.00  0.00    -0.216 OA
ATOM      7  O   UNL d   1       2.225   2.583   1.396  0.00  0.00    -0.216 OA
BRANCH   5   8
ATOM      8  C   UNL d   1      -0.062   2.273   2.578  0.00  0.00     0.065 A 
ATOM      9  C   UNL d   1       0.225   1.048   3.193  0.00  0.00     0.025 A 
ATOM     10  C   UNL d   1      -0.384   0.721   4.409  0.00  0.00     0.025 A 
ATOM     11  C   UNL d   1      -1.248   1.627   5.022  0.00  0.00     0.034 A 
ATOM     12  C   UNL d   1      -1.526   2.854   4.420  0.00  0.00     0.025 A 
ATOM     13 CL   UNL d   1      -1.948   1.242   6.546  0.00  0.00    -0.084 Cl
ATOM     14  C   UNL d   1      -0.937   3.180   3.193  0.00  0.00     0.025 A 
ENDBRANCH   5   8
ENDBRANCH   1   5
BRANCH   2  15
ATOM     15  N   UNL d   1      -0.793   1.276  -2.266  0.00  0.00    -0.361 N 
ATOM     16  H   UNL d   1      -0.852   0.263  -2.140  0.00  0.00     0.165 HD
BRANCH  15  17
ATOM     17  C   UNL d   1      -1.253   1.707  -3.526  0.00  0.00     0.072 A 
ATOM     18  C   UNL d   1      -2.212   0.931  -4.200  0.00  0.00     0.164 A 
ATOM     19  C   UNL d   1      -2.736   1.328  -5.430  0.00  0.00     0.074 A 
ATOM     20  F   UNL d   1      -2.629  -0.212  -3.627  0.00  0.00    -0.202 F 
ATOM     21 CL   UNL d   1      -3.926   0.373  -6.226  0.00  0.00    -0.081 Cl
ATOM     22  C   UNL d   1      -2.298   2.512  -6.020  0.00  0.00     0.027 A 
ATOM     23  C   UNL d   1      -1.348   3.298  -5.367  0.00  0.00     0.004 A 
ATOM     24  C   UNL d   1      -0.843   2.908  -4.119  0.00  0.00     0.033 A 
ENDBRANCH  15  17
ENDBRANCH   2  15
TORSDOF 4
