REMARK  4 active torsions:
REMARK  status: ('A' for Active; 'I' for Inactive)
REMARK    1  A    between atoms: S_10  and  C_3 
REMARK    2  A    between atoms: C_4  and  C_14 
REMARK    3  A    between atoms: O_22  and  C_7 
REMARK    4  A    between atoms: C_14  and  S_10 
ROOT
ATOM      1  C   UNL d   1       3.556  -2.497   0.079  0.00  0.00     0.123 C 
ENDROOT
BRANCH   1   2
ATOM      2  C   UNL d   1       4.346  -3.802   0.098  0.00  0.00    -0.013 A 
ATOM      3  C   UNL d   1       5.755  -3.806   0.059  0.00  0.00     0.087 A 
ATOM      4  C   UNL d   1       6.477  -5.011   0.038  0.00  0.00     0.001 A 
ATOM      5  O   UNL d   1       6.400  -2.597   0.015  0.00  0.00    -0.325 OA
ATOM      6  C   UNL d   1       7.975  -4.991  -0.016  0.00  0.00     0.212 C 
ATOM      7  C   UNL d   1       5.796  -6.232   0.095  0.00  0.00     0.036 A 
ATOM      8  O   UNL d   1       8.440  -3.730  -0.477  0.00  0.00    -0.362 OA
ATOM      9  C   UNL d   1       7.805  -2.692   0.256  0.00  0.00     0.345 C 
ATOM     10  C   UNL d   1       4.408  -6.245   0.116  0.00  0.00     0.035 A 
ATOM     11  C   UNL d   1       3.689  -5.050   0.089  0.00  0.00     0.034 A 
ATOM     12 CL   UNL d   1       3.570  -7.747   0.175  0.00  0.00    -0.084 Cl
ENDBRANCH   1   2
BRANCH   1  13
ATOM     13  S   UNL d   1       2.061  -2.565   1.134  0.00  0.00    -0.089 SA
BRANCH  13  14
ATOM     14  C   UNL d   1       1.289  -1.004   0.812  0.00  0.00     0.146 A 
ATOM     15  N   UNL d   1       0.071  -0.853   1.363  0.00  0.00    -0.318 N 
ATOM     16  C   UNL d   1      -0.499   0.338   1.185  0.00  0.00     0.142 A 
ATOM     17  HN  UNL d   1      -0.386  -1.602   1.883  1.00  0.00     0.170 HD
ATOM     18  C   UNL d   1       0.048   1.385   0.503  0.00  0.00     0.073 A 
ATOM     19  C   UNL d   1       1.285   1.125  -0.028  0.00  0.00     0.094 A 
ATOM     20  N   UNL d   1       1.931  -0.059   0.109  0.00  0.00    -0.347 N 
ATOM     21  HN  UNL d   1       2.851  -0.222  -0.299  1.00  0.00     0.167 HD
BRANCH  16  22
ATOM     22  O   UNL d   1      -1.722   0.460   1.763  0.00  0.00    -0.346 OA
ATOM     23  H   UNL d   1      -1.822  -0.425   2.160  0.00  0.00     0.219 HD
ENDBRANCH  16  22
ENDBRANCH  13  14
ENDBRANCH   1  13
TORSDOF 4
