REMARK  3 active torsions:
REMARK  status: ('A' for Active; 'I' for Inactive)
REMARK    1  A    between atoms: C_6  and  N_1 
REMARK    2  A    between atoms: C_14  and  N_7 
REMARK    3  A    between atoms: C_17  and  C_14 
ROOT
ATOM      1  C   UNL d   1       3.306  -0.063  -0.027  0.00  0.00     0.099 C 
ATOM      2  N   UNL d   1       4.239   2.733  -0.214  0.00  0.00     0.092 N 
ATOM      3  C   UNL d   1       4.072   0.619   1.119  0.00  0.00     0.056 C 
ATOM      4  C   UNL d   1       3.937   0.498  -1.312  0.00  0.00     0.056 C 
ATOM      5  C   UNL d   1       3.869   2.132   1.073  0.00  0.00     0.275 C 
ATOM      6  C   UNL d   1       3.742   2.010  -1.393  0.00  0.00     0.275 C 
ENDROOT
BRANCH   1   7
ATOM      7  N   UNL d   1       1.829   0.073   0.052  0.00  0.00    -0.275 N 
ATOM      8  C   UNL d   1       1.108   0.010   1.222  0.00  0.00     0.262 C 
ATOM      9  C   UNL d   1      -0.309   0.000   0.872  0.00  0.00     0.048 A 
ATOM     10  O   UNL d   1       1.484  -0.080   2.377  0.00  0.00    -0.267 OA
ATOM     11  C   UNL d   1      -1.437  -0.013   1.673  0.00  0.00     0.018 A 
ATOM     12  C   UNL d   1      -0.390  -0.057  -0.501  0.00  0.00     0.048 A 
ATOM     13  C   UNL d   1      -2.676  -0.086   1.033  0.00  0.00     0.001 A 
ATOM     14  C   UNL d   1      -2.760  -0.147  -0.372  0.00  0.00     0.001 A 
ATOM     15  C   UNL d   1      -1.603  -0.135  -1.158  0.00  0.00     0.018 A 
ATOM     16  C   UNL d   1       0.976  -0.081  -1.019  0.00  0.00     0.262 C 
ATOM     17  O   UNL d   1       1.215  -0.266  -2.196  0.00  0.00    -0.267 OA
ENDBRANCH   1   7
BRANCH   2  18
ATOM     18  C   UNL d   1       3.909   4.180  -0.268  0.00  0.00     0.311 C 
BRANCH  18  19
ATOM     19  C   UNL d   1       2.424   4.508  -0.246  0.00  0.00    -0.030 A 
ATOM     20  C   UNL d   1       1.736   4.638   0.969  0.00  0.00     0.009 A 
ATOM     21  C   UNL d   1       0.344   4.739   0.991  0.00  0.00     0.001 A 
ATOM     22  C   UNL d   1      -0.374   4.742  -0.202  0.00  0.00     0.000 A 
ATOM     23  C   UNL d   1       0.300   4.681  -1.419  0.00  0.00     0.001 A 
ATOM     24  C   UNL d   1       1.692   4.579  -1.442  0.00  0.00     0.009 A 
ENDBRANCH  18  19
ENDBRANCH   2  18
TORSDOF 3
