REMARK  3 active torsions:
REMARK  status: ('A' for Active; 'I' for Inactive)
REMARK    1  A    between atoms: C_8  and  C_1 
REMARK       I    between atoms: C_4  and  N_6 
REMARK    2  A    between atoms: C_10  and  C_4 
REMARK    3  A    between atoms: N_6  and  C_8 
ROOT
ATOM      1  C   UNL d   1      -0.523  -5.097  -0.432  0.00  0.00     0.251 C 
ATOM      2  N   UNL d   1      -0.312  -3.843   0.101  0.00  0.00    -0.353 N 
ATOM      3  O   UNL d   1       0.360  -5.772  -0.949  0.00  0.00    -0.268 OA
ATOM      4  H   UNL d   1      -1.000  -3.450   0.727  0.00  0.00     0.163 HD
ENDROOT
BRANCH   2   5
ATOM      5  C   UNL d   1       0.997  -3.237   0.089  0.00  0.00     0.162 C 
BRANCH   5   6
ATOM      6  C   UNL d   1       0.840  -1.752  -0.055  0.00  0.00    -0.022 A 
ATOM      7  C   UNL d   1       0.750  -1.126  -1.284  0.00  0.00     0.060 A 
ATOM      8  S   UNL d   1       0.669   0.567  -1.169  0.00  0.00    -0.101 SA
ATOM      9  C   UNL d   1       0.737   0.526   0.549  0.00  0.00     0.015 A 
ATOM     10  C   UNL d   1       0.793  -0.788   1.030  0.00  0.00    -0.011 A 
ATOM     11  C   UNL d   1       0.742   1.638   1.413  0.00  0.00     0.019 A 
ATOM     12  C   UNL d   1       0.818  -0.965   2.439  0.00  0.00     0.013 A 
ATOM     13  C   UNL d   1       0.809   0.139   3.301  0.00  0.00     0.001 A 
ATOM     14  C   UNL d   1       0.782   1.427   2.791  0.00  0.00     0.001 A 
ENDBRANCH   5   6
ENDBRANCH   2   5
BRANCH   1  15
ATOM     15  C   UNL d   1      -1.914  -5.628  -0.324  0.00  0.00     0.032 A 
ATOM     16  C   UNL d   1      -3.024  -4.775  -0.281  0.00  0.00     0.017 A 
ATOM     17  C   UNL d   1      -4.313  -5.305  -0.187  0.00  0.00     0.001 A 
ATOM     18  C   UNL d   1      -4.499  -6.686  -0.142  0.00  0.00     0.000 A 
ATOM     19  C   UNL d   1      -3.398  -7.542  -0.205  0.00  0.00     0.001 A 
ATOM     20  C   UNL d   1      -2.108  -7.015  -0.300  0.00  0.00     0.017 A 
ENDBRANCH   1  15
TORSDOF 3
