REMARK  6 active torsions:
REMARK  status: ('A' for Active; 'I' for Inactive)
REMARK    1  A    between atoms: C_4  and  S_1 
REMARK    2  A    between atoms: C_9  and  S_1 
REMARK    3  A    between atoms: C_2  and  C_3 
REMARK       I    between atoms: C_3  and  N_11 
REMARK    4  A    between atoms: C_12  and  C_4 
REMARK    5  A    between atoms: C_13  and  C_9 
REMARK    6  A    between atoms: N_11  and  C_12 
ROOT
ATOM      1  C   UNL d   1       0.812   1.752  -1.982  0.00  0.00     0.138 C 
ENDROOT
BRANCH   1   2
ATOM      2  N   UNL d   1       0.395   2.069  -3.337  0.00  0.00    -0.356 N 
ATOM      3  C   UNL d   1      -0.759   2.785  -3.591  0.00  0.00     0.256 C 
ATOM      4  O   UNL d   1      -1.532   3.091  -2.693  0.00  0.00    -0.268 OA
ATOM      5  H   UNL d   1       1.054   1.897  -4.091  0.00  0.00     0.162 HD
BRANCH   3   6
ATOM      6  C   UNL d   1      -1.001   3.194  -5.005  0.00  0.00     0.092 A 
ATOM      7  C   UNL d   1       0.089   3.499  -5.832  0.00  0.00     0.133 A 
ATOM      8  F   UNL d   1       1.348   3.376  -5.384  0.00  0.00    -0.205 F 
ATOM      9  C   UNL d   1      -0.085   3.939  -7.144  0.00  0.00     0.043 A 
ATOM     10  C   UNL d   1      -1.367   4.085  -7.658  0.00  0.00     0.005 A 
ATOM     11  C   UNL d   1      -2.467   3.779  -6.857  0.00  0.00     0.025 A 
ATOM     12  C   UNL d   1      -2.291   3.334  -5.536  0.00  0.00     0.052 A 
ATOM     13 CL   UNL d   1      -3.732   2.925  -4.672  0.00  0.00    -0.083 Cl
ENDBRANCH   3   6
ENDBRANCH   1   2
BRANCH   1  14
ATOM     14  C   UNL d   1       0.255   0.426  -1.503  0.00  0.00     0.160 C 
BRANCH  14  15
ATOM     15  S   UNL d   1       0.847   0.004   0.124  0.00  0.00     0.150 S 
ATOM     16  O   UNL d   1       2.293   0.119   0.091  0.00  0.00    -0.228 OA
ATOM     17  O   UNL d   1       0.215  -1.255   0.477  0.00  0.00    -0.228 OA
BRANCH  15  18
ATOM     18  C   UNL d   1       0.183   1.294   1.185  0.00  0.00     0.178 C 
BRANCH  18  19
ATOM     19  C   UNL d   1       0.608   1.036   2.610  0.00  0.00    -0.044 A 
ATOM     20  C   UNL d   1       1.817   1.560   3.099  0.00  0.00     0.011 A 
ATOM     21  C   UNL d   1       2.216   1.313   4.414  0.00  0.00     0.043 A 
ATOM     22  C   UNL d   1       1.408   0.543   5.241  0.00  0.00     0.116 A 
ATOM     23  C   UNL d   1       0.210   0.015   4.779  0.00  0.00     0.043 A 
ATOM     24  F   UNL d   1       1.793   0.304   6.502  0.00  0.00    -0.206 F 
ATOM     25  C   UNL d   1      -0.191   0.260   3.463  0.00  0.00     0.011 A 
ENDBRANCH  18  19
ENDBRANCH  15  18
ENDBRANCH  14  15
ENDBRANCH   1  14
TORSDOF 6
