REMARK  4 active torsions:
REMARK  status: ('A' for Active; 'I' for Inactive)
REMARK    1  A    between atoms: C_7  and  C_1 
REMARK    2  A    between atoms: C_8  and  C_1 
REMARK    3  A    between atoms: N_6  and  C_2 
REMARK    4  A    between atoms: C_9  and  N_6 
ROOT
ATOM      1  C   UNL d   1       0.687   3.959  -2.790  0.00  0.00     0.109 A 
ATOM      2  C   UNL d   1       1.964   4.409  -2.318  0.00  0.00     0.105 C 
ATOM      3  N   UNL d   1       2.998   4.759  -1.928  0.00  0.00    -0.191 NA
ATOM      4  C   UNL d   1       0.191   2.675  -2.482  0.00  0.00     0.056 A 
ATOM      5  C   UNL d   1      -0.088   4.842  -3.550  0.00  0.00     0.139 A 
ATOM      6  F   UNL d   1       0.367   6.071  -3.836  0.00  0.00    -0.204 F 
ATOM      7  C   UNL d   1      -1.850   3.224  -3.728  0.00  0.00     0.005 A 
ATOM      8  C   UNL d   1      -1.088   2.334  -2.967  0.00  0.00     0.031 A 
ATOM      9  C   UNL d   1      -1.350   4.486  -4.015  0.00  0.00     0.044 A 
ENDROOT
BRANCH   4  10
ATOM     10  N   UNL d   1       0.896   1.806  -1.621  0.00  0.00    -0.364 N 
ATOM     11  H   UNL d   1       1.923   1.874  -1.621  0.00  0.00     0.165 HD
BRANCH  10  12
ATOM     12  C   UNL d   1       0.392   0.774  -0.857  0.00  0.00     0.107 C 
ATOM     13  C   UNL d   1       1.045  -0.117  -0.085  0.00  0.00     0.070 C 
BRANCH  13  14
ATOM     14  C   UNL d   1       0.266  -1.146   0.673  0.00  0.00     0.160 C 
ATOM     15  O   UNL d   1       0.806  -2.207   0.995  0.00  0.00    -0.293 OA
ATOM     16  C   UNL d   1      -1.184  -0.913   1.044  0.00  0.00     0.097 C 
ENDBRANCH  13  14
BRANCH  13  17
ATOM     17  C   UNL d   1       2.546  -0.064  -0.058  0.00  0.00     0.160 C 
ATOM     18  O   UNL d   1       3.164   0.548  -0.936  0.00  0.00    -0.293 OA
ATOM     19  C   UNL d   1       3.311  -0.714   1.067  0.00  0.00     0.097 C 
ENDBRANCH  13  17
ENDBRANCH  10  12
ENDBRANCH   4  10
TORSDOF 4
