REMARK  3 active torsions:
REMARK  status: ('A' for Active; 'I' for Inactive)
REMARK       I    between atoms: N_3  and  C_1 
REMARK    1  A    between atoms: O_10  and  C_1 
REMARK    2  A    between atoms: C_2  and  N_3 
REMARK    3  A    between atoms: C_13  and  O_10 
ROOT
ATOM      1  C   UNL d   1       0.873   1.462   2.096  0.00  0.00     0.040 A 
ATOM      2  C   UNL d   1       2.172   1.963   2.198  0.00  0.00     0.053 A 
ATOM      3  C   UNL d   1      -0.024   1.713   3.145  0.00  0.00     0.053 A 
ATOM      4  C   UNL d   1       0.385   2.419   4.279  0.00  0.00     0.037 A 
ATOM      5  C   UNL d   1       2.571   2.670   3.338  0.00  0.00     0.037 A 
ATOM      6  C   UNL d   1       1.686   2.896   4.386  0.00  0.00     0.048 A 
ATOM      7 CL   UNL d   1       4.185   3.259   3.450  0.00  0.00    -0.084 Cl
ATOM      8 CL   UNL d   1      -0.729   2.688   5.563  0.00  0.00    -0.084 Cl
ENDROOT
BRANCH   1   9
ATOM      9  N   UNL d   1       0.384   0.694   1.021  0.00  0.00    -0.303 N 
ATOM     10  C   UNL d   1       0.998   0.167  -0.086  0.00  0.00     0.365 C 
ATOM     11  O   UNL d   1       0.369  -0.560  -0.849  0.00  0.00    -0.238 OA
ATOM     12  H   UNL d   1      -0.581   0.392   1.069  0.00  0.00     0.171 HD
BRANCH  10  13
ATOM     13  O   UNL d   1       2.303   0.489  -0.238  0.00  0.00    -0.304 OA
BRANCH  13  14
ATOM     14  C   UNL d   1       3.003  -0.153  -1.313  0.00  0.00     0.176 C 
ATOM     15  C   UNL d   1       2.748   0.549  -2.633  0.00  0.00     0.034 C 
ENDBRANCH  13  14
ENDBRANCH  10  13
ENDBRANCH   1   9
TORSDOF 3
