REMARK  6 active torsions:
REMARK  status: ('A' for Active; 'I' for Inactive)
REMARK    1  A    between atoms: N_2  and  C_1 
REMARK       I    between atoms: C_4  and  N_2 
REMARK    2  A    between atoms: C_11  and  C_4 
REMARK    3  A    between atoms: C_5  and  C_12 
REMARK    4  A    between atoms: O_10  and  C_5 
REMARK    5  A    between atoms: S_9  and  C_11 
REMARK    6  A    between atoms: C_12  and  S_9 
ROOT
ATOM      1  N   UNL d   1      -0.897  -2.955  -0.094  0.00  0.00    -0.326 N 
ATOM      2  C   UNL d   1      -1.636  -3.789  -0.916  0.00  0.00     0.231 C 
ATOM      3  O   UNL d   1      -2.473  -3.430  -1.748  0.00  0.00    -0.272 OA
ATOM      4  H   UNL d   1      -0.053  -3.335   0.316  0.00  0.00     0.169 HD
ENDROOT
BRANCH   1   5
ATOM      5  C   UNL d   1      -1.027  -1.549  -0.085  0.00  0.00     0.041 A 
ATOM      6  C   UNL d   1       0.126  -0.734  -0.036  0.00  0.00    -0.025 A 
ATOM      7  C   UNL d   1      -0.028   0.671  -0.015  0.00  0.00    -0.050 A 
ATOM      8  C   UNL d   1       1.512  -1.344  -0.024  0.00  0.00     0.041 C 
ATOM      9  C   UNL d   1       1.156   1.607  -0.072  0.00  0.00     0.039 C 
ATOM     10  C   UNL d   1      -1.314   1.233  -0.029  0.00  0.00     0.008 A 
ATOM     11  C   UNL d   1       2.466   0.942   0.333  0.00  0.00     0.005 C 
ATOM     12  C   UNL d   1       2.626  -0.373  -0.413  0.00  0.00     0.005 C 
ATOM     13  C   UNL d   1      -2.442   0.420  -0.055  0.00  0.00     0.003 A 
ATOM     14  C   UNL d   1      -2.299  -0.965  -0.094  0.00  0.00     0.030 A 
ENDBRANCH   1   5
BRANCH   2  15
ATOM     15  C   UNL d   1      -1.342  -5.268  -0.734  0.00  0.00     0.177 C 
BRANCH  15  16
ATOM     16  S   UNL d   1      -2.632  -6.046   0.291  0.00  0.00    -0.149 SA
BRANCH  16  17
ATOM     17  C   UNL d   1      -4.137  -5.665  -0.675  0.00  0.00     0.184 C 
BRANCH  17  18
ATOM     18  C   UNL d   1      -4.107  -6.269  -2.061  0.00  0.00     0.149 C 
ATOM     19  O   UNL d   1      -4.447  -7.423  -2.310  0.00  0.00    -0.649 OA
BRANCH  18  20
ATOM     20  O   UNL d   1      -3.645  -5.439  -3.021  0.00  0.00    -0.776 OA
ATOM     21  H   UNL d   1      -3.376  -4.539  -2.700  0.00  0.00     0.167 HD
ENDBRANCH  18  20
ENDBRANCH  17  18
ENDBRANCH  16  17
ENDBRANCH  15  16
ENDBRANCH   2  15
TORSDOF 6
