REMARK  3 active torsions:
REMARK  status: ('A' for Active; 'I' for Inactive)
REMARK    1  A    between atoms: C_9  and  N_2 
REMARK    2  A    between atoms: C_12  and  C_9 
REMARK    3  A    between atoms: O_11  and  C_12 
ROOT
ATOM      1  C   UNL d   1       1.239  -1.414   0.062  0.00  0.00     0.273 A 
ATOM      2  N   UNL d   1       2.379  -0.617  -0.038  0.00  0.00    -0.255 N 
ATOM      3  N   UNL d   1       2.366   0.762  -0.022  0.00  0.00    -0.306 N 
ATOM      4  HN  UNL d   1       3.235   1.294  -0.047  1.00  0.00     0.186 HD
ATOM      5  C   UNL d   1      -0.056  -0.710   0.053  0.00  0.00     0.045 A 
ATOM      6  C   UNL d   1       1.219   1.364   0.025  0.00  0.00     0.119 A 
ATOM      7  C   UNL d   1      -0.066   0.676   0.032  0.00  0.00    -0.004 A 
ATOM      8  O   UNL d   1       1.252  -2.639   0.122  0.00  0.00    -0.266 OA
ATOM      9  C   UNL d   1      -1.263  -1.415   0.035  0.00  0.00     0.018 A 
ATOM     10  C   UNL d   1      -1.267   1.386  -0.009  0.00  0.00     0.014 A 
ATOM     11  C   UNL d   1      -2.471  -0.716  -0.015  0.00  0.00     0.001 A 
ATOM     12  C   UNL d   1      -2.472   0.682  -0.037  0.00  0.00     0.001 A 
ENDROOT
BRANCH   2  13
ATOM     13  C   UNL d   1       3.695  -1.250  -0.102  0.00  0.00     0.178 C 
BRANCH  13  14
ATOM     14  C   UNL d   1       3.899  -2.064  -1.380  0.00  0.00     0.186 C 
BRANCH  14  15
ATOM     15  O   UNL d   1       5.224  -2.589  -1.428  0.00  0.00    -0.399 OA
ATOM     16  H   UNL d   1       5.260  -3.180  -2.200  0.00  0.00     0.209 HD
ENDBRANCH  14  15
ENDBRANCH  13  14
ENDBRANCH   2  13
TORSDOF 3
