REMARK  2 active torsions:
REMARK  status: ('A' for Active; 'I' for Inactive)
REMARK       I    between atoms: C_2  and  N_1 
REMARK       I    between atoms: N_5  and  C_2 
REMARK    1  A    between atoms: C_4  and  C_6 
REMARK    2  A    between atoms: C_9  and  N_5 
ROOT
ATOM      1  N   UNL d   1      -0.769  -0.500  -1.070  0.00  0.00    -0.299 N 
ATOM      2  C   UNL d   1      -0.067  -0.741  -2.223  0.00  0.00     0.325 C 
ATOM      3  C   UNL d   1      -0.149   0.008   0.164  0.00  0.00     0.140 C 
ATOM      4  N   UNL d   1      -0.788  -1.203  -3.301  0.00  0.00    -0.309 N 
ATOM      5  O   UNL d   1      -1.281   0.252   1.062  0.00  0.00    -0.359 OA
ATOM      6  O   UNL d   1       1.135  -0.515  -2.286  0.00  0.00    -0.247 OA
ATOM      7  C   UNL d   1      -2.151  -0.818  -0.801  0.00  0.00     0.157 C 
ATOM      8  C   UNL d   1      -2.489   0.136   0.308  0.00  0.00     0.191 C 
ATOM      9  C   UNL d   1       0.701  -1.032   0.915  0.00  0.00     0.061 C 
ATOM     10  C   UNL d   1       0.585   1.361   0.034  0.00  0.00     0.061 C 
ATOM     11  C   UNL d   1       2.138  -1.153   0.436  0.00  0.00     0.005 C 
ATOM     12  C   UNL d   1       2.077   1.303  -0.305  0.00  0.00     0.005 C 
ATOM     13  C   UNL d   1       2.845   0.197   0.414  0.00  0.00     0.000 C 
ATOM     14  H   UNL d   1      -1.790  -1.210  -3.221  0.00  0.00     0.170 HD
ENDROOT
BRANCH   4  15
ATOM     15  C   UNL d   1      -0.276  -1.400  -4.609  0.00  0.00     0.037 A 
ATOM     16  C   UNL d   1       1.092  -1.431  -4.908  0.00  0.00     0.045 A 
ATOM     17  C   UNL d   1       1.552  -1.510  -6.232  0.00  0.00     0.050 A 
ATOM     18  C   UNL d   1       0.614  -1.598  -7.267  0.00  0.00     0.016 A 
ATOM     19  C   UNL d   1      -0.751  -1.624  -6.978  0.00  0.00     0.003 A 
ATOM     20  C   UNL d   1      -1.191  -1.528  -5.655  0.00  0.00     0.029 A 
BRANCH  17  21
ATOM     21  C   UNL d   1       3.029  -1.456  -6.535  0.00  0.00     0.417 C 
ATOM     22  F   UNL d   1       3.827  -1.492  -5.432  0.00  0.00    -0.166 F 
ATOM     23  F   UNL d   1       3.438  -2.490  -7.321  0.00  0.00    -0.166 F 
ATOM     24  F   UNL d   1       3.376  -0.321  -7.207  0.00  0.00    -0.166 F 
ENDBRANCH  17  21
ENDBRANCH   4  15
TORSDOF 2
