REMARK  5 active torsions:
REMARK  status: ('A' for Active; 'I' for Inactive)
REMARK    1  A    between atoms: C_10  and  N_3 
REMARK    2  A    between atoms: C_7  and  C_4 
REMARK    3  A    between atoms: C_12  and  C_5 
REMARK    4  A    between atoms: O_15  and  C_9 
REMARK    5  A    between atoms: O_16  and  C_11 
ROOT
ATOM      1  N   UNL d   1       1.142  -0.185   0.072  0.00  0.00    -0.301 N 
ATOM      2  HN  UNL d   1       2.139  -0.375   0.181  1.00  0.00     0.187 HD
ATOM      3  N   UNL d   1       0.142  -1.109   0.017  0.00  0.00    -0.283 N 
ATOM      4  C   UNL d   1      -1.199  -0.526  -0.071  0.00  0.00     0.147 A 
ATOM      5  C   UNL d   1       0.586   0.983  -0.043  0.00  0.00     0.038 A 
ATOM      6  C   UNL d   1      -0.916   0.975  -0.130  0.00  0.00     0.091 A 
ENDROOT
BRANCH   4   7
ATOM      7  C   UNL d   1      -2.067  -0.861   1.133  0.00  0.00    -0.030 A 
ATOM      8  C   UNL d   1      -1.501  -1.017   2.413  0.00  0.00     0.049 A 
ATOM      9  C   UNL d   1      -2.275  -1.296   3.547  0.00  0.00     0.102 A 
ATOM     10  C   UNL d   1      -3.666  -1.419   3.396  0.00  0.00     0.101 A 
ATOM     11  C   UNL d   1      -4.235  -1.255   2.122  0.00  0.00     0.040 A 
ATOM     12  C   UNL d   1      -3.451  -0.975   1.001  0.00  0.00     0.012 A 
BRANCH   9  13
ATOM     13  O   UNL d   1      -1.725  -1.441   4.793  0.00  0.00    -0.353 OA
ATOM     14  C   UNL d   1      -0.310  -1.351   4.915  0.00  0.00     0.210 C 
ENDBRANCH   9  13
BRANCH  10  15
ATOM     15  O   UNL d   1      -4.612  -1.688   4.351  0.00  0.00    -0.353 OA
ATOM     16  C   UNL d   1      -4.190  -1.871   5.694  0.00  0.00     0.210 C 
ENDBRANCH  10  15
ENDBRANCH   4   7
BRANCH   3  17
ATOM     17  C   UNL d   1       0.419  -2.475   0.035  0.00  0.00     0.051 A 
ATOM     18  C   UNL d   1       1.593  -2.961   0.630  0.00  0.00     0.031 A 
ATOM     19  C   UNL d   1       1.867  -4.332   0.691  0.00  0.00     0.002 A 
ATOM     20  C   UNL d   1       0.985  -5.246   0.124  0.00  0.00     0.000 A 
ATOM     21  C   UNL d   1      -0.177  -4.787  -0.490  0.00  0.00     0.002 A 
ATOM     22  C   UNL d   1      -0.458  -3.417  -0.522  0.00  0.00     0.031 A 
ENDBRANCH   3  17
BRANCH   5  23
ATOM     23  C   UNL d   1       1.352   2.248  -0.112  0.00  0.00    -0.012 A 
ATOM     24  C   UNL d   1       2.751   2.205  -0.047  0.00  0.00     0.013 A 
ATOM     25  C   UNL d   1       3.496   3.381  -0.159  0.00  0.00     0.001 A 
ATOM     26  C   UNL d   1       2.848   4.602  -0.338  0.00  0.00     0.000 A 
ATOM     27  C   UNL d   1       1.457   4.652  -0.397  0.00  0.00     0.001 A 
ATOM     28  C   UNL d   1       0.708   3.479  -0.282  0.00  0.00     0.013 A 
ENDBRANCH   5  23
TORSDOF 5
