REMARK  1 active torsions:
REMARK  status: ('A' for Active; 'I' for Inactive)
REMARK    1  A    between atoms: O_13  and  C_10 
ROOT
ATOM      1  C   UNL d   1       0.184  -0.606  -0.000  0.00  0.00     0.136 A 
ATOM      2  C   UNL d   1       0.212   0.791   0.002  0.00  0.00     0.039 A 
ATOM      3  N   UNL d   1       1.487  -1.015  -0.004  0.00  0.00    -0.280 N 
ATOM      4  N   UNL d   1       2.374  -0.003  -0.007  0.00  0.00    -0.301 N 
ATOM      5  HN  UNL d   1       3.392  -0.062  -0.010  1.00  0.00     0.187 HD
ATOM      6  C   UNL d   1       1.610   1.100  -0.004  0.00  0.00     0.036 A 
ATOM      7  N   UNL d   1      -0.900  -1.413   0.002  0.00  0.00    -0.321 N 
ATOM      8  HN  UNL d   1      -0.850  -2.431   0.001  1.00  0.00     0.169 HD
ATOM      9  C   UNL d   1      -1.036   1.467   0.008  0.00  0.00    -0.042 A 
ATOM     10  C   UNL d   1      -2.046  -0.721   0.006  0.00  0.00     0.141 A 
ATOM     11  C   UNL d   1      -2.184   0.652   0.009  0.00  0.00     0.063 A 
ATOM     12  C   UNL d   1       1.973  -2.371  -0.005  0.00  0.00     0.179 C 
ATOM     13  C   UNL d   1       2.315   2.407  -0.007  0.00  0.00     0.070 C 
ATOM     14  C   UNL d   1      -1.255   2.953   0.013  0.00  0.00     0.049 C 
ENDROOT
BRANCH  10  15
ATOM     15  O   UNL d   1      -3.159  -1.502   0.007  0.00  0.00    -0.346 OA
ATOM     16  H   UNL d   1      -2.746  -2.385   0.004  0.00  0.00     0.219 HD
ENDBRANCH  10  15
TORSDOF 1
