REMARK  3 active torsions:
REMARK  status: ('A' for Active; 'I' for Inactive)
REMARK       I    between atoms: N_3  and  C_1 
REMARK    1  A    between atoms: C_5  and  C_1 
REMARK    2  A    between atoms: C_2  and  N_3 
REMARK    3  A    between atoms: C_4  and  C_5 
ROOT
ATOM      1  C   UNL d   1       1.212   0.033  -0.165  0.00  0.00     0.226 C 
ATOM      2  N   UNL d   1       0.700   0.635   0.973  0.00  0.00    -0.327 N 
ATOM      3  O   UNL d   1       2.358   0.151  -0.594  0.00  0.00    -0.273 OA
ATOM      4  H   UNL d   1      -0.264   0.423   1.206  0.00  0.00     0.169 HD
ENDROOT
BRANCH   1   5
ATOM      5  C   UNL d   1       0.217  -0.867  -0.876  0.00  0.00     0.143 C 
BRANCH   5   6
ATOM      6  C   UNL d   1      -0.409  -0.209  -2.081  0.00  0.00    -0.028 A 
ATOM      7  C   UNL d   1      -1.652   0.440  -2.038  0.00  0.00     0.040 A 
ATOM      8 CL   UNL d   1      -2.551   0.583  -0.569  0.00  0.00    -0.084 Cl
ATOM      9  C   UNL d   1      -2.202   0.999  -3.195  0.00  0.00     0.024 A 
ATOM     10  C   UNL d   1      -1.509   0.938  -4.404  0.00  0.00     0.002 A 
ATOM     11  C   UNL d   1      -0.257   0.331  -4.454  0.00  0.00     0.001 A 
ATOM     12  C   UNL d   1       0.290  -0.234  -3.302  0.00  0.00     0.009 A 
ENDBRANCH   5   6
ENDBRANCH   1   5
BRANCH   2  13
ATOM     13  C   UNL d   1       1.400   1.460   1.882  0.00  0.00     0.037 A 
ATOM     14  C   UNL d   1       2.690   1.949   1.656  0.00  0.00     0.053 A 
ATOM     15  C   UNL d   1       3.327   2.729   2.624  0.00  0.00     0.037 A 
ATOM     16 CL   UNL d   1       4.918   3.323   2.329  0.00  0.00    -0.084 Cl
ATOM     17  C   UNL d   1       2.699   3.029   3.826  0.00  0.00     0.048 A 
ATOM     18  C   UNL d   1       1.410   2.556   4.047  0.00  0.00     0.037 A 
ATOM     19  C   UNL d   1       0.755   1.787   3.081  0.00  0.00     0.053 A 
ATOM     20 CL   UNL d   1       0.617   2.909   5.534  0.00  0.00    -0.084 Cl
ENDBRANCH   2  13
TORSDOF 3
