REMARK  6 active torsions:
REMARK  status: ('A' for Active; 'I' for Inactive)
REMARK    1  A    between atoms: C_4  and  C_1 
REMARK    2  A    between atoms: O_6  and  C_2 
REMARK       I    between atoms: C_3  and  N_5 
REMARK    3  A    between atoms: C_7  and  C_3 
REMARK    4  A    between atoms: N_5  and  C_4 
REMARK    5  A    between atoms: C_12  and  O_6 
REMARK    6  A    between atoms: O_18  and  C_14 
ROOT
ATOM      1  C   UNL d   1       0.108   0.980  -0.112  0.00  0.00     0.015 A 
ATOM      2  C   UNL d   1      -0.161  -0.043   0.816  0.00  0.00     0.085 A 
ATOM      3  C   UNL d   1       1.166   0.778  -1.020  0.00  0.00     0.044 A 
ATOM      4 CL   UNL d   1       1.552   1.913  -2.270  0.00  0.00    -0.084 Cl
ATOM      5  C   UNL d   1       0.713  -1.144   0.931  0.00  0.00     0.038 A 
ATOM      6  C   UNL d   1       1.774  -1.303   0.050  0.00  0.00     0.004 A 
ATOM      7  C   UNL d   1       1.982  -0.357  -0.945  0.00  0.00     0.024 A 
ENDROOT
BRANCH   1   8
ATOM      8  C   UNL d   1      -0.610   2.306  -0.036  0.00  0.00     0.166 C 
BRANCH   8   9
ATOM      9  N   UNL d   1      -1.988   2.314  -0.477  0.00  0.00    -0.352 N 
ATOM     10  C   UNL d   1      -2.706   3.359  -1.024  0.00  0.00     0.251 C 
ATOM     11  O   UNL d   1      -3.902   3.207  -1.270  0.00  0.00    -0.268 OA
ATOM     12  H   UNL d   1      -2.570   1.533  -0.203  0.00  0.00     0.163 HD
BRANCH  10  13
ATOM     13  C   UNL d   1      -2.051   4.652  -1.380  0.00  0.00     0.032 A 
ATOM     14  C   UNL d   1      -2.386   5.253  -2.602  0.00  0.00     0.020 A 
ATOM     15  C   UNL d   1      -1.750   6.431  -3.019  0.00  0.00     0.038 A 
ATOM     16  C   UNL d   1      -0.768   7.015  -2.218  0.00  0.00     0.068 A 
ATOM     17  C   UNL d   1      -0.488   6.460  -0.968  0.00  0.00     0.038 A 
ATOM     18  C   UNL d   1      -1.143   5.301  -0.539  0.00  0.00     0.020 A 
BRANCH  16  19
ATOM     19  O   UNL d   1      -0.055   8.140  -2.522  0.00  0.00    -0.356 OA
ATOM     20  C   UNL d   1       0.095   8.430  -3.907  0.00  0.00     0.210 C 
ENDBRANCH  16  19
ENDBRANCH  10  13
ENDBRANCH   8   9
ENDBRANCH   1   8
BRANCH   2  21
ATOM     21  O   UNL d   1      -1.266   0.079   1.639  0.00  0.00    -0.310 OA
BRANCH  21  22
ATOM     22  C   UNL d   1      -1.910  -1.089   2.008  0.00  0.00     0.076 A 
ATOM     23  C   UNL d   1      -2.231  -1.252   3.356  0.00  0.00     0.037 A 
ATOM     24  C   UNL d   1      -2.789  -2.455   3.795  0.00  0.00     0.003 A 
ATOM     25  C   UNL d   1      -3.034  -3.487   2.888  0.00  0.00     0.000 A 
ATOM     26  C   UNL d   1      -2.760  -3.306   1.533  0.00  0.00     0.003 A 
ATOM     27  C   UNL d   1      -2.222  -2.098   1.088  0.00  0.00     0.037 A 
ENDBRANCH  21  22
ENDBRANCH   2  21
TORSDOF 6
