REMARK  3 active torsions:
REMARK  status: ('A' for Active; 'I' for Inactive)
REMARK    1  A    between atoms: C_2  and  C_1 
REMARK    2  A    between atoms: C_3  and  C_1 
REMARK    3  A    between atoms: O_4  and  C_1 
ROOT
ATOM      1  C   UNL d   1       0.982  -0.028  -0.274  0.00  0.00     0.155 C 
ENDROOT
BRANCH   1   2
ATOM      2  C   UNL d   1       2.467  -0.192  -0.551  0.00  0.00    -0.029 A 
ATOM      3  C   UNL d   1       2.922  -1.299  -1.285  0.00  0.00     0.010 A 
ATOM      4  C   UNL d   1       4.272  -1.435  -1.619  0.00  0.00     0.001 A 
ATOM      5  C   UNL d   1       5.190  -0.465  -1.225  0.00  0.00     0.000 A 
ATOM      6  C   UNL d   1       4.761   0.630  -0.480  0.00  0.00     0.001 A 
ATOM      7  C   UNL d   1       3.413   0.761  -0.136  0.00  0.00     0.010 A 
ENDBRANCH   1   2
BRANCH   1   8
ATOM      8  C   UNL d   1       0.500  -0.555   1.107  0.00  0.00     0.019 C 
ATOM      9  C   UNL d   1       0.621  -2.083   1.265  0.00  0.00     0.007 C 
ATOM     10  C   UNL d   1      -0.380  -2.856   0.404  0.00  0.00     0.000 C 
ATOM     11  C   UNL d   1      -1.817  -2.392   0.631  0.00  0.00     0.000 C 
ATOM     12  C   UNL d   1      -1.963  -0.879   0.504  0.00  0.00     0.000 C 
ATOM     13  C   UNL d   1      -0.963  -0.148   1.399  0.00  0.00     0.007 C 
ENDBRANCH   1   8
BRANCH   1  14
ATOM     14  O   UNL d   1       0.653   1.361  -0.413  0.00  0.00    -0.391 OA
ATOM     15  H   UNL d   1       0.856   1.794   0.433  0.00  0.00     0.210 HD
ENDBRANCH   1  14
TORSDOF 3
