REMARK  1 active torsions:
REMARK  status: ('A' for Active; 'I' for Inactive)
REMARK    1  A    between atoms: C_5  and  C_6 
ROOT
ATOM      1  N   UNL d   1       0.005   0.079   0.692  0.00  0.00    -0.376 N 
ATOM      2  HN  UNL d   1      -0.990   0.051   0.912  1.00  0.00     0.164 HD
ATOM      3  C   UNL d   1       3.063   0.123  -0.053  0.00  0.00     0.066 A 
ATOM      4  C   UNL d   1       1.056  -0.279   1.957  0.00  0.00     0.084 A 
ATOM      5  C   UNL d   1       0.465   0.540  -1.138  0.00  0.00     0.084 A 
ATOM      6  C   UNL d   1       2.631  -0.246   1.560  0.00  0.00     0.003 A 
ATOM      7  C   UNL d   1       2.129   0.534  -1.431  0.00  0.00     0.003 A 
ENDROOT
BRANCH   3   8
ATOM      8  C   UNL d   1       1.764   0.096   0.104  0.00  0.00    -0.044 A 
ATOM      9  C   UNL d   1       0.994   1.773   0.449  0.00  0.00     0.025 A 
ATOM     10  C   UNL d   1      -0.737   1.845   0.170  0.00  0.00     0.088 A 
ATOM     11  N   UNL d   1      -1.677   0.479  -0.378  0.00  0.00    -0.375 N 
ATOM     12  C   UNL d   1      -0.935  -1.086  -0.618  0.00  0.00     0.088 A 
ATOM     13  HN  UNL d   1      -2.674   0.595  -0.560  1.00  0.00     0.164 HD
ATOM     14  C   UNL d   1       0.779  -1.396  -0.402  0.00  0.00     0.025 A 
ENDBRANCH   3   8
TORSDOF 1
