REMARK  2 active torsions:
REMARK  status: ('A' for Active; 'I' for Inactive)
REMARK    1  A    between atoms: C_6  and  C_3 
REMARK       I    between atoms: C_5  and  N_4 
REMARK       I    between atoms: N_9  and  C_5 
REMARK    2  A    between atoms: C_12  and  N_9 
ROOT
ATOM      1  N   UNL d   1      -0.291   1.099   0.321  0.00  0.00    -0.286 N 
ATOM      2  HN  UNL d   1      -0.475   2.001   0.760  1.00  0.00     0.187 HD
ATOM      3  C   UNL d   1      -1.111   0.025   0.259  0.00  0.00     0.134 C 
ATOM      4  N   UNL d   1       0.844   0.702  -0.340  0.00  0.00    -0.216 N 
ATOM      5  C   UNL d   1       2.001   1.518  -0.371  0.00  0.00     0.345 C 
ATOM      6  C   UNL d   1      -0.559  -0.991  -0.566  0.00  0.00     0.055 C 
ATOM      7  C   UNL d   1       0.686  -0.538  -0.916  0.00  0.00     0.123 C 
ATOM      8  N   UNL d   1       1.720   2.782   0.101  0.00  0.00    -0.307 N 
ATOM      9  O   UNL d   1       3.039   1.060  -0.829  0.00  0.00    -0.245 OA
ATOM     10  H   UNL d   1       0.735   2.968   0.287  0.00  0.00     0.170 HD
ENDROOT
BRANCH   8  11
ATOM     11  C   UNL d   1       2.642   3.843   0.208  0.00  0.00     0.038 A 
ATOM     12  C   UNL d   1       4.028   3.649   0.230  0.00  0.00     0.055 A 
ATOM     13  C   UNL d   1       4.898   4.740   0.363  0.00  0.00     0.058 A 
ATOM     14 CL   UNL d   1       6.594   4.415   0.433  0.00  0.00    -0.082 Cl
ATOM     15  C   UNL d   1       4.383   6.037   0.449  0.00  0.00     0.055 A 
ATOM     16  C   UNL d   1       3.001   6.234   0.418  0.00  0.00     0.028 A 
ATOM     17 CL   UNL d   1       5.393   7.430   0.602  0.00  0.00    -0.083 Cl
ATOM     18  C   UNL d   1       2.135   5.140   0.315  0.00  0.00     0.031 A 
ENDBRANCH   8  11
BRANCH   3  19
ATOM     19  C   UNL d   1      -2.435  -0.062   0.978  0.00  0.00     0.434 C 
ATOM     20  F   UNL d   1      -2.503   0.743   2.071  0.00  0.00    -0.165 F 
ATOM     21  F   UNL d   1      -3.475   0.273   0.170  0.00  0.00    -0.165 F 
ATOM     22  F   UNL d   1      -2.679  -1.328   1.416  0.00  0.00    -0.165 F 
ENDBRANCH   3  19
TORSDOF 2
