REMARK  3 active torsions:
REMARK  status: ('A' for Active; 'I' for Inactive)
REMARK    1  A    between atoms: C_13  and  C_1 
REMARK    2  A    between atoms: C_2  and  C_14 
REMARK    3  A    between atoms: C_14  and  C_13 
ROOT
ATOM      1  C   UNL d   1      -1.422  -2.474  -0.091  0.00  0.00     0.047 C 
ENDROOT
BRANCH   1   2
ATOM      2  C   UNL d   1      -0.678  -1.168   0.042  0.00  0.00    -0.004 A 
ATOM      3  C   UNL d   1       0.115  -0.881   1.084  0.00  0.00     0.066 A 
ATOM      4  C   UNL d   1       0.868   0.385   1.180  0.00  0.00     0.172 A 
ATOM      5  O   UNL d   1       1.595   0.624   2.135  0.00  0.00    -0.289 OA
ATOM      6  C   UNL d   1       0.714   1.350   0.078  0.00  0.00     0.058 A 
ATOM      7  C   UNL d   1      -0.068   1.080  -0.970  0.00  0.00     0.059 A 
ATOM      8  C   UNL d   1      -0.809  -0.193  -1.077  0.00  0.00     0.178 A 
ATOM      9  O   UNL d   1      -1.504  -0.421  -2.060  0.00  0.00    -0.288 OA
ENDBRANCH   1   2
BRANCH   1  10
ATOM     10  C   UNL d   1      -2.944  -2.317   0.059  0.00  0.00     0.047 C 
BRANCH  10  11
ATOM     11  C   UNL d   1      -3.686  -3.623  -0.071  0.00  0.00    -0.004 A 
ATOM     12  C   UNL d   1      -4.477  -3.913  -1.115  0.00  0.00     0.066 A 
ATOM     13  C   UNL d   1      -5.228  -5.182  -1.211  0.00  0.00     0.172 A 
ATOM     14  O   UNL d   1      -5.953  -5.423  -2.166  0.00  0.00    -0.289 OA
ATOM     15  C   UNL d   1      -5.072  -6.146  -0.108  0.00  0.00     0.058 A 
ATOM     16  C   UNL d   1      -4.294  -5.871   0.942  0.00  0.00     0.059 A 
ATOM     17  C   UNL d   1      -3.558  -4.596   1.050  0.00  0.00     0.178 A 
ATOM     18  O   UNL d   1      -2.867  -4.364   2.034  0.00  0.00    -0.288 OA
ENDBRANCH  10  11
ENDBRANCH   1  10
TORSDOF 3
