REMARK  4 active torsions:
REMARK  status: ('A' for Active; 'I' for Inactive)
REMARK    1  A    between atoms: S_9  and  C_3 
REMARK    2  A    between atoms: O_10  and  C_4 
REMARK    3  A    between atoms: C_12  and  C_8 
REMARK    4  A    between atoms: O_11  and  C_12 
ROOT
ATOM      1  N   UNL d   1      -0.693   1.218   0.003  0.00  0.00    -0.318 N 
ATOM      2  HN  UNL d   1      -1.213   2.095  -0.002  1.00  0.00     0.170 HD
ATOM      3  C   UNL d   1      -1.292   0.019  -0.005  0.00  0.00     0.143 A 
ATOM      4  C   UNL d   1       0.641   1.170   0.017  0.00  0.00     0.143 A 
ATOM      5  N   UNL d   1      -0.664  -1.169  -0.016  0.00  0.00    -0.338 N 
ATOM      6  HN  UNL d   1      -1.184  -2.046  -0.040  1.00  0.00     0.168 HD
ATOM      7  C   UNL d   1       1.400   0.031   0.021  0.00  0.00     0.083 A 
ATOM      8  C   UNL d   1       0.689  -1.148   0.006  0.00  0.00     0.039 A 
ENDROOT
BRANCH   8   9
ATOM      9  C   UNL d   1       1.410  -2.474  -0.022  0.00  0.00     0.224 C 
BRANCH   9  10
ATOM     10  O   UNL d   1       2.282  -2.580   1.105  0.00  0.00    -0.390 OA
ATOM     11  C   UNL d   1       2.965  -3.827   1.114  0.00  0.00     0.201 C 
ENDBRANCH   9  10
ENDBRANCH   8   9
BRANCH   4  12
ATOM     12  O   UNL d   1       1.243   2.387   0.012  0.00  0.00    -0.346 OA
ATOM     13  H   UNL d   1       0.469   2.977   0.010  0.00  0.00     0.219 HD
ENDBRANCH   4  12
BRANCH   3  14
ATOM     14  S   UNL d   1      -3.060   0.011  -0.021  0.00  0.00    -0.107 SA
ATOM     15  H   UNL d   1      -3.154   1.345  -0.005  0.00  0.00     0.110 HD
ENDBRANCH   3  14
TORSDOF 4
