REMARK  5 active torsions:
REMARK  status: ('A' for Active; 'I' for Inactive)
REMARK    1  A    between atoms: N_3  and  S_1 
REMARK    2  A    between atoms: C_6  and  S_1 
REMARK    3  A    between atoms: N_2  and  C_7 
REMARK    4  A    between atoms: N_4  and  N_3 
REMARK       I    between atoms: C_5  and  N_4 
REMARK    5  A    between atoms: C_12  and  C_5 
ROOT
ATOM      1  N   UNL d   1       0.938   1.364   2.265  0.00  0.00    -0.256 N 
ATOM      2  C   UNL d   1       0.505   2.475   2.961  0.00  0.00     0.270 C 
ATOM      3  O   UNL d   1      -0.252   3.316   2.491  0.00  0.00    -0.266 OA
ATOM      4  H   UNL d   1       1.650   0.728   2.614  0.00  0.00     0.191 HD
ENDROOT
BRANCH   1   5
ATOM      5  N   UNL d   1       0.433   1.108   0.933  0.00  0.00    -0.220 N 
ATOM      6  H   UNL d   1      -0.270   1.733   0.528  0.00  0.00     0.200 HD
BRANCH   5   7
ATOM      7  S   UNL d   1       0.972  -0.275   0.137  0.00  0.00     0.276 S 
ATOM      8  O   UNL d   1       0.409  -1.415   0.829  0.00  0.00    -0.199 OA
ATOM      9  O   UNL d   1       2.406  -0.146  -0.020  0.00  0.00    -0.199 OA
BRANCH   7  10
ATOM     10  C   UNL d   1       0.219  -0.167  -1.465  0.00  0.00     0.081 A 
ATOM     11  C   UNL d   1       0.920   0.431  -2.517  0.00  0.00     0.027 A 
ATOM     12  C   UNL d   1       0.374   0.424  -3.804  0.00  0.00     0.025 A 
ATOM     13  C   UNL d   1      -0.859  -0.188  -4.032  0.00  0.00     0.034 A 
ATOM     14  C   UNL d   1      -1.553  -0.796  -2.984  0.00  0.00     0.025 A 
ATOM     15 CL   UNL d   1      -1.522  -0.207  -5.619  0.00  0.00    -0.084 Cl
ATOM     16  C   UNL d   1      -1.012  -0.792  -1.696  0.00  0.00     0.027 A 
ENDBRANCH   7  10
ENDBRANCH   5   7
ENDBRANCH   1   5
BRANCH   2  17
ATOM     17  C   UNL d   1       1.041   2.612   4.348  0.00  0.00     0.033 A 
ATOM     18  C   UNL d   1       1.204   3.897   4.886  0.00  0.00     0.019 A 
ATOM     19  C   UNL d   1       1.694   4.063   6.189  0.00  0.00     0.037 A 
ATOM     20  C   UNL d   1       2.009   2.935   6.959  0.00  0.00     0.102 A 
ATOM     21  C   UNL d   1       1.838   1.647   6.435  0.00  0.00     0.037 A 
ATOM     22  C   UNL d   1       1.351   1.488   5.132  0.00  0.00     0.019 A 
BRANCH  20  23
ATOM     23  N   UNL d   1       2.507   3.102   8.332  0.00  0.00    -0.116 N 
ATOM     24  O   UNL d   1       2.668   4.256   8.751  0.00  0.00    -0.532 OA
ATOM     25  O   UNL d   1       2.738   2.075   8.988  0.00  0.00    -0.532 OA
ENDBRANCH  20  23
ENDBRANCH   2  17
TORSDOF 5
