REMARK  6 active torsions:
REMARK  status: ('A' for Active; 'I' for Inactive)
REMARK    1  A    between atoms: N_6  and  C_2 
REMARK    2  A    between atoms: C_10  and  C_5 
REMARK    3  A    between atoms: N_8  and  N_6 
REMARK    4  A    between atoms: C_12  and  C_10 
REMARK    5  A    between atoms: C_13  and  C_11 
REMARK    6  A    between atoms: O_18  and  C_12 
ROOT
ATOM      1  N   UNL d   1       3.562  -0.394   0.113  0.00  0.00    -0.280 N 
ATOM      2  HN  UNL d   1       4.398  -0.736  -0.362  1.00  0.00     0.189 HD
ENDROOT
BRANCH   1   3
ATOM      3  C   UNL d   1       2.744  -1.176   0.733  0.00  0.00     0.162 A 
ATOM      4  N   UNL d   1       2.977  -2.507   0.772  0.00  0.00    -0.305 N 
ATOM      5  C   UNL d   1       2.151  -3.293   1.515  0.00  0.00     0.238 A 
ATOM      6  H   UNL d   1       3.768  -2.895   0.283  0.00  0.00     0.171 HD
ATOM      7  C   UNL d   1       1.068  -2.489   2.212  0.00  0.00     0.157 A 
ATOM      8  O   UNL d   1       2.312  -4.500   1.646  0.00  0.00    -0.272 OA
ATOM      9  S   UNL d   1       1.308  -0.775   1.618  0.00  0.00    -0.077 SA
BRANCH   7  10
ATOM     10  C   UNL d   1       1.257  -2.585   3.721  0.00  0.00     0.135 C 
BRANCH  10  11
ATOM     11  C   UNL d   1       0.156  -1.869   4.457  0.00  0.00     0.141 C 
ATOM     12  O   UNL d   1      -1.002  -1.813   4.079  0.00  0.00    -0.650 OA
BRANCH  11  13
ATOM     13  O   UNL d   1       0.560  -1.323   5.626  0.00  0.00    -0.776 OA
ATOM     14  H   UNL d   1       1.507  -1.438   5.833  0.00  0.00     0.167 HD
ENDBRANCH  11  13
ENDBRANCH  10  11
ENDBRANCH   7  10
ENDBRANCH   1   3
BRANCH   1  15
ATOM     15  N   UNL d   1       3.213   0.950   0.143  0.00  0.00    -0.301 N 
ATOM     16  C   UNL d   1       4.218   1.778   0.068  0.00  0.00     0.048 C 
ATOM     17  C   UNL d   1       5.673   1.355   0.010  0.00  0.00     0.072 C 
ATOM     18  HN  UNL d   1       2.246   1.265   0.218  1.00  0.00     0.186 HD
BRANCH  16  19
ATOM     19  C   UNL d   1       3.955   3.251   0.053  0.00  0.00     0.055 A 
ATOM     20  N   UNL d   1       5.046   4.053  -0.049  0.00  0.00    -0.364 N 
ATOM     21  C   UNL d   1       4.824   5.385  -0.073  0.00  0.00     0.088 A 
ATOM     22  HN  UNL d   1       5.989   3.668  -0.105  1.00  0.00     0.165 HD
ATOM     23  C   UNL d   1       3.565   5.959   0.006  0.00  0.00     0.017 A 
ATOM     24  C   UNL d   1       2.463   5.118   0.114  0.00  0.00     0.004 A 
ATOM     25  C   UNL d   1       2.655   3.739   0.137  0.00  0.00     0.031 A 
ENDBRANCH  16  19
ENDBRANCH   1  15
TORSDOF 6
