REMARK  2 active torsions:
REMARK  status: ('A' for Active; 'I' for Inactive)
REMARK    1  A    between atoms: C_4  and  N_1 
REMARK    2  A    between atoms: C_5  and  C_3 
ROOT
ATOM      1  N   UNL d   1       1.078   0.119  -0.082  0.00  0.00    -0.365 N 
ATOM      2  HN  UNL d   1       0.595  -0.596  -0.627  1.00  0.00     0.165 HD
ATOM      3  C   UNL d   1       0.403   0.997   0.584  0.00  0.00     0.099 C 
ENDROOT
BRANCH   1   4
ATOM      4  C   UNL d   1       2.483   0.155  -0.051  0.00  0.00     0.031 A 
ATOM      5  C   UNL d   1       3.165  -1.065  -0.046  0.00  0.00     0.030 A 
ATOM      6  C   UNL d   1       4.562  -1.113  -0.061  0.00  0.00     0.009 A 
ATOM      7  C   UNL d   1       5.309   0.069  -0.087  0.00  0.00    -0.062 A 
ATOM      8  C   UNL d   1       4.635   1.294  -0.105  0.00  0.00     0.009 A 
ATOM      9  C   UNL d   1       6.808   0.009  -0.124  0.00  0.00     0.048 C 
ATOM     10  C   UNL d   1       3.235   1.335  -0.098  0.00  0.00     0.030 A 
ENDBRANCH   1   4
BRANCH   3  11
ATOM     11  C   UNL d   1      -1.076   0.987   0.599  0.00  0.00    -0.021 A 
ATOM     12  C   UNL d   1      -1.792  -0.054  -0.002  0.00  0.00     0.014 A 
ATOM     13  C   UNL d   1      -3.189  -0.058   0.047  0.00  0.00     0.024 A 
ATOM     14  C   UNL d   1      -3.861   0.980   0.691  0.00  0.00     0.034 A 
ATOM     15  C   UNL d   1      -3.151   2.025   1.284  0.00  0.00     0.024 A 
ATOM     16 CL   UNL d   1      -5.580   0.973   0.757  0.00  0.00    -0.084 Cl
ATOM     17  C   UNL d   1      -1.754   2.028   1.242  0.00  0.00     0.014 A 
ENDBRANCH   3  11
TORSDOF 2
