REMARK  6 active torsions:
REMARK  status: ('A' for Active; 'I' for Inactive)
REMARK    1  A    between atoms: C_5  and  C_1 
REMARK    2  A    between atoms: N_2  and  C_10 
REMARK    3  A    between atoms: O_15  and  C_6 
REMARK    4  A    between atoms: O_14  and  C_7 
REMARK    5  A    between atoms: C_21  and  O_14 
REMARK    6  A    between atoms: C_22  and  O_15 
ROOT
ATOM      1  C   UNL d   1      -0.162  -1.883  -0.035  0.00  0.00     0.045 A 
ATOM      2  N   UNL d   1       0.139   0.925   0.063  0.00  0.00    -0.359 N 
ATOM      3  HN  UNL d   1       0.253   1.938   0.074  1.00  0.00     0.165 HD
ATOM      4  C   UNL d   1       1.118  -1.284  -0.048  0.00  0.00     0.104 A 
ATOM      5  C   UNL d   1      -1.289  -1.015   0.068  0.00  0.00     0.104 A 
ATOM      6  C   UNL d   1      -1.094   0.369   0.126  0.00  0.00     0.040 A 
ATOM      7  C   UNL d   1       1.218   0.109  -0.016  0.00  0.00     0.040 A 
ATOM      8  C   UNL d   1      -2.212   1.357   0.272  0.00  0.00     0.071 C 
ATOM      9  C   UNL d   1       2.535   0.831  -0.059  0.00  0.00     0.071 C 
ENDROOT
BRANCH   1  10
ATOM     10  C   UNL d   1      -0.365  -3.351  -0.172  0.00  0.00    -0.018 A 
ATOM     11  C   UNL d   1      -1.184  -4.065   0.725  0.00  0.00     0.048 A 
ATOM     12  C   UNL d   1      -1.421  -5.435   0.545  0.00  0.00     0.103 A 
ATOM     13  C   UNL d   1      -0.797  -6.136  -0.492  0.00  0.00     0.036 A 
ATOM     14  C   UNL d   1       0.044  -5.452  -1.366  0.00  0.00     0.003 A 
ATOM     15  C   UNL d   1       0.237  -4.074  -1.219  0.00  0.00     0.012 A 
BRANCH  12  16
ATOM     16  N   UNL d   1      -2.360  -6.130   1.433  0.00  0.00    -0.116 N 
ATOM     17  O   UNL d   1      -2.957  -5.459   2.287  0.00  0.00    -0.532 OA
ATOM     18  O   UNL d   1      -2.510  -7.350   1.270  0.00  0.00    -0.532 OA
ENDBRANCH  12  16
ENDBRANCH   1  10
BRANCH   4  19
ATOM     19  O   UNL d   1       2.293  -1.983  -0.196  0.00  0.00    -0.349 OA
BRANCH  19  20
ATOM     20  C   UNL d   1       2.562  -2.971   0.804  0.00  0.00     0.171 C 
ATOM     21  C   UNL d   1       3.883  -2.656   1.481  0.00  0.00     0.034 C 
ENDBRANCH  19  20
ENDBRANCH   4  19
BRANCH   5  22
ATOM     22  O   UNL d   1      -2.524  -1.598   0.229  0.00  0.00    -0.349 OA
BRANCH  22  23
ATOM     23  C   UNL d   1      -3.541  -1.210  -0.692  0.00  0.00     0.171 C 
ATOM     24  C   UNL d   1      -4.411  -2.425  -0.969  0.00  0.00     0.034 C 
ENDBRANCH  22  23
ENDBRANCH   5  22
TORSDOF 6
