REMARK  9 active torsions:
REMARK  status: ('A' for Active; 'I' for Inactive)
REMARK    1  A    between atoms: C_29  and  C_2 
REMARK    2  A    between atoms: C_7  and  N_13 
REMARK    3  A    between atoms: N_9  and  C_7 
REMARK    4  A    between atoms: C_8  and  N_9 
REMARK    5  A    between atoms: C_10  and  C_23 
REMARK       I    between atoms: N_15  and  C_10 
REMARK    6  A    between atoms: N_13  and  N_15 
REMARK    7  A    between atoms: O_24  and  C_20 
REMARK    8  A    between atoms: C_23  and  O_24 
REMARK    9  A    between atoms: C_30  and  C_29 
ROOT
ATOM      1  C   UNL d   1       4.763   3.732   1.423  0.00  0.00     0.260 C 
ATOM      2  N   UNL d   1       4.618   4.128   2.746  0.00  0.00    -0.266 N 
ATOM      3  O   UNL d   1       5.845   3.756   0.843  0.00  0.00    -0.269 OA
ATOM      4  H   UNL d   1       3.807   3.830   3.281  0.00  0.00     0.190 HD
ENDROOT
BRANCH   1   5
ATOM      5  C   UNL d   1       3.465   3.231   0.791  0.00  0.00     0.280 C 
BRANCH   5   6
ATOM      6  O   UNL d   1       3.701   1.931   0.258  0.00  0.00    -0.342 OA
BRANCH   6   7
ATOM      7  C   UNL d   1       2.616   1.109   0.150  0.00  0.00     0.072 A 
ATOM      8  C   UNL d   1       1.294   1.523   0.040  0.00  0.00     0.075 A 
ATOM      9  C   UNL d   1       0.281   0.558  -0.022  0.00  0.00     0.092 A 
ATOM     10  O   UNL d   1      -1.037   1.054  -0.092  0.00  0.00    -0.275 OA
ATOM     11  C   UNL d   1       0.542  -0.815  -0.002  0.00  0.00     0.004 A 
ATOM     12  C   UNL d   1      -2.122   0.197  -0.118  0.00  0.00     0.288 A 
ATOM     13  O   UNL d   1      -3.279   0.602  -0.142  0.00  0.00    -0.260 OA
ATOM     14  C   UNL d   1      -1.829  -1.244  -0.122  0.00  0.00     0.090 A 
ATOM     15  C   UNL d   1      -0.589  -1.753  -0.063  0.00  0.00    -0.039 A 
ATOM     16  C   UNL d   1       1.882  -1.210   0.073  0.00  0.00     0.017 A 
ATOM     17  C   UNL d   1       2.907  -0.256   0.142  0.00  0.00     0.038 A 
BRANCH  15  18
ATOM     18  C   UNL d   1      -0.373  -3.249  -0.098  0.00  0.00     0.039 C 
BRANCH  18  19
ATOM     19  C   UNL d   1      -0.248  -3.855   1.303  0.00  0.00     0.000 C 
ATOM     20  C   UNL d   1       0.017  -5.352   1.237  0.00  0.00     0.005 C 
ENDBRANCH  18  19
ENDBRANCH  15  18
ENDBRANCH   6   7
ENDBRANCH   5   6
ENDBRANCH   1   5
BRANCH   2  21
ATOM     21  N   UNL d   1       5.788   4.295   3.497  0.00  0.00    -0.273 N 
ATOM     22  H   UNL d   1       6.659   4.070   3.016  0.00  0.00     0.189 HD
BRANCH  21  23
ATOM     23  C   UNL d   1       5.825   5.070   4.626  0.00  0.00     0.191 C 
ATOM     24  S   UNL d   1       4.703   6.249   5.012  0.00  0.00    -0.039 SA
BRANCH  23  25
ATOM     25  N   UNL d   1       6.861   4.836   5.496  0.00  0.00    -0.331 N 
ATOM     26  H   UNL d   1       7.005   5.574   6.185  0.00  0.00     0.168 HD
BRANCH  25  27
ATOM     27  C   UNL d   1       7.649   3.670   5.676  0.00  0.00     0.057 A 
ATOM     28  C   UNL d   1       7.334   2.445   5.080  0.00  0.00     0.055 A 
ATOM     29  C   UNL d   1       8.156   1.329   5.258  0.00  0.00     0.036 A 
ATOM     30 CL   UNL d   1       7.750  -0.148   4.476  0.00  0.00    -0.084 Cl
ATOM     31  C   UNL d   1       9.283   1.404   6.064  0.00  0.00     0.026 A 
ATOM     32  C   UNL d   1       9.576   2.600   6.726  0.00  0.00     0.028 A 
ATOM     33  C   UNL d   1       8.757   3.720   6.540  0.00  0.00     0.060 A 
ATOM     34 CL   UNL d   1       9.147   5.159   7.418  0.00  0.00    -0.082 Cl
ENDBRANCH  25  27
ENDBRANCH  23  25
ENDBRANCH  21  23
ENDBRANCH   2  21
TORSDOF 9
