REMARK  4 active torsions:
REMARK  status: ('A' for Active; 'I' for Inactive)
REMARK    1  A    between atoms: N_2  and  C_1 
REMARK    2  A    between atoms: S_7  and  C_3 
REMARK    3  A    between atoms: C_5  and  C_6 
REMARK    4  A    between atoms: C_14  and  S_7 
ROOT
ATOM      1  C   UNL d   1       1.439  -0.148  -0.108  0.00  0.00     0.120 A 
ATOM      2  C   UNL d   1       0.644  -1.300  -0.064  0.00  0.00     0.038 A 
ATOM      3  C   UNL d   1       0.893   1.142   0.020  0.00  0.00     0.046 A 
ATOM      4  C   UNL d   1      -0.488   1.315   0.186  0.00  0.00    -0.032 A 
ATOM      5  C   UNL d   1      -0.743  -1.113   0.028  0.00  0.00     0.022 A 
ATOM      6  C   UNL d   1      -1.301   0.171   0.146  0.00  0.00     0.011 A 
ENDROOT
BRANCH   2   7
ATOM      7  S   UNL d   1       1.248  -2.980  -0.178  0.00  0.00    -0.088 SA
BRANCH   7   8
ATOM      8  C   UNL d   1       1.387  -3.418   1.553  0.00  0.00     0.005 A 
ATOM      9  C   UNL d   1       0.284  -3.898   2.269  0.00  0.00     0.020 A 
ATOM     10  C   UNL d   1       0.411  -4.238   3.621  0.00  0.00     0.025 A 
ATOM     11  C   UNL d   1       1.643  -4.102   4.260  0.00  0.00     0.034 A 
ATOM     12  C   UNL d   1       2.752  -3.652   3.553  0.00  0.00     0.025 A 
ATOM     13 CL   UNL d   1       1.794  -4.500   5.928  0.00  0.00    -0.084 Cl
ATOM     14  C   UNL d   1       2.626  -3.323   2.201  0.00  0.00     0.020 A 
ENDBRANCH   7   8
ENDBRANCH   2   7
BRANCH   1  15
ATOM     15  N   UNL d   1       2.873  -0.218  -0.321  0.00  0.00    -0.114 N 
ATOM     16  O   UNL d   1       3.562  -0.736   0.566  0.00  0.00    -0.532 OA
ATOM     17  O   UNL d   1       3.310   0.329  -1.341  0.00  0.00    -0.532 OA
ENDBRANCH   1  15
BRANCH   4  18
ATOM     18  C   UNL d   1      -1.040   2.704   0.435  0.00  0.00     0.141 C 
ATOM     19  S   UNL d   1      -1.938   2.828   2.008  0.00  0.00    -0.148 SA
ATOM     20  C   UNL d   1      -2.812   4.339   1.555  0.00  0.00     0.085 C 
ATOM     21  C   UNL d   1      -3.347   4.144   0.147  0.00  0.00     0.085 C 
ATOM     22  S   UNL d   1      -2.099   3.327  -0.901  0.00  0.00    -0.148 SA
ENDBRANCH   4  18
TORSDOF 4
