REMARK  2 active torsions:
REMARK  status: ('A' for Active; 'I' for Inactive)
REMARK    1  A    between atoms: C_4  and  N_1 
REMARK    2  A    between atoms: C_15  and  C_10 
ROOT
ATOM      1  C   UNL d   1      -1.595  -1.996  -0.813  0.00  0.00     0.057 A 
ATOM      2  C   UNL d   1      -2.390  -1.906  -1.980  0.00  0.00    -0.034 A 
ATOM      3  C   UNL d   1      -1.599  -3.179  -0.036  0.00  0.00    -0.030 A 
ATOM      4  C   UNL d   1      -3.119  -4.200  -1.645  0.00  0.00     0.001 A 
ATOM      5  C   UNL d   1      -3.129  -3.026  -2.390  0.00  0.00     0.009 A 
ATOM      6  C   UNL d   1      -2.375  -4.269  -0.470  0.00  0.00     0.009 A 
ATOM      7  C   UNL d   1      -2.429  -0.699  -2.878  0.00  0.00     0.050 C 
ENDROOT
BRANCH   1   8
ATOM      8  N   UNL d   1      -0.767  -0.915  -0.447  0.00  0.00    -0.251 N 
ATOM      9  C   UNL d   1       0.577  -0.880  -0.724  0.00  0.00     0.232 C 
ATOM     10  C   UNL d   1       1.117   0.429  -0.219  0.00  0.00     0.117 C 
ATOM     11  O   UNL d   1       1.267  -1.730  -1.266  0.00  0.00    -0.273 OA
ATOM     12  C   UNL d   1      -0.126   1.285  -0.015  0.00  0.00     0.083 C 
ATOM     13  C   UNL d   1      -1.241   0.272   0.047  0.00  0.00     0.235 C 
ATOM     14  C   UNL d   1      -0.369   2.237  -1.182  0.00  0.00     0.020 C 
ATOM     15  O   UNL d   1      -2.377   0.536   0.421  0.00  0.00    -0.272 OA
ENDBRANCH   1   8
BRANCH   3  16
ATOM     16  C   UNL d   1      -0.890  -3.293   1.299  0.00  0.00     0.036 C 
ATOM     17  C   UNL d   1       0.112  -4.438   1.372  0.00  0.00     0.010 C 
ENDBRANCH   3  16
TORSDOF 2
