REMARK  6 active torsions:
REMARK  status: ('A' for Active; 'I' for Inactive)
REMARK    1  A    between atoms: C_3  and  S_1 
REMARK    2  A    between atoms: N_5  and  S_1 
REMARK    3  A    between atoms: C_7  and  C_2 
REMARK    4  A    between atoms: N_8  and  C_4 
REMARK    5  A    between atoms: C_15  and  N_5 
REMARK    6  A    between atoms: O_21  and  C_7 
ROOT
ATOM      1  C   UNL d   1       2.629  -3.685  -1.908  0.00  0.00     0.068 A 
ATOM      2  C   UNL d   1       1.816  -4.800  -2.239  0.00  0.00     0.046 A 
ATOM      3  C   UNL d   1       2.164  -2.673  -1.038  0.00  0.00     0.050 A 
ATOM      4  C   UNL d   1       0.493  -4.761  -1.743  0.00  0.00     0.033 A 
ATOM      5  C   UNL d   1       0.877  -2.707  -0.522  0.00  0.00     0.043 A 
ATOM      6  C   UNL d   1       0.024  -3.732  -0.904  0.00  0.00     0.032 A 
ENDROOT
BRANCH   5   7
ATOM      7  N   UNL d   1       0.442  -1.641   0.270  0.00  0.00    -0.281 N 
ATOM      8  H   UNL d   1       0.063  -0.778  -0.159  0.00  0.00     0.179 HD
BRANCH   7   9
ATOM      9  S   UNL d   1       0.276  -1.693   1.928  0.00  0.00     0.264 S 
ATOM     10  O   UNL d   1      -0.247  -0.415   2.390  0.00  0.00    -0.200 OA
ATOM     11  O   UNL d   1      -0.540  -2.876   2.324  0.00  0.00    -0.200 OA
BRANCH   9  12
ATOM     12  C   UNL d   1       1.955  -1.986   2.556  0.00  0.00     0.090 C 
ATOM     13  C   UNL d   1       2.831  -0.958   2.904  0.00  0.00    -0.002 C 
ATOM     14  C   UNL d   1       4.208  -1.297   3.028  0.00  0.00    -0.018 C 
ATOM     15  C   UNL d   1       2.499   0.369   3.246  0.00  0.00     0.014 C 
ATOM     16  C   UNL d   1       5.161  -0.275   3.013  0.00  0.00     0.013 C 
ATOM     17  C   UNL d   1       4.610  -2.651   3.087  0.00  0.00    -0.051 C 
ATOM     18  C   UNL d   1       4.743   1.032   2.951  0.00  0.00     0.001 C 
ATOM     19  C   UNL d   1       3.475   1.340   3.393  0.00  0.00     0.001 C 
ATOM     20  C   UNL d   1       3.674  -3.659   2.838  0.00  0.00     0.009 C 
ATOM     21  C   UNL d   1       6.008  -3.034   3.490  0.00  0.00     0.049 C 
ATOM     22  C   UNL d   1       2.380  -3.332   2.507  0.00  0.00     0.027 C 
ENDBRANCH   9  12
ENDBRANCH   7   9
ENDBRANCH   5   7
BRANCH   1  23
ATOM     23  C   UNL d   1       3.924  -3.426  -2.597  0.00  0.00     0.295 C 
ATOM     24  O   UNL d   1       4.158  -3.688  -3.760  0.00  0.00    -0.259 OA
BRANCH  23  25
ATOM     25  O   UNL d   1       4.814  -2.860  -1.731  0.00  0.00    -0.322 OA
ATOM     26  C   UNL d   1       6.084  -2.562  -2.322  0.00  0.00     0.213 C 
ENDBRANCH  23  25
ENDBRANCH   1  23
BRANCH   2  27
ATOM     27  N   UNL d   1       2.241  -5.925  -2.926  0.00  0.00    -0.376 N 
ATOM     28  C   UNL d   1       3.629  -6.420  -2.881  0.00  0.00     0.149 C 
ATOM     29  C   UNL d   1       3.616  -7.936  -2.633  0.00  0.00     0.187 C 
ATOM     30  O   UNL d   1       2.863  -8.626  -3.644  0.00  0.00    -0.388 OA
ATOM     31  C   UNL d   1       1.503  -8.162  -3.658  0.00  0.00     0.187 C 
ATOM     32  C   UNL d   1       1.409  -6.644  -3.909  0.00  0.00     0.149 C 
ENDBRANCH   2  27
TORSDOF 6
