REMARK  3 active torsions:
REMARK  status: ('A' for Active; 'I' for Inactive)
REMARK    1  A    between atoms: C_2  and  C_1 
REMARK    2  A    between atoms: O_4  and  C_1 
REMARK    3  A    between atoms: C_9  and  O_4 
ROOT
ATOM      1  O   UNL d   1       0.335   1.116   0.005  0.00  0.00    -0.275 OA
ENDROOT
BRANCH   1   2
ATOM      2  C   UNL d   1       1.236   0.727   1.003  0.00  0.00     0.305 C 
ATOM      3  O   UNL d   1       0.932   0.493   2.168  0.00  0.00    -0.258 OA
BRANCH   2   4
ATOM      4  C   UNL d   1       2.589   0.643   0.474  0.00  0.00     0.080 A 
ATOM      5  S   UNL d   1       2.966   0.978  -1.167  0.00  0.00    -0.096 SA
ATOM      6  C   UNL d   1       4.626   0.647  -0.932  0.00  0.00     0.050 A 
ATOM      7  C   UNL d   1       4.901   0.291   0.367  0.00  0.00     0.009 A 
ATOM      8  C   UNL d   1       3.729   0.290   1.177  0.00  0.00     0.025 A 
ENDBRANCH   2   4
ENDBRANCH   1   2
BRANCH   1   9
ATOM      9  C   UNL d   1      -1.061   1.187   0.198  0.00  0.00     0.079 A 
ATOM     10  C   UNL d   1      -1.730   2.125  -0.594  0.00  0.00     0.040 A 
ATOM     11  C   UNL d   1      -3.121   2.210  -0.533  0.00  0.00     0.045 A 
ATOM     12  C   UNL d   1      -3.822   1.353   0.309  0.00  0.00     0.116 A 
ATOM     13  C   UNL d   1      -3.158   0.414   1.093  0.00  0.00     0.045 A 
ATOM     14  F   UNL d   1      -5.159   1.426   0.357  0.00  0.00    -0.206 F 
ATOM     15  C   UNL d   1      -1.766   0.322   1.034  0.00  0.00     0.040 A 
ENDBRANCH   1   9
TORSDOF 3
