REMARK  3 active torsions:
REMARK  status: ('A' for Active; 'I' for Inactive)
REMARK       I    between atoms: N_3  and  C_1 
REMARK       I    between atoms: N_4  and  C_1 
REMARK    1  A    between atoms: C_2  and  C_8 
REMARK    2  A    between atoms: C_5  and  N_4 
REMARK    3  A    between atoms: C_8  and  N_7 
ROOT
ATOM      1  C   UNL d   1       0.641  -0.028  -0.522  0.00  0.00     0.322 C 
ATOM      2  N   UNL d   1       0.271   1.132   0.171  0.00  0.00    -0.332 N 
ATOM      3  N   UNL d   1       1.721   0.115  -1.365  0.00  0.00    -0.308 N 
ATOM      4  N   UNL d   1      -1.938   3.134   1.194  0.00  0.00     0.094 N 
ATOM      5  O   UNL d   1       0.077  -1.102  -0.321  0.00  0.00    -0.247 OA
ATOM      6  C   UNL d   1      -0.566   0.950   1.366  0.00  0.00     0.157 C 
ATOM      7  C   UNL d   1      -1.921   1.674   1.351  0.00  0.00     0.292 C 
ATOM      8  C   UNL d   1      -0.168   3.481  -0.658  0.00  0.00     0.050 C 
ATOM      9  C   UNL d   1       0.796   2.484  -0.021  0.00  0.00     0.129 C 
ATOM     10  C   UNL d   1      -1.620   3.530  -0.175  0.00  0.00     0.274 C 
ATOM     11  H   UNL d   1       2.274   0.933  -1.219  0.00  0.00     0.170 HD
ENDROOT
BRANCH   3  12
ATOM     12  C   UNL d   1       2.355  -0.904  -2.120  0.00  0.00     0.043 A 
ATOM     13  C   UNL d   1       3.727  -0.769  -2.444  0.00  0.00    -0.013 A 
ATOM     14  C   UNL d   1       4.313  -1.728  -3.298  0.00  0.00     0.042 A 
ATOM     15  C   UNL d   1       4.575   0.353  -1.893  0.00  0.00     0.052 C 
ATOM     16 CL   UNL d   1       5.956  -1.605  -3.824  0.00  0.00    -0.084 Cl
ATOM     17  C   UNL d   1       3.578  -2.822  -3.765  0.00  0.00     0.024 A 
ATOM     18  C   UNL d   1       2.248  -2.972  -3.396  0.00  0.00     0.004 A 
ATOM     19  C   UNL d   1       1.637  -2.013  -2.586  0.00  0.00     0.030 A 
ENDBRANCH   3  12
BRANCH   4  20
ATOM     20  C   UNL d   1      -1.264   3.931   2.223  0.00  0.00     0.316 C 
BRANCH  20  21
ATOM     21  C   UNL d   1      -1.744   3.696   3.634  0.00  0.00     0.030 A 
ATOM     22  C   UNL d   1      -0.891   3.062   4.549  0.00  0.00     0.126 A 
ATOM     23  F   UNL d   1       0.336   2.679   4.165  0.00  0.00    -0.205 F 
ATOM     24  C   UNL d   1      -1.268   2.816   5.867  0.00  0.00     0.043 A 
ATOM     25  C   UNL d   1      -2.525   3.213   6.308  0.00  0.00     0.005 A 
ATOM     26  C   UNL d   1      -3.392   3.857   5.423  0.00  0.00     0.024 A 
ATOM     27  C   UNL d   1      -3.005   4.099   4.097  0.00  0.00     0.045 A 
ATOM     28 CL   UNL d   1      -4.130   4.931   3.084  0.00  0.00    -0.084 Cl
ENDBRANCH  20  21
ENDBRANCH   4  20
TORSDOF 3
