REMARK  7 active torsions:
REMARK  status: ('A' for Active; 'I' for Inactive)
REMARK    1  A    between atoms: C_5  and  S_1 
REMARK    2  A    between atoms: C_7  and  S_1 
REMARK       I    between atoms: C_2  and  N_4 
REMARK    3  A    between atoms: C_3  and  C_2 
REMARK    4  A    between atoms: N_4  and  C_6 
REMARK    5  A    between atoms: C_16  and  C_7 
REMARK    6  A    between atoms: C_12  and  S_15 
REMARK    7  A    between atoms: S_15  and  C_16 
ROOT
ATOM      1  C   UNL d   1       0.977   1.851   5.454  0.00  0.00     0.051 C 
ATOM      2  C   UNL d   1       1.920   2.774   4.943  0.00  0.00     0.027 C 
ATOM      3  C   UNL d   1       0.784   1.745   6.836  0.00  0.00     0.031 C 
ATOM      4  C   UNL d   1       2.408   3.767   5.799  0.00  0.00     0.021 C 
ATOM      5  C   UNL d   1       1.350   2.693   7.688  0.00  0.00     0.002 C 
ATOM      6  C   UNL d   1       2.098   3.743   7.160  0.00  0.00     0.002 C 
ENDROOT
BRANCH   2   7
ATOM      7  S   UNL d   1       2.707   2.397   3.354  0.00  0.00    -0.127 SA
BRANCH   7   8
ATOM      8  C   UNL d   1       3.427   3.971   2.800  0.00  0.00     0.095 C 
BRANCH   8   9
ATOM      9  C   UNL d   1       4.435   3.721   1.690  0.00  0.00     0.156 C 
BRANCH   9  10
ATOM     10  S   UNL d   1       6.096   3.457   2.268  0.00  0.00     0.176 S 
ATOM     11  O   UNL d   1       6.969   3.537   1.106  0.00  0.00    -0.223 OA
ATOM     12  O   UNL d   1       6.340   4.325   3.405  0.00  0.00    -0.223 OA
BRANCH  10  13
ATOM     13  C   UNL d   1       6.193   1.775   2.844  0.00  0.00     0.059 A 
ATOM     14  C   UNL d   1       6.446   0.752   1.923  0.00  0.00     0.025 A 
ATOM     15  C   UNL d   1       6.653  -0.553   2.377  0.00  0.00     0.025 A 
ATOM     16  C   UNL d   1       6.617  -0.826   3.744  0.00  0.00     0.034 A 
ATOM     17  C   UNL d   1       6.370   0.194   4.664  0.00  0.00     0.025 A 
ATOM     18 CL   UNL d   1       6.906  -2.428   4.302  0.00  0.00    -0.084 Cl
ATOM     19  C   UNL d   1       6.167   1.504   4.216  0.00  0.00     0.025 A 
ENDBRANCH  10  13
ENDBRANCH   9  10
ENDBRANCH   8   9
ENDBRANCH   7   8
ENDBRANCH   2   7
BRANCH   1  20
ATOM     20  N   UNL d   1       0.120   1.082   4.616  0.00  0.00    -0.322 N 
ATOM     21  C   UNL d   1      -0.534   1.684   3.548  0.00  0.00     0.257 C 
ATOM     22  O   UNL d   1      -0.411   2.880   3.261  0.00  0.00    -0.267 OA
ATOM     23  H   UNL d   1      -0.317   0.262   5.013  0.00  0.00     0.169 HD
BRANCH  21  24
ATOM     24  C   UNL d   1      -1.524   0.905   2.744  0.00  0.00     0.054 A 
ATOM     25  C   UNL d   1      -1.676  -0.486   2.721  0.00  0.00     0.049 A 
ATOM     26 CL   UNL d   1      -0.770  -1.577   3.710  0.00  0.00    -0.083 Cl
ATOM     27  C   UNL d   1      -2.614  -1.075   1.856  0.00  0.00     0.025 A 
ATOM     28  C   UNL d   1      -3.404  -0.293   1.012  0.00  0.00     0.002 A 
ATOM     29  C   UNL d   1      -3.278   1.089   1.036  0.00  0.00     0.001 A 
ATOM     30  C   UNL d   1      -2.347   1.677   1.892  0.00  0.00     0.019 A 
ENDBRANCH  21  24
ENDBRANCH   1  20
TORSDOF 7
