REMARK  3 active torsions:
REMARK  status: ('A' for Active; 'I' for Inactive)
REMARK    1  A    between atoms: N_3  and  C_1 
REMARK       I    between atoms: C_2  and  N_3 
REMARK       I    between atoms: N_7  and  C_2 
REMARK    2  A    between atoms: C_8  and  N_3 
REMARK    3  A    between atoms: C_12  and  N_7 
ROOT
ATOM      1  C   UNL d   1       3.496   1.024  -0.287  0.00  0.00     0.333 C 
ATOM      2  N   UNL d   1       2.115   1.437  -0.197  0.00  0.00    -0.244 N 
ATOM      3  N   UNL d   1       3.666  -0.331  -0.527  0.00  0.00    -0.308 N 
ATOM      4  O   UNL d   1       4.451   1.789  -0.165  0.00  0.00    -0.246 OA
ATOM      5  H   UNL d   1       2.831  -0.892  -0.430  0.00  0.00     0.170 HD
ENDROOT
BRANCH   2   6
ATOM      6  C   UNL d   1       1.003   0.595   0.027  0.00  0.00     0.151 C 
ATOM      7  N   UNL d   1      -0.217   0.896  -0.282  0.00  0.00    -0.369 N 
ATOM      8  C   UNL d   1      -1.141  -0.212   0.023  0.00  0.00     0.137 C 
ATOM      9  HN  UNL d   1      -0.503   1.787  -0.687  1.00  0.00     0.161 HD
ATOM     10  C   UNL d   1      -0.554  -1.108   1.105  0.00  0.00     0.069 C 
ATOM     11  S   UNL d   1       1.213  -0.977   0.781  0.00  0.00    -0.087 SA
ATOM     12  C   UNL d   1      -0.846  -0.623   2.518  0.00  0.00     0.023 C 
ENDBRANCH   2   6
BRANCH   2  13
ATOM     13  C   UNL d   1       1.849   2.880  -0.286  0.00  0.00     0.046 A 
ATOM     14  C   UNL d   1       2.667   3.746  -1.039  0.00  0.00     0.033 A 
ATOM     15  C   UNL d   1       2.406   5.125  -1.105  0.00  0.00     0.044 A 
ATOM     16  C   UNL d   1       1.318   5.655  -0.432  0.00  0.00     0.116 A 
ATOM     17  C   UNL d   1       0.491   4.839   0.317  0.00  0.00     0.044 A 
ATOM     18  F   UNL d   1       1.067   6.969  -0.502  0.00  0.00    -0.206 F 
ATOM     19  C   UNL d   1       0.761   3.465   0.396  0.00  0.00     0.033 A 
ENDBRANCH   2  13
BRANCH   3  20
ATOM     20  C   UNL d   1       4.842  -1.074  -0.744  0.00  0.00     0.038 A 
ATOM     21  C   UNL d   1       6.109  -0.523  -0.925  0.00  0.00     0.055 A 
ATOM     22  C   UNL d   1       7.196  -1.349  -1.250  0.00  0.00     0.058 A 
ATOM     23 CL   UNL d   1       8.732  -0.596  -1.502  0.00  0.00    -0.082 Cl
ATOM     24  C   UNL d   1       7.017  -2.731  -1.383  0.00  0.00     0.055 A 
ATOM     25  C   UNL d   1       5.764  -3.291  -1.149  0.00  0.00     0.028 A 
ATOM     26 CL   UNL d   1       8.293  -3.797  -1.856  0.00  0.00    -0.083 Cl
ATOM     27  C   UNL d   1       4.684  -2.466  -0.827  0.00  0.00     0.031 A 
ENDBRANCH   3  20
TORSDOF 3
