REMARK  3 active torsions:
REMARK  status: ('A' for Active; 'I' for Inactive)
REMARK    1  A    between atoms: C_3  and  C_4 
REMARK    2  A    between atoms: C_13  and  C_6 
REMARK    3  A    between atoms: O_21  and  C_17 
ROOT
ATOM      1  C   UNL d   1      -3.275  -1.989   0.002  0.00  0.00     0.011 A 
ATOM      2  C   UNL d   1      -4.170  -2.502   0.992  0.00  0.00     0.070 A 
ATOM      3  N   UNL d   1      -5.444  -2.347   0.583  0.00  0.00    -0.299 N 
ATOM      4  HN  UNL d   1      -6.293  -2.646   1.062  1.00  0.00     0.187 HD
ATOM      5  N   UNL d   1      -5.349  -1.712  -0.594  0.00  0.00    -0.311 N 
ATOM      6  C   UNL d   1      -4.070  -1.525  -1.018  0.00  0.00     0.120 A 
ATOM      7  H   UNL d   1      -6.207  -1.431  -1.055  0.00  0.00     0.186 HD
ENDROOT
BRANCH   1   8
ATOM      8  C   UNL d   1      -1.857  -1.868   0.017  0.00  0.00     0.033 C 
ATOM      9  C   UNL d   1      -1.180  -0.818   0.507  0.00  0.00     0.045 A 
ATOM     10  C   UNL d   1      -1.792   0.420   1.118  0.00  0.00     0.257 A 
ATOM     11  C   UNL d   1       0.277  -0.649   0.559  0.00  0.00     0.006 A 
ATOM     12  N   UNL d   1      -0.710   1.199   1.497  0.00  0.00    -0.322 N 
ATOM     13  O   UNL d   1      -2.962   0.715   1.248  0.00  0.00    -0.267 OA
ATOM     14  C   UNL d   1       0.496   0.589   1.174  0.00  0.00     0.046 A 
ATOM     15  H   UNL d   1      -0.824   2.098   1.938  0.00  0.00     0.169 HD
ATOM     16  C   UNL d   1       1.756   1.100   1.401  0.00  0.00     0.030 A 
ATOM     17  C   UNL d   1       2.842   0.327   0.986  0.00  0.00     0.002 A 
ATOM     18  C   UNL d   1       2.641  -0.918   0.362  0.00  0.00     0.001 A 
ATOM     19  C   UNL d   1       1.349  -1.418   0.144  0.00  0.00     0.015 A 
ENDBRANCH   1   8
BRANCH   2  20
ATOM     20  C   UNL d   1      -3.879  -3.105   2.298  0.00  0.00    -0.007 A 
ATOM     21  C   UNL d   1      -4.769  -2.924   3.368  0.00  0.00     0.016 A 
ATOM     22  C   UNL d   1      -4.520  -3.496   4.622  0.00  0.00     0.037 A 
ATOM     23  C   UNL d   1      -3.373  -4.259   4.824  0.00  0.00     0.068 A 
ATOM     24  C   UNL d   1      -2.493  -4.464   3.760  0.00  0.00     0.037 A 
ATOM     25  C   UNL d   1      -2.738  -3.889   2.509  0.00  0.00     0.016 A 
BRANCH  23  26
ATOM     26  O   UNL d   1      -3.031  -4.886   5.990  0.00  0.00    -0.356 OA
ATOM     27  C   UNL d   1      -3.536  -4.290   7.180  0.00  0.00     0.210 C 
ENDBRANCH  23  26
ENDBRANCH   2  20
TORSDOF 3
