REMARK  4 active torsions:
REMARK  status: ('A' for Active; 'I' for Inactive)
REMARK    1  A    between atoms: C_2  and  C_1 
REMARK    2  A    between atoms: C_9  and  C_2 
REMARK    3  A    between atoms: C_5  and  C_12 
REMARK       I    between atoms: N_6  and  C_5 
REMARK    4  A    between atoms: C_10  and  N_6 
ROOT
ATOM      1  C   UNL d   1      -3.880   1.132   0.151  0.00  0.00     0.030 A 
ATOM      2  C   UNL d   1      -5.067   1.402  -0.564  0.00  0.00     0.046 A 
ATOM      3  C   UNL d   1      -3.948   0.330   1.300  0.00  0.00     0.016 A 
ATOM      4  C   UNL d   1      -6.280   0.805  -0.171  0.00  0.00     0.018 A 
ATOM      5  C   UNL d   1      -5.154  -0.266   1.681  0.00  0.00     0.001 A 
ATOM      6  C   UNL d   1      -6.315  -0.042   0.939  0.00  0.00     0.001 A 
ENDROOT
BRANCH   1   7
ATOM      7  C   UNL d   1      -2.570   1.701  -0.276  0.00  0.00     0.194 C 
ATOM      8  O   UNL d   1      -2.582   2.869  -0.659  0.00  0.00    -0.287 OA
BRANCH   7   9
ATOM      9  C   UNL d   1      -1.260   0.931  -0.172  0.00  0.00     0.028 C 
ATOM     10  C   UNL d   1      -0.065   1.647   0.136  0.00  0.00    -0.041 C 
ATOM     11  C   UNL d   1       1.191   0.978   0.102  0.00  0.00    -0.049 C 
ATOM     12  C   UNL d   1      -0.086   3.127   0.455  0.00  0.00     0.050 C 
ATOM     13  C   UNL d   1       2.499   1.742   0.188  0.00  0.00     0.049 C 
ATOM     14  C   UNL d   1       1.239  -0.433  -0.011  0.00  0.00    -0.049 C 
ATOM     15  C   UNL d   1       0.044  -1.162  -0.196  0.00  0.00    -0.049 C 
ATOM     16  C   UNL d   1       2.589  -1.125   0.026  0.00  0.00     0.049 C 
ATOM     17  C   UNL d   1      -1.183  -0.470  -0.414  0.00  0.00    -0.041 C 
ATOM     18  C   UNL d   1       0.092  -2.676  -0.210  0.00  0.00     0.049 C 
ATOM     19  C   UNL d   1      -2.353  -1.271  -0.940  0.00  0.00     0.050 C 
ENDBRANCH   7   9
ENDBRANCH   1   7
BRANCH   2  20
ATOM     20  C   UNL d   1      -5.093   2.221  -1.805  0.00  0.00     0.257 C 
ATOM     21  N   UNL d   1      -5.983   3.281  -1.749  0.00  0.00    -0.318 N 
ATOM     22  H   UNL d   1      -6.521   3.387  -0.895  0.00  0.00     0.169 HD
ATOM     23  O   UNL d   1      -4.416   1.843  -2.747  0.00  0.00    -0.267 OA
BRANCH  21  24
ATOM     24  C   UNL d   1      -6.201   4.316  -2.696  0.00  0.00     0.113 A 
ATOM     25  C   UNL d   1      -5.515   4.517  -3.895  0.00  0.00     0.146 A 
ATOM     26  F   UNL d   1      -4.572   3.679  -4.335  0.00  0.00    -0.204 F 
ATOM     27  C   UNL d   1      -5.777   5.635  -4.700  0.00  0.00     0.045 A 
ATOM     28  C   UNL d   1      -6.744   6.570  -4.330  0.00  0.00     0.006 A 
ATOM     29  C   UNL d   1      -7.463   6.372  -3.157  0.00  0.00     0.045 A 
ATOM     30  C   UNL d   1      -7.187   5.259  -2.361  0.00  0.00     0.146 A 
ATOM     31  F   UNL d   1      -7.895   5.095  -1.230  0.00  0.00    -0.204 F 
ENDBRANCH  21  24
ENDBRANCH   2  20
TORSDOF 4
