REMARK  2 active torsions:
REMARK  status: ('A' for Active; 'I' for Inactive)
REMARK       I    between atoms: N_2  and  C_1 
REMARK    1  A    between atoms: C_3  and  C_1 
REMARK    2  A    between atoms: O_17  and  C_12 
ROOT
ATOM      1  C   UNL d   1       0.891   0.171  -0.041  0.00  0.00     0.264 C 
ATOM      2  N   UNL d   1       0.235  -0.628   0.913  0.00  0.00    -0.313 N 
ATOM      3  C   UNL d   1      -0.763  -1.619   0.664  0.00  0.00     0.044 A 
ATOM      4  C   UNL d   1      -1.774  -1.833   1.620  0.00  0.00    -0.028 A 
ATOM      5  C   UNL d   1      -0.780  -2.386  -0.508  0.00  0.00     0.033 A 
ATOM      6  O   UNL d   1       1.830   0.921   0.245  0.00  0.00    -0.267 OA
ATOM      7  C   UNL d   1      -2.836  -2.705   1.321  0.00  0.00     0.046 A 
ATOM      8  C   UNL d   1       0.510  -0.353   2.325  0.00  0.00     0.133 C 
ATOM      9  C   UNL d   1      -2.900  -3.376   0.100  0.00  0.00     0.068 A 
ATOM     10  C   UNL d   1      -1.848  -3.242  -0.801  0.00  0.00     0.039 A 
ATOM     11  C   UNL d   1      -1.747  -1.173   2.975  0.00  0.00     0.042 C 
ATOM     12  C   UNL d   1      -0.776  -0.002   3.052  0.00  0.00     0.025 C 
ENDROOT
BRANCH   1  13
ATOM     13  C   UNL d   1       0.436   0.216  -1.441  0.00  0.00     0.109 A 
ATOM     14  C   UNL d   1      -0.895   0.458  -1.782  0.00  0.00     0.135 A 
ATOM     15  F   UNL d   1      -1.812   0.728  -0.842  0.00  0.00    -0.205 F 
ATOM     16  C   UNL d   1      -1.311   0.397  -3.112  0.00  0.00     0.043 A 
ATOM     17  C   UNL d   1      -0.382   0.150  -4.123  0.00  0.00     0.006 A 
ATOM     18  C   UNL d   1       0.963  -0.019  -3.796  0.00  0.00     0.043 A 
ATOM     19  C   UNL d   1       1.365   0.015  -2.461  0.00  0.00     0.135 A 
ATOM     20  F   UNL d   1       2.659  -0.199  -2.185  0.00  0.00    -0.205 F 
ENDBRANCH   1  13
BRANCH   9  21
ATOM     21  O   UNL d   1      -4.016  -4.144  -0.081  0.00  0.00    -0.356 OA
ATOM     22  C   UNL d   1      -4.219  -4.676  -1.384  0.00  0.00     0.210 C 
ENDBRANCH   9  21
TORSDOF 2
