REMARK  6 active torsions:
REMARK  status: ('A' for Active; 'I' for Inactive)
REMARK    1  A    between atoms: N_2  and  C_1 
REMARK    2  A    between atoms: C_3  and  C_1 
REMARK    3  A    between atoms: C_4  and  C_1 
REMARK    4  A    between atoms: N_7  and  C_1 
REMARK       I    between atoms: C_5  and  N_2 
REMARK    5  A    between atoms: C_14  and  C_5 
REMARK    6  A    between atoms: N_6  and  N_7 
ROOT
ATOM      1  C   UNL d   1       0.606  -0.011   0.146  0.00  0.00     0.303 C 
ENDROOT
BRANCH   1   2
ATOM      2  N   UNL d   1       0.574  -1.505  -0.085  0.00  0.00    -0.319 N 
ATOM      3  C   UNL d   1       1.493  -2.171  -0.855  0.00  0.00     0.254 C 
ATOM      4  O   UNL d   1       2.444  -1.567  -1.344  0.00  0.00    -0.268 OA
ATOM      5  H   UNL d   1      -0.306  -1.966   0.124  0.00  0.00     0.165 HD
BRANCH   3   6
ATOM      6  C   UNL d   1       1.329  -3.659  -0.989  0.00  0.00     0.037 A 
ATOM      7  C   UNL d   1       1.847  -4.399  -2.082  0.00  0.00    -0.046 A 
ATOM      8  C   UNL d   1       2.499  -3.796  -3.295  0.00  0.00     0.049 C 
ATOM      9  C   UNL d   1       1.683  -5.798  -2.088  0.00  0.00     0.007 A 
ATOM     10  C   UNL d   1       1.060  -6.469  -1.044  0.00  0.00     0.001 A 
ATOM     11  C   UNL d   1       0.563  -5.746   0.034  0.00  0.00     0.001 A 
ATOM     12  C   UNL d   1       0.700  -4.357   0.063  0.00  0.00     0.017 A 
ENDBRANCH   3   6
ENDBRANCH   1   2
BRANCH   1  13
ATOM     13  C   UNL d   1      -0.646   0.426   0.972  0.00  0.00     0.437 C 
ATOM     14  F   UNL d   1      -1.038  -0.608   1.773  0.00  0.00    -0.167 F 
ATOM     15  F   UNL d   1      -0.391   1.471   1.789  0.00  0.00    -0.167 F 
ATOM     16  F   UNL d   1      -1.724   0.728   0.220  0.00  0.00    -0.167 F 
ENDBRANCH   1  13
BRANCH   1  17
ATOM     17  C   UNL d   1       0.484   0.818  -1.185  0.00  0.00     0.437 C 
ATOM     18  F   UNL d   1      -0.190   0.124  -2.136  0.00  0.00    -0.167 F 
ATOM     19  F   UNL d   1      -0.152   2.000  -1.024  0.00  0.00    -0.167 F 
ATOM     20  F   UNL d   1       1.701   1.118  -1.708  0.00  0.00    -0.167 F 
ENDBRANCH   1  17
BRANCH   1  21
ATOM     21  N   UNL d   1       1.933   0.272   0.779  0.00  0.00    -0.187 NA
ATOM     22  H   UNL d   1       2.655  -0.084   0.139  0.00  0.00     0.150 HD
BRANCH  21  23
ATOM     23  N   UNL d   1       2.151  -0.116   2.127  0.00  0.00    -0.263 N 
ATOM     24  C   UNL d   1       1.739  -1.216   2.818  0.00  0.00     0.218 A 
ATOM     25  N   UNL d   1       2.271  -1.216   4.020  0.00  0.00    -0.294 N 
ATOM     26  N   UNL d   1       3.075  -0.105   4.118  0.00  0.00    -0.294 N 
ATOM     27  HN  UNL d   1       2.114  -1.913   4.748  1.00  0.00     0.187 HD
ATOM     28  C   UNL d   1       3.000   0.537   2.975  0.00  0.00     0.218 A 
ATOM     29  HN  UNL d   1       3.629   0.169   4.929  1.00  0.00     0.187 HD
ENDBRANCH  21  23
ENDBRANCH   1  21
TORSDOF 6
