REMARK  7 active torsions:
REMARK  status: ('A' for Active; 'I' for Inactive)
REMARK    1  A    between atoms: C_11  and  N_6 
REMARK    2  A    between atoms: N_9  and  C_10 
REMARK       I    between atoms: C_13  and  N_9 
REMARK    3  A    between atoms: C_10  and  N_18 
REMARK    4  A    between atoms: C_12  and  C_11 
REMARK       I    between atoms: N_19  and  C_12 
REMARK    5  A    between atoms: C_16  and  C_13 
REMARK    6  A    between atoms: C_17  and  C_16 
REMARK    7  A    between atoms: N_18  and  N_19 
ROOT
ATOM      1  C   UNL d   1       1.851   0.003   1.494  0.00  0.00     0.257 C 
ATOM      2  N   UNL d   1       2.415  -1.157   1.016  0.00  0.00    -0.266 N 
ATOM      3  O   UNL d   1       1.940   0.319   2.685  0.00  0.00    -0.270 OA
ATOM      4  H   UNL d   1       2.333  -1.466   0.043  0.00  0.00     0.190 HD
ENDROOT
BRANCH   2   5
ATOM      5  N   UNL d   1       3.000  -2.049   1.927  0.00  0.00    -0.273 N 
ATOM      6  H   UNL d   1       2.846  -1.849   2.925  0.00  0.00     0.189 HD
BRANCH   5   7
ATOM      7  C   UNL d   1       3.977  -2.940   1.555  0.00  0.00     0.193 C 
ATOM      8  S   UNL d   1       4.592  -3.109   0.008  0.00  0.00    -0.039 SA
BRANCH   7   9
ATOM      9  N   UNL d   1       4.413  -3.814   2.526  0.00  0.00    -0.299 N 
ATOM     10  C   UNL d   1       3.985  -3.866   3.840  0.00  0.00     0.247 C 
ATOM     11  O   UNL d   1       3.420  -2.942   4.406  0.00  0.00    -0.268 OA
ATOM     12  H   UNL d   1       5.023  -4.541   2.183  0.00  0.00     0.171 HD
BRANCH  10  13
ATOM     13  C   UNL d   1       4.291  -5.150   4.521  0.00  0.00     0.076 C 
BRANCH  13  14
ATOM     14  C   UNL d   1       4.173  -5.191   5.856  0.00  0.00     0.024 C 
ATOM     15  C   UNL d   1       4.262  -6.398   6.614  0.00  0.00     0.004 A 
ATOM     16  S   UNL d   1       4.258  -6.276   8.341  0.00  0.00    -0.102 SA
ATOM     17  C   UNL d   1       4.300  -7.730   6.234  0.00  0.00     0.019 A 
ATOM     18  C   UNL d   1       4.230  -7.969   8.544  0.00  0.00     0.050 A 
ATOM     19  C   UNL d   1       4.262  -8.632   7.341  0.00  0.00     0.008 A 
ENDBRANCH  13  14
ENDBRANCH  10  13
ENDBRANCH   7   9
ENDBRANCH   5   7
ENDBRANCH   2   5
BRANCH   1  20
ATOM     20  C   UNL d   1       1.224   0.950   0.506  0.00  0.00     0.272 C 
BRANCH  20  21
ATOM     21  N   UNL d   1       0.571   0.352  -0.640  0.00  0.00    -0.194 N 
ATOM     22  N   UNL d   1      -0.446   1.006  -1.242  0.00  0.00    -0.115 N 
ATOM     23  C   UNL d   1      -0.306   0.577  -2.501  0.00  0.00     0.709 A 
ATOM     24  HN  UNL d   1      -1.132   1.649  -0.846  1.00  0.00     0.207 HD
ATOM     25  N   UNL d   1       0.685  -0.366  -2.626  0.00  0.00    -0.113 N 
ATOM     26  N   UNL d   1      -0.985   1.008  -3.575  0.00  0.00    -0.215 N 
ATOM     27  N   UNL d   1       1.237  -0.512  -1.432  0.00  0.00     0.011 NA
ATOM     28  HN  UNL d   1       0.946  -0.861  -3.479  1.00  0.00     0.203 HD
ATOM     29  C   UNL d   1      -2.150   1.864  -3.505  0.00  0.00     0.141 C 
ATOM     30  C   UNL d   1      -0.560   0.747  -4.936  0.00  0.00     0.141 C 
ATOM     31  C   UNL d   1      -2.741   1.743  -4.907  0.00  0.00     0.022 C 
ATOM     32  C   UNL d   1      -1.510   1.587  -5.789  0.00  0.00     0.022 C 
ENDBRANCH  20  21
ENDBRANCH   1  20
TORSDOF 7
