REMARK  1 active torsions:
REMARK  status: ('A' for Active; 'I' for Inactive)
REMARK    1  A    between atoms: C_8  and  N_6 
ROOT
ATOM      1  C   UNL d   1      -0.662  -1.028  -0.241  0.00  0.00     0.146 C 
ATOM      2  S   UNL d   1      -1.439   0.504   0.177  0.00  0.00    -0.057 SA
ATOM      3  N   UNL d   1       0.564  -1.114   0.366  0.00  0.00    -0.357 N 
ATOM      4  C   UNL d   1      -0.209   0.880   1.365  0.00  0.00     0.004 C 
ATOM      5  C   UNL d   1       0.795  -0.254   1.522  0.00  0.00     0.058 C 
ATOM      6  N   UNL d   1      -1.307  -1.865  -0.978  0.00  0.00    -0.337 N 
ATOM      7  HN  UNL d   1      -2.215  -1.603  -1.363  1.00  0.00     0.168 HD
ATOM      8  C   UNL d   1      -0.188   2.072   1.978  0.00  0.00     0.029 C 
ATOM      9  C   UNL d   1       2.252   0.222   1.499  0.00  0.00     0.044 C 
ATOM     10  C   UNL d   1       0.524  -1.092   2.779  0.00  0.00     0.044 C 
ATOM     11  H   UNL d   1       0.958  -2.044   0.420  0.00  0.00     0.162 HD
ENDROOT
BRANCH   6  12
ATOM     12  C   UNL d   1      -0.775  -3.134  -1.257  0.00  0.00     0.034 A 
ATOM     13  C   UNL d   1       0.542  -3.339  -1.683  0.00  0.00     0.036 A 
ATOM     14  C   UNL d   1       1.055  -4.631  -1.861  0.00  0.00    -0.060 A 
ATOM     15  C   UNL d   1       2.500  -4.835  -2.205  0.00  0.00     0.048 C 
ATOM     16  C   UNL d   1       0.201  -5.728  -1.712  0.00  0.00     0.007 A 
ATOM     17  C   UNL d   1      -1.134  -5.534  -1.358  0.00  0.00     0.003 A 
ATOM     18  C   UNL d   1      -1.612  -4.245  -1.120  0.00  0.00     0.029 A 
ENDBRANCH   6  12
TORSDOF 1
