REMARK  3 active torsions:
REMARK  status: ('A' for Active; 'I' for Inactive)
REMARK    1  A    between atoms: C_2  and  C_1 
REMARK    2  A    between atoms: C_12  and  C_7 
REMARK    3  A    between atoms: C_13  and  C_14 
ROOT
ATOM      1  C   UNL d   1       3.771  -0.205  -0.005  0.00  0.00     0.057 A 
ATOM      2  N   UNL d   1       4.477   0.345   1.048  0.00  0.00    -0.348 N 
ATOM      3  HN  UNL d   1       4.131   0.404   2.006  1.00  0.00     0.166 HD
ATOM      4  C   UNL d   1       5.655   0.784   0.655  0.00  0.00     0.084 A 
ATOM      5  S   UNL d   1       5.988   0.536  -1.016  0.00  0.00    -0.081 SA
ATOM      6  C   UNL d   1       4.454  -0.199  -1.206  0.00  0.00     0.082 A 
ENDROOT
BRANCH   1   7
ATOM      7  C   UNL d   1       2.382  -0.775   0.173  0.00  0.00     0.039 A 
ATOM      8  S   UNL d   1       1.585  -1.617  -1.086  0.00  0.00    -0.087 SA
ATOM      9  C   UNL d   1       0.207  -1.948  -0.129  0.00  0.00     0.016 A 
ATOM     10  C   UNL d   1      -0.937  -2.676  -0.517  0.00  0.00     0.019 A 
ATOM     11  C   UNL d   1       0.331  -1.392   1.142  0.00  0.00    -0.012 A 
ATOM     12  C   UNL d   1      -1.979  -2.837   0.397  0.00  0.00     0.001 A 
ATOM     13  C   UNL d   1      -1.892  -2.287   1.665  0.00  0.00     0.001 A 
ATOM     14  C   UNL d   1      -0.752  -1.570   2.044  0.00  0.00     0.013 A 
ATOM     15  C   UNL d   1       1.603  -0.704   1.321  0.00  0.00    -0.031 A 
ATOM     16  C   UNL d   1       1.934  -0.030   2.620  0.00  0.00     0.050 C 
ENDBRANCH   1   7
BRANCH   4  17
ATOM     17  C   UNL d   1       6.652   1.382   1.557  0.00  0.00    -0.002 A 
ATOM     18  C   UNL d   1       6.684   0.987   2.900  0.00  0.00     0.015 A 
ATOM     19  C   UNL d   1       7.631   1.516   3.786  0.00  0.00     0.009 A 
ATOM     20  C   UNL d   1       8.575   2.471   3.366  0.00  0.00    -0.051 A 
ATOM     21  C   UNL d   1       8.517   2.879   2.025  0.00  0.00     0.009 A 
ATOM     22  C   UNL d   1       7.572   2.347   1.137  0.00  0.00     0.015 A 
BRANCH  20  23
ATOM     23  C   UNL d   1       9.612   3.028   4.357  0.00  0.00    -0.024 C 
ATOM     24  C   UNL d   1      10.563   4.075   3.732  0.00  0.00     0.019 C 
ATOM     25  C   UNL d   1       8.892   3.712   5.538  0.00  0.00     0.019 C 
ATOM     26  C   UNL d   1      10.490   1.879   4.896  0.00  0.00     0.019 C 
ENDBRANCH  20  23
ENDBRANCH   4  17
TORSDOF 3
