REMARK  8 active torsions:
REMARK  status: ('A' for Active; 'I' for Inactive)
REMARK    1  A    between atoms: N_2  and  C_1 
REMARK    2  A    between atoms: C_3  and  C_1 
REMARK    3  A    between atoms: C_5  and  C_1 
REMARK    4  A    between atoms: N_6  and  C_1 
REMARK       I    between atoms: C_4  and  N_2 
REMARK    5  A    between atoms: C_8  and  C_4 
REMARK    6  A    between atoms: O_14  and  C_5 
REMARK    7  A    between atoms: C_13  and  N_6 
REMARK    8  A    between atoms: C_17  and  O_14 
ROOT
ATOM      1  C   UNL d   1       0.887  -0.118   0.051  0.00  0.00     0.297 C 
ENDROOT
BRANCH   1   2
ATOM      2  N   UNL d   1       0.284  -1.352   0.575  0.00  0.00    -0.315 N 
ATOM      3  C   UNL d   1       0.150  -1.599   1.915  0.00  0.00     0.254 C 
ATOM      4  O   UNL d   1       0.489  -0.806   2.782  0.00  0.00    -0.268 OA
ATOM      5  H   UNL d   1      -0.175  -1.959  -0.094  0.00  0.00     0.166 HD
BRANCH   3   6
ATOM      6  C   UNL d   1      -0.459  -2.904   2.275  0.00  0.00     0.032 A 
ATOM      7  C   UNL d   1      -0.050  -4.081   1.636  0.00  0.00     0.017 A 
ATOM      8  C   UNL d   1      -0.579  -5.308   2.041  0.00  0.00     0.001 A 
ATOM      9  C   UNL d   1      -1.516  -5.360   3.073  0.00  0.00     0.000 A 
ATOM     10  C   UNL d   1      -1.932  -4.185   3.702  0.00  0.00     0.001 A 
ATOM     11  C   UNL d   1      -1.399  -2.956   3.309  0.00  0.00     0.017 A 
ENDBRANCH   3   6
ENDBRANCH   1   2
BRANCH   1  12
ATOM     12  C   UNL d   1       0.380   1.224   0.701  0.00  0.00     0.442 C 
ATOM     13  F   UNL d   1      -0.839   1.092   1.283  0.00  0.00    -0.166 F 
ATOM     14  F   UNL d   1       1.241   1.675   1.651  0.00  0.00    -0.166 F 
ATOM     15  F   UNL d   1       0.254   2.239  -0.194  0.00  0.00    -0.166 F 
ENDBRANCH   1  12
BRANCH   1  16
ATOM     16  C   UNL d   1       0.450   0.042  -1.424  0.00  0.00     0.318 C 
ATOM     17  O   UNL d   1      -0.571  -0.458  -1.886  0.00  0.00    -0.260 OA
BRANCH  16  18
ATOM     18  O   UNL d   1       1.356   0.760  -2.156  0.00  0.00    -0.318 OA
BRANCH  18  19
ATOM     19  C   UNL d   1       1.102   0.886  -3.561  0.00  0.00     0.174 C 
ATOM     20  C   UNL d   1       1.463  -0.392  -4.298  0.00  0.00     0.034 C 
ENDBRANCH  18  19
ENDBRANCH  16  18
ENDBRANCH   1  16
BRANCH   1  21
ATOM     21  N   UNL d   1       2.360  -0.309   0.175  0.00  0.00    -0.348 N 
ATOM     22  H   UNL d   1       2.696  -0.031   1.097  0.00  0.00     0.163 HD
BRANCH  21  23
ATOM     23  C   UNL d   1       3.148  -1.257  -0.457  0.00  0.00     0.030 A 
ATOM     24  C   UNL d   1       2.675  -2.215  -1.360  0.00  0.00     0.029 A 
ATOM     25  C   UNL d   1       3.544  -3.068  -2.051  0.00  0.00     0.002 A 
ATOM     26  C   UNL d   1       4.917  -2.965  -1.866  0.00  0.00     0.000 A 
ATOM     27  C   UNL d   1       5.417  -2.012  -0.987  0.00  0.00     0.002 A 
ATOM     28  C   UNL d   1       4.540  -1.169  -0.296  0.00  0.00     0.029 A 
ENDBRANCH  21  23
ENDBRANCH   1  21
TORSDOF 8
