REMARK  6 active torsions:
REMARK  status: ('A' for Active; 'I' for Inactive)
REMARK       I    between atoms: C_3  and  N_5 
REMARK    1  A    between atoms: C_16  and  C_3 
REMARK    2  A    between atoms: N_5  and  C_6 
REMARK    3  A    between atoms: C_7  and  C_17 
REMARK    4  A    between atoms: O_15  and  C_7 
REMARK    5  A    between atoms: S_13  and  C_16 
REMARK    6  A    between atoms: C_17  and  S_13 
ROOT
ATOM      1  C   UNL d   1       0.290  -0.700   0.077  0.00  0.00     0.104 A 
ATOM      2  C   UNL d   1       1.503  -1.391   0.148  0.00  0.00     0.069 A 
ATOM      3  C   UNL d   1       0.283   0.692  -0.057  0.00  0.00     0.102 A 
ATOM      4  C   UNL d   1       2.722  -0.721   0.030  0.00  0.00     0.037 A 
ATOM      5  O   UNL d   1      -0.824  -1.498   0.159  0.00  0.00    -0.348 OA
ATOM      6  O   UNL d   1      -0.836   1.484  -0.108  0.00  0.00    -0.348 OA
ATOM      7  C   UNL d   1       1.499   1.369  -0.174  0.00  0.00     0.042 A 
ATOM      8  C   UNL d   1       2.712   0.670  -0.117  0.00  0.00     0.032 A 
ATOM      9  C   UNL d   1      -2.744  -0.038  -0.068  0.00  0.00     0.053 C 
ATOM     10  C   UNL d   1      -1.865  -1.086  -0.725  0.00  0.00     0.178 C 
ATOM     11  C   UNL d   1      -1.926   1.002   0.681  0.00  0.00     0.178 C 
ENDROOT
BRANCH   4  12
ATOM     12  N   UNL d   1       3.973  -1.380   0.053  0.00  0.00    -0.326 N 
ATOM     13  C   UNL d   1       4.182  -2.743  -0.048  0.00  0.00     0.231 C 
ATOM     14  O   UNL d   1       3.316  -3.605  -0.226  0.00  0.00    -0.272 OA
ATOM     15  H   UNL d   1       4.790  -0.781   0.098  0.00  0.00     0.169 HD
BRANCH  13  16
ATOM     16  C   UNL d   1       5.626  -3.176   0.125  0.00  0.00     0.177 C 
BRANCH  16  17
ATOM     17  S   UNL d   1       5.939  -3.680   1.849  0.00  0.00    -0.149 SA
BRANCH  17  18
ATOM     18  C   UNL d   1       4.645  -4.947   2.106  0.00  0.00     0.184 C 
BRANCH  18  19
ATOM     19  C   UNL d   1       4.788  -6.134   1.179  0.00  0.00     0.149 C 
ATOM     20  O   UNL d   1       5.526  -7.084   1.398  0.00  0.00    -0.649 OA
BRANCH  19  21
ATOM     21  O   UNL d   1       4.036  -6.063   0.055  0.00  0.00    -0.776 OA
ATOM     22  H   UNL d   1       3.509  -5.230  -0.043  0.00  0.00     0.167 HD
ENDBRANCH  19  21
ENDBRANCH  18  19
ENDBRANCH  17  18
ENDBRANCH  16  17
ENDBRANCH  13  16
ENDBRANCH   4  12
TORSDOF 6
