REMARK  6 active torsions:
REMARK  status: ('A' for Active; 'I' for Inactive)
REMARK    1  A    between atoms: C_20  and  C_9 
REMARK    2  A    between atoms: C_10  and  C_19 
REMARK    3  A    between atoms: C_19  and  C_22 
REMARK    4  A    between atoms: C_21  and  C_20 
REMARK    5  A    between atoms: C_23  and  C_21 
REMARK    6  A    between atoms: C_22  and  C_23 
ROOT
ATOM      1  C   UNL d   1       3.034  -4.064  -0.399  0.00  0.00     0.001 C 
ENDROOT
BRANCH   1   2
ATOM      2  C   UNL d   1       4.570  -4.047  -0.390  0.00  0.00     0.005 C 
BRANCH   2   3
ATOM      3  C   UNL d   1       5.150  -3.631   0.968  0.00  0.00     0.043 C 
BRANCH   3   4
ATOM      4  C   UNL d   1       6.644  -3.473   0.955  0.00  0.00    -0.004 A 
ATOM      5  C   UNL d   1       7.184  -2.151   0.538  0.00  0.00     0.179 A 
ATOM      6  C   UNL d   1       8.626  -1.910   0.731  0.00  0.00     0.078 A 
ATOM      7  O   UNL d   1       6.473  -1.274   0.070  0.00  0.00    -0.288 OA
ATOM      8  C   UNL d   1       9.454  -2.867   1.162  0.00  0.00     0.064 A 
ATOM      9  C   UNL d   1       8.940  -4.232   1.455  0.00  0.00     0.190 A 
ATOM     10 BR   UNL d   1      11.273  -2.533   1.425  0.00  0.00    -0.047 Br
ATOM     11  C   UNL d   1       7.479  -4.431   1.377  0.00  0.00     0.067 A 
ATOM     12  O   UNL d   1       9.659  -5.173   1.772  0.00  0.00    -0.287 OA
ENDBRANCH   3   4
ENDBRANCH   2   3
ENDBRANCH   1   2
BRANCH   1  13
ATOM     13  C   UNL d   1       2.443  -2.662  -0.231  0.00  0.00     0.005 C 
BRANCH  13  14
ATOM     14  C   UNL d   1       0.913  -2.658  -0.174  0.00  0.00     0.043 C 
BRANCH  14  15
ATOM     15  C   UNL d   1       0.388  -1.251  -0.028  0.00  0.00    -0.004 C 
ATOM     16  C   UNL d   1      -0.333  -0.639  -0.978  0.00  0.00     0.067 C 
ATOM     17  C   UNL d   1      -0.792   0.760  -0.849  0.00  0.00     0.190 C 
ATOM     18  C   UNL d   1      -0.294   1.530   0.323  0.00  0.00     0.064 C 
ATOM     19  O   UNL d   1      -1.532   1.232  -1.704  0.00  0.00    -0.287 OA
ATOM     20  C   UNL d   1       0.401   0.917   1.285  0.00  0.00     0.078 C 
ATOM     21 BR   UNL d   1      -0.669   3.358   0.407  0.00  0.00    -0.047 Br
ATOM     22  C   UNL d   1       0.698  -0.524   1.233  0.00  0.00     0.179 C 
ATOM     23  O   UNL d   1       1.196  -1.081   2.203  0.00  0.00    -0.288 OA
ENDBRANCH  14  15
ENDBRANCH  13  14
ENDBRANCH   1  13
TORSDOF 6
