REMARK  2 active torsions:
REMARK  status: ('A' for Active; 'I' for Inactive)
REMARK    1  A    between atoms: C_8  and  C_6 
REMARK    2  A    between atoms: C_9  and  C_10 
ROOT
ATOM      1  C   UNL d   1       0.035  -0.700   0.059  0.00  0.00     0.067 A 
ATOM      2  C   UNL d   1       1.337  -1.376   0.078  0.00  0.00     0.302 A 
ATOM      3  N   UNL d   1       1.218   1.409  -0.018  0.00  0.00    -0.336 N 
ATOM      4  HN  UNL d   1       1.216   2.429  -0.040  1.00  0.00     0.168 HD
ATOM      5  O   UNL d   1       2.447  -0.602   0.025  0.00  0.00    -0.257 OA
ATOM      6  C   UNL d   1       2.323   0.741  -0.015  0.00  0.00     0.152 A 
ATOM      7  C   UNL d   1       0.033   0.684   0.008  0.00  0.00     0.050 A 
ATOM      8  C   UNL d   1      -1.165  -1.425   0.076  0.00  0.00     0.026 A 
ATOM      9  O   UNL d   1       1.409  -2.598   0.132  0.00  0.00    -0.259 OA
ATOM     10  C   UNL d   1      -1.186   1.360  -0.030  0.00  0.00     0.031 A 
ATOM     11  C   UNL d   1      -2.389  -0.749   0.035  0.00  0.00    -0.061 A 
ATOM     12  C   UNL d   1      -2.390   0.651  -0.024  0.00  0.00     0.009 A 
ATOM     13  C   UNL d   1      -3.688  -1.500   0.025  0.00  0.00     0.048 C 
ENDROOT
BRANCH   6  14
ATOM     14  C   UNL d   1       3.629   1.424  -0.052  0.00  0.00     0.059 C 
ATOM     15  C   UNL d   1       4.816   0.801  -0.092  0.00  0.00     0.041 C 
BRANCH  15  16
ATOM     16  C   UNL d   1       6.017   1.564  -0.115  0.00  0.00     0.075 A 
ATOM     17  O   UNL d   1       6.052   2.942  -0.083  0.00  0.00    -0.323 OA
ATOM     18  C   UNL d   1       7.344   3.342  -0.106  0.00  0.00     0.142 A 
ATOM     19  C   UNL d   1       8.178   2.256  -0.155  0.00  0.00     0.027 A 
ATOM     20  C   UNL d   1       7.334   1.119  -0.163  0.00  0.00     0.039 A 
ENDBRANCH  15  16
ENDBRANCH   6  14
TORSDOF 2
