REMARK  5 active torsions:
REMARK  status: ('A' for Active; 'I' for Inactive)
REMARK    1  A    between atoms: C_7  and  N_1 
REMARK    2  A    between atoms: C_9  and  C_4 
REMARK    3  A    between atoms: C_10  and  C_6 
REMARK    4  A    between atoms: C_8  and  C_11 
REMARK    5  A    between atoms: O_17  and  C_8 
ROOT
ATOM      1  N   UNL d   1       0.970  -0.709   0.012  0.00  0.00    -0.260 N 
ATOM      2  N   UNL d   1       0.957   0.638   0.250  0.00  0.00    -0.297 N 
ATOM      3  HN  UNL d   1       1.746   1.219   0.531  1.00  0.00     0.187 HD
ATOM      4  C   UNL d   1      -0.342  -1.211  -0.070  0.00  0.00     0.044 C 
ATOM      5  C   UNL d   1      -1.141  -0.075  -0.139  0.00  0.00     0.055 C 
ATOM      6  C   UNL d   1      -0.298   1.038   0.040  0.00  0.00     0.036 C 
ENDROOT
BRANCH   1   7
ATOM      7  C   UNL d   1       2.255  -1.327  -0.146  0.00  0.00     0.056 A 
ATOM      8  C   UNL d   1       3.391  -0.745   0.445  0.00  0.00     0.032 A 
ATOM      9  C   UNL d   1       4.663  -1.327   0.292  0.00  0.00     0.020 A 
ATOM     10  C   UNL d   1       4.816  -2.498  -0.461  0.00  0.00     0.037 A 
ATOM     11  C   UNL d   1       3.698  -3.055  -1.079  0.00  0.00     0.020 A 
ATOM     12  C   UNL d   1       2.440  -2.463  -0.933  0.00  0.00     0.032 A 
BRANCH  10  13
ATOM     13  C   UNL d   1       6.124  -3.160  -0.709  0.00  0.00     0.176 C 
ATOM     14  O   UNL d   1       6.347  -3.828  -1.701  0.00  0.00    -0.646 OA
BRANCH  13  15
ATOM     15  O   UNL d   1       7.025  -3.000   0.279  0.00  0.00    -0.773 OA
ATOM     16  H   UNL d   1       6.681  -2.601   1.099  0.00  0.00     0.167 HD
ENDBRANCH  13  15
ENDBRANCH  10  13
ENDBRANCH   1   7
BRANCH   4  17
ATOM     17  C   UNL d   1      -0.841  -2.663  -0.023  0.00  0.00    -0.007 C 
ATOM     18  C   UNL d   1      -0.019  -3.562   0.924  0.00  0.00     0.021 C 
ATOM     19  C   UNL d   1      -2.281  -2.711   0.573  0.00  0.00     0.021 C 
ATOM     20  C   UNL d   1      -0.994  -3.249  -1.442  0.00  0.00     0.021 C 
ENDBRANCH   4  17
BRANCH   6  21
ATOM     21  C   UNL d   1      -0.702   2.508   0.046  0.00  0.00    -0.007 C 
ATOM     22  C   UNL d   1       0.512   3.450   0.183  0.00  0.00     0.021 C 
ATOM     23  C   UNL d   1      -1.422   2.861  -1.275  0.00  0.00     0.021 C 
ATOM     24  C   UNL d   1      -1.665   2.795   1.216  0.00  0.00     0.021 C 
ENDBRANCH   6  21
TORSDOF 5
