REMARK  4 active torsions:
REMARK  status: ('A' for Active; 'I' for Inactive)
REMARK    1  A    between atoms: N_2  and  C_1 
REMARK       I    between atoms: C_3  and  N_6 
REMARK       I    between atoms: N_7  and  C_3 
REMARK    2  A    between atoms: N_9  and  C_4 
REMARK    3  A    between atoms: C_5  and  C_12 
REMARK    4  A    between atoms: C_11  and  N_7 
ROOT
ATOM      1  C   UNL d   1       2.854  -6.136   0.678  0.00  0.00     0.323 C 
ATOM      2  N   UNL d   1       1.591  -5.547   0.624  0.00  0.00    -0.332 N 
ATOM      3  N   UNL d   1       3.148  -6.728   1.885  0.00  0.00    -0.307 N 
ATOM      4  N   UNL d   1       1.105  -2.636   0.081  0.00  0.00    -0.377 N 
ATOM      5  O   UNL d   1       3.607  -6.156  -0.291  0.00  0.00    -0.247 OA
ATOM      6  C   UNL d   1       1.117  -5.048  -0.673  0.00  0.00     0.147 C 
ATOM      7  C   UNL d   1       1.475  -3.583  -1.004  0.00  0.00     0.143 C 
ATOM      8  C   UNL d   1       1.337  -3.711   2.317  0.00  0.00     0.040 C 
ATOM      9  C   UNL d   1       0.848  -5.056   1.784  0.00  0.00     0.129 C 
ATOM     10  C   UNL d   1       1.972  -2.791   1.281  0.00  0.00     0.124 C 
ATOM     11  H   UNL d   1       2.350  -7.177   2.319  0.00  0.00     0.170 HD
ENDROOT
BRANCH   4  12
ATOM     12  C   UNL d   1       0.812  -1.280  -0.170  0.00  0.00     0.063 A 
ATOM     13  C   UNL d   1       1.159  -0.476  -1.270  0.00  0.00     0.130 A 
ATOM     14  C   UNL d   1       0.954   0.924  -1.292  0.00  0.00     0.054 A 
ATOM     15  C   UNL d   1       0.368   1.571  -0.204  0.00  0.00     0.050 A 
ATOM     16  C   UNL d   1      -0.101   0.787   0.851  0.00  0.00     0.018 A 
ATOM     17  C   UNL d   1       0.105  -0.600   0.851  0.00  0.00     0.032 A 
BRANCH  13  18
ATOM     18  N   UNL d   1       1.818  -0.995  -2.451  0.00  0.00    -0.113 N 
ATOM     19  O   UNL d   1       3.021  -1.263  -2.354  0.00  0.00    -0.532 OA
ATOM     20  O   UNL d   1       1.132  -1.066  -3.478  0.00  0.00    -0.532 OA
ENDBRANCH  13  18
BRANCH  15  21
ATOM     21  C   UNL d   1       0.278   3.076  -0.133  0.00  0.00     0.417 C 
ATOM     22  F   UNL d   1       0.820   3.701  -1.214  0.00  0.00    -0.166 F 
ATOM     23  F   UNL d   1      -1.002   3.525  -0.036  0.00  0.00    -0.166 F 
ATOM     24  F   UNL d   1       0.935   3.574   0.952  0.00  0.00    -0.166 F 
ENDBRANCH  15  21
ENDBRANCH   4  12
BRANCH   3  25
ATOM     25  C   UNL d   1       4.402  -7.299   2.227  0.00  0.00     0.059 A 
ATOM     26  C   UNL d   1       4.435  -8.476   3.003  0.00  0.00     0.082 A 
ATOM     27  C   UNL d   1       5.657  -8.966   3.485  0.00  0.00     0.058 A 
ATOM     28 CL   UNL d   1       2.948  -9.333   3.295  0.00  0.00    -0.080 Cl
ATOM     29 CL   UNL d   1       5.768 -10.388   4.464  0.00  0.00    -0.082 Cl
ATOM     30  C   UNL d   1       6.844  -8.292   3.192  0.00  0.00     0.026 A 
ATOM     31  C   UNL d   1       6.817  -7.156   2.380  0.00  0.00     0.004 A 
ATOM     32  C   UNL d   1       5.605  -6.668   1.892  0.00  0.00     0.031 A 
ENDBRANCH   3  25
TORSDOF 4
