REMARK  6 active torsions:
REMARK  status: ('A' for Active; 'I' for Inactive)
REMARK    1  A    between atoms: C_7  and  C_1 
REMARK    2  A    between atoms: C_3  and  C_2 
REMARK    3  A    between atoms: S_12  and  C_6 
REMARK    4  A    between atoms: O_23  and  C_7 
REMARK    5  A    between atoms: C_14  and  S_12 
REMARK    6  A    between atoms: C_25  and  O_23 
ROOT
ATOM      1  C   UNL d   1      -0.082  -1.474  -0.041  0.00  0.00     0.086 A 
ATOM      2  C   UNL d   1       1.138  -0.825  -0.018  0.00  0.00     0.136 A 
ATOM      3  N   UNL d   1       1.201   0.548  -0.025  0.00  0.00    -0.332 N 
ATOM      4  HN  UNL d   1       2.103   1.025  -0.012  1.00  0.00     0.168 HD
ATOM      5  C   UNL d   1       0.060   1.253  -0.049  0.00  0.00     0.149 A 
ATOM      6  N   UNL d   1      -1.155   0.702  -0.070  0.00  0.00    -0.345 N 
ATOM      7  HN  UNL d   1      -2.004   1.268  -0.095  1.00  0.00     0.167 HD
ATOM      8  C   UNL d   1      -1.197  -0.647  -0.057  0.00  0.00     0.110 A 
ENDROOT
BRANCH   5   9
ATOM      9  S   UNL d   1       0.180   3.019  -0.003  0.00  0.00    -0.054 SA
BRANCH   9  10
ATOM     10  C   UNL d   1       0.215   3.419  -1.740  0.00  0.00     0.010 A 
ATOM     11  C   UNL d   1      -0.730   4.320  -2.248  0.00  0.00     0.046 A 
ATOM     12  C   UNL d   1      -0.701   4.683  -3.596  0.00  0.00     0.073 A 
ATOM     13 CL   UNL d   1      -1.871   5.792  -4.200  0.00  0.00    -0.081 Cl
ATOM     14  C   UNL d   1       0.274   4.152  -4.438  0.00  0.00     0.138 A 
ATOM     15  C   UNL d   1       1.226   3.266  -3.944  0.00  0.00     0.045 A 
ATOM     16  F   UNL d   1       0.320   4.490  -5.735  0.00  0.00    -0.204 F 
ATOM     17  C   UNL d   1       1.201   2.904  -2.594  0.00  0.00     0.022 A 
ENDBRANCH   9  10
ENDBRANCH   5   9
BRANCH   2  18
ATOM     18  C   UNL d   1       2.491  -1.512  -0.040  0.00  0.00     0.433 C 
ATOM     19  F   UNL d   1       2.500  -2.864  -0.132  0.00  0.00    -0.165 F 
ATOM     20  F   UNL d   1       3.234  -1.095  -1.113  0.00  0.00    -0.165 F 
ATOM     21  F   UNL d   1       3.243  -1.205   1.057  0.00  0.00    -0.165 F 
ENDBRANCH   2  18
BRANCH   1  22
ATOM     22  C   UNL d   1      -0.299  -2.933   0.025  0.00  0.00     0.296 C 
ATOM     23  O   UNL d   1       0.394  -3.704   0.656  0.00  0.00    -0.259 OA
BRANCH  22  24
ATOM     24  O   UNL d   1      -1.417  -3.240  -0.682  0.00  0.00    -0.318 OA
BRANCH  24  25
ATOM     25  C   UNL d   1      -1.824  -4.620  -0.690  0.00  0.00     0.174 C 
ATOM     26  C   UNL d   1      -2.542  -4.988   0.597  0.00  0.00     0.034 C 
ENDBRANCH  24  25
ENDBRANCH  22  24
ENDBRANCH   1  22
TORSDOF 6
