REMARK  3 active torsions:
REMARK  status: ('A' for Active; 'I' for Inactive)
REMARK    1  A    between atoms: N_2  and  S_1 
REMARK    2  A    between atoms: C_3  and  S_1 
REMARK    3  A    between atoms: C_4  and  N_2 
ROOT
ATOM      1  S   UNL d   1       0.766  -0.132   0.119  0.00  0.00     0.248 S 
ATOM      2  O   UNL d   1      -0.171  -1.178   0.474  0.00  0.00    -0.205 OA
ATOM      3  O   UNL d   1       2.181  -0.412   0.030  0.00  0.00    -0.205 OA
ENDROOT
BRANCH   1   4
ATOM      4  N   UNL d   1       0.570   1.139   1.238  0.00  0.00    -0.165 NA
ATOM      5  H   UNL d   1       1.433   1.685   1.258  0.00  0.00     0.147 HD
BRANCH   4   6
ATOM      6  C   UNL d   1      -0.650   1.875   1.147  0.00  0.00     0.111 A 
ATOM      7  N   UNL d   1      -1.942   1.485   1.418  0.00  0.00    -0.285 N 
ATOM      8  N   UNL d   1      -2.842   2.442   1.109  0.00  0.00    -0.309 N 
ATOM      9  C   UNL d   1      -2.405   0.299   2.098  0.00  0.00     0.179 C 
ATOM     10  C   UNL d   1      -2.094   3.485   0.743  0.00  0.00     0.110 A 
ATOM     11  HN  UNL d   1      -3.860   2.382   1.147  1.00  0.00     0.186 HD
ATOM     12  C   UNL d   1      -0.720   3.195   0.776  0.00  0.00     0.063 A 
ENDBRANCH   4   6
ENDBRANCH   1   4
BRANCH   1  13
ATOM     13  C   UNL d   1       0.243   0.559  -1.438  0.00  0.00     0.097 A 
ATOM     14  C   UNL d   1       0.986   1.529  -2.112  0.00  0.00     0.058 A 
ATOM     15  C   UNL d   1       0.541   1.992  -3.357  0.00  0.00     0.050 A 
ATOM     16 CL   UNL d   1       2.414   2.263  -1.478  0.00  0.00    -0.083 Cl
ATOM     17  C   UNL d   1      -0.644   1.507  -3.922  0.00  0.00     0.041 A 
ATOM     18  C   UNL d   1      -1.410   0.549  -3.246  0.00  0.00    -0.039 A 
ATOM     19 CL   UNL d   1      -1.107   2.138  -5.461  0.00  0.00    -0.084 Cl
ATOM     20  C   UNL d   1      -0.948   0.078  -2.004  0.00  0.00     0.035 A 
ATOM     21  C   UNL d   1      -2.707  -0.011  -3.760  0.00  0.00     0.050 C 
ENDBRANCH   1  13
TORSDOF 3
