REMARK  3 active torsions:
REMARK  status: ('A' for Active; 'I' for Inactive)
REMARK    1  A    between atoms: C_3  and  C_1 
REMARK       I    between atoms: N_7  and  C_3 
REMARK    2  A    between atoms: C_8  and  C_5 
REMARK    3  A    between atoms: C_12  and  N_7 
ROOT
ATOM      1  C   UNL d   1      -0.181  -1.228   0.131  0.00  0.00     0.064 A 
ATOM      2  C   UNL d   1      -1.487  -0.659   0.298  0.00  0.00     0.057 A 
ATOM      3  C   UNL d   1       0.657  -0.133  -0.043  0.00  0.00     0.065 A 
ATOM      4  C   UNL d   1      -1.363   0.713   0.203  0.00  0.00     0.087 A 
ATOM      5  O   UNL d   1      -0.055   1.026  -0.007  0.00  0.00    -0.314 OA
ATOM      6  C   UNL d   1       2.114   0.049  -0.239  0.00  0.00     0.077 C 
ENDROOT
BRANCH   1   7
ATOM      7  C   UNL d   1       0.261  -2.624   0.155  0.00  0.00     0.258 C 
ATOM      8  N   UNL d   1      -0.755  -3.547   0.351  0.00  0.00    -0.323 N 
ATOM      9  H   UNL d   1      -1.701  -3.198   0.341  0.00  0.00     0.169 HD
ATOM     10  O   UNL d   1       1.444  -2.912   0.011  0.00  0.00    -0.267 OA
BRANCH   8  11
ATOM     11  C   UNL d   1      -0.613  -4.934   0.573  0.00  0.00     0.035 A 
ATOM     12  C   UNL d   1       0.619  -5.580   0.714  0.00  0.00     0.031 A 
ATOM     13  C   UNL d   1       0.681  -6.951   0.985  0.00  0.00     0.026 A 
ATOM     14  C   UNL d   1      -0.492  -7.687   1.112  0.00  0.00     0.034 A 
ATOM     15  C   UNL d   1      -1.727  -7.063   0.963  0.00  0.00     0.026 A 
ATOM     16 CL   UNL d   1      -0.415  -9.368   1.465  0.00  0.00    -0.084 Cl
ATOM     17  C   UNL d   1      -1.787  -5.691   0.695  0.00  0.00     0.031 A 
ENDBRANCH   8  11
ENDBRANCH   1   7
BRANCH   4  18
ATOM     18  C   UNL d   1      -2.292   1.839   0.284  0.00  0.00    -0.002 A 
ATOM     19  C   UNL d   1      -3.643   1.632   0.603  0.00  0.00     0.016 A 
ATOM     20  C   UNL d   1      -4.537   2.708   0.677  0.00  0.00     0.024 A 
ATOM     21  C   UNL d   1      -4.087   4.002   0.433  0.00  0.00     0.034 A 
ATOM     22  C   UNL d   1      -2.752   4.231   0.117  0.00  0.00     0.024 A 
ATOM     23 CL   UNL d   1      -5.187   5.321   0.521  0.00  0.00    -0.084 Cl
ATOM     24  C   UNL d   1      -1.861   3.155   0.044  0.00  0.00     0.016 A 
ENDBRANCH   4  18
TORSDOF 3
