REMARK  5 active torsions:
REMARK  status: ('A' for Active; 'I' for Inactive)
REMARK    1  A    between atoms: C_4  and  N_1 
REMARK       I    between atoms: C_5  and  N_1 
REMARK    2  A    between atoms: C_10  and  C_5 
REMARK    3  A    between atoms: C_6  and  C_11 
REMARK    4  A    between atoms: O_14  and  C_6 
REMARK    5  A    between atoms: C_11  and  C_10 
ROOT
ATOM      1  N   UNL d   1       0.990  -0.188   0.017  0.00  0.00    -0.313 N 
ATOM      2  C   UNL d   1       2.345   0.042  -0.065  0.00  0.00     0.223 C 
ATOM      3  O   UNL d   1       2.908   1.089   0.246  0.00  0.00    -0.273 OA
ATOM      4  H   UNL d   1       0.673  -1.144   0.177  0.00  0.00     0.170 HD
ENDROOT
BRANCH   1   5
ATOM      5  C   UNL d   1       0.067   0.769   0.434  0.00  0.00     0.107 A 
ATOM      6  N   UNL d   1      -0.885   0.317   1.273  0.00  0.00    -0.351 N 
ATOM      7  C   UNL d   1      -1.777   1.225   1.736  0.00  0.00     0.108 A 
ATOM      8  HN  UNL d   1      -0.932  -0.664   1.547  1.00  0.00     0.166 HD
ATOM      9  C   UNL d   1      -1.808   2.550   1.331  0.00  0.00     0.026 A 
ATOM     10  C   UNL d   1      -0.863   2.979   0.409  0.00  0.00     0.024 A 
ATOM     11 BR   UNL d   1      -3.096   3.740   2.019  0.00  0.00    -0.050 Br
ATOM     12  C   UNL d   1       0.107   2.079  -0.033  0.00  0.00     0.050 A 
ENDBRANCH   1   5
BRANCH   2  13
ATOM     13  C   UNL d   1       3.146  -1.154  -0.547  0.00  0.00     0.113 C 
BRANCH  13  14
ATOM     14  C   UNL d   1       3.444  -2.167   0.554  0.00  0.00     0.119 C 
BRANCH  14  15
ATOM     15  C   UNL d   1       2.203  -2.887   1.020  0.00  0.00     0.139 C 
ATOM     16  O   UNL d   1       1.154  -2.913   0.400  0.00  0.00    -0.650 OA
BRANCH  15  17
ATOM     17  O   UNL d   1       2.361  -3.509   2.207  0.00  0.00    -0.776 OA
ATOM     18  H   UNL d   1       3.239  -3.391   2.616  0.00  0.00     0.167 HD
ENDBRANCH  15  17
ENDBRANCH  14  15
ENDBRANCH  13  14
ENDBRANCH   2  13
TORSDOF 5
