REMARK  7 active torsions:
REMARK  status: ('A' for Active; 'I' for Inactive)
REMARK    1  A    between atoms: N_8  and  C_2 
REMARK    2  A    between atoms: C_18  and  N_3 
REMARK    3  A    between atoms: C_7  and  C_6 
REMARK    4  A    between atoms: C_15  and  C_10 
REMARK    5  A    between atoms: O_25  and  C_11 
REMARK    6  A    between atoms: O_26  and  C_13 
REMARK    7  A    between atoms: O_27  and  C_14 
ROOT
ATOM      1  C   UNL d   1      -3.100  -2.651  -0.633  0.00  0.00     0.120 C 
ATOM      2  C   UNL d   1      -4.054  -3.631  -0.441  0.00  0.00     0.157 C 
ATOM      3  N   UNL d   1      -5.013  -3.075   0.385  0.00  0.00    -0.237 N 
ATOM      4  N   UNL d   1      -4.833  -1.727   0.514  0.00  0.00    -0.289 N 
ATOM      5  HN  UNL d   1      -5.491  -1.048   0.898  1.00  0.00     0.188 HD
ATOM      6  C   UNL d   1      -3.602  -1.488   0.027  0.00  0.00     0.094 C 
ATOM      7  C   UNL d   1      -1.935  -2.743  -1.459  0.00  0.00     0.106 C 
ATOM      8  N   UNL d   1      -1.011  -2.800  -2.153  0.00  0.00    -0.191 NA
ENDROOT
BRANCH   2   9
ATOM      9  N   UNL d   1      -4.126  -4.904  -1.017  0.00  0.00    -0.316 N 
ATOM     10  C   UNL d   1      -5.279  -5.590  -1.358  0.00  0.00     0.098 A 
ATOM     11  C   UNL d   1      -4.951  -6.828  -1.862  0.00  0.00     0.019 A 
ATOM     12  C   UNL d   1      -3.546  -6.902  -1.885  0.00  0.00     0.019 A 
ATOM     13  C   UNL d   1      -3.066  -5.708  -1.392  0.00  0.00     0.098 A 
ENDBRANCH   2   9
BRANCH   6  14
ATOM     14  C   UNL d   1      -2.934  -0.200   0.091  0.00  0.00     0.075 C 
ATOM     15  C   UNL d   1      -3.580   0.982  -0.047  0.00  0.00     0.036 C 
ATOM     16  C   UNL d   1      -1.521  -0.242   0.336  0.00  0.00     0.102 C 
ATOM     17  N   UNL d   1      -0.373  -0.304   0.494  0.00  0.00    -0.191 NA
BRANCH  15  18
ATOM     18  C   UNL d   1      -2.961   2.327  -0.100  0.00  0.00    -0.029 A 
ATOM     19  C   UNL d   1      -1.821   2.576  -0.871  0.00  0.00     0.051 A 
ATOM     20  C   UNL d   1      -1.204   3.839  -0.908  0.00  0.00     0.105 A 
ATOM     21  C   UNL d   1      -1.790   4.927  -0.226  0.00  0.00     0.135 A 
ATOM     22  C   UNL d   1      -2.965   4.693   0.527  0.00  0.00     0.105 A 
ATOM     23  C   UNL d   1      -3.529   3.402   0.582  0.00  0.00     0.051 A 
BRANCH  20  24
ATOM     24  O   UNL d   1       0.003   4.026  -1.536  0.00  0.00    -0.353 OA
ATOM     25  C   UNL d   1       0.412   3.060  -2.500  0.00  0.00     0.210 C 
ENDBRANCH  20  24
BRANCH  21  26
ATOM     26  O   UNL d   1      -1.308   6.209  -0.210  0.00  0.00    -0.351 OA
ATOM     27  C   UNL d   1      -0.290   6.630  -1.105  0.00  0.00     0.210 C 
ENDBRANCH  21  26
BRANCH  22  28
ATOM     28  O   UNL d   1      -3.678   5.583   1.295  0.00  0.00    -0.353 OA
ATOM     29  C   UNL d   1      -3.433   6.977   1.171  0.00  0.00     0.210 C 
ENDBRANCH  22  28
ENDBRANCH  15  18
ENDBRANCH   6  14
BRANCH   3  30
ATOM     30  C   UNL d   1      -6.042  -3.729   1.116  0.00  0.00     0.058 A 
ATOM     31  C   UNL d   1      -5.843  -5.024   1.625  0.00  0.00     0.031 A 
ATOM     32  C   UNL d   1      -6.903  -5.714   2.210  0.00  0.00     0.002 A 
ATOM     33  C   UNL d   1      -8.157  -5.113   2.302  0.00  0.00     0.000 A 
ATOM     34  C   UNL d   1      -8.340  -3.804   1.852  0.00  0.00     0.002 A 
ATOM     35  C   UNL d   1      -7.279  -3.097   1.280  0.00  0.00     0.031 A 
ENDBRANCH   3  30
TORSDOF 7
