REMARK  8 active torsions:
REMARK  status: ('A' for Active; 'I' for Inactive)
REMARK    1  A    between atoms: C_2  and  S_1 
REMARK    2  A    between atoms: C_6  and  S_1 
REMARK    3  A    between atoms: C_18  and  C_2 
REMARK    4  A    between atoms: C_5  and  C_17 
REMARK    5  A    between atoms: S_7  and  C_5 
REMARK    6  A    between atoms: C_9  and  S_7 
REMARK    7  A    between atoms: S_11  and  C_18 
REMARK    8  A    between atoms: C_17  and  S_11 
ROOT
ATOM      1  S   UNL d   1       1.447  -1.093  -4.215  0.00  0.00    -0.160 SA
ENDROOT
BRANCH   1   2
ATOM      2  C   UNL d   1       1.258   0.056  -2.805  0.00  0.00     0.089 C 
BRANCH   2   3
ATOM      3  C   UNL d   1       0.628  -0.691  -1.640  0.00  0.00     0.156 C 
BRANCH   3   4
ATOM      4  S   UNL d   1       0.396   0.390  -0.246  0.00  0.00     0.176 S 
ATOM      5  O   UNL d   1      -0.518   1.447  -0.636  0.00  0.00    -0.223 OA
ATOM      6  O   UNL d   1       1.700   0.707   0.306  0.00  0.00    -0.223 OA
BRANCH   4   7
ATOM      7  C   UNL d   1      -0.453  -0.643   0.930  0.00  0.00     0.059 A 
ATOM      8  C   UNL d   1       0.281  -1.381   1.863  0.00  0.00     0.023 A 
ATOM      9  C   UNL d   1      -0.392  -2.197   2.774  0.00  0.00     0.002 A 
ATOM     10  C   UNL d   1      -1.787  -2.263   2.757  0.00  0.00     0.000 A 
ATOM     11  C   UNL d   1      -2.515  -1.506   1.838  0.00  0.00     0.002 A 
ATOM     12  C   UNL d   1      -1.850  -0.687   0.924  0.00  0.00     0.023 A 
ENDBRANCH   4   7
ENDBRANCH   3   4
ENDBRANCH   2   3
ENDBRANCH   1   2
BRANCH   1  13
ATOM     13  C   UNL d   1       2.241   0.024  -5.422  0.00  0.00     0.164 C 
BRANCH  13  14
ATOM     14  C   UNL d   1       2.525  -0.669  -6.754  0.00  0.00     0.200 C 
ATOM     15  O   UNL d   1       2.448  -1.871  -6.969  0.00  0.00    -0.284 OA
BRANCH  14  16
ATOM     16  S   UNL d   1       3.147   0.447  -7.977  0.00  0.00    -0.052 SA
BRANCH  16  17
ATOM     17  C   UNL d   1       2.163   0.188  -9.445  0.00  0.00     0.008 A 
ATOM     18  C   UNL d   1       2.219   1.196 -10.423  0.00  0.00     0.021 A 
ATOM     19  C   UNL d   1       1.519   1.078 -11.629  0.00  0.00     0.025 A 
ATOM     20  C   UNL d   1       0.754  -0.057 -11.872  0.00  0.00     0.034 A 
ATOM     21  C   UNL d   1       0.682  -1.066 -10.917  0.00  0.00     0.025 A 
ATOM     22 CL   UNL d   1      -0.093  -0.218 -13.360  0.00  0.00    -0.084 Cl
ATOM     23  C   UNL d   1       1.386  -0.945  -9.710  0.00  0.00     0.021 A 
ENDBRANCH  16  17
ENDBRANCH  14  16
ENDBRANCH  13  14
ENDBRANCH   1  13
TORSDOF 8
