REMARK  1 active torsions:
REMARK  status: ('A' for Active; 'I' for Inactive)
REMARK    1  A    between atoms: S_12  and  C_5 
ROOT
ATOM      1  C   UNL d   1      -1.854   0.706   0.039  0.00  0.00     0.156 A 
ATOM      2  N   UNL d   1      -0.830   0.805  -0.861  0.00  0.00    -0.319 N 
ATOM      3  N   UNL d   1      -1.594  -0.267   0.888  0.00  0.00    -0.281 N 
ATOM      4  HN  UNL d   1      -2.186  -0.563   1.663  1.00  0.00     0.188 HD
ATOM      5  C   UNL d   1       0.067  -0.153  -0.503  0.00  0.00     0.158 A 
ATOM      6  N   UNL d   1      -0.374  -0.814   0.539  0.00  0.00    -0.278 N 
ATOM      7  HN  UNL d   1       0.096  -1.589   1.006  1.00  0.00     0.189 HD
ATOM      8  C   UNL d   1      -3.003   1.544   0.030  0.00  0.00     0.120 A 
ATOM      9  O   UNL d   1      -3.201   2.529  -0.907  0.00  0.00    -0.319 OA
ATOM     10  C   UNL d   1      -4.077   1.543   0.904  0.00  0.00     0.043 A 
ATOM     11  C   UNL d   1      -4.383   3.134  -0.623  0.00  0.00     0.142 A 
ATOM     12  C   UNL d   1      -4.962   2.564   0.485  0.00  0.00     0.027 A 
ATOM     13  H   UNL d   1      -0.770   1.458  -1.625  0.00  0.00     0.169 HD
ENDROOT
BRANCH   5  14
ATOM     14  S   UNL d   1       1.542  -0.401  -1.351  0.00  0.00    -0.106 SA
ATOM     15  H   UNL d   1       1.550   0.693  -2.124  0.00  0.00     0.110 HD
ENDBRANCH   5  14
TORSDOF 1
