REMARK  2 active torsions:
REMARK  status: ('A' for Active; 'I' for Inactive)
REMARK    1  A    between atoms: C_4  and  C_2 
REMARK    2  A    between atoms: O_9  and  C_4 
ROOT
ATOM      1  C   UNL d   1      -0.315  -0.641   0.033  0.00  0.00     0.093 A 
ATOM      2  C   UNL d   1      -1.444  -1.445  -0.002  0.00  0.00     0.071 A 
ATOM      3  O   UNL d   1       0.975  -1.109   0.073  0.00  0.00    -0.339 OA
ATOM      4  C   UNL d   1      -0.401   0.742   0.043  0.00  0.00    -0.021 A 
ATOM      5  C   UNL d   1       1.825   0.073  -0.008  0.00  0.00     0.064 C 
ATOM      6  C   UNL d   1       0.951   1.340   0.131  0.00  0.00     0.079 C 
ATOM      7  C   UNL d   1      -2.692  -0.805  -0.034  0.00  0.00     0.021 A 
ATOM      8  C   UNL d   1      -1.629   1.382   0.014  0.00  0.00     0.010 A 
ATOM      9  C   UNL d   1      -2.783   0.597  -0.028  0.00  0.00     0.002 A 
ATOM     10  C   UNL d   1       2.539   0.027  -1.362  0.00  0.00     0.046 C 
ATOM     11  C   UNL d   1       2.836  -0.032   1.135  0.00  0.00     0.046 C 
ENDROOT
BRANCH   2  12
ATOM     12  C   UNL d   1      -1.403  -2.932  -0.005  0.00  0.00     0.179 C 
ATOM     13  O   UNL d   1      -2.414  -3.612  -0.040  0.00  0.00    -0.646 OA
BRANCH  12  14
ATOM     14  O   UNL d   1      -0.165  -3.477   0.031  0.00  0.00    -0.773 OA
ATOM     15  H   UNL d   1       0.555  -2.813   0.059  0.00  0.00     0.167 HD
ENDBRANCH  12  14
ENDBRANCH   2  12
TORSDOF 2
