REMARK  7 active torsions:
REMARK  status: ('A' for Active; 'I' for Inactive)
REMARK    1  A    between atoms: O_2  and  S_1 
REMARK    2  A    between atoms: C_9  and  S_1 
REMARK    3  A    between atoms: N_3  and  O_2 
REMARK    4  A    between atoms: C_5  and  C_8 
REMARK       I    between atoms: N_6  and  C_5 
REMARK    5  A    between atoms: C_10  and  N_6 
REMARK    6  A    between atoms: C_8  and  C_7 
REMARK    7  A    between atoms: N_20  and  C_7 
ROOT
ATOM      1  N   UNL d   1       0.857   1.555   1.669  0.00  0.00    -0.237 N 
ATOM      2  HN  UNL d   1       0.651   1.189   0.740  1.00  0.00     0.197 HD
ATOM      3  C   UNL d   1       0.502   2.733   2.080  0.00  0.00     0.105 C 
ENDROOT
BRANCH   3   4
ATOM      4  C   UNL d   1      -0.282   3.626   1.137  0.00  0.00     0.180 C 
BRANCH   4   5
ATOM      5  C   UNL d   1      -0.428   3.276  -0.330  0.00  0.00     0.229 C 
ATOM      6  N   UNL d   1       0.442   2.338  -0.834  0.00  0.00    -0.324 N 
ATOM      7  H   UNL d   1       0.803   1.652  -0.167  0.00  0.00     0.169 HD
ATOM      8  O   UNL d   1      -1.272   3.868  -1.006  0.00  0.00    -0.273 OA
BRANCH   6   9
ATOM      9  C   UNL d   1       0.560   1.980  -2.191  0.00  0.00     0.073 A 
ATOM     10  C   UNL d   1       0.900   0.656  -2.493  0.00  0.00     0.145 A 
ATOM     11  C   UNL d   1       1.063   0.228  -3.802  0.00  0.00     0.086 A 
ATOM     12  F   UNL d   1       1.016  -0.239  -1.503  0.00  0.00    -0.204 F 
ATOM     13  C   UNL d   1       0.914   1.150  -4.826  0.00  0.00     0.119 A 
ATOM     14  C   UNL d   1       0.588   2.477  -4.557  0.00  0.00     0.044 A 
ATOM     15  F   UNL d   1       1.088   0.758  -6.095  0.00  0.00    -0.206 F 
ATOM     16  C   UNL d   1       0.398   2.894  -3.235  0.00  0.00     0.036 A 
ENDBRANCH   6   9
ENDBRANCH   4   5
ENDBRANCH   3   4
BRANCH   3  17
ATOM     17  N   UNL d   1       0.770   3.236   3.326  0.00  0.00    -0.387 N 
ATOM     18  H   UNL d   1       1.492   2.780   3.870  0.00  0.00     0.157 HD
ATOM     19  H   UNL d   1       0.640   4.226   3.510  0.00  0.00     0.157 HD
ENDBRANCH   3  17
BRANCH   1  20
ATOM     20  O   UNL d   1       1.564   0.836   2.665  0.00  0.00    -0.146 OA
BRANCH  20  21
ATOM     21  S   UNL d   1       1.977  -0.702   2.223  0.00  0.00     0.318 S 
ATOM     22  O   UNL d   1       2.425  -0.702   0.836  0.00  0.00    -0.191 OA
ATOM     23  O   UNL d   1       0.938  -1.606   2.678  0.00  0.00    -0.191 OA
BRANCH  21  24
ATOM     24  C   UNL d   1       3.427  -1.023   3.183  0.00  0.00     0.088 A 
ATOM     25  C   UNL d   1       3.638  -2.292   3.728  0.00  0.00     0.026 A 
ATOM     26  C   UNL d   1       4.783  -2.525   4.494  0.00  0.00     0.008 A 
ATOM     27  C   UNL d   1       5.709  -1.496   4.718  0.00  0.00    -0.062 A 
ATOM     28  C   UNL d   1       5.483  -0.229   4.159  0.00  0.00     0.008 A 
ATOM     29  C   UNL d   1       6.929  -1.751   5.554  0.00  0.00     0.048 C 
ATOM     30  C   UNL d   1       4.347   0.007   3.389  0.00  0.00     0.026 A 
ENDBRANCH  21  24
ENDBRANCH  20  21
ENDBRANCH   1  20
TORSDOF 7
