REMARK  7 active torsions:
REMARK  status: ('A' for Active; 'I' for Inactive)
REMARK    1  A    between atoms: C_5  and  C_3 
REMARK    2  A    between atoms: C_17  and  C_4 
REMARK    3  A    between atoms: N_8  and  C_14 
REMARK    4  A    between atoms: C_9  and  C_12 
REMARK    5  A    between atoms: O_19  and  C_13 
REMARK    6  A    between atoms: C_29  and  O_19 
REMARK    7  A    between atoms: O_35  and  C_30 
ROOT
ATOM      1  N   UNL d   1       1.280   0.099   0.641  0.00  0.00    -0.317 N 
ATOM      2  HN  UNL d   1       2.181   0.127   1.118  1.00  0.00     0.169 HD
ATOM      3  C   UNL d   1       0.684  -0.929   0.077  0.00  0.00     0.185 A 
ATOM      4  C   UNL d   1       0.385   1.133   0.428  0.00  0.00     0.154 A 
ATOM      5  N   UNL d   1      -0.733   0.747  -0.214  0.00  0.00    -0.241 N 
ATOM      6  HN  UNL d   1      -1.539   1.318  -0.471  1.00  0.00     0.196 HD
ATOM      7  O   UNL d   1      -0.535  -0.619  -0.447  0.00  0.00    -0.217 OA
ENDROOT
BRANCH   3   8
ATOM      8  C   UNL d   1       1.100  -2.326   0.088  0.00  0.00     0.053 A 
ATOM      9  C   UNL d   1       1.899  -2.747   1.172  0.00  0.00     0.054 A 
ATOM     10  C   UNL d   1       2.336  -4.074   1.269  0.00  0.00     0.104 A 
ATOM     11  C   UNL d   1       1.946  -5.016   0.317  0.00  0.00     0.039 A 
ATOM     12  C   UNL d   1       1.150  -4.611  -0.754  0.00  0.00     0.041 A 
ATOM     13  C   UNL d   1       0.782  -3.262  -0.911  0.00  0.00     0.090 A 
BRANCH  10  14
ATOM     14  N   UNL d   1       3.216  -4.473   2.374  0.00  0.00    -0.116 N 
ATOM     15  O   UNL d   1       3.484  -3.621   3.232  0.00  0.00    -0.532 OA
ATOM     16  O   UNL d   1       3.644  -5.636   2.377  0.00  0.00    -0.532 OA
ENDBRANCH  10  14
BRANCH  13  17
ATOM     17  O   UNL d   1       0.118  -2.835  -2.055  0.00  0.00    -0.310 OA
BRANCH  17  18
ATOM     18  C   UNL d   1       0.480  -3.420  -3.256  0.00  0.00     0.076 A 
ATOM     19  C   UNL d   1      -0.542  -3.763  -4.142  0.00  0.00     0.040 A 
ATOM     20  C   UNL d   1      -0.247  -4.447  -5.331  0.00  0.00     0.039 A 
ATOM     21  C   UNL d   1       1.073  -4.787  -5.635  0.00  0.00     0.068 A 
ATOM     22  C   UNL d   1       2.095  -4.388  -4.771  0.00  0.00     0.039 A 
ATOM     23  C   UNL d   1       1.809  -3.682  -3.603  0.00  0.00     0.040 A 
BRANCH  21  24
ATOM     24  O   UNL d   1       1.501  -5.500  -6.719  0.00  0.00    -0.356 OA
ATOM     25  C   UNL d   1       0.522  -5.896  -7.669  0.00  0.00     0.210 C 
ENDBRANCH  21  24
ENDBRANCH  17  18
ENDBRANCH  13  17
ENDBRANCH   3   8
BRANCH   4  26
ATOM     26  C   UNL d   1       0.687   2.506   0.856  0.00  0.00     0.078 A 
ATOM     27  N   UNL d   1      -0.255   3.463   0.643  0.00  0.00    -0.362 N 
ATOM     28  C   UNL d   1       0.051   4.736   0.986  0.00  0.00     0.104 A 
ATOM     29  HN  UNL d   1      -1.162   3.229   0.239  1.00  0.00     0.165 HD
ATOM     30  C   UNL d   1       1.266   5.121   1.542  0.00  0.00     0.063 A 
ATOM     31  C   UNL d   1       2.210   4.119   1.773  0.00  0.00     0.020 A 
ATOM     32  C   UNL d   1       1.919   2.801   1.434  0.00  0.00     0.034 A 
BRANCH  30  33
ATOM     33  C   UNL d   1       1.552   6.557   1.858  0.00  0.00     0.418 C 
ATOM     34  F   UNL d   1       0.513   7.396   1.591  0.00  0.00    -0.166 F 
ATOM     35  F   UNL d   1       1.859   6.749   3.170  0.00  0.00    -0.166 F 
ATOM     36  F   UNL d   1       2.612   7.040   1.152  0.00  0.00    -0.166 F 
ENDBRANCH  30  33
ENDBRANCH   4  26
TORSDOF 7
