REMARK  2 active torsions:
REMARK  status: ('A' for Active; 'I' for Inactive)
REMARK    1  A    between atoms: N_8  and  C_4 
REMARK       I    between atoms: C_10  and  N_8 
REMARK    2  A    between atoms: C_15  and  C_10 
ROOT
ATOM      1  C   UNL d   1      -1.030  -1.368  -0.246  0.00  0.00     0.091 A 
ATOM      2  N   UNL d   1      -2.235  -0.777  -0.153  0.00  0.00    -0.330 N 
ATOM      3  HN  UNL d   1      -3.084  -1.341  -0.138  1.00  0.00     0.168 HD
ATOM      4  C   UNL d   1      -2.307   0.505  -0.082  0.00  0.00     0.155 C 
ATOM      5  C   UNL d   1       0.204  -0.803  -0.483  0.00  0.00     0.062 A 
ATOM      6  C   UNL d   1       0.320   0.633  -0.650  0.00  0.00     0.230 C 
ATOM      7  S   UNL d   1      -0.997   1.641  -0.068  0.00  0.00    -0.011 SA
ATOM      8  S   UNL d   1      -0.950  -3.069  -0.103  0.00  0.00    -0.083 SA
ATOM      9  C   UNL d   1       1.248  -1.809  -0.564  0.00  0.00    -0.038 A 
ATOM     10  C   UNL d   1       0.729  -3.077  -0.372  0.00  0.00     0.059 A 
ATOM     11  O   UNL d   1       1.309   1.174  -1.133  0.00  0.00    -0.279 OA
ATOM     12  C   UNL d   1       2.705  -1.581  -0.814  0.00  0.00     0.050 C 
ENDROOT
BRANCH   4  13
ATOM     13  N   UNL d   1      -3.518   1.161   0.015  0.00  0.00    -0.303 N 
ATOM     14  C   UNL d   1      -4.753   0.532   0.046  0.00  0.00     0.257 C 
ATOM     15  O   UNL d   1      -4.918  -0.685   0.065  0.00  0.00    -0.267 OA
ATOM     16  H   UNL d   1      -3.466   2.163   0.095  0.00  0.00     0.171 HD
BRANCH  14  17
ATOM     17  C   UNL d   1      -5.976   1.384   0.085  0.00  0.00     0.032 A 
ATOM     18  C   UNL d   1      -6.025   2.709  -0.363  0.00  0.00     0.017 A 
ATOM     19  C   UNL d   1      -7.249   3.392  -0.378  0.00  0.00     0.001 A 
ATOM     20  C   UNL d   1      -8.419   2.760   0.048  0.00  0.00     0.000 A 
ATOM     21  C   UNL d   1      -8.375   1.448   0.506  0.00  0.00     0.001 A 
ATOM     22  C   UNL d   1      -7.159   0.766   0.526  0.00  0.00     0.017 A 
ENDBRANCH  14  17
ENDBRANCH   4  13
TORSDOF 2
