REMARK  3 active torsions:
REMARK  status: ('A' for Active; 'I' for Inactive)
REMARK    1  A    between atoms: C_6  and  C_1 
REMARK    2  A    between atoms: C_2  and  C_6 
REMARK       I    between atoms: N_14  and  C_2 
REMARK    3  A    between atoms: N_15  and  N_14 
ROOT
ATOM      1  C   UNL d   1       0.701   0.804   1.110  0.00  0.00    -0.031 C 
ATOM      2  C   UNL d   1       0.502   0.430  -1.403  0.00  0.00    -0.013 C 
ATOM      3  C   UNL d   1      -1.539   0.229   0.054  0.00  0.00    -0.013 C 
ATOM      4  C   UNL d   1       0.271  -1.520   0.169  0.00  0.00    -0.013 C 
ATOM      5  C   UNL d   1      -0.832   1.027   1.161  0.00  0.00     0.014 C 
ATOM      6  C   UNL d   1       0.981  -0.713   1.272  0.00  0.00     0.014 C 
ATOM      7  C   UNL d   1       1.213   1.227  -0.296  0.00  0.00     0.014 C 
ATOM      8  C   UNL d   1      -1.244  -1.268   0.248  0.00  0.00     0.009 C 
ATOM      9  C   UNL d   1      -1.010   0.685  -1.314  0.00  0.00     0.009 C 
ATOM     10  C   UNL d   1       0.781  -1.068  -1.207  0.00  0.00     0.009 C 
ENDROOT
BRANCH   1  11
ATOM     11  C   UNL d   1       1.435   1.642   2.180  0.00  0.00     0.113 C 
BRANCH  11  12
ATOM     12  C   UNL d   1       1.059   1.290   3.608  0.00  0.00     0.232 C 
ATOM     13  O   UNL d   1       1.611   0.388   4.237  0.00  0.00    -0.272 OA
ATOM     14  N   UNL d   1       0.006   2.034   4.123  0.00  0.00    -0.294 N 
ATOM     15  H   UNL d   1      -0.313   2.877   3.650  0.00  0.00     0.183 HD
BRANCH  14  16
ATOM     16  N   UNL d   1      -0.442   1.778   5.437  0.00  0.00    -0.247 NA
ATOM     17  H   UNL d   1       0.272   1.181   5.880  0.00  0.00     0.143 HD
ATOM     18  H   UNL d   1      -1.259   1.164   5.374  0.00  0.00     0.143 HD
ENDBRANCH  14  16
ENDBRANCH  11  12
ENDBRANCH   1  11
TORSDOF 3
