REMARK  5 active torsions:
REMARK  status: ('A' for Active; 'I' for Inactive)
REMARK    1  A    between atoms: N_4  and  C_1 
REMARK    2  A    between atoms: N_6  and  C_1 
REMARK    3  A    between atoms: C_7  and  N_4 
REMARK    4  A    between atoms: C_13  and  N_6 
REMARK    5  A    between atoms: C_14  and  C_13 
ROOT
ATOM      1  N   UNL d   1       0.510   0.976  -0.986  0.00  0.00    -0.333 N 
ATOM      2  H   UNL d   1       0.918   0.926  -1.911  0.00  0.00     0.168 HD
ENDROOT
BRANCH   1   3
ATOM      3  C   UNL d   1       1.084   0.102  -0.095  0.00  0.00     0.172 C 
ATOM      4  S   UNL d   1       0.305  -0.909   0.986  0.00  0.00    -0.041 SA
BRANCH   3   5
ATOM      5  N   UNL d   1       2.447   0.024  -0.138  0.00  0.00    -0.367 N 
ATOM      6  H   UNL d   1       2.821  -0.620   0.550  0.00  0.00     0.161 HD
BRANCH   5   7
ATOM      7  C   UNL d   1       3.382   1.000  -0.674  0.00  0.00     0.126 C 
BRANCH   7   8
ATOM      8  C   UNL d   1       3.429   2.309   0.134  0.00  0.00    -0.005 C 
ATOM      9  C   UNL d   1       3.653   2.071   1.629  0.00  0.00     0.011 C 
ATOM     10  C   UNL d   1       4.534   3.215  -0.414  0.00  0.00     0.011 C 
ENDBRANCH   7   8
ENDBRANCH   5   7
ENDBRANCH   3   5
ENDBRANCH   1   3
BRANCH   1  11
ATOM     11  C   UNL d   1      -0.781   1.540  -0.899  0.00  0.00     0.036 A 
ATOM     12  C   UNL d   1      -1.523   1.716  -2.072  0.00  0.00     0.056 A 
ATOM     13  C   UNL d   1      -2.812   2.252  -2.003  0.00  0.00     0.074 A 
ATOM     14 CL   UNL d   1      -3.745   2.396  -3.444  0.00  0.00    -0.081 Cl
ATOM     15  C   UNL d   1      -3.338   2.655  -0.777  0.00  0.00     0.138 A 
ATOM     16  C   UNL d   1      -2.587   2.534   0.385  0.00  0.00     0.046 A 
ATOM     17  F   UNL d   1      -4.572   3.172  -0.695  0.00  0.00    -0.204 F 
ATOM     18  C   UNL d   1      -1.307   1.978   0.322  0.00  0.00     0.032 A 
ENDBRANCH   1  11
TORSDOF 5
