REMARK  7 active torsions:
REMARK  status: ('A' for Active; 'I' for Inactive)
REMARK    1  A    between atoms: C_3  and  C_1 
REMARK    2  A    between atoms: C_2  and  C_4 
REMARK       I    between atoms: C_5  and  N_9 
REMARK       I    between atoms: N_15  and  C_5 
REMARK    3  A    between atoms: N_9  and  C_7 
REMARK    4  A    between atoms: O_25  and  C_8 
REMARK    5  A    between atoms: N_10  and  N_15 
REMARK    6  A    between atoms: C_12  and  C_18 
REMARK    7  A    between atoms: O_26  and  C_17 
ROOT
ATOM      1  C   UNL d   1       0.634   3.596   4.759  0.00  0.00     0.339 C 
ATOM      2  N   UNL d   1       0.335   4.943   4.929  0.00  0.00    -0.308 N 
ATOM      3  N   UNL d   1      -0.011   2.833   5.742  0.00  0.00    -0.252 N 
ATOM      4  O   UNL d   1       1.298   3.130   3.844  0.00  0.00    -0.245 OA
ATOM      5  H   UNL d   1      -0.166   5.178   5.772  0.00  0.00     0.170 HD
ATOM      6  H   UNL d   1      -0.086   3.247   6.661  0.00  0.00     0.191 HD
ENDROOT
BRANCH   2   7
ATOM      7  C   UNL d   1       0.499   5.978   3.984  0.00  0.00     0.037 A 
ATOM      8  C   UNL d   1       1.046   5.794   2.713  0.00  0.00     0.045 A 
ATOM      9  C   UNL d   1       1.065   6.838   1.771  0.00  0.00     0.050 A 
ATOM     10  C   UNL d   1       0.540   8.088   2.128  0.00  0.00     0.032 A 
ATOM     11  C   UNL d   1       0.001   8.301   3.405  0.00  0.00     0.050 A 
ATOM     12  C   UNL d   1       0.002   7.241   4.329  0.00  0.00     0.045 A 
BRANCH   9  13
ATOM     13  C   UNL d   1       1.620   6.582   0.389  0.00  0.00     0.417 C 
ATOM     14  F   UNL d   1       1.486   7.647  -0.449  0.00  0.00    -0.166 F 
ATOM     15  F   UNL d   1       1.004   5.540  -0.236  0.00  0.00    -0.166 F 
ATOM     16  F   UNL d   1       2.947   6.284   0.405  0.00  0.00    -0.166 F 
ENDBRANCH   9  13
BRANCH  11  17
ATOM     17  C   UNL d   1      -0.590   9.636   3.792  0.00  0.00     0.417 C 
ATOM     18  F   UNL d   1      -0.796  10.465   2.732  0.00  0.00    -0.166 F 
ATOM     19  F   UNL d   1      -1.799   9.509   4.406  0.00  0.00    -0.166 F 
ATOM     20  F   UNL d   1       0.202  10.320   4.660  0.00  0.00    -0.166 F 
ENDBRANCH  11  17
ENDBRANCH   2   7
BRANCH   3  21
ATOM     21  N   UNL d   1      -0.074   1.462   5.775  0.00  0.00    -0.307 N 
ATOM     22  C   UNL d   1      -0.096   0.825   4.646  0.00  0.00     0.121 C 
ATOM     23  HN  UNL d   1      -0.103   0.959   6.662  1.00  0.00     0.186 HD
BRANCH  22  24
ATOM     24  C   UNL d   1      -0.121  -0.650   4.593  0.00  0.00     0.017 A 
ATOM     25  C   UNL d   1       0.469  -1.336   3.517  0.00  0.00     0.113 A 
ATOM     26  C   UNL d   1       0.332  -2.732   3.443  0.00  0.00     0.102 A 
ATOM     27  C   UNL d   1      -0.343  -3.415   4.466  0.00  0.00     0.040 A 
ATOM     28  C   UNL d   1      -0.902  -2.729   5.543  0.00  0.00     0.004 A 
ATOM     29  C   UNL d   1      -0.787  -1.344   5.612  0.00  0.00     0.016 A 
BRANCH  25  30
ATOM     30  O   UNL d   1       1.117  -0.650   2.522  0.00  0.00    -0.352 OA
ATOM     31  C   UNL d   1       2.390  -0.151   2.946  0.00  0.00     0.210 C 
ENDBRANCH  25  30
BRANCH  26  32
ATOM     32  O   UNL d   1       0.843  -3.564   2.483  0.00  0.00    -0.353 OA
ATOM     33  C   UNL d   1       0.861  -3.063   1.152  0.00  0.00     0.210 C 
ENDBRANCH  26  32
ENDBRANCH  22  24
ENDBRANCH   3  21
TORSDOF 7
