REMARK  5 active torsions:
REMARK  status: ('A' for Active; 'I' for Inactive)
REMARK    1  A    between atoms: C_6  and  C_1 
REMARK    2  A    between atoms: C_7  and  N_2 
REMARK    3  A    between atoms: C_8  and  C_4 
REMARK    4  A    between atoms: O_13  and  C_6 
REMARK    5  A    between atoms: S_15  and  C_14 
ROOT
ATOM      1  C   UNL d   1      -0.384   1.168  -0.075  0.00  0.00     0.062 A 
ATOM      2  N   UNL d   1       0.982  -0.652   0.012  0.00  0.00    -0.314 N 
ATOM      3  C   UNL d   1       0.943   0.745   0.009  0.00  0.00     0.030 A 
ATOM      4  C   UNL d   1      -0.338  -1.125   0.010  0.00  0.00     0.051 A 
ATOM      5  C   UNL d   1      -1.167  -0.017  -0.065  0.00  0.00     0.051 A 
ATOM      6  C   UNL d   1       2.153   1.617   0.165  0.00  0.00     0.070 C 
ENDROOT
BRANCH   2   7
ATOM      7  C   UNL d   1       2.167  -1.451   0.005  0.00  0.00     0.040 A 
ATOM      8  C   UNL d   1       2.272  -2.582   0.820  0.00  0.00     0.031 A 
ATOM      9  C   UNL d   1       3.380  -3.432   0.711  0.00  0.00     0.021 A 
ATOM     10  C   UNL d   1       4.412  -3.149  -0.186  0.00  0.00    -0.000 A 
ATOM     11  C   UNL d   1       4.315  -1.995  -0.976  0.00  0.00     0.021 A 
ATOM     12  C   UNL d   1       3.203  -1.150  -0.886  0.00  0.00     0.031 A 
BRANCH  10  13
ATOM     13  S   UNL d   1       5.835  -4.198  -0.450  0.00  0.00    -0.134 SA
ATOM     14  C   UNL d   1       5.911  -5.170   1.078  0.00  0.00     0.095 C 
ENDBRANCH  10  13
ENDBRANCH   2   7
BRANCH   4  15
ATOM     15  C   UNL d   1      -0.778  -2.536   0.006  0.00  0.00    -0.009 A 
ATOM     16  C   UNL d   1      -0.191  -3.502  -0.822  0.00  0.00     0.014 A 
ATOM     17  C   UNL d   1      -0.565  -4.846  -0.731  0.00  0.00     0.001 A 
ATOM     18  C   UNL d   1      -1.575  -5.231   0.147  0.00  0.00     0.000 A 
ATOM     19  C   UNL d   1      -2.219  -4.272   0.924  0.00  0.00     0.001 A 
ATOM     20  C   UNL d   1      -1.820  -2.935   0.857  0.00  0.00     0.014 A 
ENDBRANCH   4  15
BRANCH   1  21
ATOM     21  C   UNL d   1      -0.819   2.570  -0.133  0.00  0.00     0.178 C 
ATOM     22  O   UNL d   1      -0.054   3.522  -0.186  0.00  0.00    -0.646 OA
BRANCH  21  23
ATOM     23  O   UNL d   1      -2.163   2.763  -0.122  0.00  0.00    -0.773 OA
ATOM     24  H   UNL d   1      -2.671   1.938  -0.068  0.00  0.00     0.167 HD
ENDBRANCH  21  23
ENDBRANCH   1  21
TORSDOF 5
