REMARK  3 active torsions:
REMARK  status: ('A' for Active; 'I' for Inactive)
REMARK    1  A    between atoms: C_7  and  N_1 
REMARK    2  A    between atoms: C_6  and  C_3 
REMARK    3  A    between atoms: N_10  and  C_6 
ROOT
ATOM      1  N   UNL d   1       1.018   0.645  -0.041  0.00  0.00    -0.262 N 
ATOM      2  C   UNL d   1       0.875  -0.731  -0.152  0.00  0.00     0.153 A 
ATOM      3  C   UNL d   1      -1.338   0.474   0.054  0.00  0.00     0.091 A 
ATOM      4  C   UNL d   1      -0.152   1.380   0.141  0.00  0.00     0.272 A 
ATOM      5  S   UNL d   1      -0.830  -1.149  -0.175  0.00  0.00    -0.053 SA
ATOM      6  S   UNL d   1       2.043  -1.931  -0.162  0.00  0.00    -0.052 SA
ATOM      7  O   UNL d   1      -0.247   2.591   0.315  0.00  0.00    -0.266 OA
ENDROOT
BRANCH   1   8
ATOM      8  C   UNL d   1       2.286   1.296  -0.059  0.00  0.00     0.044 A 
ATOM      9  C   UNL d   1       2.680   2.122   1.003  0.00  0.00     0.033 A 
ATOM     10  C   UNL d   1       3.965   2.673   1.024  0.00  0.00     0.044 A 
ATOM     11  C   UNL d   1       4.836   2.434  -0.033  0.00  0.00     0.116 A 
ATOM     12  C   UNL d   1       4.445   1.662  -1.119  0.00  0.00     0.044 A 
ATOM     13  F   UNL d   1       6.070   2.953  -0.004  0.00  0.00    -0.206 F 
ATOM     14  C   UNL d   1       3.172   1.090  -1.131  0.00  0.00     0.033 A 
ENDBRANCH   1   8
BRANCH   3  15
ATOM     15  C   UNL d   1      -2.596   0.937   0.066  0.00  0.00     0.109 C 
BRANCH  15  16
ATOM     16  N   UNL d   1      -3.843   0.313  -0.005  0.00  0.00    -0.397 N 
ATOM     17  C   UNL d   1      -4.137  -1.030   0.495  0.00  0.00     0.148 C 
ATOM     18  C   UNL d   1      -5.034   1.041  -0.451  0.00  0.00     0.148 C 
ENDBRANCH  15  16
ENDBRANCH   3  15
TORSDOF 3
