REMARK  2 active torsions:
REMARK  status: ('A' for Active; 'I' for Inactive)
REMARK    1  A    between atoms: C_2  and  N_1 
REMARK    2  A    between atoms: N_4  and  C_3 
ROOT
ATOM      1  C   UNL d   1       0.436   1.505   0.358  0.00  0.00     0.146 A 
ATOM      2  C   UNL d   1      -0.824   1.320   0.931  0.00  0.00     0.137 A 
ATOM      3  N   UNL d   1      -1.789   2.242   0.666  0.00  0.00    -0.350 N 
ATOM      4  HN  UNL d   1      -2.726   2.126   1.052  1.00  0.00     0.166 HD
ATOM      5  C   UNL d   1       0.729   2.622  -0.442  0.00  0.00     0.041 A 
ATOM      6  C   UNL d   1      -1.505   3.316  -0.112  0.00  0.00     0.090 A 
ATOM      7  C   UNL d   1      -0.268   3.553  -0.678  0.00  0.00     0.020 A 
ENDROOT
BRANCH   2   8
ATOM      8  N   UNL d   1      -1.200   0.297   1.772  0.00  0.00    -0.364 N 
ATOM      9  C   UNL d   1      -0.332  -0.308   2.788  0.00  0.00     0.134 C 
ATOM     10  C   UNL d   1      -0.938  -0.222   4.194  0.00  0.00     0.093 C 
ATOM     11  S   UNL d   1      -2.569  -1.021   4.317  0.00  0.00    -0.166 SA
ATOM     12  C   UNL d   1      -3.364  -0.130   2.937  0.00  0.00     0.093 C 
ATOM     13  C   UNL d   1      -2.560  -0.249   1.641  0.00  0.00     0.134 C 
ENDBRANCH   2   8
BRANCH   1  14
ATOM     14  N   UNL d   1       1.469   0.508   0.469  0.00  0.00    -0.112 N 
ATOM     15  O   UNL d   1       1.244  -0.617   0.000  0.00  0.00    -0.532 OA
ATOM     16  O   UNL d   1       2.535   0.864   0.992  0.00  0.00    -0.532 OA
ENDBRANCH   1  14
TORSDOF 2
