REMARK  7 active torsions:
REMARK  status: ('A' for Active; 'I' for Inactive)
REMARK    1  A    between atoms: C_10  and  C_1 
REMARK    2  A    between atoms: C_2  and  C_9 
REMARK    3  A    between atoms: C_3  and  C_7 
REMARK    4  A    between atoms: C_4  and  C_8 
REMARK    5  A    between atoms: C_15  and  C_5 
REMARK    6  A    between atoms: C_6  and  C_15 
REMARK    7  A    between atoms: O_30  and  C_15 
ROOT
ATOM      1  C   UNL d   1      -0.443   0.963   4.675  0.00  0.00     0.184 C 
ENDROOT
BRANCH   1   2
ATOM      2  C   UNL d   1       0.619   0.958   5.767  0.00  0.00    -0.024 A 
ATOM      3  C   UNL d   1       1.781   1.748   5.696  0.00  0.00     0.026 A 
ATOM      4  C   UNL d   1       2.706   1.788   6.755  0.00  0.00     0.049 A 
ATOM      5  C   UNL d   1       2.481   0.979   7.883  0.00  0.00     0.032 A 
ATOM      6  C   UNL d   1       1.353   0.152   7.969  0.00  0.00     0.049 A 
ATOM      7  C   UNL d   1       0.429   0.159   6.910  0.00  0.00     0.026 A 
BRANCH   4   8
ATOM      8  C   UNL d   1       3.907   2.701   6.710  0.00  0.00     0.417 C 
ATOM      9  F   UNL d   1       3.938   3.493   5.601  0.00  0.00    -0.166 F 
ATOM     10  F   UNL d   1       3.952   3.549   7.774  0.00  0.00    -0.166 F 
ATOM     11  F   UNL d   1       5.081   2.018   6.717  0.00  0.00    -0.166 F 
ENDBRANCH   4   8
BRANCH   6  12
ATOM     12  C   UNL d   1       1.136  -0.712   9.190  0.00  0.00     0.417 C 
ATOM     13  F   UNL d   1      -0.014  -1.437   9.144  0.00  0.00    -0.166 F 
ATOM     14  F   UNL d   1       2.140  -1.612   9.371  0.00  0.00    -0.166 F 
ATOM     15  F   UNL d   1       1.074   0.019  10.337  0.00  0.00    -0.166 F 
ENDBRANCH   6  12
ENDBRANCH   1   2
BRANCH   1  16
ATOM     16  C   UNL d   1      -0.175  -0.013   3.547  0.00  0.00    -0.024 A 
ATOM     17  C   UNL d   1      -0.665  -1.326   3.597  0.00  0.00     0.026 A 
ATOM     18  C   UNL d   1      -0.501  -2.206   2.515  0.00  0.00     0.049 A 
ATOM     19  C   UNL d   1       0.178  -1.760   1.372  0.00  0.00     0.032 A 
ATOM     20  C   UNL d   1       0.681  -0.452   1.290  0.00  0.00     0.049 A 
ATOM     21  C   UNL d   1       0.512   0.401   2.389  0.00  0.00     0.026 A 
BRANCH  18  22
ATOM     22  C   UNL d   1      -1.076  -3.604   2.553  0.00  0.00     0.417 C 
ATOM     23  F   UNL d   1      -1.744  -3.885   3.706  0.00  0.00    -0.166 F 
ATOM     24  F   UNL d   1      -0.118  -4.563   2.432  0.00  0.00    -0.166 F 
ATOM     25  F   UNL d   1      -1.962  -3.828   1.544  0.00  0.00    -0.166 F 
ENDBRANCH  18  22
BRANCH  20  26
ATOM     26  C   UNL d   1       1.354   0.036   0.029  0.00  0.00     0.417 C 
ATOM     27  F   UNL d   1       1.745   1.340   0.090  0.00  0.00    -0.166 F 
ATOM     28  F   UNL d   1       2.474  -0.675  -0.273  0.00  0.00    -0.166 F 
ATOM     29  F   UNL d   1       0.542  -0.059  -1.059  0.00  0.00    -0.166 F 
ENDBRANCH  20  26
ENDBRANCH   1  16
BRANCH   1  30
ATOM     30  O   UNL d   1      -0.666   2.256   4.105  0.00  0.00    -0.386 OA
ATOM     31  H   UNL d   1      -0.077   2.898   4.523  0.00  0.00     0.210 HD
ENDBRANCH   1  30
TORSDOF 7
