REMARK  1 active torsions:
REMARK  status: ('A' for Active; 'I' for Inactive)
REMARK    1  A    between atoms: N_2  and  C_4 
ROOT
ATOM      1  C   UNL d   1      -0.174   0.732  -0.024  0.00  0.00     0.057 A 
ATOM      2  C   UNL d   1       1.220   1.172  -0.013  0.00  0.00     0.170 A 
ATOM      3  C   UNL d   1      -1.354   1.445   0.002  0.00  0.00     0.117 A 
ATOM      4  C   UNL d   1       1.148  -1.190  -0.074  0.00  0.00     0.167 A 
ATOM      5  C   UNL d   1      -0.212  -0.656  -0.033  0.00  0.00     0.026 A 
ATOM      6  C   UNL d   1       2.119  -0.039  -0.105  0.00  0.00     0.168 A 
ATOM      7  O   UNL d   1       1.572   2.329   0.093  0.00  0.00    -0.292 OA
ATOM      8  O   UNL d   1       1.413  -2.377  -0.084  0.00  0.00    -0.292 OA
ATOM      9  C   UNL d   1      -2.581   0.765   0.034  0.00  0.00     0.037 A 
ATOM     10  C   UNL d   1      -1.403  -1.366  -0.006  0.00  0.00     0.016 A 
ATOM     11  C   UNL d   1      -2.599  -0.641   0.032  0.00  0.00     0.003 A 
ENDROOT
BRANCH   3  12
ATOM     12  N   UNL d   1      -1.356   2.887  -0.043  0.00  0.00    -0.115 N 
ATOM     13  O   UNL d   1      -0.954   3.413  -1.088  0.00  0.00    -0.532 OA
ATOM     14  O   UNL d   1      -1.851   3.471   0.929  0.00  0.00    -0.532 OA
ENDBRANCH   3  12
TORSDOF 1
