REMARK  4 active torsions:
REMARK  status: ('A' for Active; 'I' for Inactive)
REMARK    1  A    between atoms: N_3  and  S_1 
REMARK    2  A    between atoms: C_5  and  S_1 
REMARK    3  A    between atoms: C_11  and  C_8 
REMARK    4  A    between atoms: O_20  and  C_11 
ROOT
ATOM      1  C   UNL d   1       0.779   1.727  -3.543  0.00  0.00    -0.009 A 
ATOM      2  N   UNL d   1       0.575   0.279  -1.550  0.00  0.00    -0.202 NA
ATOM      3  C   UNL d   1       0.799   0.621  -4.358  0.00  0.00     0.019 A 
ATOM      4  N   UNL d   1       0.923   1.030  -5.655  0.00  0.00    -0.358 N 
ATOM      5  C   UNL d   1       0.885   2.869  -4.378  0.00  0.00     0.003 A 
ATOM      6  C   UNL d   1       0.711   1.673  -2.058  0.00  0.00     0.149 C 
ATOM      7  C   UNL d   1       1.001   2.409  -5.694  0.00  0.00     0.043 A 
ATOM      8  C   UNL d   1       0.721  -0.773  -3.853  0.00  0.00     0.073 C 
ATOM      9  C   UNL d   1       1.232  -0.783  -2.394  0.00  0.00     0.114 C 
ATOM     10  C   UNL d   1       0.919   4.254  -4.129  0.00  0.00     0.056 A 
ATOM     11  C   UNL d   1       1.170   3.280  -6.779  0.00  0.00     0.033 A 
ATOM     12  C   UNL d   1       1.083   5.121  -5.203  0.00  0.00     0.117 A 
ATOM     13  C   UNL d   1       1.214   4.653  -6.504  0.00  0.00     0.044 A 
ATOM     14  F   UNL d   1       1.126   6.440  -4.972  0.00  0.00    -0.206 F 
ATOM     15  H   UNL d   1       0.976   0.426  -6.465  0.00  0.00     0.166 HD
ENDROOT
BRANCH   2  16
ATOM     16  S   UNL d   1       0.940   0.119   0.106  0.00  0.00     0.245 S 
ATOM     17  O   UNL d   1       2.354   0.434   0.233  0.00  0.00    -0.206 OA
ATOM     18  O   UNL d   1       0.449  -1.149   0.608  0.00  0.00    -0.206 OA
BRANCH  16  19
ATOM     19  C   UNL d   1       0.038   1.415   0.925  0.00  0.00     0.090 A 
ATOM     20  C   UNL d   1      -1.361   1.448   0.991  0.00  0.00     0.062 A 
ATOM     21  C   UNL d   1      -1.973   2.536   1.651  0.00  0.00     0.019 A 
ATOM     22  C   UNL d   1      -1.214   3.542   2.255  0.00  0.00     0.001 A 
ATOM     23  C   UNL d   1       0.172   3.480   2.215  0.00  0.00     0.002 A 
ATOM     24  C   UNL d   1       0.796   2.422   1.555  0.00  0.00     0.026 A 
BRANCH  20  25
ATOM     25  C   UNL d   1      -2.245   0.441   0.341  0.00  0.00     0.294 C 
ATOM     26  O   UNL d   1      -2.002  -0.145  -0.696  0.00  0.00    -0.259 OA
BRANCH  25  27
ATOM     27  O   UNL d   1      -3.404   0.338   1.043  0.00  0.00    -0.322 OA
ATOM     28  C   UNL d   1      -4.376  -0.515   0.436  0.00  0.00     0.213 C 
ENDBRANCH  25  27
ENDBRANCH  20  25
ENDBRANCH  16  19
ENDBRANCH   2  16
TORSDOF 4
