REMARK  6 active torsions:
REMARK  status: ('A' for Active; 'I' for Inactive)
REMARK    1  A    between atoms: C_13  and  C_5 
REMARK    2  A    between atoms: N_7  and  C_9 
REMARK    3  A    between atoms: N_8  and  C_14 
REMARK       I    between atoms: N_23  and  C_13 
REMARK    4  A    between atoms: C_24  and  N_23 
REMARK    5  A    between atoms: C_25  and  C_24 
REMARK    6  A    between atoms: C_26  and  C_25 
ROOT
ATOM      1  C   UNL d   1      -0.696   0.814   0.066  0.00  0.00     0.005 A 
ATOM      2  C   UNL d   1      -1.160  -0.521   0.018  0.00  0.00     0.029 A 
ATOM      3  C   UNL d   1       1.203  -0.565  -0.010  0.00  0.00     0.028 A 
ATOM      4  C   UNL d   1       0.771   0.773   0.070  0.00  0.00    -0.010 A 
ATOM      5  C   UNL d   1      -1.651   1.837   0.068  0.00  0.00     0.046 A 
ATOM      6  C   UNL d   1       0.006  -1.429  -0.026  0.00  0.00     0.194 A 
ATOM      7  C   UNL d   1      -3.429   0.141  -0.027  0.00  0.00     0.104 A 
ATOM      8  C   UNL d   1      -2.494  -0.893  -0.022  0.00  0.00     0.052 A 
ATOM      9  C   UNL d   1      -3.020   1.492   0.014  0.00  0.00     0.054 A 
ATOM     10  C   UNL d   1       2.530  -0.962  -0.082  0.00  0.00     0.052 A 
ATOM     11  C   UNL d   1       3.486   0.059  -0.075  0.00  0.00     0.103 A 
ATOM     12  C   UNL d   1       1.741   1.763   0.125  0.00  0.00     0.016 A 
ATOM     13  O   UNL d   1      -0.020  -2.643  -0.070  0.00  0.00    -0.287 OA
ATOM     14  C   UNL d   1       3.098   1.410   0.034  0.00  0.00     0.037 A 
ENDROOT
BRANCH   5  15
ATOM     15  C   UNL d   1      -1.297   3.277   0.010  0.00  0.00     0.252 C 
ATOM     16  O   UNL d   1      -0.362   3.648  -0.686  0.00  0.00    -0.268 OA
ATOM     17  N   UNL d   1      -2.081   4.157   0.738  0.00  0.00    -0.357 N 
ATOM     18  H   UNL d   1      -2.844   3.835   1.319  0.00  0.00     0.162 HD
BRANCH  17  19
ATOM     19  C   UNL d   1      -1.695   5.554   0.792  0.00  0.00     0.123 C 
BRANCH  19  20
ATOM     20  C   UNL d   1      -2.723   6.444   1.485  0.00  0.00     0.023 C 
BRANCH  20  21
ATOM     21  C   UNL d   1      -2.268   7.916   1.571  0.00  0.00    -0.021 C 
ATOM     22  C   UNL d   1      -2.029   8.539   0.193  0.00  0.00     0.009 C 
ATOM     23  C   UNL d   1      -3.303   8.745   2.333  0.00  0.00     0.009 C 
ENDBRANCH  20  21
ENDBRANCH  19  20
ENDBRANCH  17  19
ENDBRANCH   5  15
BRANCH   7  24
ATOM     24  N   UNL d   1      -4.863  -0.172  -0.105  0.00  0.00    -0.116 N 
ATOM     25  O   UNL d   1      -5.189  -1.364  -0.158  0.00  0.00    -0.532 OA
ATOM     26  O   UNL d   1      -5.656   0.780  -0.103  0.00  0.00    -0.532 OA
ENDBRANCH   7  24
BRANCH  11  27
ATOM     27  N   UNL d   1       4.913  -0.273  -0.191  0.00  0.00    -0.116 N 
ATOM     28  O   UNL d   1       5.220  -1.469  -0.273  0.00  0.00    -0.532 OA
ATOM     29  O   UNL d   1       5.723   0.666  -0.199  0.00  0.00    -0.532 OA
ENDBRANCH  11  27
TORSDOF 6
