REMARK  2 active torsions:
REMARK  status: ('A' for Active; 'I' for Inactive)
REMARK    1  A    between atoms: N_11  and  N_1 
REMARK    2  A    between atoms: N_6  and  C_8 
ROOT
ATOM      1  N   UNL d   1       2.278  -0.155   0.114  0.00  0.00    -0.203 N 
ATOM      2  C   UNL d   1       1.575  -1.365  -0.000  0.00  0.00     0.276 C 
ATOM      3  C   UNL d   1       1.706   1.126   0.021  0.00  0.00     0.276 C 
ATOM      4  C   UNL d   1       0.099  -1.268  -0.005  0.00  0.00     0.048 A 
ATOM      5  C   UNL d   1       0.223   1.175  -0.043  0.00  0.00     0.046 A 
ATOM      6  C   UNL d   1      -0.521  -0.013  -0.023  0.00  0.00     0.006 A 
ATOM      7  C   UNL d   1      -2.051  -2.373   0.058  0.00  0.00     0.104 A 
ATOM      8  C   UNL d   1      -0.657  -2.449   0.032  0.00  0.00     0.054 A 
ATOM      9  C   UNL d   1      -1.938   0.055  -0.017  0.00  0.00    -0.021 A 
ATOM     10  C   UNL d   1      -2.693  -1.129   0.030  0.00  0.00     0.048 A 
ATOM     11  O   UNL d   1       2.075  -2.483  -0.094  0.00  0.00    -0.266 OA
ATOM     12  O   UNL d   1       2.329   2.184  -0.008  0.00  0.00    -0.266 OA
ATOM     13  C   UNL d   1      -0.425   2.418  -0.085  0.00  0.00     0.018 A 
ATOM     14  C   UNL d   1      -2.568   1.309  -0.051  0.00  0.00     0.012 A 
ATOM     15  C   UNL d   1      -1.817   2.482  -0.091  0.00  0.00     0.002 A 
ENDROOT
BRANCH   1  16
ATOM     16  N   UNL d   1       3.707  -0.186   0.309  0.00  0.00    -0.227 NA
ATOM     17  C   UNL d   1       4.093  -0.882   1.535  0.00  0.00     0.136 C 
ATOM     18  C   UNL d   1       4.436  -0.672  -0.858  0.00  0.00     0.136 C 
ENDBRANCH   1  16
BRANCH   7  19
ATOM     19  N   UNL d   1      -2.844  -3.606   0.128  0.00  0.00    -0.116 N 
ATOM     20  O   UNL d   1      -2.236  -4.682   0.165  0.00  0.00    -0.532 OA
ATOM     21  O   UNL d   1      -4.078  -3.492   0.149  0.00  0.00    -0.532 OA
ENDBRANCH   7  19
TORSDOF 2
