REMARK  5 active torsions:
REMARK  status: ('A' for Active; 'I' for Inactive)
REMARK    1  A    between atoms: C_6  and  N_1 
REMARK    2  A    between atoms: N_8  and  C_6 
REMARK    3  A    between atoms: C_15  and  N_9 
REMARK    4  A    between atoms: C_18  and  C_15 
REMARK    5  A    between atoms: O_16  and  C_18 
ROOT
ATOM      1  C   UNL d   1       1.889  -2.294  -0.113  0.00  0.00     0.418 C 
ENDROOT
BRANCH   1   2
ATOM      2  N   UNL d   1       1.189  -2.990   0.963  0.00  0.00    -0.245 N 
ATOM      3  N   UNL d   1       0.509  -2.275   1.887  0.00  0.00    -0.018 NA
ATOM      4  N   UNL d   1      -0.121  -3.135   2.676  0.00  0.00    -0.282 N 
ATOM      5  C   UNL d   1       0.155  -4.401   2.233  0.00  0.00     0.074 A 
ATOM      6  HN  UNL d   1      -0.709  -2.895   3.474  1.00  0.00     0.184 HD
ATOM      7  C   UNL d   1       0.997  -4.338   1.127  0.00  0.00     0.078 A 
ATOM      8  C   UNL d   1      -0.273  -5.647   2.708  0.00  0.00     0.033 A 
ATOM      9  C   UNL d   1       1.451  -5.476   0.453  0.00  0.00     0.033 A 
ATOM     10  C   UNL d   1       1.016  -6.715   0.942  0.00  0.00     0.002 A 
ATOM     11  C   UNL d   1       0.168  -6.803   2.049  0.00  0.00     0.002 A 
ENDBRANCH   1   2
BRANCH   1  12
ATOM     12  N   UNL d   1       3.350  -2.489   0.004  0.00  0.00     0.110 N 
ATOM     13  C   UNL d   1       3.919  -1.838   1.206  0.00  0.00     0.304 C 
ATOM     14  C   UNL d   1       3.918  -0.290   1.171  0.00  0.00     0.302 C 
ATOM     15  N   UNL d   1       4.510   0.320  -0.039  0.00  0.00     0.093 N 
ATOM     16  C   UNL d   1       4.044  -0.377  -1.252  0.00  0.00     0.302 C 
ATOM     17  C   UNL d   1       4.034  -1.925  -1.179  0.00  0.00     0.304 C 
BRANCH  15  18
ATOM     18  C   UNL d   1       5.977   0.407   0.057  0.00  0.00     0.298 C 
BRANCH  18  19
ATOM     19  C   UNL d   1       6.585   1.405  -0.945  0.00  0.00     0.194 C 
BRANCH  19  20
ATOM     20  O   UNL d   1       7.982   1.550  -0.704  0.00  0.00    -0.399 OA
ATOM     21  H   UNL d   1       8.299   2.253  -1.297  0.00  0.00     0.209 HD
ENDBRANCH  19  20
ENDBRANCH  18  19
ENDBRANCH  15  18
ENDBRANCH   1  12
TORSDOF 5
