REMARK  5 active torsions:
REMARK  status: ('A' for Active; 'I' for Inactive)
REMARK    1  A    between atoms: C_7  and  N_1 
REMARK    2  A    between atoms: N_6  and  C_4 
REMARK    3  A    between atoms: C_8  and  C_11 
REMARK    4  A    between atoms: O_18  and  C_8 
REMARK    5  A    between atoms: C_23  and  O_18 
ROOT
ATOM      1  N   UNL d   1       0.052   0.871  -0.081  0.00  0.00    -0.251 N 
ATOM      2  C   UNL d   1      -1.094   0.131   0.140  0.00  0.00     0.265 C 
ATOM      3  C   UNL d   1       1.160   0.057  -0.186  0.00  0.00     0.233 C 
ATOM      4  C   UNL d   1      -0.755  -1.347   0.023  0.00  0.00     0.323 C 
ATOM      5  C   UNL d   1       0.762  -1.368   0.062  0.00  0.00     0.149 C 
ATOM      6  O   UNL d   1      -2.229   0.530   0.369  0.00  0.00    -0.270 OA
ATOM      7  O   UNL d   1       2.330   0.366  -0.363  0.00  0.00    -0.273 OA
ENDROOT
BRANCH   1   8
ATOM      8  C   UNL d   1       0.090   2.299  -0.142  0.00  0.00     0.045 A 
ATOM      9  C   UNL d   1      -0.945   3.082   0.397  0.00  0.00     0.031 A 
ATOM     10  C   UNL d   1      -0.907   4.481   0.353  0.00  0.00     0.020 A 
ATOM     11  C   UNL d   1       0.172   5.138  -0.241  0.00  0.00     0.039 A 
ATOM     12  C   UNL d   1       1.210   4.383  -0.785  0.00  0.00     0.020 A 
ATOM     13  C   UNL d   1       1.166   2.982  -0.737  0.00  0.00     0.031 A 
BRANCH  11  14
ATOM     14  C   UNL d   1       0.282   6.616  -0.232  0.00  0.00     0.293 C 
ATOM     15  O   UNL d   1       1.340   7.216  -0.326  0.00  0.00    -0.259 OA
BRANCH  14  16
ATOM     16  O   UNL d   1      -0.946   7.158  -0.049  0.00  0.00    -0.318 OA
BRANCH  16  17
ATOM     17  C   UNL d   1      -0.971   8.535   0.344  0.00  0.00     0.174 C 
ATOM     18  C   UNL d   1      -1.037   8.579   1.861  0.00  0.00     0.034 C 
ENDBRANCH  16  17
ENDBRANCH  14  16
ENDBRANCH  11  14
ENDBRANCH   1   8
BRANCH   4  19
ATOM     19  N   UNL d   1      -1.366  -2.031  -1.149  0.00  0.00     0.104 N 
ATOM     20  C   UNL d   1      -2.848  -2.021  -1.067  0.00  0.00     0.283 C 
ATOM     21  C   UNL d   1      -3.535  -2.966  -2.060  0.00  0.00     0.104 C 
ATOM     22  S   UNL d   1      -3.170  -2.528  -3.787  0.00  0.00    -0.166 SA
ATOM     23  C   UNL d   1      -1.363  -2.448  -3.627  0.00  0.00     0.104 C 
ATOM     24  C   UNL d   1      -0.918  -1.541  -2.468  0.00  0.00     0.283 C 
ENDBRANCH   4  19
TORSDOF 5
