REMARK  5 active torsions:
REMARK  status: ('A' for Active; 'I' for Inactive)
REMARK    1  A    between atoms: N_4  and  C_1 
REMARK    2  A    between atoms: C_2  and  C_6 
REMARK       I    between atoms: C_3  and  N_5 
REMARK    3  A    between atoms: C_10  and  C_3 
REMARK    4  A    between atoms: N_11  and  N_4 
REMARK    5  A    between atoms: N_5  and  C_9 
REMARK       I    between atoms: C_6  and  N_11 
ROOT
ATOM      1  C   UNL d   1       1.794   5.427   0.429  0.00  0.00     0.060 A 
ATOM      2  C   UNL d   1       2.198   4.947  -0.838  0.00  0.00     0.050 A 
ATOM      3  C   UNL d   1       2.615   6.362   1.089  0.00  0.00     0.019 A 
ATOM      4  C   UNL d   1       3.445   5.344  -1.355  0.00  0.00     0.030 A 
ATOM      5  C   UNL d   1       3.808   6.809   0.520  0.00  0.00     0.001 A 
ATOM      6  C   UNL d   1       4.237   6.279  -0.689  0.00  0.00     0.002 A 
ENDROOT
BRANCH   1   7
ATOM      7  C   UNL d   1       0.694   4.780   1.209  0.00  0.00     0.268 C 
ATOM      8  N   UNL d   1      -0.039   5.488   2.156  0.00  0.00    -0.282 N 
ATOM      9  H   UNL d   1      -0.836   4.973   2.524  0.00  0.00     0.184 HD
ATOM     10  O   UNL d   1       0.484   3.573   1.078  0.00  0.00    -0.266 OA
BRANCH   8  11
ATOM     11  N   UNL d   1      -0.129   6.893   2.150  0.00  0.00    -0.200 NA
ATOM     12  H   UNL d   1      -0.514   7.226   1.260  0.00  0.00     0.153 HD
BRANCH  11  13
ATOM     13  C   UNL d   1      -0.873   7.462   3.234  0.00  0.00     0.071 A 
ATOM     14  C   UNL d   1      -0.400   8.671   3.810  0.00  0.00     0.060 A 
ATOM     15  C   UNL d   1      -1.144   9.379   4.760  0.00  0.00     0.049 A 
ATOM     16 CL   UNL d   1       1.138   9.335   3.365  0.00  0.00    -0.082 Cl
ATOM     17  C   UNL d   1      -2.391   8.909   5.145  0.00  0.00     0.037 A 
ATOM     18  C   UNL d   1      -2.895   7.730   4.605  0.00  0.00     0.049 A 
ATOM     19 CL   UNL d   1      -3.336   9.804   6.269  0.00  0.00    -0.084 Cl
ATOM     20  C   UNL d   1      -2.147   7.019   3.650  0.00  0.00     0.060 A 
ATOM     21 CL   UNL d   1      -2.910   5.607   2.999  0.00  0.00    -0.082 Cl
ENDBRANCH  11  13
ENDBRANCH   8  11
ENDBRANCH   1   7
BRANCH   2  22
ATOM     22  N   UNL d   1       1.465   4.078  -1.677  0.00  0.00    -0.322 N 
ATOM     23  C   UNL d   1       0.089   4.064  -1.841  0.00  0.00     0.263 C 
ATOM     24  O   UNL d   1      -0.661   4.880  -1.306  0.00  0.00    -0.267 OA
ATOM     25  H   UNL d   1       1.979   3.578  -2.392  0.00  0.00     0.169 HD
BRANCH  23  26
ATOM     26  C   UNL d   1      -0.403   3.072  -2.802  0.00  0.00     0.072 A 
ATOM     27  S   UNL d   1       0.649   2.015  -3.657  0.00  0.00    -0.097 SA
ATOM     28  C   UNL d   1      -0.647   1.268  -4.485  0.00  0.00     0.050 A 
ATOM     29  C   UNL d   1      -1.861   1.811  -4.134  0.00  0.00     0.009 A 
ATOM     30  C   UNL d   1      -1.720   2.852  -3.170  0.00  0.00     0.025 A 
ENDBRANCH  23  26
ENDBRANCH   2  22
TORSDOF 5
