REMARK  4 active torsions:
REMARK  status: ('A' for Active; 'I' for Inactive)
REMARK    1  A    between atoms: C_4  and  N_1 
REMARK    2  A    between atoms: N_5  and  C_4 
REMARK    3  A    between atoms: C_11  and  N_5 
REMARK    4  A    between atoms: S_13  and  C_12 
ROOT
ATOM      1  N   UNL d   1      -1.291   2.939   0.148  0.00  0.00    -0.373 N 
ATOM      2  H   UNL d   1      -2.095   2.308   0.140  0.00  0.00     0.161 HD
ENDROOT
BRANCH   1   3
ATOM      3  C   UNL d   1      -0.046   2.277  -0.158  0.00  0.00     0.258 C 
BRANCH   3   4
ATOM      4  N   UNL d   1       0.089   1.145   0.726  0.00  0.00    -0.271 N 
ATOM      5  C   UNL d   1       1.291   0.770   1.242  0.00  0.00     0.228 C 
ATOM      6  C   UNL d   1       1.119  -0.494   2.024  0.00  0.00     0.112 C 
ATOM      7  O   UNL d   1       2.365   1.330   1.078  0.00  0.00    -0.273 OA
ATOM      8  C   UNL d   1      -0.335  -0.870   1.816  0.00  0.00     0.112 C 
ATOM      9  C   UNL d   1      -0.865   0.194   0.907  0.00  0.00     0.228 C 
ATOM     10  O   UNL d   1      -1.995   0.185   0.427  0.00  0.00    -0.273 OA
ENDBRANCH   3   4
ENDBRANCH   1   3
BRANCH   1  11
ATOM     11  C   UNL d   1      -1.583   4.230  -0.268  0.00  0.00     0.030 A 
ATOM     12  C   UNL d   1      -2.696   4.858   0.314  0.00  0.00     0.047 A 
ATOM     13  C   UNL d   1      -2.967   6.216   0.114  0.00  0.00     0.002 A 
ATOM     14  C   UNL d   1      -2.141   6.945  -0.745  0.00  0.00     0.018 A 
ATOM     15  C   UNL d   1      -1.055   6.331  -1.368  0.00  0.00     0.004 A 
ATOM     16  C   UNL d   1      -0.771   4.986  -1.117  0.00  0.00     0.029 A 
BRANCH  13  17
ATOM     17  S   UNL d   1      -4.319   7.074   0.910  0.00  0.00    -0.134 SA
ATOM     18  C   UNL d   1      -4.428   6.207   2.501  0.00  0.00     0.095 C 
ENDBRANCH  13  17
ENDBRANCH   1  11
TORSDOF 4
