REMARK  2 active torsions:
REMARK  status: ('A' for Active; 'I' for Inactive)
REMARK    1  A    between atoms: C_5  and  C_3 
REMARK    2  A    between atoms: N_11  and  C_4 
ROOT
ATOM      1  N   UNL d   1       0.188  -1.260   0.449  0.00  0.00    -0.336 N 
ATOM      2  HN  UNL d   1       0.679  -2.083   0.798  1.00  0.00     0.168 HD
ATOM      3  C   UNL d   1      -1.099  -1.267  -0.063  0.00  0.00     0.051 A 
ATOM      4  C   UNL d   1       0.687  -0.051   0.424  0.00  0.00     0.142 A 
ATOM      5  S   UNL d   1      -0.279   1.126  -0.367  0.00  0.00    -0.064 SA
ATOM      6  C   UNL d   1      -1.508  -0.049  -0.582  0.00  0.00     0.083 A 
ENDROOT
BRANCH   3   7
ATOM      7  C   UNL d   1      -1.940  -2.467  -0.041  0.00  0.00    -0.003 A 
ATOM      8  C   UNL d   1      -1.894  -3.415   1.007  0.00  0.00    -0.049 A 
ATOM      9  C   UNL d   1      -2.737  -4.545   0.949  0.00  0.00     0.014 A 
ATOM     10  C   UNL d   1      -0.999  -3.325   2.215  0.00  0.00     0.049 C 
ATOM     11  C   UNL d   1      -3.635  -4.746  -0.107  0.00  0.00    -0.061 A 
ATOM     12  C   UNL d   1      -3.687  -3.801  -1.130  0.00  0.00     0.007 A 
ATOM     13  C   UNL d   1      -4.518  -5.957  -0.127  0.00  0.00     0.048 C 
ATOM     14  C   UNL d   1      -2.846  -2.685  -1.099  0.00  0.00     0.015 A 
ENDBRANCH   3   7
BRANCH   4  15
ATOM     15  N   UNL d   1       1.866   0.266   0.977  0.00  0.00    -0.380 N 
ATOM     16  H   UNL d   1       2.465  -0.502   1.248  0.00  0.00     0.158 HD
ATOM     17  H   UNL d   1       2.331   1.122   0.714  0.00  0.00     0.158 HD
ENDBRANCH   4  15
TORSDOF 2
