REMARK  7 active torsions:
REMARK  status: ('A' for Active; 'I' for Inactive)
REMARK       I    between atoms: N_7  and  C_1 
REMARK    1  A    between atoms: O_9  and  C_1 
REMARK    2  A    between atoms: C_12  and  C_2 
REMARK    3  A    between atoms: N_15  and  C_2 
REMARK    4  A    between atoms: N_3  and  O_9 
REMARK    5  A    between atoms: C_16  and  N_7 
REMARK    6  A    between atoms: C_8  and  O_10 
REMARK    7  A    between atoms: O_10  and  C_12 
ROOT
ATOM      1  C   UNL d   1      -1.626  -1.958  -0.828  0.00  0.00     0.100 C 
ATOM      2  N   UNL d   1      -0.923  -0.995  -0.314  0.00  0.00    -0.247 N 
ATOM      3  HN  UNL d   1       0.095  -0.950  -0.359  1.00  0.00     0.196 HD
ENDROOT
BRANCH   1   4
ATOM      4  C   UNL d   1      -0.835  -3.110  -1.463  0.00  0.00     0.247 C 
BRANCH   4   5
ATOM      5  O   UNL d   1      -0.844  -2.990  -2.880  0.00  0.00    -0.343 OA
BRANCH   5   6
ATOM      6  C   UNL d   1      -0.055  -3.875  -3.575  0.00  0.00     0.091 A 
ATOM      7  C   UNL d   1      -0.386  -4.120  -4.920  0.00  0.00     0.069 A 
ATOM      8  C   UNL d   1       0.372  -5.004  -5.698  0.00  0.00     0.050 A 
ATOM      9 CL   UNL d   1      -1.752  -3.362  -5.661  0.00  0.00    -0.081 Cl
ATOM     10  C   UNL d   1       1.476  -5.638  -5.138  0.00  0.00     0.035 A 
ATOM     11  C   UNL d   1       1.833  -5.391  -3.817  0.00  0.00     0.026 A 
ATOM     12 CL   UNL d   1       2.410  -6.731  -6.082  0.00  0.00    -0.084 Cl
ATOM     13  C   UNL d   1       1.073  -4.510  -3.040  0.00  0.00     0.040 A 
ENDBRANCH   5   6
ENDBRANCH   4   5
ENDBRANCH   1   4
BRANCH   1  14
ATOM     14  N   UNL d   1      -3.001  -2.016  -0.852  0.00  0.00    -0.289 NA
ATOM     15  H   UNL d   1      -3.436  -1.112  -0.706  0.00  0.00     0.125 HD
ATOM     16  H   UNL d   1      -3.391  -2.507  -1.652  0.00  0.00     0.125 HD
ENDBRANCH   1  14
BRANCH   2  17
ATOM     17  O   UNL d   1      -1.723  -0.019   0.313  0.00  0.00    -0.180 OA
BRANCH  17  18
ATOM     18  C   UNL d   1      -1.213   1.232   0.043  0.00  0.00     0.387 C 
ATOM     19  N   UNL d   1      -1.510   2.078   1.089  0.00  0.00    -0.301 N 
ATOM     20  H   UNL d   1      -1.886   1.609   1.902  0.00  0.00     0.171 HD
ATOM     21  O   UNL d   1      -0.583   1.517  -0.967  0.00  0.00    -0.236 OA
BRANCH  19  22
ATOM     22  C   UNL d   1      -1.186   3.440   1.198  0.00  0.00     0.037 A 
ATOM     23  C   UNL d   1      -0.769   4.221   0.115  0.00  0.00     0.031 A 
ATOM     24  C   UNL d   1      -0.463   5.576   0.289  0.00  0.00     0.026 A 
ATOM     25  C   UNL d   1      -0.567   6.154   1.550  0.00  0.00     0.034 A 
ATOM     26  C   UNL d   1      -0.985   5.391   2.637  0.00  0.00     0.026 A 
ATOM     27 CL   UNL d   1      -0.180   7.816   1.765  0.00  0.00    -0.084 Cl
ATOM     28  C   UNL d   1      -1.304   4.040   2.458  0.00  0.00     0.031 A 
ENDBRANCH  19  22
ENDBRANCH  17  18
ENDBRANCH   2  17
TORSDOF 7
