REMARK  3 active torsions:
REMARK  status: ('A' for Active; 'I' for Inactive)
REMARK    1  A    between atoms: C_12  and  N_2 
REMARK    2  A    between atoms: C_15  and  C_12 
REMARK    3  A    between atoms: O_14  and  C_15 
ROOT
ATOM      1  C   UNL d   1       0.251  -0.720   0.008  0.00  0.00     0.100 A 
ATOM      2  N   UNL d   1      -2.131  -0.643   0.044  0.00  0.00    -0.263 N 
ATOM      3  C   UNL d   1      -0.988  -1.456  -0.024  0.00  0.00     0.271 A 
ATOM      4  C   UNL d   1       0.312   0.646   0.029  0.00  0.00     0.065 A 
ATOM      5  C   UNL d   1      -2.100   0.752   0.030  0.00  0.00     0.330 A 
ATOM      6  N   UNL d   1      -0.864   1.355   0.036  0.00  0.00    -0.306 N 
ATOM      7  S   UNL d   1       1.783  -1.441  -0.002  0.00  0.00    -0.094 SA
ATOM      8  C   UNL d   1       1.649   1.148   0.021  0.00  0.00    -0.027 A 
ATOM      9  C   UNL d   1       2.550   0.093   0.012  0.00  0.00     0.059 A 
ATOM     10  O   UNL d   1      -3.098   1.470  -0.023  0.00  0.00    -0.246 OA
ATOM     11  O   UNL d   1      -1.054  -2.679  -0.132  0.00  0.00    -0.266 OA
ATOM     12  C   UNL d   1       2.060   2.582   0.019  0.00  0.00     0.051 C 
ATOM     13  H   UNL d   1      -0.859   2.366   0.022  0.00  0.00     0.170 HD
ENDROOT
BRANCH   2  14
ATOM     14  C   UNL d   1      -3.436  -1.303  -0.013  0.00  0.00     0.163 C 
BRANCH  14  15
ATOM     15  C   UNL d   1      -3.727  -2.225   1.177  0.00  0.00     0.184 C 
BRANCH  15  16
ATOM     16  O   UNL d   1      -3.736  -1.490   2.396  0.00  0.00    -0.399 OA
ATOM     17  H   UNL d   1      -3.909  -2.131   3.109  0.00  0.00     0.209 HD
ENDBRANCH  15  16
ENDBRANCH  14  15
ENDBRANCH   2  14
TORSDOF 3
