REMARK  13 active torsions:
REMARK  status: ('A' for Active; 'I' for Inactive)
REMARK    1  A    between atoms: C_1  and  O_4 
REMARK    2  A    between atoms: O_8  and  C_2 
REMARK    3  A    between atoms: C_3  and  O_5 
REMARK    4  A    between atoms: C_6  and  O_4 
REMARK    5  A    between atoms: C_7  and  O_5 
REMARK    6  A    between atoms: C_20  and  C_6 
REMARK    7  A    between atoms: C_19  and  C_7 
REMARK    8  A    between atoms: C_9  and  O_8 
REMARK    9  A    between atoms: C_21  and  C_9 
REMARK   10  A    between atoms: C_12  and  C_18 
REMARK   11  A    between atoms: C_13  and  O_14 
REMARK   12  A    between atoms: C_23  and  C_13 
REMARK   13  A    between atoms: O_14  and  C_18 
ROOT
ATOM      1  C   UNL d   1      -1.411   0.413  -0.151  0.00  0.00     0.223 C 
ATOM      2  C   UNL d   1      -0.274   1.419  -0.214  0.00  0.00     0.111 C 
ATOM      3  C   UNL d   1      -0.892  -0.994   0.232  0.00  0.00     0.200 C 
ATOM      4  C   UNL d   1       1.004   1.028  -0.056  0.00  0.00     0.171 C 
ATOM      5  O   UNL d   1       1.446  -0.266   0.031  0.00  0.00    -0.350 OA
ATOM      6  C   UNL d   1       0.489  -1.246  -0.404  0.00  0.00     0.184 C 
ENDROOT
BRANCH   6   7
ATOM      7  C   UNL d   1       0.489  -1.307  -1.941  0.00  0.00     0.214 C 
BRANCH   7   8
ATOM      8  O   UNL d   1      -0.445  -2.279  -2.420  0.00  0.00    -0.315 OA
BRANCH   8   9
ATOM      9  C   UNL d   1       0.055  -3.531  -2.545  0.00  0.00     0.293 C 
ATOM     10  O   UNL d   1       1.201  -3.878  -2.313  0.00  0.00    -0.259 OA
BRANCH   9  11
ATOM     11  C   UNL d   1      -0.998  -4.439  -3.047  0.00  0.00     0.039 A 
ATOM     12  C   UNL d   1      -2.354  -4.217  -2.776  0.00  0.00     0.017 A 
ATOM     13  C   UNL d   1      -3.309  -5.116  -3.251  0.00  0.00     0.001 A 
ATOM     14  C   UNL d   1      -2.913  -6.226  -3.997  0.00  0.00     0.000 A 
ATOM     15  C   UNL d   1      -1.562  -6.447  -4.267  0.00  0.00     0.001 A 
ATOM     16  C   UNL d   1      -0.602  -5.558  -3.787  0.00  0.00     0.017 A 
ENDBRANCH   9  11
ENDBRANCH   8   9
ENDBRANCH   7   8
ENDBRANCH   6   7
BRANCH   3  17
ATOM     17  O   UNL d   1      -0.711  -1.125   1.673  0.00  0.00    -0.306 OA
BRANCH  17  18
ATOM     18  C   UNL d   1      -1.809  -1.459   2.391  0.00  0.00     0.293 C 
ATOM     19  O   UNL d   1      -2.933  -1.576   1.934  0.00  0.00    -0.259 OA
BRANCH  18  20
ATOM     20  C   UNL d   1      -1.467  -1.699   3.825  0.00  0.00     0.039 A 
ATOM     21  C   UNL d   1      -2.506  -2.037   4.704  0.00  0.00     0.017 A 
ATOM     22  C   UNL d   1      -2.239  -2.296   6.052  0.00  0.00     0.001 A 
ATOM     23  C   UNL d   1      -0.933  -2.221   6.530  0.00  0.00     0.000 A 
ATOM     24  C   UNL d   1       0.108  -1.885   5.664  0.00  0.00     0.001 A 
ATOM     25  C   UNL d   1      -0.155  -1.623   4.315  0.00  0.00     0.017 A 
ENDBRANCH  18  20
ENDBRANCH  17  18
ENDBRANCH   3  17
BRANCH   1  26
ATOM     26  O   UNL d   1      -2.033   0.311  -1.458  0.00  0.00    -0.302 OA
BRANCH  26  27
ATOM     27  C   UNL d   1      -3.169   1.022  -1.649  0.00  0.00     0.294 C 
ATOM     28  O   UNL d   1      -3.662   1.815  -0.864  0.00  0.00    -0.259 OA
BRANCH  27  29
ATOM     29  C   UNL d   1      -3.804   0.680  -2.953  0.00  0.00     0.039 A 
ATOM     30  C   UNL d   1      -3.104   0.075  -4.005  0.00  0.00     0.017 A 
ATOM     31  C   UNL d   1      -3.761  -0.221  -5.205  0.00  0.00     0.001 A 
ATOM     32  C   UNL d   1      -5.115   0.079  -5.359  0.00  0.00     0.000 A 
ATOM     33  C   UNL d   1      -5.817   0.684  -4.318  0.00  0.00     0.001 A 
ATOM     34  C   UNL d   1      -5.163   0.989  -3.122  0.00  0.00     0.017 A 
ENDBRANCH  27  29
ENDBRANCH  26  27
ENDBRANCH   1  26
BRANCH   2  35
ATOM     35  O   UNL d   1      -0.690   2.761  -0.438  0.00  0.00    -0.275 OA
BRANCH  35  36
ATOM     36  C   UNL d   1       0.178   3.801  -0.601  0.00  0.00     0.298 C 
ATOM     37  O   UNL d   1       1.393   3.788  -0.462  0.00  0.00    -0.259 OA
BRANCH  36  38
ATOM     38  C   UNL d   1      -0.533   5.038  -1.015  0.00  0.00     0.039 A 
ATOM     39  C   UNL d   1       0.213   6.227  -1.062  0.00  0.00     0.017 A 
ATOM     40  C   UNL d   1      -0.378   7.419  -1.480  0.00  0.00     0.001 A 
ATOM     41  C   UNL d   1      -1.718   7.430  -1.859  0.00  0.00     0.000 A 
ATOM     42  C   UNL d   1      -2.467   6.253  -1.817  0.00  0.00     0.001 A 
ATOM     43  C   UNL d   1      -1.880   5.057  -1.394  0.00  0.00     0.017 A 
ENDBRANCH  36  38
ENDBRANCH  35  36
ENDBRANCH   2  35
TORSDOF 13
