REMARK  1 active torsions:
REMARK  status: ('A' for Active; 'I' for Inactive)
REMARK    1  A    between atoms: C_8  and  C_7 
ROOT
ATOM      1  C   UNL d   1       0.540  -0.893   0.026  0.00  0.00     0.111 A 
ATOM      2  N   UNL d   1       0.596   0.477  -0.023  0.00  0.00    -0.335 N 
ATOM      3  HN  UNL d   1       1.416   1.083  -0.023  1.00  0.00     0.168 HD
ATOM      4  C   UNL d   1      -0.884  -1.348   0.054  0.00  0.00     0.316 A 
ATOM      5  O   UNL d   1      -1.575  -0.177  -0.029  0.00  0.00    -0.261 OA
ATOM      6  C   UNL d   1      -0.653   0.806  -0.071  0.00  0.00     0.124 A 
ATOM      7  C   UNL d   1       1.623  -1.683   0.001  0.00  0.00     0.049 C 
ATOM      8  O   UNL d   1      -1.357  -2.461   0.144  0.00  0.00    -0.257 OA
ATOM      9  C   UNL d   1      -1.194   2.183  -0.182  0.00  0.00     0.098 C 
ENDROOT
BRANCH   7  10
ATOM     10  C   UNL d   1       1.572  -3.147  -0.060  0.00  0.00    -0.012 A 
ATOM     11  C   UNL d   1       1.531  -3.842  -1.281  0.00  0.00     0.044 A 
ATOM     12 CL   UNL d   1       1.610  -3.017  -2.800  0.00  0.00    -0.083 Cl
ATOM     13  C   UNL d   1       1.416  -5.234  -1.300  0.00  0.00     0.024 A 
ATOM     14  C   UNL d   1       1.345  -5.944  -0.101  0.00  0.00     0.002 A 
ATOM     15  C   UNL d   1       1.398  -5.266   1.115  0.00  0.00     0.001 A 
ATOM     16  C   UNL d   1       1.514  -3.873   1.138  0.00  0.00     0.013 A 
ENDBRANCH   7  10
TORSDOF 1
