REMARK  6 active torsions:
REMARK  status: ('A' for Active; 'I' for Inactive)
REMARK    1  A    between atoms: C_5  and  C_1 
REMARK    2  A    between atoms: C_10  and  N_4 
REMARK       I    between atoms: C_7  and  N_12 
REMARK       I    between atoms: N_11  and  C_7 
REMARK    3  A    between atoms: C_9  and  O_13 
REMARK    4  A    between atoms: C_24  and  N_11 
REMARK    5  A    between atoms: N_12  and  C_23 
REMARK    6  A    between atoms: O_13  and  C_25 
ROOT
ATOM      1  C   UNL d   1       6.107   3.739  -1.434  0.00  0.00     0.325 C 
ATOM      2  N   UNL d   1       7.048   4.755  -1.518  0.00  0.00    -0.309 N 
ATOM      3  N   UNL d   1       5.291   3.903  -0.323  0.00  0.00    -0.309 N 
ATOM      4  O   UNL d   1       6.037   2.796  -2.211  0.00  0.00    -0.247 OA
ATOM      5  H   UNL d   1       6.917   5.554  -0.919  0.00  0.00     0.170 HD
ATOM      6  H   UNL d   1       5.341   4.785   0.163  0.00  0.00     0.170 HD
ENDROOT
BRANCH   3   7
ATOM      7  C   UNL d   1       4.472   2.913   0.270  0.00  0.00     0.036 A 
ATOM      8  C   UNL d   1       4.364   1.609  -0.216  0.00  0.00     0.032 A 
ATOM      9  C   UNL d   1       3.682   0.623   0.504  0.00  0.00     0.034 A 
ATOM     10  C   UNL d   1       3.092   0.931   1.732  0.00  0.00     0.056 A 
ATOM     11  C   UNL d   1       3.118   2.257   2.185  0.00  0.00     0.034 A 
ATOM     12  C   UNL d   1       3.805   3.239   1.457  0.00  0.00     0.032 A 
BRANCH  10  13
ATOM     13  N   UNL d   1       2.533  -0.092   2.547  0.00  0.00    -0.267 N 
ATOM     14  N   UNL d   1       1.991   0.194   3.760  0.00  0.00    -0.290 N 
ATOM     15  C   UNL d   1       1.685  -0.998   4.309  0.00  0.00     0.134 A 
ATOM     16  HN  UNL d   1       1.846   1.117   4.169  1.00  0.00     0.187 HD
ATOM     17  C   UNL d   1       2.004  -2.056   3.423  0.00  0.00     0.055 A 
ATOM     18  C   UNL d   1       2.522  -1.449   2.307  0.00  0.00     0.119 A 
BRANCH  15  19
ATOM     19  C   UNL d   1       1.099  -1.154   5.685  0.00  0.00     0.434 C 
ATOM     20  F   UNL d   1       0.796   0.025   6.291  0.00  0.00    -0.165 F 
ATOM     21  F   UNL d   1      -0.049  -1.886   5.659  0.00  0.00    -0.165 F 
ATOM     22  F   UNL d   1       1.951  -1.814   6.517  0.00  0.00    -0.165 F 
ENDBRANCH  15  19
ENDBRANCH  10  13
ENDBRANCH   3   7
BRANCH   2  23
ATOM     23  C   UNL d   1       8.173   4.794  -2.374  0.00  0.00     0.036 A 
ATOM     24  C   UNL d   1       8.550   3.747  -3.218  0.00  0.00     0.032 A 
ATOM     25  C   UNL d   1       9.688   3.841  -4.029  0.00  0.00     0.039 A 
ATOM     26  C   UNL d   1      10.469   4.995  -4.016  0.00  0.00     0.078 A 
ATOM     27  C   UNL d   1      10.108   6.038  -3.158  0.00  0.00     0.039 A 
ATOM     28  C   UNL d   1       8.974   5.939  -2.343  0.00  0.00     0.032 A 
BRANCH  26  29
ATOM     29  O   UNL d   1      11.579   5.231  -4.770  0.00  0.00    -0.255 OA
BRANCH  29  30
ATOM     30  C   UNL d   1      11.977   4.232  -5.695  0.00  0.00     0.530 C 
ATOM     31  F   UNL d   1      10.982   3.925  -6.554  0.00  0.00    -0.144 F 
ATOM     32  F   UNL d   1      13.020   4.700  -6.416  0.00  0.00    -0.144 F 
ATOM     33  F   UNL d   1      12.379   3.114  -5.051  0.00  0.00    -0.144 F 
ENDBRANCH  29  30
ENDBRANCH  26  29
ENDBRANCH   2  23
TORSDOF 6
