REMARK  2 active torsions:
REMARK  status: ('A' for Active; 'I' for Inactive)
REMARK    1  A    between atoms: C_15  and  C_5 
REMARK    2  A    between atoms: C_16  and  C_6 
ROOT
ATOM      1  N   UNL d   1      -2.500   1.097  -0.053  0.00  0.00    -0.340 N 
ATOM      2  HN  UNL d   1      -2.807   2.069  -0.075  1.00  0.00     0.167 HD
ATOM      3  N   UNL d   1       2.508   1.115   0.054  0.00  0.00    -0.340 N 
ATOM      4  HN  UNL d   1       2.808   2.089   0.097  1.00  0.00     0.167 HD
ATOM      5  C   UNL d   1      -3.273   0.024  -0.042  0.00  0.00     0.116 A 
ATOM      6  C   UNL d   1       3.286   0.048   0.018  0.00  0.00     0.116 A 
ATOM      7  N   UNL d   1      -2.490  -1.110  -0.037  0.00  0.00    -0.340 N 
ATOM      8  N   UNL d   1       2.519  -1.096   0.021  0.00  0.00    -0.340 N 
ATOM      9  C   UNL d   1       1.216   0.651   0.021  0.00  0.00     0.063 A 
ATOM     10  C   UNL d   1      -1.203   0.644  -0.028  0.00  0.00     0.063 A 
ATOM     11  C   UNL d   1       1.198  -0.738   0.012  0.00  0.00     0.063 A 
ATOM     12  C   UNL d   1      -1.173  -0.743  -0.023  0.00  0.00     0.063 A 
ATOM     13  C   UNL d   1       0.004   1.348  -0.004  0.00  0.00     0.063 A 
ATOM     14  C   UNL d   1       0.014  -1.468  -0.003  0.00  0.00     0.063 A 
ATOM     15  H   UNL d   1      -2.832  -2.058  -0.031  0.00  0.00     0.167 HD
ATOM     16  H   UNL d   1       2.878  -2.038   0.030  0.00  0.00     0.167 HD
ENDROOT
BRANCH   5  17
ATOM     17  C   UNL d   1      -4.743   0.013  -0.018  0.00  0.00     0.008 A 
ATOM     18  C   UNL d   1      -5.441   1.229  -0.084  0.00  0.00     0.015 A 
ATOM     19  C   UNL d   1      -6.837   1.262  -0.029  0.00  0.00     0.001 A 
ATOM     20  C   UNL d   1      -7.558   0.076   0.090  0.00  0.00     0.000 A 
ATOM     21  C   UNL d   1      -6.883  -1.141   0.146  0.00  0.00     0.001 A 
ATOM     22  C   UNL d   1      -5.487  -1.173   0.091  0.00  0.00     0.015 A 
ENDBRANCH   5  17
BRANCH   6  23
ATOM     23  C   UNL d   1       4.749   0.044  -0.011  0.00  0.00     0.008 A 
ATOM     24  C   UNL d   1       5.456   1.082   0.612  0.00  0.00     0.015 A 
ATOM     25  C   UNL d   1       6.851   1.121   0.570  0.00  0.00     0.001 A 
ATOM     26  C   UNL d   1       7.556   0.126  -0.104  0.00  0.00     0.000 A 
ATOM     27  C   UNL d   1       6.867  -0.912  -0.729  0.00  0.00     0.001 A 
ATOM     28  C   UNL d   1       5.471  -0.955  -0.680  0.00  0.00     0.015 A 
ENDBRANCH   6  23
TORSDOF 2
