REMARK  3 active torsions:
REMARK  status: ('A' for Active; 'I' for Inactive)
REMARK    1  A    between atoms: C_7  and  N_1 
REMARK    2  A    between atoms: S_11  and  C_2 
REMARK       I    between atoms: C_9  and  N_10 
REMARK    3  A    between atoms: N_10  and  C_12 
ROOT
ATOM      1  C   UNL d   1      -0.365  -2.674  -0.038  0.00  0.00     0.059 A 
ATOM      2  C   UNL d   1       0.142  -3.396   1.052  0.00  0.00     0.060 A 
ATOM      3  C   UNL d   1      -0.145  -4.757   1.201  0.00  0.00     0.036 A 
ATOM      4  C   UNL d   1      -1.211  -3.311  -0.957  0.00  0.00     0.031 A 
ATOM      5  C   UNL d   1      -1.492  -4.670  -0.818  0.00  0.00     0.005 A 
ATOM      6  C   UNL d   1      -0.956  -5.389   0.252  0.00  0.00     0.029 A 
ENDROOT
BRANCH   1   7
ATOM      7  N   UNL d   1      -0.076  -1.295  -0.205  0.00  0.00    -0.219 N 
ATOM      8  C   UNL d   1       0.976  -0.497   0.219  0.00  0.00     0.174 C 
ATOM      9  N   UNL d   1       0.704   0.757  -0.064  0.00  0.00    -0.264 N 
ATOM     10  N   UNL d   1      -0.486   0.745  -0.737  0.00  0.00    -0.006 NA
ATOM     11  HN  UNL d   1       1.267   1.575   0.171  1.00  0.00     0.186 HD
ATOM     12  N   UNL d   1      -0.936  -0.492  -0.887  0.00  0.00     0.001 NA
BRANCH   8  13
ATOM     13  S   UNL d   1       2.520  -1.027   0.800  0.00  0.00    -0.104 SA
ATOM     14  H   UNL d   1       2.487  -2.306   0.399  0.00  0.00     0.110 HD
ENDBRANCH   8  13
ENDBRANCH   1   7
BRANCH   3  15
ATOM     15  N   UNL d   1       0.321  -5.540   2.280  0.00  0.00    -0.327 N 
ATOM     16  C   UNL d   1       1.157  -5.140   3.306  0.00  0.00     0.218 C 
ATOM     17  O   UNL d   1       1.674  -4.035   3.438  0.00  0.00    -0.274 OA
ATOM     18  C   UNL d   1       1.404  -6.220   4.330  0.00  0.00     0.117 C 
ATOM     19  H   UNL d   1       0.009  -6.503   2.292  0.00  0.00     0.169 HD
ENDBRANCH   3  15
TORSDOF 3
