REMARK  4 active torsions:
REMARK  status: ('A' for Active; 'I' for Inactive)
REMARK    1  A    between atoms: C_8  and  N_1 
REMARK    2  A    between atoms: N_12  and  C_6 
REMARK    3  A    between atoms: C_7  and  O_11 
REMARK    4  A    between atoms: O_11  and  C_18 
ROOT
ATOM      1  N   UNL d   1      -1.470   0.382  -0.172  0.00  0.00    -0.238 N 
ATOM      2  C   UNL d   1       0.810   0.869   0.135  0.00  0.00     0.093 C 
ATOM      3  C   UNL d   1      -0.959  -0.895  -0.223  0.00  0.00     0.298 C 
ATOM      4  C   UNL d   1      -0.584   1.339   0.288  0.00  0.00     0.274 C 
ATOM      5  S   UNL d   1       0.791  -0.851   0.026  0.00  0.00    -0.022 SA
ATOM      6  C   UNL d   1       1.917   1.617   0.025  0.00  0.00     0.109 C 
ATOM      7  O   UNL d   1      -1.536  -1.950  -0.424  0.00  0.00    -0.259 OA
ATOM      8  O   UNL d   1      -0.887   2.373   0.873  0.00  0.00    -0.266 OA
ENDROOT
BRANCH   1   9
ATOM      9  C   UNL d   1      -2.844   0.720  -0.341  0.00  0.00     0.046 A 
ATOM     10  C   UNL d   1      -3.888  -0.174  -0.088  0.00  0.00     0.033 A 
ATOM     11  C   UNL d   1      -5.224   0.260  -0.128  0.00  0.00     0.039 A 
ATOM     12  C   UNL d   1      -5.528   1.587  -0.428  0.00  0.00     0.078 A 
ATOM     13  C   UNL d   1      -4.505   2.448  -0.802  0.00  0.00     0.039 A 
ATOM     14  C   UNL d   1      -3.179   2.021  -0.755  0.00  0.00     0.033 A 
BRANCH  12  15
ATOM     15  O   UNL d   1      -6.768   2.145  -0.435  0.00  0.00    -0.255 OA
BRANCH  15  16
ATOM     16  C   UNL d   1      -7.716   1.704   0.527  0.00  0.00     0.530 C 
ATOM     17  F   UNL d   1      -7.194   0.936   1.506  0.00  0.00    -0.144 F 
ATOM     18  F   UNL d   1      -8.275   2.790   1.109  0.00  0.00    -0.144 F 
ATOM     19  F   UNL d   1      -8.693   1.012  -0.099  0.00  0.00    -0.144 F 
ENDBRANCH  15  16
ENDBRANCH  12  15
ENDBRANCH   1   9
BRANCH   6  20
ATOM     20  N   UNL d   1       2.153   2.989  -0.068  0.00  0.00    -0.397 N 
ATOM     21  C   UNL d   1       1.105   4.011  -0.134  0.00  0.00     0.148 C 
ATOM     22  C   UNL d   1       3.498   3.549   0.072  0.00  0.00     0.148 C 
ENDBRANCH   6  20
TORSDOF 4
