REMARK  5 active torsions:
REMARK  status: ('A' for Active; 'I' for Inactive)
REMARK    1  A    between atoms: N_2  and  C_1 
REMARK    2  A    between atoms: S_4  and  C_3 
REMARK    3  A    between atoms: C_5  and  S_4 
REMARK    4  A    between atoms: O_18  and  C_10 
REMARK    5  A    between atoms: O_19  and  C_14 
ROOT
ATOM      1  S   UNL d   1       4.332  -0.192   0.412  0.00  0.00    -0.085 SA
ENDROOT
BRANCH   1   2
ATOM      2  C   UNL d   1       4.059  -0.509   2.142  0.00  0.00     0.038 A 
ATOM      3  C   UNL d   1       4.978  -1.137   2.994  0.00  0.00     0.121 A 
ATOM      4  C   UNL d   1       4.657  -1.484   4.315  0.00  0.00     0.061 A 
ATOM      5  C   UNL d   1       3.396  -1.169   4.804  0.00  0.00     0.036 A 
ATOM      6  C   UNL d   1       2.466  -0.520   3.992  0.00  0.00     0.025 A 
ATOM      7 CL   UNL d   1       2.974  -1.586   6.416  0.00  0.00    -0.084 Cl
ATOM      8  C   UNL d   1       2.789  -0.211   2.666  0.00  0.00     0.023 A 
BRANCH   3   9
ATOM      9  N   UNL d   1       6.316  -1.448   2.538  0.00  0.00    -0.114 N 
ATOM     10  O   UNL d   1       7.065  -0.498   2.292  0.00  0.00    -0.532 OA
ATOM     11  O   UNL d   1       6.628  -2.647   2.505  0.00  0.00    -0.532 OA
ENDBRANCH   3   9
ENDBRANCH   1   2
BRANCH   1  12
ATOM     12  C   UNL d   1       4.962   1.490   0.302  0.00  0.00     0.041 A 
ATOM     13  C   UNL d   1       4.658   2.408   1.330  0.00  0.00     0.058 A 
ATOM     14  C   UNL d   1       5.143   3.717   1.325  0.00  0.00     0.069 A 
ATOM     15  C   UNL d   1       5.940   4.137   0.267  0.00  0.00     0.039 A 
ATOM     16  C   UNL d   1       6.242   3.256  -0.771  0.00  0.00     0.041 A 
ATOM     17  C   UNL d   1       5.751   1.941  -0.776  0.00  0.00     0.085 A 
BRANCH  14  18
ATOM     18  O   UNL d   1       4.906   4.660   2.287  0.00  0.00    -0.356 OA
ATOM     19  C   UNL d   1       4.130   4.257   3.409  0.00  0.00     0.210 C 
ENDBRANCH  14  18
BRANCH  17  20
ATOM     20  O   UNL d   1       6.214   1.218  -1.845  0.00  0.00    -0.355 OA
ATOM     21  C   UNL d   1       5.300   0.356  -2.511  0.00  0.00     0.210 C 
ENDBRANCH  17  20
ENDBRANCH   1  12
TORSDOF 5
