REMARK  6 active torsions:
REMARK  status: ('A' for Active; 'I' for Inactive)
REMARK    1  A    between atoms: C_4  and  S_1 
REMARK    2  A    between atoms: C_16  and  S_1 
REMARK    3  A    between atoms: S_2  and  C_3 
REMARK    4  A    between atoms: C_15  and  S_2 
REMARK    5  A    between atoms: C_17  and  C_5 
REMARK    6  A    between atoms: C_6  and  C_18 
ROOT
ATOM      1  C   UNL d   1      -4.183 -10.352   4.179  0.00  0.00     0.144 C 
ATOM      2  C   UNL d   1      -3.052  -9.652   4.394  0.00  0.00     0.046 C 
ATOM      3  C   UNL d   1      -5.397  -9.792   3.713  0.00  0.00     0.112 C 
ATOM      4  N   UNL d   1      -6.386  -9.344   3.308  0.00  0.00    -0.191 NA
ENDROOT
BRANCH   1   5
ATOM      5  S   UNL d   1      -4.226 -12.021   4.667  0.00  0.00     0.216 S 
ATOM      6  O   UNL d   1      -5.194 -12.173   5.739  0.00  0.00    -0.216 OA
ATOM      7  O   UNL d   1      -2.873 -12.518   4.859  0.00  0.00    -0.216 OA
BRANCH   5   8
ATOM      8  C   UNL d   1      -4.870 -12.898   3.253  0.00  0.00     0.065 A 
ATOM      9  C   UNL d   1      -3.984 -13.360   2.274  0.00  0.00     0.024 A 
ATOM     10  C   UNL d   1      -4.466 -14.139   1.222  0.00  0.00     0.002 A 
ATOM     11  C   UNL d   1      -5.823 -14.460   1.155  0.00  0.00     0.000 A 
ATOM     12  C   UNL d   1      -6.703 -14.006   2.139  0.00  0.00     0.002 A 
ATOM     13  C   UNL d   1      -6.228 -13.227   3.197  0.00  0.00     0.024 A 
ENDBRANCH   5   8
ENDBRANCH   1   5
BRANCH   2  14
ATOM     14  C   UNL d   1      -2.922  -8.199   4.243  0.00  0.00    -0.034 A 
ATOM     15  C   UNL d   1      -3.151  -7.385   5.356  0.00  0.00     0.012 A 
ATOM     16  C   UNL d   1      -3.037  -5.993   5.260  0.00  0.00     0.012 A 
ATOM     17  C   UNL d   1      -2.721  -5.381   4.042  0.00  0.00    -0.034 A 
ATOM     18  C   UNL d   1      -2.456  -6.208   2.938  0.00  0.00     0.012 A 
ATOM     19  C   UNL d   1      -2.559  -7.605   3.033  0.00  0.00     0.012 A 
BRANCH  17  20
ATOM     20  C   UNL d   1      -2.590  -3.915   3.890  0.00  0.00     0.046 C 
ATOM     21  C   UNL d   1      -3.336  -2.946   4.464  0.00  0.00     0.144 C 
ATOM     22  C   UNL d   1      -4.447  -3.165   5.310  0.00  0.00     0.112 C 
ATOM     23  N   UNL d   1      -5.337  -3.342   6.032  0.00  0.00    -0.191 NA
BRANCH  21  24
ATOM     24  S   UNL d   1      -3.014  -1.289   4.030  0.00  0.00     0.216 S 
ATOM     25  O   UNL d   1      -1.618  -1.144   3.651  0.00  0.00    -0.216 OA
ATOM     26  O   UNL d   1      -4.049  -0.836   3.117  0.00  0.00    -0.216 OA
BRANCH  24  27
ATOM     27  C   UNL d   1      -3.211  -0.354   5.542  0.00  0.00     0.065 A 
ATOM     28  C   UNL d   1      -2.104  -0.145   6.372  0.00  0.00     0.024 A 
ATOM     29  C   UNL d   1      -2.236   0.655   7.509  0.00  0.00     0.002 A 
ATOM     30  C   UNL d   1      -3.463   1.249   7.810  0.00  0.00     0.000 A 
ATOM     31  C   UNL d   1      -4.562   1.050   6.972  0.00  0.00     0.002 A 
ATOM     32  C   UNL d   1      -4.438   0.256   5.831  0.00  0.00     0.024 A 
ENDBRANCH  24  27
ENDBRANCH  21  24
ENDBRANCH  17  20
ENDBRANCH   2  14
TORSDOF 6
