REMARK  1 active torsions:
REMARK  status: ('A' for Active; 'I' for Inactive)
REMARK    1  A    between atoms: N_11  and  C_4 
ROOT
ATOM      1  N   UNL d   1       1.617   1.039   0.004  0.00  0.00    -0.333 N 
ATOM      2  HN  UNL d   1       1.878   2.025   0.003  1.00  0.00     0.168 HD
ATOM      3  C   UNL d   1       0.312   0.564   0.003  0.00  0.00     0.090 A 
ATOM      4  C   UNL d   1       2.464   0.043   0.004  0.00  0.00     0.143 A 
ATOM      5  C   UNL d   1       0.194  -0.829   0.003  0.00  0.00     0.041 A 
ATOM      6  S   UNL d   1       1.768  -1.523   0.003  0.00  0.00    -0.052 SA
ATOM      7  C   UNL d   1      -0.877   1.328   0.004  0.00  0.00     0.147 A 
ATOM      8  C   UNL d   1      -1.055  -1.472   0.003  0.00  0.00     0.063 A 
ATOM      9  C   UNL d   1      -2.126   0.709   0.004  0.00  0.00     0.087 A 
ATOM     10  C   UNL d   1      -2.198  -0.674   0.003  0.00  0.00     0.120 A 
ATOM     11  F   UNL d   1      -0.825   2.668   0.004  0.00  0.00    -0.204 F 
ATOM     12  F   UNL d   1      -3.400  -1.265   0.003  0.00  0.00    -0.206 F 
ENDROOT
BRANCH   4  13
ATOM     13  N   UNL d   1       3.790   0.209   0.006  0.00  0.00    -0.380 N 
ATOM     14  H   UNL d   1       4.178   1.143   0.002  0.00  0.00     0.158 HD
ATOM     15  H   UNL d   1       4.434  -0.570   0.001  0.00  0.00     0.158 HD
ENDBRANCH   4  13
TORSDOF 1
