REMARK  5 active torsions:
REMARK  status: ('A' for Active; 'I' for Inactive)
REMARK    1  A    between atoms: C_10  and  C_4 
REMARK    2  A    between atoms: C_17  and  C_6 
REMARK    3  A    between atoms: O_18  and  C_17 
REMARK    4  A    between atoms: C_19  and  O_18 
REMARK    5  A    between atoms: O_25  and  C_20 
ROOT
ATOM      1  N   UNL d   1       1.330  -0.498  -0.452  0.00  0.00    -0.351 N 
ATOM      2  HN  UNL d   1       2.142  -0.911  -0.911  1.00  0.00     0.166 HD
ATOM      3  C   UNL d   1       1.291   0.775   0.093  0.00  0.00     0.049 A 
ATOM      4  C   UNL d   1       0.168  -1.097  -0.294  0.00  0.00     0.075 A 
ATOM      5  S   UNL d   1      -1.049  -0.150   0.470  0.00  0.00    -0.084 SA
ATOM      6  C   UNL d   1       0.064   1.144   0.611  0.00  0.00     0.082 A 
ENDROOT
BRANCH   3   7
ATOM      7  C   UNL d   1       2.455   1.648   0.053  0.00  0.00    -0.008 A 
ATOM      8  C   UNL d   1       3.385   1.514  -0.986  0.00  0.00     0.022 A 
ATOM      9  C   UNL d   1       4.519   2.352  -1.106  0.00  0.00    -0.042 A 
ATOM     10  C   UNL d   1       5.480   2.136  -2.279  0.00  0.00    -0.020 C 
ATOM     11  C   UNL d   1       4.692   3.386  -0.162  0.00  0.00    -0.043 A 
ATOM     12  C   UNL d   1       6.799   2.921  -2.096  0.00  0.00     0.015 C 
ATOM     13  C   UNL d   1       4.771   2.574  -3.580  0.00  0.00     0.020 C 
ATOM     14  C   UNL d   1       5.884   0.648  -2.419  0.00  0.00     0.020 C 
ATOM     15  C   UNL d   1       6.577   4.340  -1.605  0.00  0.00     0.015 C 
ATOM     16  C   UNL d   1       5.835   4.402  -0.250  0.00  0.00    -0.020 C 
ATOM     17  C   UNL d   1       6.824   4.146   0.909  0.00  0.00     0.020 C 
ATOM     18  C   UNL d   1       5.296   5.848  -0.124  0.00  0.00     0.020 C 
ATOM     19  C   UNL d   1       3.782   3.471   0.915  0.00  0.00     0.009 A 
ATOM     20  C   UNL d   1       2.683   2.618   1.023  0.00  0.00     0.014 A 
ENDBRANCH   3   7
BRANCH   4  21
ATOM     21  C   UNL d   1      -0.147  -2.475  -0.785  0.00  0.00     0.240 C 
BRANCH  21  22
ATOM     22  O   UNL d   1       0.119  -3.388   0.279  0.00  0.00    -0.345 OA
BRANCH  22  23
ATOM     23  C   UNL d   1      -0.084  -4.712   0.004  0.00  0.00     0.069 A 
ATOM     24  C   UNL d   1      -0.581  -5.229  -1.196  0.00  0.00     0.039 A 
ATOM     25  C   UNL d   1      -0.764  -6.607  -1.351  0.00  0.00     0.039 A 
ATOM     26  C   UNL d   1      -0.457  -7.485  -0.314  0.00  0.00     0.068 A 
ATOM     27  C   UNL d   1       0.050  -6.967   0.883  0.00  0.00     0.039 A 
ATOM     28  C   UNL d   1       0.235  -5.591   1.038  0.00  0.00     0.039 A 
BRANCH  26  29
ATOM     29  O   UNL d   1      -0.607  -8.842  -0.340  0.00  0.00    -0.356 OA
ATOM     30  C   UNL d   1      -1.140  -9.402  -1.535  0.00  0.00     0.210 C 
ENDBRANCH  26  29
ENDBRANCH  22  23
ENDBRANCH  21  22
ENDBRANCH   4  21
TORSDOF 5
