REMARK  4 active torsions:
REMARK  status: ('A' for Active; 'I' for Inactive)
REMARK    1  A    between atoms: C_2  and  S_1 
REMARK    2  A    between atoms: N_3  and  S_1 
REMARK    3  A    between atoms: N_4  and  N_3 
REMARK    4  A    between atoms: N_14  and  C_10 
ROOT
ATOM      1  S   UNL d   1       1.081  -0.060  -0.041  0.00  0.00     0.276 S 
ATOM      2  O   UNL d   1       2.477  -0.116   0.343  0.00  0.00    -0.199 OA
ATOM      3  O   UNL d   1       0.656   0.574  -1.270  0.00  0.00    -0.199 OA
ENDROOT
BRANCH   1   4
ATOM      4  C   UNL d   1       0.224   0.770   1.284  0.00  0.00     0.082 A 
ATOM      5  C   UNL d   1      -0.968   1.449   1.010  0.00  0.00     0.050 A 
ATOM      6  C   UNL d   1      -1.572   2.215   2.011  0.00  0.00     0.057 A 
ATOM      7 CL   UNL d   1      -3.036   3.043   1.615  0.00  0.00    -0.083 Cl
ATOM      8  C   UNL d   1      -0.981   2.305   3.279  0.00  0.00     0.055 A 
ATOM      9  C   UNL d   1       0.212   1.621   3.543  0.00  0.00     0.027 A 
ATOM     10 CL   UNL d   1      -1.660   3.253   4.553  0.00  0.00    -0.083 Cl
ATOM     11  C   UNL d   1       0.820   0.855   2.546  0.00  0.00     0.027 A 
ENDBRANCH   1   4
BRANCH   1  12
ATOM     12  N   UNL d   1       0.426  -1.627   0.034  0.00  0.00    -0.222 N 
ATOM     13  H   UNL d   1      -0.163  -1.880   0.825  0.00  0.00     0.200 HD
BRANCH  12  14
ATOM     14  N   UNL d   1       0.903  -2.586  -0.919  0.00  0.00    -0.287 N 
ATOM     15  C   UNL d   1       0.438  -3.789  -0.823  0.00  0.00     0.195 C 
ATOM     16  HN  UNL d   1       1.579  -2.332  -1.639  1.00  0.00     0.188 HD
BRANCH  15  17
ATOM     17  N   UNL d   1       0.778  -4.844  -1.635  0.00  0.00    -0.385 N 
ATOM     18  C   UNL d   1       1.691  -4.667  -2.758  0.00  0.00     0.149 C 
ATOM     19  C   UNL d   1       0.131  -6.141  -1.551  0.00  0.00     0.149 C 
ENDBRANCH  15  17
ENDBRANCH  12  14
ENDBRANCH   1  12
TORSDOF 4
