REMARK  7 active torsions:
REMARK  status: ('A' for Active; 'I' for Inactive)
REMARK    1  A    between atoms: C_10  and  N_1 
REMARK    2  A    between atoms: C_8  and  C_2 
REMARK    3  A    between atoms: C_9  and  C_7 
REMARK    4  A    between atoms: O_17  and  C_9 
REMARK    5  A    between atoms: N_14  and  C_11 
REMARK    6  A    between atoms: C_12  and  N_14 
REMARK    7  A    between atoms: O_22  and  C_18 
ROOT
ATOM      1  N   UNL d   1       0.747   0.499  -0.143  0.00  0.00    -0.225 N 
ATOM      2  C   UNL d   1       1.126  -0.752   0.360  0.00  0.00     0.139 A 
ATOM      3  N   UNL d   1      -0.878  -0.302   1.017  0.00  0.00    -0.007 NA
ATOM      4  N   UNL d   1      -0.489   0.774   0.356  0.00  0.00     0.001 NA
ATOM      5  N   UNL d   1       0.096  -1.256   1.017  0.00  0.00    -0.270 N 
ATOM      6  HN  UNL d   1       0.040  -2.181   1.443  1.00  0.00     0.185 HD
ENDROOT
BRANCH   2   7
ATOM      7  C   UNL d   1       2.426  -1.288   0.209  0.00  0.00     0.063 C 
ATOM      8  C   UNL d   1       2.639  -2.610   0.185  0.00  0.00     0.066 C 
BRANCH   8   9
ATOM      9  N   UNL d   1       3.862  -3.223  -0.017  0.00  0.00    -0.269 NA
ATOM     10  H   UNL d   1       4.501  -2.624  -0.561  0.00  0.00     0.133 HD
BRANCH   9  11
ATOM     11  C   UNL d   1       4.615  -3.773   1.068  0.00  0.00     0.029 A 
ATOM     12  C   UNL d   1       6.020  -3.921   0.978  0.00  0.00     0.059 A 
ATOM     13  C   UNL d   1       6.757  -4.433   2.058  0.00  0.00     0.020 A 
ATOM     14  C   UNL d   1       6.100  -4.862   3.208  0.00  0.00     0.001 A 
ATOM     15  C   UNL d   1       4.713  -4.784   3.285  0.00  0.00     0.002 A 
ATOM     16  C   UNL d   1       3.977  -4.252   2.223  0.00  0.00     0.025 A 
BRANCH  12  17
ATOM     17  C   UNL d   1       6.736  -3.444  -0.234  0.00  0.00     0.177 C 
ATOM     18  O   UNL d   1       6.346  -2.485  -0.887  0.00  0.00    -0.646 OA
BRANCH  17  19
ATOM     19  O   UNL d   1       7.823  -4.170  -0.567  0.00  0.00    -0.773 OA
ATOM     20  H   UNL d   1       7.923  -5.011  -0.082  0.00  0.00     0.167 HD
ENDBRANCH  17  19
ENDBRANCH  12  17
ENDBRANCH   9  11
ENDBRANCH   8   9
ENDBRANCH   2   7
BRANCH   1  21
ATOM     21  C   UNL d   1       1.393   1.434  -1.008  0.00  0.00     0.056 A 
ATOM     22  C   UNL d   1       2.544   1.114  -1.738  0.00  0.00     0.034 A 
ATOM     23  C   UNL d   1       3.203   2.086  -2.499  0.00  0.00     0.039 A 
ATOM     24  C   UNL d   1       2.699   3.381  -2.575  0.00  0.00     0.068 A 
ATOM     25  C   UNL d   1       1.499   3.683  -1.936  0.00  0.00     0.039 A 
ATOM     26  C   UNL d   1       0.852   2.723  -1.149  0.00  0.00     0.034 A 
BRANCH  24  27
ATOM     27  O   UNL d   1       3.275   4.396  -3.288  0.00  0.00    -0.356 OA
ATOM     28  C   UNL d   1       4.700   4.370  -3.316  0.00  0.00     0.210 C 
ENDBRANCH  24  27
ENDBRANCH   1  21
TORSDOF 7
