REMARK  5 active torsions:
REMARK  status: ('A' for Active; 'I' for Inactive)
REMARK    1  A    between atoms: N_3  and  C_1 
REMARK    2  A    between atoms: N_4  and  C_1 
REMARK    3  A    between atoms: C_2  and  C_6 
REMARK    4  A    between atoms: C_16  and  N_4 
REMARK    5  A    between atoms: C_6  and  N_5 
ROOT
ATOM      1  N   UNL d   1       0.931  -0.768   1.120  0.00  0.00    -0.357 N 
ATOM      2  N   UNL d   1      -1.447  -1.679   3.050  0.00  0.00    -0.407 N 
ATOM      3  C   UNL d   1      -0.014  -1.882   0.940  0.00  0.00     0.144 C 
ATOM      4  C   UNL d   1      -1.378  -1.611   1.591  0.00  0.00     0.137 C 
ATOM      5  C   UNL d   1       0.483   0.054   3.477  0.00  0.00     0.039 C 
ATOM      6  C   UNL d   1       1.422  -0.655   2.503  0.00  0.00     0.127 C 
ATOM      7  C   UNL d   1      -0.926  -0.505   3.739  0.00  0.00     0.119 C 
ENDROOT
BRANCH   1   8
ATOM      8  C   UNL d   1       1.145   0.235   0.140  0.00  0.00     0.170 C 
ATOM      9  S   UNL d   1       1.872   1.719   0.440  0.00  0.00    -0.041 SA
BRANCH   8  10
ATOM     10  N   UNL d   1       0.687  -0.122  -1.115  0.00  0.00    -0.363 N 
ATOM     11  H   UNL d   1       0.821  -1.100  -1.317  0.00  0.00     0.162 HD
BRANCH  10  12
ATOM     12  C   UNL d   1       0.496   0.706  -2.340  0.00  0.00     0.083 C 
ATOM     13  C   UNL d   1      -0.879   0.368  -2.940  0.00  0.00     0.025 C 
ATOM     14  C   UNL d   1      -1.043  -1.065  -3.458  0.00  0.00     0.002 C 
ATOM     15  C   UNL d   1      -0.995  -1.244  -4.975  0.00  0.00     0.000 C 
ATOM     16  C   UNL d   1       0.311  -0.872  -5.677  0.00  0.00     0.000 C 
ATOM     17  C   UNL d   1       0.603   0.625  -5.707  0.00  0.00     0.000 C 
ATOM     18  C   UNL d   1       1.617   1.154  -4.687  0.00  0.00     0.002 C 
ATOM     19  C   UNL d   1       1.696   0.534  -3.288  0.00  0.00     0.025 C 
ENDBRANCH  10  12
ENDBRANCH   8  10
ENDBRANCH   1   8
BRANCH   2  20
ATOM     20  C   UNL d   1      -1.115  -2.957   3.682  0.00  0.00     0.160 C 
BRANCH  20  21
ATOM     21  C   UNL d   1      -1.973  -4.116   3.214  0.00  0.00     0.019 A 
ATOM     22  C   UNL d   1      -3.363  -4.178   3.393  0.00  0.00     0.044 A 
ATOM     23 CL   UNL d   1      -4.238  -2.943   4.236  0.00  0.00    -0.084 Cl
ATOM     24  C   UNL d   1      -4.107  -5.263   2.910  0.00  0.00     0.024 A 
ATOM     25  C   UNL d   1      -3.472  -6.320   2.259  0.00  0.00     0.005 A 
ATOM     26  C   UNL d   1      -2.092  -6.293   2.099  0.00  0.00     0.043 A 
ATOM     27  C   UNL d   1      -1.360  -5.202   2.571  0.00  0.00     0.126 A 
ATOM     28  F   UNL d   1      -0.032  -5.211   2.394  0.00  0.00    -0.205 F 
ENDBRANCH  20  21
ENDBRANCH   2  20
TORSDOF 5
