REMARK  3 active torsions:
REMARK  status: ('A' for Active; 'I' for Inactive)
REMARK    1  A    between atoms: C_6  and  C_1 
REMARK    2  A    between atoms: C_4  and  C_6 
REMARK       I    between atoms: N_8  and  C_4 
REMARK    3  A    between atoms: C_10  and  N_8 
ROOT
ATOM      1  C   UNL d   1      -0.513  -4.141   0.218  0.00  0.00     0.226 C 
ATOM      2  N   UNL d   1      -1.299  -4.351  -0.906  0.00  0.00    -0.327 N 
ATOM      3  O   UNL d   1      -0.710  -4.607   1.337  0.00  0.00    -0.273 OA
ATOM      4  H   UNL d   1      -1.040  -3.849  -1.747  0.00  0.00     0.169 HD
ENDROOT
BRANCH   1   5
ATOM      5  C   UNL d   1       0.672  -3.233  -0.036  0.00  0.00     0.143 C 
BRANCH   5   6
ATOM      6  C   UNL d   1       0.470  -1.754   0.201  0.00  0.00    -0.031 A 
ATOM      7  C   UNL d   1       1.519  -0.876  -0.019  0.00  0.00     0.058 A 
ATOM      8  S   UNL d   1       1.133   0.746   0.289  0.00  0.00    -0.101 SA
ATOM      9  C   UNL d   1      -0.471   0.346   0.750  0.00  0.00     0.015 A 
ATOM     10  C   UNL d   1      -0.712  -1.034   0.669  0.00  0.00    -0.012 A 
ATOM     11  C   UNL d   1      -1.459   1.262   1.172  0.00  0.00     0.019 A 
ATOM     12  C   UNL d   1      -2.011  -1.469   1.048  0.00  0.00     0.013 A 
ATOM     13  C   UNL d   1      -2.996  -0.564   1.464  0.00  0.00     0.001 A 
ATOM     14  C   UNL d   1      -2.722   0.792   1.524  0.00  0.00     0.001 A 
ENDBRANCH   5   6
ENDBRANCH   1   5
BRANCH   2  15
ATOM     15  C   UNL d   1      -2.499  -5.094  -0.975  0.00  0.00     0.034 A 
ATOM     16  C   UNL d   1      -3.018  -5.834   0.093  0.00  0.00     0.032 A 
ATOM     17  C   UNL d   1      -4.244  -6.496  -0.028  0.00  0.00     0.044 A 
ATOM     18  C   UNL d   1      -4.948  -6.425  -1.221  0.00  0.00     0.116 A 
ATOM     19  C   UNL d   1      -4.439  -5.721  -2.304  0.00  0.00     0.044 A 
ATOM     20  F   UNL d   1      -6.132  -7.042  -1.328  0.00  0.00    -0.206 F 
ATOM     21  C   UNL d   1      -3.212  -5.060  -2.183  0.00  0.00     0.032 A 
ENDBRANCH   2  15
TORSDOF 3
