REMARK  2 active torsions:
REMARK  status: ('A' for Active; 'I' for Inactive)
REMARK    1  A    between atoms: C_2  and  N_1 
REMARK    2  A    between atoms: C_6  and  C_4 
ROOT
ATOM      1  C   UNL d   1       0.209  -2.328   2.804  0.00  0.00    -0.032 A 
ATOM      2  C   UNL d   1      -0.855  -3.170   2.455  0.00  0.00     0.053 A 
ATOM      3  C   UNL d   1      -1.536  -3.878   3.441  0.00  0.00     0.117 A 
ATOM      4  F   UNL d   1      -2.566  -4.659   3.092  0.00  0.00    -0.206 F 
ATOM      5  C   UNL d   1      -0.092  -2.978   5.133  0.00  0.00     0.004 A 
ATOM      6  C   UNL d   1       0.598  -2.259   4.151  0.00  0.00     0.011 A 
ATOM      7  C   UNL d   1      -1.170  -3.784   4.777  0.00  0.00     0.042 A 
ENDROOT
BRANCH   1   8
ATOM      8  C   UNL d   1       0.945  -1.535   1.806  0.00  0.00     0.035 C 
ATOM      9  C   UNL d   1       0.360  -1.048   0.704  0.00  0.00     0.168 C 
BRANCH   9  10
ATOM     10  N   UNL d   1       1.117  -0.245  -0.228  0.00  0.00    -0.127 N 
ATOM     11  O   UNL d   1       0.497   0.147  -1.223  0.00  0.00    -0.532 OA
ATOM     12  O   UNL d   1       2.305  -0.000   0.017  0.00  0.00    -0.532 OA
ENDBRANCH   9  10
ENDBRANCH   1   8
TORSDOF 2
