REMARK  2 active torsions:
REMARK  status: ('A' for Active; 'I' for Inactive)
REMARK    1  A    between atoms: C_4  and  C_2 
REMARK    2  A    between atoms: C_5  and  C_2 
ROOT
ATOM      1  C   UNL d   1       0.138   0.883  -0.071  0.00  0.00     0.134 A 
ATOM      2  C   UNL d   1       0.959  -0.414   0.075  0.00  0.00     0.056 A 
ATOM      3  C   UNL d   1      -0.571  -0.445  -0.065  0.00  0.00     0.042 A 
ATOM      4 CL   UNL d   1      -0.163   1.923   1.336  0.00  0.00    -0.100 Cl
ATOM      5 CL   UNL d   1       0.172   1.831  -1.562  0.00  0.00    -0.100 Cl
ATOM      6  C   UNL d   1      -1.297  -0.952  -1.266  0.00  0.00     0.015 C 
ENDROOT
BRANCH   2   7
ATOM      7  C   UNL d   1       1.866  -0.919  -1.060  0.00  0.00    -0.041 A 
ATOM      8  C   UNL d   1       2.926  -0.135  -1.553  0.00  0.00     0.008 A 
ATOM      9  C   UNL d   1       3.886  -0.660  -2.422  0.00  0.00     0.001 A 
ATOM     10  C   UNL d   1       3.811  -1.991  -2.818  0.00  0.00     0.000 A 
ATOM     11  C   UNL d   1       2.764  -2.788  -2.365  0.00  0.00     0.001 A 
ATOM     12  C   UNL d   1       1.804  -2.256  -1.500  0.00  0.00     0.008 A 
ENDBRANCH   2   7
BRANCH   2  13
ATOM     13  C   UNL d   1       1.553  -0.798   1.445  0.00  0.00    -0.041 A 
ATOM     14  C   UNL d   1       1.192  -1.994   2.092  0.00  0.00     0.008 A 
ATOM     15  C   UNL d   1       1.844  -2.421   3.251  0.00  0.00     0.001 A 
ATOM     16  C   UNL d   1       2.875  -1.657   3.790  0.00  0.00     0.000 A 
ATOM     17  C   UNL d   1       3.244  -0.461   3.182  0.00  0.00     0.001 A 
ATOM     18  C   UNL d   1       2.587  -0.039   2.023  0.00  0.00     0.008 A 
ENDBRANCH   2  13
TORSDOF 2
