REMARK  2 active torsions:
REMARK  status: ('A' for Active; 'I' for Inactive)
REMARK    1  A    between atoms: C_2  and  C_1 
REMARK       I    between atoms: N_3  and  C_1 
REMARK    2  A    between atoms: C_9  and  N_3 
ROOT
ATOM      1  N   UNL d   1      -6.418  -2.600  -0.011  0.00  0.00    -0.191 NA
ATOM      2  C   UNL d   1      -5.332  -2.227   0.154  0.00  0.00     0.099 C 
ATOM      3  C   UNL d   1      -1.310  -0.939   0.667  0.00  0.00     0.035 A 
ATOM      4  C   UNL d   1      -3.986  -1.774   0.346  0.00  0.00     0.044 A 
ATOM      5  C   UNL d   1      -2.061  -0.536  -0.442  0.00  0.00     0.031 A 
ATOM      6  C   UNL d   1      -1.923  -1.754   1.628  0.00  0.00     0.031 A 
ATOM      7  C   UNL d   1      -3.387  -0.951  -0.606  0.00  0.00     0.025 A 
ATOM      8  C   UNL d   1      -3.255  -2.166   1.470  0.00  0.00     0.025 A 
ENDROOT
BRANCH   3   9
ATOM      9  N   UNL d   1       0.057  -0.616   0.844  0.00  0.00    -0.323 N 
ATOM     10  C   UNL d   1       0.830   0.152  -0.013  0.00  0.00     0.259 C 
ATOM     11  O   UNL d   1       0.398   0.818  -0.954  0.00  0.00    -0.267 OA
ATOM     12  H   UNL d   1       0.531  -1.090   1.605  0.00  0.00     0.169 HD
BRANCH  10  13
ATOM     13  C   UNL d   1       2.306   0.134   0.174  0.00  0.00     0.075 A 
ATOM     14  C   UNL d   1       3.018  -1.066   0.353  0.00  0.00     0.051 A 
ATOM     15 CL   UNL d   1       2.266  -2.604   0.616  0.00  0.00    -0.083 Cl
ATOM     16  C   UNL d   1       4.420  -1.078   0.294  0.00  0.00     0.025 A 
ATOM     17  C   UNL d   1       5.129   0.092   0.043  0.00  0.00     0.003 A 
ATOM     18  C   UNL d   1       4.441   1.292  -0.102  0.00  0.00     0.025 A 
ATOM     19  C   UNL d   1       3.041   1.321  -0.021  0.00  0.00     0.051 A 
ATOM     20 CL   UNL d   1       2.315   2.892  -0.111  0.00  0.00    -0.083 Cl
ENDBRANCH  10  13
ENDBRANCH   3   9
TORSDOF 2
