REMARK  8 active torsions:
REMARK  status: ('A' for Active; 'I' for Inactive)
REMARK    1  A    between atoms: N_2  and  C_1 
REMARK    2  A    between atoms: C_3  and  C_1 
REMARK    3  A    between atoms: C_5  and  C_1 
REMARK    4  A    between atoms: O_6  and  C_1 
REMARK       I    between atoms: C_4  and  N_2 
REMARK    5  A    between atoms: C_8  and  C_4 
REMARK    6  A    between atoms: O_13  and  C_5 
REMARK    7  A    between atoms: C_14  and  O_6 
REMARK    8  A    between atoms: C_17  and  O_13 
ROOT
ATOM      1  C   UNL d   1       0.878   0.078  -0.145  0.00  0.00     0.327 C 
ENDROOT
BRANCH   1   2
ATOM      2  N   UNL d   1       0.360  -0.937  -1.096  0.00  0.00    -0.309 N 
ATOM      3  C   UNL d   1       0.396  -2.283  -0.824  0.00  0.00     0.254 C 
ATOM      4  O   UNL d   1       0.964  -2.757   0.149  0.00  0.00    -0.268 OA
ATOM      5  H   UNL d   1      -0.352  -0.600  -1.734  0.00  0.00     0.166 HD
BRANCH   3   6
ATOM      6  C   UNL d   1      -0.352  -3.158  -1.770  0.00  0.00     0.032 A 
ATOM      7  C   UNL d   1      -0.491  -2.822  -3.125  0.00  0.00     0.017 A 
ATOM      8  C   UNL d   1      -1.206  -3.656  -3.984  0.00  0.00     0.001 A 
ATOM      9  C   UNL d   1      -1.783  -4.832  -3.499  0.00  0.00     0.000 A 
ATOM     10  C   UNL d   1      -1.639  -5.175  -2.153  0.00  0.00     0.001 A 
ATOM     11  C   UNL d   1      -0.923  -4.343  -1.291  0.00  0.00     0.017 A 
ENDBRANCH   3   6
ENDBRANCH   1   2
BRANCH   1  12
ATOM     12  C   UNL d   1       0.288  -0.060   1.310  0.00  0.00     0.448 C 
ATOM     13  F   UNL d   1      -0.813  -0.861   1.327  0.00  0.00    -0.166 F 
ATOM     14  F   UNL d   1       1.174  -0.581   2.192  0.00  0.00    -0.166 F 
ATOM     15  F   UNL d   1      -0.128   1.117   1.843  0.00  0.00    -0.166 F 
ENDBRANCH   1  12
BRANCH   1  16
ATOM     16  C   UNL d   1       0.382   1.483  -0.569  0.00  0.00     0.325 C 
ATOM     17  O   UNL d   1       0.812   2.554  -0.146  0.00  0.00    -0.259 OA
BRANCH  16  18
ATOM     18  O   UNL d   1      -0.591   1.387  -1.537  0.00  0.00    -0.318 OA
BRANCH  18  19
ATOM     19  C   UNL d   1      -1.082   2.639  -2.042  0.00  0.00     0.174 C 
ATOM     20  C   UNL d   1      -2.200   3.143  -1.153  0.00  0.00     0.034 C 
ENDBRANCH  18  19
ENDBRANCH  16  18
ENDBRANCH   1  16
BRANCH   1  21
ATOM     21  O   UNL d   1       2.316   0.037  -0.127  0.00  0.00    -0.341 OA
BRANCH  21  22
ATOM     22  C   UNL d   1       3.032   0.014  -1.363  0.00  0.00     0.117 C 
ATOM     23  C   UNL d   1       3.000   1.349  -2.100  0.00  0.00     0.039 C 
ATOM     24  C   UNL d   1       4.479  -0.330  -1.014  0.00  0.00     0.039 C 
ENDBRANCH  21  22
ENDBRANCH   1  21
TORSDOF 8
