REMARK  4 active torsions:
REMARK  status: ('A' for Active; 'I' for Inactive)
REMARK    1  A    between atoms: C_2  and  S_1 
REMARK    2  A    between atoms: C_3  and  S_1 
REMARK    3  A    between atoms: N_7  and  C_4 
REMARK    4  A    between atoms: C_12  and  N_7 
ROOT
ATOM      1  C   UNL d   1       0.352   1.398   0.752  0.00  0.00     0.160 C 
ATOM      2  C   UNL d   1      -0.409   2.273   0.067  0.00  0.00     0.123 C 
ATOM      3  C   UNL d   1       0.822   0.207   0.166  0.00  0.00     0.113 C 
ATOM      4  N   UNL d   1       1.182  -0.770  -0.347  0.00  0.00    -0.191 NA
ENDROOT
BRANCH   1   5
ATOM      5  S   UNL d   1       0.683   1.748   2.412  0.00  0.00     0.233 S 
ATOM      6  O   UNL d   1      -0.577   1.668   3.139  0.00  0.00    -0.215 OA
ATOM      7  O   UNL d   1       1.472   2.966   2.511  0.00  0.00    -0.215 OA
BRANCH   5   8
ATOM      8  C   UNL d   1       1.704   0.409   3.018  0.00  0.00     0.134 A 
ATOM      9  N   UNL d   1       2.865   0.245   2.333  0.00  0.00    -0.356 N 
ATOM     10  C   UNL d   1       3.659  -0.764   2.753  0.00  0.00     0.089 A 
ATOM     11  HN  UNL d   1       3.122   0.846   1.550  1.00  0.00     0.166 HD
ATOM     12  C   UNL d   1       3.348  -1.595   3.820  0.00  0.00     0.017 A 
ATOM     13  C   UNL d   1       2.150  -1.390   4.500  0.00  0.00     0.004 A 
ATOM     14  C   UNL d   1       1.299  -0.367   4.094  0.00  0.00     0.042 A 
ENDBRANCH   5   8
ENDBRANCH   1   5
BRANCH   2  15
ATOM     15  N   UNL d   1      -0.837   2.118  -1.237  0.00  0.00    -0.362 N 
ATOM     16  H   UNL d   1      -0.586   2.889  -1.861  0.00  0.00     0.165 HD
BRANCH  15  17
ATOM     17  C   UNL d   1      -2.112   1.603  -1.608  0.00  0.00     0.053 A 
ATOM     18  C   UNL d   1      -2.454   1.493  -2.969  0.00  0.00     0.060 A 
ATOM     19 CL   UNL d   1      -1.386   2.079  -4.201  0.00  0.00    -0.082 Cl
ATOM     20  C   UNL d   1      -3.660   0.908  -3.372  0.00  0.00     0.026 A 
ATOM     21  C   UNL d   1      -4.543   0.409  -2.418  0.00  0.00     0.002 A 
ATOM     22  C   UNL d   1      -4.216   0.489  -1.065  0.00  0.00     0.002 A 
ATOM     23  C   UNL d   1      -3.005   1.067  -0.664  0.00  0.00     0.031 A 
ENDBRANCH  15  17
ENDBRANCH   2  15
TORSDOF 4
