REMARK  3 active torsions:
REMARK  status: ('A' for Active; 'I' for Inactive)
REMARK    1  A    between atoms: C_4  and  C_1 
REMARK    2  A    between atoms: O_12  and  C_8 
REMARK    3  A    between atoms: O_13  and  C_9 
ROOT
ATOM      1  C   UNL d   1       0.317   0.164   0.491  0.00  0.00     0.076 A 
ATOM      2  C   UNL d   1      -0.907   0.227  -0.429  0.00  0.00     0.032 A 
ATOM      3  C   UNL d   1      -0.105   1.466  -0.193  0.00  0.00     0.032 A 
ATOM      4  C   UNL d   1       1.488  -0.493  -0.066  0.00  0.00     0.074 C 
ATOM      5  N   UNL d   1       2.413  -1.019  -0.532  0.00  0.00    -0.196 NA
ENDROOT
BRANCH   1   6
ATOM      6  C   UNL d   1       0.025   0.043   1.991  0.00  0.00    -0.033 A 
ATOM      7  C   UNL d   1      -0.685  -1.061   2.504  0.00  0.00     0.048 A 
ATOM      8  C   UNL d   1      -1.030  -1.174   3.862  0.00  0.00     0.102 A 
ATOM      9  C   UNL d   1      -0.642  -0.154   4.745  0.00  0.00     0.101 A 
ATOM     10  C   UNL d   1       0.109   0.923   4.255  0.00  0.00     0.040 A 
ATOM     11  C   UNL d   1       0.442   1.018   2.904  0.00  0.00     0.012 A 
BRANCH   8  12
ATOM     12  O   UNL d   1      -1.732  -2.238   4.362  0.00  0.00    -0.353 OA
ATOM     13  C   UNL d   1      -2.156  -3.255   3.465  0.00  0.00     0.210 C 
ENDBRANCH   8  12
BRANCH   9  14
ATOM     14  O   UNL d   1      -0.899  -0.033   6.086  0.00  0.00    -0.353 OA
ATOM     15  C   UNL d   1      -1.704  -1.014   6.721  0.00  0.00     0.210 C 
ENDBRANCH   9  14
ENDBRANCH   1   6
TORSDOF 3
