REMARK  10 active torsions:
REMARK  status: ('A' for Active; 'I' for Inactive)
REMARK    1  A    between atoms: C_1  and  O_7 
REMARK    2  A    between atoms: C_2  and  O_8 
REMARK    3  A    between atoms: C_3  and  O_9 
REMARK    4  A    between atoms: C_4  and  O_20 
REMARK    5  A    between atoms: C_6  and  C_14 
REMARK    6  A    between atoms: C_10  and  O_7 
REMARK    7  A    between atoms: C_11  and  O_8 
REMARK    8  A    between atoms: C_12  and  O_9 
REMARK    9  A    between atoms: C_13  and  O_15 
REMARK   10  A    between atoms: O_15  and  C_14 
ROOT
ATOM      1  C   UNL d   1       1.779   0.106  -0.046  0.00  0.00     0.198 C 
ATOM      2  C   UNL d   1       0.938  -1.183  -0.185  0.00  0.00     0.219 C 
ATOM      3  C   UNL d   1       1.035   1.375  -0.526  0.00  0.00     0.195 C 
ATOM      4  C   UNL d   1      -0.486  -0.956   0.378  0.00  0.00     0.291 C 
ATOM      5  O   UNL d   1      -1.087   0.170  -0.267  0.00  0.00    -0.348 OA
ATOM      6  C   UNL d   1      -0.393   1.380   0.066  0.00  0.00     0.181 C 
ENDROOT
BRANCH   6   7
ATOM      7  C   UNL d   1      -1.238   2.567  -0.413  0.00  0.00     0.213 C 
BRANCH   7   8
ATOM      8  O   UNL d   1      -0.649   3.818  -0.026  0.00  0.00    -0.319 OA
BRANCH   8   9
ATOM      9  C   UNL d   1      -0.820   4.160   1.281  0.00  0.00     0.254 C 
ATOM     10  O   UNL d   1      -1.448   3.509   2.103  0.00  0.00    -0.266 OA
ATOM     11  C   UNL d   1      -0.107   5.438   1.597  0.00  0.00     0.126 C 
ENDBRANCH   8   9
ENDBRANCH   7   8
ENDBRANCH   6   7
BRANCH   3  12
ATOM     12  O   UNL d   1       0.954   1.412  -1.967  0.00  0.00    -0.311 OA
BRANCH  12  13
ATOM     13  C   UNL d   1       1.919   2.130  -2.608  0.00  0.00     0.255 C 
ATOM     14  O   UNL d   1       2.801   2.777  -2.062  0.00  0.00    -0.266 OA
ATOM     15  C   UNL d   1       1.822   1.932  -4.091  0.00  0.00     0.126 C 
ENDBRANCH  12  13
ENDBRANCH   3  12
BRANCH   4  16
ATOM     16  O   UNL d   1      -1.267  -2.136   0.164  0.00  0.00    -0.363 OA
ATOM     17  C   UNL d   1      -2.566  -2.013   0.730  0.00  0.00     0.204 C 
ENDBRANCH   4  16
BRANCH   1  18
ATOM     18  O   UNL d   1       3.140   0.029  -0.564  0.00  0.00    -0.311 OA
BRANCH  18  19
ATOM     19  C   UNL d   1       3.390  -0.431  -1.814  0.00  0.00     0.255 C 
ATOM     20  O   UNL d   1       2.581  -0.934  -2.577  0.00  0.00    -0.266 OA
ATOM     21  C   UNL d   1       4.813  -0.148  -2.197  0.00  0.00     0.126 C 
ENDBRANCH  18  19
ENDBRANCH   1  18
BRANCH   2  22
ATOM     22  O   UNL d   1       1.605  -2.338   0.396  0.00  0.00    -0.308 OA
BRANCH  22  23
ATOM     23  C   UNL d   1       1.756  -2.397   1.743  0.00  0.00     0.255 C 
ATOM     24  O   UNL d   1       1.458  -1.511   2.530  0.00  0.00    -0.266 OA
ATOM     25  C   UNL d   1       2.303  -3.731   2.147  0.00  0.00     0.126 C 
ENDBRANCH  22  23
ENDBRANCH   2  22
TORSDOF 10
