REMARK  4 active torsions:
REMARK  status: ('A' for Active; 'I' for Inactive)
REMARK    1  A    between atoms: C_12  and  C_7 
REMARK    2  A    between atoms: O_16  and  C_8 
REMARK    3  A    between atoms: O_17  and  C_9 
REMARK    4  A    between atoms: C_11  and  C_12 
ROOT
ATOM      1  C   UNL d   1       2.378   1.666   0.071  0.00  0.00     0.124 C 
ENDROOT
BRANCH   1   2
ATOM      2  C   UNL d   1       3.702   0.941   0.010  0.00  0.00    -0.048 A 
ATOM      3  C   UNL d   1       4.002   0.108  -1.082  0.00  0.00     0.047 A 
ATOM      4  C   UNL d   1       5.184  -0.648  -1.128  0.00  0.00     0.102 A 
ATOM      5  C   UNL d   1       6.108  -0.522  -0.076  0.00  0.00     0.101 A 
ATOM      6  C   UNL d   1       5.821   0.330   0.999  0.00  0.00     0.040 A 
ATOM      7  C   UNL d   1       4.633   1.060   1.044  0.00  0.00     0.010 A 
BRANCH   4   8
ATOM      8  O   UNL d   1       5.459  -1.545  -2.127  0.00  0.00    -0.353 OA
ATOM      9  C   UNL d   1       4.502  -1.701  -3.167  0.00  0.00     0.210 C 
ENDBRANCH   4   8
BRANCH   5  10
ATOM     10  O   UNL d   1       7.291  -1.199   0.083  0.00  0.00    -0.353 OA
ATOM     11  C   UNL d   1       7.991  -1.567  -1.097  0.00  0.00     0.210 C 
ENDBRANCH   5  10
ENDBRANCH   1   2
BRANCH   1  12
ATOM     12  C   UNL d   1       2.387   2.986  -0.598  0.00  0.00     0.146 A 
ATOM     13  N   UNL d   1       2.645   4.177  -0.096  0.00  0.00    -0.280 N 
ATOM     14  N   UNL d   1       2.428   5.078  -1.119  0.00  0.00    -0.263 N 
ATOM     15  HN  UNL d   1       2.944   4.390   0.856  1.00  0.00     0.189 HD
ATOM     16  C   UNL d   1       2.052   4.373  -2.162  0.00  0.00     0.238 A 
ATOM     17  HN  UNL d   1       2.537   6.091  -1.074  1.00  0.00     0.190 HD
ATOM     18  O   UNL d   1       2.010   3.034  -1.916  0.00  0.00    -0.264 OA
ATOM     19  N   UNL d   1       1.720   4.771  -3.392  0.00  0.00    -0.364 N 
ATOM     20  H   UNL d   1       2.007   5.709  -3.649  0.00  0.00     0.159 HD
ATOM     21  H   UNL d   1       1.791   4.091  -4.137  0.00  0.00     0.159 HD
ENDBRANCH   1  12
TORSDOF 4
