REMARK  5 active torsions:
REMARK  status: ('A' for Active; 'I' for Inactive)
REMARK    1  A    between atoms: C_11  and  C_3 
REMARK    2  A    between atoms: N_15  and  C_6 
REMARK    3  A    between atoms: N_12  and  N_15 
REMARK    4  A    between atoms: C_17  and  C_16 
REMARK    5  A    between atoms: O_23  and  C_18 
ROOT
ATOM      1  C   UNL d   1       0.014  -0.590   0.017  0.00  0.00     0.077 A 
ATOM      2  S   UNL d   1       1.719  -0.833   0.022  0.00  0.00    -0.088 SA
ATOM      3  C   UNL d   1       2.068   0.857  -0.015  0.00  0.00    -0.007 A 
ATOM      4  C   UNL d   1       0.887   1.579  -0.030  0.00  0.00     0.046 A 
ATOM      5  C   UNL d   1      -0.283   0.767  -0.016  0.00  0.00     0.055 A 
ATOM      6  C   UNL d   1      -1.038  -1.520   0.049  0.00  0.00     0.140 A 
ATOM      7  N   UNL d   1      -2.302  -1.018   0.043  0.00  0.00    -0.336 N 
ATOM      8  HN  UNL d   1      -3.105  -1.647   0.072  1.00  0.00     0.168 HD
ATOM      9  N   UNL d   1      -1.547   1.250  -0.029  0.00  0.00    -0.351 N 
ATOM     10  HN  UNL d   1      -1.762   2.246  -0.059  1.00  0.00     0.166 HD
ATOM     11  C   UNL d   1      -2.486   0.304  -0.000  0.00  0.00     0.182 A 
ENDROOT
BRANCH   6  12
ATOM     12  N   UNL d   1      -0.822  -2.907   0.094  0.00  0.00    -0.285 N 
ATOM     13  H   UNL d   1       0.131  -3.226  -0.041  0.00  0.00     0.188 HD
BRANCH  12  14
ATOM     14  N   UNL d   1      -1.891  -3.730   0.122  0.00  0.00    -0.309 N 
ATOM     15  C   UNL d   1      -1.649  -5.000   0.196  0.00  0.00     0.118 C 
ATOM     16  HN  UNL d   1      -2.844  -3.369   0.087  1.00  0.00     0.186 HD
BRANCH  15  17
ATOM     17  C   UNL d   1      -2.751  -5.985   0.250  0.00  0.00    -0.019 A 
ATOM     18  C   UNL d   1      -4.081  -5.557   0.224  0.00  0.00     0.015 A 
ATOM     19  C   UNL d   1      -5.124  -6.491   0.278  0.00  0.00     0.037 A 
ATOM     20  C   UNL d   1      -4.839  -7.853   0.368  0.00  0.00     0.068 A 
ATOM     21  C   UNL d   1      -3.504  -8.274   0.393  0.00  0.00     0.037 A 
ATOM     22  C   UNL d   1      -2.458  -7.345   0.334  0.00  0.00     0.015 A 
BRANCH  20  23
ATOM     23  O   UNL d   1      -5.762  -8.861   0.445  0.00  0.00    -0.356 OA
ATOM     24  C   UNL d   1      -7.132  -8.477   0.429  0.00  0.00     0.210 C 
ENDBRANCH  20  23
ENDBRANCH  15  17
ENDBRANCH  12  14
ENDBRANCH   6  12
BRANCH   3  25
ATOM     25  C   UNL d   1       3.512   1.382  -0.029  0.00  0.00    -0.018 C 
ATOM     26  C   UNL d   1       4.255   0.892  -1.288  0.00  0.00     0.020 C 
ATOM     27  C   UNL d   1       3.534   2.929  -0.033  0.00  0.00     0.020 C 
ATOM     28  C   UNL d   1       4.283   0.914   1.220  0.00  0.00     0.020 C 
ENDBRANCH   3  25
TORSDOF 5
