REMARK  4 active torsions:
REMARK  status: ('A' for Active; 'I' for Inactive)
REMARK    1  A    between atoms: O_8  and  N_1 
REMARK    2  A    between atoms: C_10  and  C_2 
REMARK    3  A    between atoms: C_11  and  O_8 
REMARK    4  A    between atoms: C_12  and  C_11 
ROOT
ATOM      1  N   UNL d   1       2.248  -0.714   0.133  0.00  0.00    -0.166 N 
ATOM      2  C   UNL d   1       2.279   0.668   0.007  0.00  0.00     0.147 C 
ATOM      3  C   UNL d   1       1.065  -1.406   0.370  0.00  0.00     0.285 C 
ATOM      4  N   UNL d   1       1.187   1.371  -0.101  0.00  0.00    -0.339 N 
ATOM      5  HN  UNL d   1       1.235   2.386  -0.198  1.00  0.00     0.167 HD
ATOM      6  C   UNL d   1      -0.169  -0.649   0.121  0.00  0.00     0.061 A 
ATOM      7  C   UNL d   1      -0.052   0.721  -0.083  0.00  0.00     0.049 A 
ATOM      8  O   UNL d   1       0.969  -2.557   0.792  0.00  0.00    -0.265 OA
ATOM      9  C   UNL d   1      -1.420  -1.280   0.132  0.00  0.00     0.019 A 
ATOM     10  C   UNL d   1      -1.217   1.475  -0.245  0.00  0.00     0.030 A 
ATOM     11  C   UNL d   1      -2.574  -0.520  -0.044  0.00  0.00     0.001 A 
ATOM     12  C   UNL d   1      -2.473   0.860  -0.222  0.00  0.00     0.002 A 
ENDROOT
BRANCH   1  13
ATOM     13  O   UNL d   1       3.434  -1.400   0.512  0.00  0.00    -0.264 OA
BRANCH  13  14
ATOM     14  C   UNL d   1       3.669  -2.505  -0.378  0.00  0.00     0.240 C 
BRANCH  14  15
ATOM     15  C   UNL d   1       4.973  -3.228  -0.117  0.00  0.00    -0.032 A 
ATOM     16  C   UNL d   1       5.963  -2.744   0.745  0.00  0.00     0.010 A 
ATOM     17  C   UNL d   1       7.144  -3.470   0.947  0.00  0.00     0.007 A 
ATOM     18  C   UNL d   1       7.358  -4.690   0.292  0.00  0.00    -0.062 A 
ATOM     19  C   UNL d   1       6.376  -5.172  -0.575  0.00  0.00     0.007 A 
ATOM     20  C   UNL d   1       8.631  -5.454   0.511  0.00  0.00     0.048 C 
ATOM     21  C   UNL d   1       5.199  -4.449  -0.777  0.00  0.00     0.010 A 
ENDBRANCH  14  15
ENDBRANCH  13  14
ENDBRANCH   1  13
BRANCH   2  22
ATOM     22  C   UNL d   1       3.570   1.424   0.017  0.00  0.00     0.010 A 
ATOM     23  C   UNL d   1       4.734   0.974  -0.611  0.00  0.00     0.015 A 
ATOM     24  C   UNL d   1       5.887   1.767  -0.604  0.00  0.00     0.001 A 
ATOM     25  C   UNL d   1       5.880   3.020   0.012  0.00  0.00     0.000 A 
ATOM     26  C   UNL d   1       4.718   3.488   0.617  0.00  0.00     0.001 A 
ATOM     27  C   UNL d   1       3.569   2.696   0.617  0.00  0.00     0.015 A 
ENDBRANCH   2  22
TORSDOF 4
