REMARK  5 active torsions:
REMARK  status: ('A' for Active; 'I' for Inactive)
REMARK       I    between atoms: N_4  and  C_1 
REMARK    1  A    between atoms: C_5  and  C_1 
REMARK    2  A    between atoms: C_2  and  C_5 
REMARK    3  A    between atoms: C_14  and  N_4 
REMARK    4  A    between atoms: O_17  and  C_13 
REMARK    5  A    between atoms: C_16  and  C_14 
ROOT
ATOM      1  C   UNL d   1       0.205   0.497   1.168  0.00  0.00     0.106 C 
ATOM      2  C   UNL d   1      -1.300   0.235   1.025  0.00  0.00     0.025 C 
ENDROOT
BRANCH   1   3
ATOM      3  C   UNL d   1       0.549   1.973   1.331  0.00  0.00    -0.045 A 
ATOM      4  C   UNL d   1      -0.120   2.975   0.610  0.00  0.00     0.020 A 
ATOM      5  C   UNL d   1       0.212   4.334   0.748  0.00  0.00    -0.025 A 
ATOM      6  C   UNL d   1      -0.474   5.325   0.032  0.00  0.00     0.015 A 
ATOM      7  C   UNL d   1       1.257   4.710   1.615  0.00  0.00    -0.023 A 
ATOM      8  C   UNL d   1      -0.125   6.673   0.152  0.00  0.00     0.037 A 
ATOM      9  C   UNL d   1       0.918   7.052   0.994  0.00  0.00     0.069 A 
ATOM     10  C   UNL d   1       1.598   6.071   1.725  0.00  0.00     0.049 A 
ATOM     11  C   UNL d   1       1.930   3.711   2.337  0.00  0.00     0.013 A 
ATOM     12  C   UNL d   1       1.581   2.362   2.197  0.00  0.00     0.009 A 
BRANCH   9  13
ATOM     13  O   UNL d   1       1.365   8.332   1.185  0.00  0.00    -0.356 OA
ATOM     14  C   UNL d   1       0.716   9.352   0.434  0.00  0.00     0.210 C 
ENDBRANCH   9  13
ENDBRANCH   1   3
BRANCH   1  15
ATOM     15  C   UNL d   1       0.948  -0.120  -0.027  0.00  0.00     0.226 C 
ATOM     16  N   UNL d   1       2.169  -0.673   0.291  0.00  0.00    -0.356 N 
ATOM     17  H   UNL d   1       2.502  -0.649   1.244  0.00  0.00     0.162 HD
ATOM     18  O   UNL d   1       0.493  -0.112  -1.168  0.00  0.00    -0.273 OA
BRANCH  16  19
ATOM     19  C   UNL d   1       3.018  -1.294  -0.703  0.00  0.00     0.161 C 
BRANCH  19  20
ATOM     20  C   UNL d   1       3.255  -2.751  -0.395  0.00  0.00    -0.041 A 
ATOM     21  C   UNL d   1       2.364  -3.726  -0.866  0.00  0.00     0.009 A 
ATOM     22  C   UNL d   1       2.592  -5.080  -0.609  0.00  0.00     0.001 A 
ATOM     23  C   UNL d   1       3.705  -5.473   0.133  0.00  0.00     0.000 A 
ATOM     24  C   UNL d   1       4.586  -4.511   0.624  0.00  0.00     0.001 A 
ATOM     25  C   UNL d   1       4.361  -3.157   0.366  0.00  0.00     0.009 A 
ENDBRANCH  19  20
ENDBRANCH  16  19
ENDBRANCH   1  15
TORSDOF 5
