REMARK  5 active torsions:
REMARK  status: ('A' for Active; 'I' for Inactive)
REMARK    1  A    between atoms: C_9  and  C_3 
REMARK    2  A    between atoms: O_12  and  C_4 
REMARK    3  A    between atoms: C_13  and  C_7 
REMARK    4  A    between atoms: C_15  and  C_13 
REMARK    5  A    between atoms: C_16  and  C_15 
ROOT
ATOM      1  N   UNL d   1      -0.674   1.232  -0.072  0.00  0.00    -0.326 N 
ATOM      2  HN  UNL d   1      -1.129   2.145  -0.084  1.00  0.00     0.169 HD
ATOM      3  C   UNL d   1      -1.371   0.090  -0.035  0.00  0.00     0.087 A 
ATOM      4  C   UNL d   1       0.656   1.101  -0.092  0.00  0.00     0.149 A 
ATOM      5  N   UNL d   1      -0.787  -1.123  -0.018  0.00  0.00    -0.349 N 
ATOM      6  HN  UNL d   1      -1.356  -1.970   0.001  1.00  0.00     0.167 HD
ATOM      7  C   UNL d   1       1.373  -0.079  -0.074  0.00  0.00     0.015 A 
ATOM      8  C   UNL d   1       0.564  -1.205  -0.027  0.00  0.00     0.017 A 
ATOM      9  C   UNL d   1       1.068  -2.614   0.043  0.00  0.00     0.069 C 
ENDROOT
BRANCH   7  10
ATOM     10  C   UNL d   1       2.875  -0.082  -0.015  0.00  0.00     0.045 C 
BRANCH  10  11
ATOM     11  C   UNL d   1       3.635  -0.750  -1.168  0.00  0.00     0.004 C 
BRANCH  11  12
ATOM     12  C   UNL d   1       3.341  -0.167  -2.549  0.00  0.00    -0.004 C 
ATOM     13  C   UNL d   1       4.157  -0.889  -3.613  0.00  0.00     0.005 C 
ENDBRANCH  11  12
ENDBRANCH  10  11
ENDBRANCH   7  10
BRANCH   4  14
ATOM     14  O   UNL d   1       1.288   2.304  -0.098  0.00  0.00    -0.346 OA
ATOM     15  H   UNL d   1       0.517   2.899  -0.068  0.00  0.00     0.219 HD
ENDBRANCH   4  14
BRANCH   3  16
ATOM     16  C   UNL d   1      -2.878   0.145   0.031  0.00  0.00     0.053 A 
ATOM     17  C   UNL d   1      -3.696  -0.457  -1.091  0.00  0.00     0.013 A 
ATOM     18  C   UNL d   1      -3.674   1.031  -0.900  0.00  0.00     0.013 A 
ENDBRANCH   3  16
TORSDOF 5
