REMARK  4 active torsions:
REMARK  status: ('A' for Active; 'I' for Inactive)
REMARK       I    between atoms: N_3  and  C_1 
REMARK       I    between atoms: N_6  and  C_1 
REMARK    1  A    between atoms: C_7  and  N_3 
REMARK    2  A    between atoms: O_8  and  C_4 
REMARK    3  A    between atoms: C_5  and  C_9 
REMARK    4  A    between atoms: C_9  and  C_7 
ROOT
ATOM      1  C   UNL d   1      -1.513  -1.744  -1.975  0.00  0.00     0.061 C 
ENDROOT
BRANCH   1   2
ATOM      2  C   UNL d   1      -3.011  -1.938  -1.849  0.00  0.00    -0.023 A 
ATOM      3  C   UNL d   1      -3.635  -2.241  -0.622  0.00  0.00     0.074 A 
ATOM      4  C   UNL d   1      -5.034  -2.326  -0.545  0.00  0.00     0.037 A 
ATOM      5  C   UNL d   1      -5.830  -2.157  -1.676  0.00  0.00     0.003 A 
ATOM      6  C   UNL d   1      -5.229  -1.910  -2.901  0.00  0.00     0.001 A 
ATOM      7  C   UNL d   1      -3.838  -1.815  -2.987  0.00  0.00     0.010 A 
BRANCH   3   8
ATOM      8  O   UNL d   1      -3.023  -2.359   0.598  0.00  0.00    -0.355 OA
ATOM      9  C   UNL d   1      -1.864  -3.179   0.668  0.00  0.00     0.210 C 
ENDBRANCH   3   8
ENDBRANCH   1   2
BRANCH   1  10
ATOM     10  C   UNL d   1      -1.035  -0.841  -3.123  0.00  0.00     0.128 C 
BRANCH  10  11
ATOM     11  N   UNL d   1       0.405  -0.692  -3.157  0.00  0.00    -0.347 N 
ATOM     12  C   UNL d   1       1.046   0.217  -2.370  0.00  0.00     0.291 C 
ATOM     13  O   UNL d   1       0.516   0.992  -1.589  0.00  0.00    -0.254 OA
ATOM     14  N   UNL d   1       2.389   0.192  -2.554  0.00  0.00    -0.254 NA
ATOM     15  H   UNL d   1       2.861   0.945  -2.070  0.00  0.00     0.128 HD
ATOM     16  H   UNL d   1       2.704   0.045  -3.500  0.00  0.00     0.128 HD
ATOM     17  H   UNL d   1       0.959  -1.479  -3.456  0.00  0.00     0.163 HD
ENDBRANCH  10  11
ENDBRANCH   1  10
TORSDOF 4
