REMARK  2 active torsions:
REMARK  status: ('A' for Active; 'I' for Inactive)
REMARK    1  A    between atoms: S_6  and  C_1 
REMARK    2  A    between atoms: C_13  and  S_6 
ROOT
ATOM      1  C   UNL d   1       0.405  -4.344  -0.789  0.00  0.00     0.095 A 
ATOM      2  C   UNL d   1       1.760  -4.045  -0.962  0.00  0.00     0.065 A 
ATOM      3  N   UNL d   1      -0.073  -5.505  -1.287  0.00  0.00    -0.345 N 
ATOM      4  HN  UNL d   1      -1.057  -5.754  -1.180  1.00  0.00     0.167 HD
ATOM      5  S   UNL d   1       2.698  -2.684  -0.467  0.00  0.00    -0.097 SA
ATOM      6  C   UNL d   1       2.556  -4.964  -1.645  0.00  0.00     0.053 A 
ATOM      7  C   UNL d   1       4.126  -3.314  -1.159  0.00  0.00     0.053 A 
ATOM      8  C   UNL d   1       3.911  -4.533  -1.756  0.00  0.00     0.038 A 
ATOM      9  N   UNL d   1       2.075  -6.128  -2.143  0.00  0.00    -0.351 N 
ATOM     10  HN  UNL d   1       2.659  -6.799  -2.642  1.00  0.00     0.166 HD
ATOM     11  C   UNL d   1       0.773  -6.322  -1.925  0.00  0.00     0.181 A 
ENDROOT
BRANCH   1  12
ATOM     12  S   UNL d   1      -0.678  -3.216   0.058  0.00  0.00    -0.071 SA
BRANCH  12  13
ATOM     13  C   UNL d   1      -2.242  -4.065   0.036  0.00  0.00     0.007 A 
ATOM     14  C   UNL d   1      -2.612  -4.884   1.106  0.00  0.00     0.019 A 
ATOM     15  C   UNL d   1      -3.846  -5.539   1.098  0.00  0.00     0.008 A 
ATOM     16  C   UNL d   1      -4.731  -5.377   0.025  0.00  0.00    -0.062 A 
ATOM     17  C   UNL d   1      -4.366  -4.540  -1.035  0.00  0.00     0.008 A 
ATOM     18  C   UNL d   1      -6.048  -6.094   0.026  0.00  0.00     0.048 C 
ATOM     19  C   UNL d   1      -3.130  -3.885  -1.028  0.00  0.00     0.019 A 
ENDBRANCH  12  13
ENDBRANCH   1  12
TORSDOF 2
