REMARK  5 active torsions:
REMARK  status: ('A' for Active; 'I' for Inactive)
REMARK    1  A    between atoms: C_8  and  N_1 
REMARK    2  A    between atoms: C_9  and  C_2 
REMARK    3  A    between atoms: S_14  and  C_5 
REMARK    4  A    between atoms: C_10  and  C_8 
REMARK    5  A    between atoms: C_12  and  C_13 
ROOT
ATOM      1  N   UNL d   1      -0.155  -0.972  -0.661  0.00  0.00    -0.305 N 
ATOM      2  C   UNL d   1       1.040  -0.479  -0.157  0.00  0.00     0.135 A 
ATOM      3  N   UNL d   1       0.766   0.628   0.517  0.00  0.00    -0.283 N 
ATOM      4  HN  UNL d   1       1.447   1.198   1.018  1.00  0.00     0.188 HD
ATOM      5  C   UNL d   1      -1.119  -0.074  -0.275  0.00  0.00     0.160 A 
ATOM      6  N   UNL d   1      -0.576   0.883   0.434  0.00  0.00    -0.278 N 
ATOM      7  HN  UNL d   1      -1.064   1.677   0.848  1.00  0.00     0.189 HD
ENDROOT
BRANCH   2   8
ATOM      8  C   UNL d   1       2.378  -1.082  -0.228  0.00  0.00     0.009 A 
ATOM      9  C   UNL d   1       2.848  -1.803  -1.327  0.00  0.00     0.016 A 
ATOM     10  C   UNL d   1       4.106  -2.422  -1.302  0.00  0.00     0.009 A 
ATOM     11  C   UNL d   1       4.960  -2.314  -0.190  0.00  0.00    -0.051 A 
ATOM     12  C   UNL d   1       4.516  -1.516   0.874  0.00  0.00     0.009 A 
ATOM     13  C   UNL d   1       3.250  -0.915   0.855  0.00  0.00     0.016 A 
BRANCH  11  14
ATOM     14  C   UNL d   1       6.296  -3.075  -0.157  0.00  0.00    -0.024 C 
ATOM     15  C   UNL d   1       7.112  -2.835   1.134  0.00  0.00     0.019 C 
ATOM     16  C   UNL d   1       6.016  -4.592  -0.245  0.00  0.00     0.019 C 
ATOM     17  C   UNL d   1       7.188  -2.661  -1.347  0.00  0.00     0.019 C 
ENDBRANCH  11  14
ENDBRANCH   2   8
BRANCH   1  18
ATOM     18  C   UNL d   1      -0.370  -2.250  -1.310  0.00  0.00     0.198 C 
BRANCH  18  19
ATOM     19  C   UNL d   1      -0.351  -2.143  -2.793  0.00  0.00     0.070 A 
ATOM     20  O   UNL d   1      -0.003  -3.287  -3.454  0.00  0.00    -0.325 OA
ATOM     21  C   UNL d   1      -0.027  -3.016  -4.782  0.00  0.00     0.142 A 
ATOM     22  C   UNL d   1      -0.392  -1.708  -4.994  0.00  0.00     0.027 A 
ATOM     23  C   UNL d   1      -0.601  -1.141  -3.713  0.00  0.00     0.036 A 
ENDBRANCH  18  19
ENDBRANCH   1  18
BRANCH   5  24
ATOM     24  S   UNL d   1      -2.809  -0.166  -0.635  0.00  0.00    -0.105 SA
ATOM     25  H   UNL d   1      -2.839  -1.203  -1.479  0.00  0.00     0.110 HD
ENDBRANCH   5  24
TORSDOF 5
