REMARK  4 active torsions:
REMARK  status: ('A' for Active; 'I' for Inactive)
REMARK    1  A    between atoms: S_8  and  C_1 
REMARK    2  A    between atoms: N_7  and  C_2 
REMARK    3  A    between atoms: C_9  and  S_8 
REMARK    4  A    between atoms: N_15  and  C_12 
ROOT
ATOM      1  C   UNL d   1       0.648  -1.331   0.031  0.00  0.00     0.127 A 
ATOM      2  C   UNL d   1      -0.728  -1.279   0.126  0.00  0.00     0.161 A 
ATOM      3  N   UNL d   1       1.053  -0.023  -0.078  0.00  0.00    -0.287 N 
ATOM      4  N   UNL d   1       0.019   0.850  -0.125  0.00  0.00    -0.300 N 
ATOM      5  HN  UNL d   1       0.063   1.864  -0.228  1.00  0.00     0.187 HD
ATOM      6  C   UNL d   1      -1.075   0.085  -0.006  0.00  0.00     0.058 A 
ATOM      7  C   UNL d   1       2.386   0.534  -0.091  0.00  0.00     0.178 C 
ATOM      8  C   UNL d   1      -2.412   0.729   0.009  0.00  0.00     0.072 C 
ENDROOT
BRANCH   1   9
ATOM      9  S   UNL d   1       1.765  -2.667   0.073  0.00  0.00    -0.067 SA
BRANCH   9  10
ATOM     10  C   UNL d   1       1.926  -2.967  -1.694  0.00  0.00     0.028 A 
ATOM     11  C   UNL d   1       3.163  -2.796  -2.356  0.00  0.00     0.023 A 
ATOM     12  C   UNL d   1       3.219  -2.991  -3.744  0.00  0.00     0.024 A 
ATOM     13  C   UNL d   1       2.110  -3.460  -4.448  0.00  0.00     0.002 A 
ATOM     14  C   UNL d   1       0.916  -3.706  -3.779  0.00  0.00     0.001 A 
ATOM     15  C   UNL d   1       0.824  -3.461  -2.409  0.00  0.00     0.021 A 
BRANCH  11  16
ATOM     16  N   UNL d   1       4.285  -2.235  -1.710  0.00  0.00    -0.302 NA
ATOM     17  H   UNL d   1       4.290  -2.457  -0.716  0.00  0.00     0.124 HD
ATOM     18  H   UNL d   1       5.164  -2.487  -2.155  0.00  0.00     0.124 HD
ENDBRANCH  11  16
ENDBRANCH   9  10
ENDBRANCH   1   9
BRANCH   2  19
ATOM     19  N   UNL d   1      -1.613  -2.376   0.309  0.00  0.00    -0.111 N 
ATOM     20  O   UNL d   1      -1.411  -3.109   1.284  0.00  0.00    -0.532 OA
ATOM     21  O   UNL d   1      -2.525  -2.498  -0.518  0.00  0.00    -0.532 OA
ENDBRANCH   2  19
TORSDOF 4
