REMARK  4 active torsions:
REMARK  status: ('A' for Active; 'I' for Inactive)
REMARK    1  A    between atoms: C_16  and  N_1 
REMARK    2  A    between atoms: C_17  and  N_2 
REMARK    3  A    between atoms: C_23  and  C_16 
REMARK    4  A    between atoms: C_24  and  C_17 
ROOT
ATOM      1  N   UNL d   1       3.083  -0.403   5.294  0.00  0.00    -0.184 NA
ATOM      2  N   UNL d   1      -0.679  -4.104   6.115  0.00  0.00    -0.184 NA
ATOM      3  C   UNL d   1       1.657  -3.121   3.269  0.00  0.00     0.009 C 
ATOM      4  C   UNL d   1       2.795  -0.738   3.978  0.00  0.00     0.212 C 
ATOM      5  C   UNL d   1      -0.422  -3.299   5.017  0.00  0.00     0.212 C 
ATOM      6  C   UNL d   1       0.602  -4.369   6.566  0.00  0.00     0.212 C 
ATOM      7  C   UNL d   1       3.645  -1.556   5.886  0.00  0.00     0.212 C 
ATOM      8  C   UNL d   1       2.571  -4.296   2.845  0.00  0.00    -0.067 C 
ATOM      9  C   UNL d   1       0.685  -3.946   4.217  0.00  0.00     0.099 C 
ATOM     10  C   UNL d   1       2.761  -2.237   3.893  0.00  0.00     0.099 C 
ATOM     11  C   UNL d   1       3.248  -4.846   3.902  0.00  0.00    -0.075 C 
ATOM     12  C   UNL d   1       2.834  -2.688   5.326  0.00  0.00     0.095 C 
ATOM     13  C   UNL d   1       1.449  -4.697   5.357  0.00  0.00     0.095 C 
ATOM     14  C   UNL d   1       2.920  -4.232   5.317  0.00  0.00     0.041 C 
ATOM     15  C   UNL d   1       2.609  -4.704   1.400  0.00  0.00     0.036 C 
ATOM     16  C   UNL d   1       0.833  -2.390   2.216  0.00  0.00     0.020 C 
ATOM     17  O   UNL d   1       4.578  -1.630   6.637  0.00  0.00    -0.279 OA
ATOM     18  O   UNL d   1       2.712   0.026   3.031  0.00  0.00    -0.279 OA
ATOM     19  O   UNL d   1       0.999  -4.306   7.717  0.00  0.00    -0.279 OA
ATOM     20  O   UNL d   1      -0.805  -2.148   4.861  0.00  0.00    -0.279 OA
ATOM     21  C   UNL d   1       4.068  -6.098   3.869  0.00  0.00     0.044 C 
ATOM     22  C   UNL d   1       1.540  -4.037   0.518  0.00  0.00     0.008 C 
ATOM     23  C   UNL d   1       1.389  -2.538   0.810  0.00  0.00    -0.017 C 
ATOM     24  C   UNL d   1       0.430  -1.852  -0.163  0.00  0.00     0.010 C 
ENDROOT
BRANCH   1  25
ATOM     25  C   UNL d   1       1.853   0.095   5.901  0.00  0.00     0.146 C 
BRANCH  25  26
ATOM     26  C   UNL d   1       1.714   1.573   6.141  0.00  0.00    -0.044 A 
ATOM     27  C   UNL d   1       2.792   2.418   6.412  0.00  0.00     0.010 A 
ATOM     28  C   UNL d   1       2.558   3.743   6.798  0.00  0.00     0.024 A 
ATOM     29  C   UNL d   1       1.252   4.222   6.916  0.00  0.00     0.034 A 
ATOM     30  C   UNL d   1       0.171   3.399   6.625  0.00  0.00     0.024 A 
ATOM     31 CL   UNL d   1       0.969   5.833   7.449  0.00  0.00    -0.084 Cl
ATOM     32  C   UNL d   1       0.403   2.083   6.237  0.00  0.00     0.010 A 
ENDBRANCH  25  26
ENDBRANCH   1  25
BRANCH   2  33
ATOM     33  C   UNL d   1      -1.350  -5.377   5.844  0.00  0.00     0.146 C 
BRANCH  33  34
ATOM     34  C   UNL d   1      -2.852  -5.415   5.889  0.00  0.00    -0.044 A 
ATOM     35  C   UNL d   1      -3.583  -5.677   4.717  0.00  0.00     0.010 A 
ATOM     36  C   UNL d   1      -4.931  -6.030   4.790  0.00  0.00     0.024 A 
ATOM     37  C   UNL d   1      -5.558  -6.107   6.032  0.00  0.00     0.034 A 
ATOM     38  C   UNL d   1      -4.860  -5.790   7.195  0.00  0.00     0.024 A 
ATOM     39 CL   UNL d   1      -7.189  -6.645   6.130  0.00  0.00    -0.084 Cl
ATOM     40  C   UNL d   1      -3.511  -5.434   7.125  0.00  0.00     0.010 A 
ENDBRANCH  33  34
ENDBRANCH   2  33
TORSDOF 4
