REMARK  4 active torsions:
REMARK  status: ('A' for Active; 'I' for Inactive)
REMARK    1  A    between atoms: N_2  and  S_1 
REMARK    2  A    between atoms: C_4  and  S_1 
REMARK    3  A    between atoms: C_3  and  N_2 
REMARK       I    between atoms: C_7  and  N_11 
REMARK    4  A    between atoms: N_11  and  C_21 
ROOT
ATOM      1  S   UNL d   1       1.658  -1.200   0.529  0.00  0.00     0.259 S 
ATOM      2  O   UNL d   1       0.960  -0.512   1.595  0.00  0.00    -0.201 OA
ATOM      3  O   UNL d   1       2.990  -0.808   0.135  0.00  0.00    -0.201 OA
ENDROOT
BRANCH   1   4
ATOM      4  N   UNL d   1       0.623  -1.135  -0.794  0.00  0.00    -0.305 N 
ATOM      5  H   UNL d   1      -0.158  -0.503  -0.612  0.00  0.00     0.173 HD
BRANCH   4   6
ATOM      6  C   UNL d   1       1.038  -1.301  -2.200  0.00  0.00     0.041 C 
ATOM      7  C   UNL d   1       1.713  -2.662  -2.446  0.00  0.00     0.036 C 
ATOM      8  C   UNL d   1       2.085  -2.816  -3.932  0.00  0.00    -0.012 C 
ATOM      9  C   UNL d   1       0.813  -2.743  -4.792  0.00  0.00     0.009 C 
ATOM     10  C   UNL d   1       3.033  -1.671  -4.328  0.00  0.00     0.009 C 
ATOM     11  C   UNL d   1       0.109  -1.396  -4.572  0.00  0.00    -0.012 C 
ATOM     12  C   UNL d   1      -0.244  -1.247  -3.079  0.00  0.00     0.036 C 
ATOM     13  C   UNL d   1       1.060  -0.262  -4.989  0.00  0.00     0.009 C 
ATOM     14  C   UNL d   1       2.335  -0.312  -4.137  0.00  0.00    -0.012 C 
ATOM     15  C   UNL d   1       1.956  -0.146  -2.657  0.00  0.00     0.036 C 
ENDBRANCH   4   6
ENDBRANCH   1   4
BRANCH   1  16
ATOM     16  C   UNL d   1       1.695  -2.918   0.969  0.00  0.00     0.079 A 
ATOM     17  C   UNL d   1       2.879  -3.650   0.862  0.00  0.00     0.027 A 
ATOM     18  C   UNL d   1       2.915  -4.978   1.301  0.00  0.00     0.031 A 
ATOM     19  C   UNL d   1       1.778  -5.577   1.865  0.00  0.00     0.034 A 
ATOM     20  C   UNL d   1       0.602  -4.828   1.964  0.00  0.00     0.031 A 
ATOM     21  C   UNL d   1       0.556  -3.501   1.524  0.00  0.00     0.027 A 
BRANCH  19  22
ATOM     22  N   UNL d   1       1.902  -6.907   2.319  0.00  0.00    -0.328 N 
ATOM     23  C   UNL d   1       0.924  -7.678   2.919  0.00  0.00     0.218 C 
ATOM     24  O   UNL d   1      -0.239  -7.353   3.140  0.00  0.00    -0.274 OA
ATOM     25  C   UNL d   1       1.407  -9.053   3.319  0.00  0.00     0.117 C 
ATOM     26  H   UNL d   1       2.815  -7.330   2.205  0.00  0.00     0.169 HD
ENDBRANCH  19  22
ENDBRANCH   1  16
TORSDOF 4
