REMARK  4 active torsions:
REMARK  status: ('A' for Active; 'I' for Inactive)
REMARK       I    between atoms: N_2  and  C_1 
REMARK       I    between atoms: N_3  and  C_1 
REMARK    1  A    between atoms: C_4  and  N_2 
REMARK    2  A    between atoms: C_6  and  N_5 
REMARK    3  A    between atoms: C_14  and  C_6 
REMARK    4  A    between atoms: C_15  and  C_6 
ROOT
ATOM      1  C   UNL d   1       1.028  -0.168  -0.001  0.00  0.00     0.323 C 
ATOM      2  N   UNL d   1       0.446   0.935   0.592  0.00  0.00    -0.307 N 
ATOM      3  N   UNL d   1       0.269  -0.746  -1.000  0.00  0.00    -0.331 N 
ATOM      4  N   UNL d   1      -0.402  -1.509  -3.778  0.00  0.00     0.105 N 
ATOM      5  O   UNL d   1       2.108  -0.635   0.344  0.00  0.00    -0.247 OA
ATOM      6  C   UNL d   1       0.697  -2.035  -1.549  0.00  0.00     0.158 C 
ATOM      7  C   UNL d   1      -0.878  -0.121  -1.675  0.00  0.00     0.158 C 
ATOM      8  C   UNL d   1       0.821  -1.981  -3.080  0.00  0.00     0.293 C 
ATOM      9  C   UNL d   1      -0.718  -0.164  -3.214  0.00  0.00     0.293 C 
ATOM     10  H   UNL d   1      -0.534   0.766   0.786  0.00  0.00     0.170 HD
ENDROOT
BRANCH   4  11
ATOM     11  C   UNL d   1      -1.563  -2.445  -3.650  0.00  0.00     0.289 C 
BRANCH  11  12
ATOM     12  C   UNL d   1      -2.791  -1.921  -4.406  0.00  0.00    -0.021 A 
ATOM     13  C   UNL d   1      -2.735  -1.675  -5.788  0.00  0.00     0.010 A 
ATOM     14  C   UNL d   1      -3.865  -1.245  -6.481  0.00  0.00     0.001 A 
ATOM     15  C   UNL d   1      -5.063  -1.038  -5.801  0.00  0.00     0.000 A 
ATOM     16  C   UNL d   1      -5.126  -1.244  -4.424  0.00  0.00     0.001 A 
ATOM     17  C   UNL d   1      -3.999  -1.684  -3.728  0.00  0.00     0.010 A 
ENDBRANCH  11  12
BRANCH  11  18
ATOM     18  C   UNL d   1      -1.298  -3.905  -4.062  0.00  0.00    -0.021 A 
ATOM     19  C   UNL d   1      -1.974  -4.944  -3.393  0.00  0.00     0.010 A 
ATOM     20  C   UNL d   1      -1.776  -6.281  -3.748  0.00  0.00     0.001 A 
ATOM     21  C   UNL d   1      -0.906  -6.604  -4.785  0.00  0.00     0.000 A 
ATOM     22  C   UNL d   1      -0.250  -5.589  -5.479  0.00  0.00     0.001 A 
ATOM     23  C   UNL d   1      -0.453  -4.251  -5.129  0.00  0.00     0.010 A 
ENDBRANCH  11  18
ENDBRANCH   4  11
BRANCH   2  24
ATOM     24  C   UNL d   1       1.121   1.627   1.632  0.00  0.00     0.064 A 
ATOM     25  C   UNL d   1       0.470   1.767   2.873  0.00  0.00     0.061 A 
ATOM     26 CL   UNL d   1      -1.146   1.187   3.102  0.00  0.00    -0.082 Cl
ATOM     27  C   UNL d   1       1.127   2.335   3.964  0.00  0.00     0.026 A 
ATOM     28  C   UNL d   1       2.434   2.794   3.821  0.00  0.00     0.002 A 
ATOM     29  C   UNL d   1       3.065   2.720   2.579  0.00  0.00     0.009 A 
ATOM     30  C   UNL d   1       2.414   2.161   1.464  0.00  0.00    -0.034 A 
ATOM     31  C   UNL d   1       3.142   2.194   0.147  0.00  0.00     0.050 C 
ENDBRANCH   2  24
TORSDOF 4
