REMARK  3 active torsions:
REMARK  status: ('A' for Active; 'I' for Inactive)
REMARK    1  A    between atoms: C_2  and  C_1 
REMARK    2  A    between atoms: C_14  and  C_7 
REMARK    3  A    between atoms: C_9  and  C_13 
ROOT
ATOM      1  C   UNL d   1       3.638   0.182  -0.022  0.00  0.00     0.057 A 
ATOM      2  N   UNL d   1       4.340   0.930   0.907  0.00  0.00    -0.348 N 
ATOM      3  HN  UNL d   1       3.906   1.494   1.638  1.00  0.00     0.166 HD
ATOM      4  C   UNL d   1       5.641   0.819   0.726  0.00  0.00     0.084 A 
ATOM      5  S   UNL d   1       6.091  -0.144  -0.629  0.00  0.00    -0.081 SA
ATOM      6  C   UNL d   1       4.441  -0.469  -0.941  0.00  0.00     0.082 A 
ENDROOT
BRANCH   1   7
ATOM      7  C   UNL d   1       2.128   0.086  -0.011  0.00  0.00     0.039 A 
ATOM      8  S   UNL d   1       1.284  -0.930  -1.102  0.00  0.00    -0.087 SA
ATOM      9  C   UNL d   1      -0.246  -0.526  -0.458  0.00  0.00     0.016 A 
ATOM     10  C   UNL d   1      -1.498  -1.025  -0.873  0.00  0.00     0.019 A 
ATOM     11  C   UNL d   1      -0.129   0.402   0.576  0.00  0.00    -0.012 A 
ATOM     12  C   UNL d   1      -2.654  -0.572  -0.236  0.00  0.00     0.001 A 
ATOM     13  C   UNL d   1      -2.572   0.356   0.790  0.00  0.00     0.001 A 
ATOM     14  C   UNL d   1      -1.327   0.843   1.199  0.00  0.00     0.013 A 
ATOM     15  C   UNL d   1       1.260   0.760   0.839  0.00  0.00    -0.031 A 
ATOM     16  C   UNL d   1       1.605   1.740   1.921  0.00  0.00     0.050 C 
ENDBRANCH   1   7
BRANCH   4  17
ATOM     17  C   UNL d   1       6.649   1.482   1.571  0.00  0.00    -0.002 A 
ATOM     18  C   UNL d   1       7.936   0.958   1.765  0.00  0.00     0.015 A 
ATOM     19  C   UNL d   1       8.864   1.610   2.586  0.00  0.00     0.017 A 
ATOM     20  C   UNL d   1       8.527   2.803   3.237  0.00  0.00     0.048 A 
ATOM     21  C   UNL d   1       7.239   3.326   3.057  0.00  0.00     0.017 A 
ATOM     22  C   UNL d   1       6.313   2.670   2.239  0.00  0.00     0.015 A 
BRANCH  20  23
ATOM     23  C   UNL d   1       9.521   3.519   4.120  0.00  0.00     0.417 C 
ATOM     24  F   UNL d   1      10.726   2.890   4.204  0.00  0.00    -0.166 F 
ATOM     25  F   UNL d   1       9.790   4.781   3.683  0.00  0.00    -0.166 F 
ATOM     26  F   UNL d   1       9.080   3.653   5.401  0.00  0.00    -0.166 F 
ENDBRANCH  20  23
ENDBRANCH   4  17
TORSDOF 3
