REMARK  4 active torsions:
REMARK  status: ('A' for Active; 'I' for Inactive)
REMARK    1  A    between atoms: C_3  and  C_1 
REMARK    2  A    between atoms: S_2  and  C_9 
REMARK    3  A    between atoms: C_14  and  S_2 
REMARK    4  A    between atoms: C_9  and  C_8 
ROOT
ATOM      1  C   UNL d   1       3.588   0.125  -0.069  0.00  0.00     0.057 A 
ATOM      2  N   UNL d   1       4.237   0.890   0.894  0.00  0.00    -0.352 N 
ATOM      3  HN  UNL d   1       3.766   1.436   1.615  1.00  0.00     0.166 HD
ATOM      4  C   UNL d   1       5.546   0.812   0.749  0.00  0.00     0.065 A 
ATOM      5  C   UNL d   1       4.436  -0.537  -0.934  0.00  0.00     0.082 A 
ATOM      6  S   UNL d   1       6.067  -0.236  -0.516  0.00  0.00    -0.085 SA
ENDROOT
BRANCH   1   7
ATOM      7  C   UNL d   1       2.083   0.006  -0.126  0.00  0.00     0.039 A 
ATOM      8  S   UNL d   1       1.294  -1.276  -0.938  0.00  0.00    -0.087 SA
ATOM      9  C   UNL d   1      -0.263  -0.772  -0.429  0.00  0.00     0.016 A 
ATOM     10  C   UNL d   1      -1.492  -1.411  -0.693  0.00  0.00     0.019 A 
ATOM     11  C   UNL d   1      -0.191   0.410   0.308  0.00  0.00    -0.012 A 
ATOM     12  C   UNL d   1      -2.672  -0.843  -0.207  0.00  0.00     0.001 A 
ATOM     13  C   UNL d   1      -2.634   0.334   0.523  0.00  0.00     0.001 A 
ATOM     14  C   UNL d   1      -1.412   0.962   0.781  0.00  0.00     0.013 A 
ATOM     15  C   UNL d   1       1.177   0.882   0.455  0.00  0.00    -0.031 A 
ATOM     16  C   UNL d   1       1.500   2.175   1.138  0.00  0.00     0.050 C 
ENDBRANCH   1   7
BRANCH   4  17
ATOM     17  C   UNL d   1       6.533   1.451   1.674  0.00  0.00     0.206 C 
BRANCH  17  18
ATOM     18  S   UNL d   1       7.383   2.771   0.811  0.00  0.00     0.157 S 
ATOM     19  O   UNL d   1       8.212   2.180  -0.223  0.00  0.00    -0.227 OA
ATOM     20  O   UNL d   1       6.409   3.793   0.461  0.00  0.00    -0.227 OA
BRANCH  18  21
ATOM     21  C   UNL d   1       8.531   3.518   2.031  0.00  0.00     0.053 C 
ATOM     22  C   UNL d   1       9.505   2.465   2.576  0.00  0.00     0.031 C 
ATOM     23  C   UNL d   1       9.336   4.611   1.302  0.00  0.00     0.031 C 
ATOM     24  C   UNL d   1       7.757   4.158   3.190  0.00  0.00     0.031 C 
ENDBRANCH  18  21
ENDBRANCH  17  18
ENDBRANCH   4  17
TORSDOF 4
