REMARK  5 active torsions:
REMARK  status: ('A' for Active; 'I' for Inactive)
REMARK       I    between atoms: N_2  and  C_1 
REMARK    1  A    between atoms: C_4  and  C_1 
REMARK    2  A    between atoms: N_3  and  C_5 
REMARK    3  A    between atoms: C_16  and  C_6 
REMARK    4  A    between atoms: C_7  and  O_15 
REMARK    5  A    between atoms: O_15  and  C_16 
ROOT
ATOM      1  C   UNL d   1       0.595   0.109   0.224  0.00  0.00     0.258 C 
ATOM      2  N   UNL d   1       0.247  -1.213  -0.074  0.00  0.00    -0.332 N 
ATOM      3  C   UNL d   1       0.817  -2.283   0.744  0.00  0.00     0.173 C 
ATOM      4  S   UNL d   1       0.627  -3.807  -0.268  0.00  0.00    -0.140 SA
ATOM      5  O   UNL d   1       1.313   0.404   1.180  0.00  0.00    -0.267 OA
ATOM      6  C   UNL d   1      -0.546  -1.676  -1.220  0.00  0.00     0.137 C 
ATOM      7  C   UNL d   1      -0.824  -3.167  -1.109  0.00  0.00     0.096 C 
ENDROOT
BRANCH   3   8
ATOM      8  C   UNL d   1       0.058  -2.410   2.084  0.00  0.00     0.212 C 
BRANCH   8   9
ATOM      9  O   UNL d   1       0.563  -3.484   2.894  0.00  0.00    -0.346 OA
BRANCH   9  10
ATOM     10  C   UNL d   1      -0.022  -3.609   4.128  0.00  0.00     0.101 A 
ATOM     11  C   UNL d   1       0.727  -4.127   5.187  0.00  0.00     0.136 A 
ATOM     12  C   UNL d   1       0.181  -4.297   6.473  0.00  0.00     0.045 A 
ATOM     13  C   UNL d   1      -1.157  -3.971   6.705  0.00  0.00    -0.059 A 
ATOM     14  C   UNL d   1      -1.926  -3.483   5.645  0.00  0.00     0.009 A 
ATOM     15  C   UNL d   1      -1.750  -4.132   8.075  0.00  0.00     0.048 C 
ATOM     16  C   UNL d   1      -1.367  -3.309   4.374  0.00  0.00     0.040 A 
BRANCH  11  17
ATOM     17  N   UNL d   1       2.108  -4.526   4.994  0.00  0.00    -0.113 N 
ATOM     18  O   UNL d   1       2.902  -3.666   4.583  0.00  0.00    -0.532 OA
ATOM     19  O   UNL d   1       2.412  -5.681   5.319  0.00  0.00    -0.532 OA
ENDBRANCH  11  17
ENDBRANCH   9  10
ENDBRANCH   8   9
ENDBRANCH   3   8
BRANCH   1  20
ATOM     20  C   UNL d   1       0.083   1.196  -0.639  0.00  0.00     0.075 C 
ATOM     21  C   UNL d   1      -1.293   1.428  -0.753  0.00  0.00     0.051 C 
ATOM     22 CL   UNL d   1      -2.450   0.740   0.347  0.00  0.00    -0.083 Cl
ATOM     23  C   UNL d   1      -1.788   2.294  -1.734  0.00  0.00     0.025 C 
ATOM     24  C   UNL d   1      -0.909   3.029  -2.523  0.00  0.00     0.003 C 
ATOM     25  C   UNL d   1       0.464   2.930  -2.300  0.00  0.00     0.025 C 
ATOM     26  C   UNL d   1       0.964   2.007  -1.368  0.00  0.00     0.051 C 
ATOM     27 CL   UNL d   1       2.681   1.942  -1.186  0.00  0.00    -0.083 Cl
ENDBRANCH   1  20
TORSDOF 5
