REMARK  7 active torsions:
REMARK  status: ('A' for Active; 'I' for Inactive)
REMARK    1  A    between atoms: C_2  and  C_1 
REMARK    2  A    between atoms: C_5  and  C_3 
REMARK    3  A    between atoms: C_6  and  C_4 
REMARK    4  A    between atoms: O_10  and  C_5 
REMARK    5  A    between atoms: O_9  and  C_6 
REMARK    6  A    between atoms: C_7  and  O_10 
REMARK    7  A    between atoms: C_8  and  O_9 
ROOT
ATOM      1  C   UNL d   1       0.761  -0.088  -0.025  0.00  0.00    -0.013 C 
ATOM      2  C   UNL d   1       1.960  -0.053  -0.034  0.00  0.00    -0.066 C 
ENDROOT
BRANCH   1   3
ATOM      3  C   UNL d   1      -0.759  -0.090  -0.006  0.00  0.00    -0.013 C 
ATOM      4  C   UNL d   1      -1.958  -0.061   0.009  0.00  0.00    -0.066 C 
BRANCH   4   5
ATOM      5  C   UNL d   1      -3.416   0.001   0.027  0.00  0.00     0.270 C 
BRANCH   5   6
ATOM      6  O   UNL d   1      -3.914  -0.529  -1.198  0.00  0.00    -0.340 OA
BRANCH   6   7
ATOM      7  C   UNL d   1      -5.270  -0.479  -1.371  0.00  0.00     0.070 A 
ATOM      8  C   UNL d   1      -6.195  -0.030  -0.428  0.00  0.00     0.037 A 
ATOM      9  C   UNL d   1      -7.557  -0.022  -0.732  0.00  0.00     0.003 A 
ATOM     10  C   UNL d   1      -8.000  -0.461  -1.978  0.00  0.00     0.000 A 
ATOM     11  C   UNL d   1      -7.080  -0.915  -2.921  0.00  0.00     0.003 A 
ATOM     12  C   UNL d   1      -5.718  -0.927  -2.615  0.00  0.00     0.037 A 
ENDBRANCH   6   7
ENDBRANCH   5   6
ENDBRANCH   4   5
ENDBRANCH   1   3
BRANCH   2  13
ATOM     13  C   UNL d   1       3.418   0.022  -0.041  0.00  0.00     0.270 C 
BRANCH  13  14
ATOM     14  O   UNL d   1       3.934  -0.911   0.904  0.00  0.00    -0.340 OA
BRANCH  14  15
ATOM     15  C   UNL d   1       5.291  -0.910   1.073  0.00  0.00     0.070 A 
ATOM     16  C   UNL d   1       6.202  -0.137   0.350  0.00  0.00     0.037 A 
ATOM     17  C   UNL d   1       7.568  -0.220   0.625  0.00  0.00     0.003 A 
ATOM     18  C   UNL d   1       8.029  -1.076   1.623  0.00  0.00     0.000 A 
ATOM     19  C   UNL d   1       7.126  -1.854   2.343  0.00  0.00     0.003 A 
ATOM     20  C   UNL d   1       5.761  -1.773   2.065  0.00  0.00     0.037 A 
ENDBRANCH  14  15
ENDBRANCH  13  14
ENDBRANCH   2  13
TORSDOF 7
