REMARK  1 active torsions:
REMARK  status: ('A' for Active; 'I' for Inactive)
REMARK       I    between atoms: N_2  and  C_1 
REMARK    1  A    between atoms: C_5  and  C_1 
REMARK       I    between atoms: C_3  and  N_2 
REMARK       I    between atoms: N_4  and  C_3 
ROOT
ATOM      1  C   UNL d   1       1.104   0.009   0.012  0.00  0.00     0.263 C 
ATOM      2  N   UNL d   1       0.482  -0.848  -0.879  0.00  0.00    -0.275 N 
ATOM      3  C   UNL d   1       1.108  -1.420  -1.964  0.00  0.00     0.325 C 
ATOM      4  N   UNL d   1       0.555  -2.608  -2.414  0.00  0.00    -0.324 N 
ATOM      5  C   UNL d   1      -0.674  -3.215  -1.958  0.00  0.00     0.201 C 
ATOM      6  O   UNL d   1       2.271   0.369  -0.004  0.00  0.00    -0.267 OA
ATOM      7  O   UNL d   1       2.057  -0.904  -2.548  0.00  0.00    -0.247 OA
ATOM      8  S   UNL d   1      -0.815  -4.837  -2.731  0.00  0.00    -0.147 SA
ATOM      9  C   UNL d   1       1.072  -3.204  -3.637  0.00  0.00     0.138 C 
ATOM     10  C   UNL d   1       0.727  -4.684  -3.664  0.00  0.00     0.095 C 
ATOM     11  H   UNL d   1      -0.450  -1.149  -0.664  0.00  0.00     0.173 HD
ENDROOT
BRANCH   1  12
ATOM     12  C   UNL d   1       0.249   0.484   1.126  0.00  0.00     0.075 A 
ATOM     13  C   UNL d   1      -0.307  -0.424   2.041  0.00  0.00     0.051 A 
ATOM     14 CL   UNL d   1      -0.089  -2.135   1.915  0.00  0.00    -0.083 Cl
ATOM     15  C   UNL d   1      -1.066   0.037   3.123  0.00  0.00     0.025 A 
ATOM     16  C   UNL d   1      -1.265   1.403   3.310  0.00  0.00     0.003 A 
ATOM     17  C   UNL d   1      -0.712   2.311   2.409  0.00  0.00     0.025 A 
ATOM     18  C   UNL d   1       0.041   1.858   1.317  0.00  0.00     0.051 A 
ATOM     19 CL   UNL d   1       0.629   3.058   0.222  0.00  0.00    -0.083 Cl
ENDBRANCH   1  12
TORSDOF 1
