REMARK  5 active torsions:
REMARK  status: ('A' for Active; 'I' for Inactive)
REMARK    1  A    between atoms: C_2  and  C_1 
REMARK       I    between atoms: N_4  and  C_1 
REMARK    2  A    between atoms: C_11  and  N_4 
REMARK    3  A    between atoms: C_5  and  C_11 
REMARK    4  A    between atoms: O_12  and  C_5 
REMARK    5  A    between atoms: C_13  and  O_12 
ROOT
ATOM      1  C   UNL d   1       0.751  -0.254  -0.212  0.00  0.00     0.258 C 
ATOM      2  N   UNL d   1       0.123   0.717  -0.954  0.00  0.00    -0.347 N 
ATOM      3  O   UNL d   1       0.105  -1.012   0.511  0.00  0.00    -0.267 OA
ATOM      4  H   UNL d   1       0.677   1.348  -1.526  0.00  0.00     0.163 HD
ENDROOT
BRANCH   2   5
ATOM      5  C   UNL d   1      -1.317   0.890  -0.924  0.00  0.00     0.233 C 
BRANCH   5   6
ATOM      6  C   UNL d   1      -1.712   2.191  -1.600  0.00  0.00     0.276 C 
ATOM      7  O   UNL d   1      -0.922   2.975  -2.113  0.00  0.00    -0.263 OA
BRANCH   6   8
ATOM      8  O   UNL d   1      -3.061   2.361  -1.517  0.00  0.00    -0.321 OA
BRANCH   8   9
ATOM      9  C   UNL d   1      -3.557   3.636  -1.948  0.00  0.00     0.174 C 
ATOM     10  C   UNL d   1      -3.538   4.593  -0.771  0.00  0.00     0.034 C 
ENDBRANCH   8   9
ENDBRANCH   6   8
ENDBRANCH   5   6
ENDBRANCH   2   5
BRANCH   1  11
ATOM     11  C   UNL d   1       2.200  -0.319  -0.334  0.00  0.00     0.072 A 
ATOM     12  S   UNL d   1       3.082   0.680  -1.413  0.00  0.00    -0.097 SA
ATOM     13  C   UNL d   1       4.573  -0.020  -0.957  0.00  0.00     0.050 A 
ATOM     14  C   UNL d   1       4.414  -0.992   0.004  0.00  0.00     0.009 A 
ATOM     15  C   UNL d   1       3.047  -1.163   0.364  0.00  0.00     0.025 A 
ENDBRANCH   1  11
TORSDOF 5
