REMARK  6 active torsions:
REMARK  status: ('A' for Active; 'I' for Inactive)
REMARK    1  A    between atoms: C_9  and  N_1 
REMARK    2  A    between atoms: C_10  and  N_2 
REMARK    3  A    between atoms: C_12  and  C_9 
REMARK    4  A    between atoms: C_11  and  C_10 
REMARK    5  A    between atoms: C_14  and  C_11 
REMARK    6  A    between atoms: C_13  and  C_12 
ROOT
ATOM      1  N   UNL d   1       0.750   1.222  -0.237  0.00  0.00     0.118 N 
ATOM      2  N   UNL d   1       0.745  -1.205  -0.139  0.00  0.00     0.118 N 
ATOM      3  C   UNL d   1      -1.423   0.006  -0.207  0.00  0.00     0.149 C 
ATOM      4  N   UNL d   1      -3.923   0.005   0.640  0.00  0.00    -0.197 NA
ATOM      5  C   UNL d   1      -2.820   0.015   0.282  0.00  0.00     0.067 C 
ATOM      6  C   UNL d   1       1.425   0.026   0.293  0.00  0.00     0.542 C 
ATOM      7  C   UNL d   1      -0.649   1.248   0.232  0.00  0.00     0.295 C 
ATOM      8  C   UNL d   1      -0.663  -1.218   0.309  0.00  0.00     0.295 C 
ENDROOT
BRANCH   1   9
ATOM      9  C   UNL d   1       0.903   1.314  -1.709  0.00  0.00     0.279 C 
BRANCH   9  10
ATOM     10  C   UNL d   1       0.236   2.555  -2.335  0.00  0.00     0.068 C 
BRANCH  10  11
ATOM     11  C   UNL d   1       0.353   2.569  -3.841  0.00  0.00    -0.057 A 
ATOM     12  C   UNL d   1      -0.630   1.960  -4.635  0.00  0.00     0.007 A 
ATOM     13  C   UNL d   1      -0.529   1.983  -6.027  0.00  0.00     0.001 A 
ATOM     14  C   UNL d   1       0.556   2.610  -6.635  0.00  0.00     0.000 A 
ATOM     15  C   UNL d   1       1.543   3.209  -5.853  0.00  0.00     0.001 A 
ATOM     16  C   UNL d   1       1.444   3.187  -4.462  0.00  0.00     0.007 A 
ENDBRANCH  10  11
ENDBRANCH   9  10
ENDBRANCH   1   9
BRANCH   2  17
ATOM     17  C   UNL d   1       1.478  -2.394   0.350  0.00  0.00     0.279 C 
BRANCH  17  18
ATOM     18  C   UNL d   1       0.897  -3.712  -0.191  0.00  0.00     0.068 C 
BRANCH  18  19
ATOM     19  C   UNL d   1       1.642  -4.921   0.309  0.00  0.00    -0.057 A 
ATOM     20  C   UNL d   1       1.317  -5.483   1.552  0.00  0.00     0.007 A 
ATOM     21  C   UNL d   1       1.985  -6.619   2.006  0.00  0.00     0.001 A 
ATOM     22  C   UNL d   1       2.985  -7.196   1.224  0.00  0.00     0.000 A 
ATOM     23  C   UNL d   1       3.320  -6.635  -0.007  0.00  0.00     0.001 A 
ATOM     24  C   UNL d   1       2.654  -5.499  -0.464  0.00  0.00     0.007 A 
ENDBRANCH  18  19
ENDBRANCH  17  18
ENDBRANCH   2  17
TORSDOF 6
