REMARK  7 active torsions:
REMARK  status: ('A' for Active; 'I' for Inactive)
REMARK    1  A    between atoms: O_5  and  C_1 
REMARK    2  A    between atoms: C_10  and  N_2 
REMARK    3  A    between atoms: C_9  and  O_5 
REMARK    4  A    between atoms: S_16  and  C_6 
REMARK       I    between atoms: N_14  and  C_9 
REMARK    5  A    between atoms: C_11  and  C_12 
REMARK    6  A    between atoms: C_24  and  S_16 
REMARK    7  A    between atoms: C_20  and  C_24 
ROOT
ATOM      1  C   UNL d   1       0.151  -1.021  -0.226  0.00  0.00     0.256 A 
ATOM      2  N   UNL d   1       1.360  -0.336  -0.332  0.00  0.00    -0.255 N 
ATOM      3  N   UNL d   1      -0.837  -0.176  -0.054  0.00  0.00    -0.262 N 
ATOM      4  HN  UNL d   1      -1.816  -0.420   0.090  1.00  0.00     0.190 HD
ATOM      5  C   UNL d   1       0.977   0.997  -0.284  0.00  0.00     0.169 A 
ATOM      6  N   UNL d   1      -0.320   1.093  -0.103  0.00  0.00    -0.276 N 
ATOM      7  HN  UNL d   1      -0.851   1.960  -0.014  1.00  0.00     0.189 HD
ENDROOT
BRANCH   2   8
ATOM      8  C   UNL d   1       2.662  -0.927  -0.415  0.00  0.00     0.046 A 
ATOM      9  C   UNL d   1       2.822  -2.196  -0.996  0.00  0.00     0.046 A 
ATOM     10  C   UNL d   1       4.063  -2.855  -0.982  0.00  0.00     0.050 A 
ATOM     11  C   UNL d   1       5.173  -2.195  -0.443  0.00  0.00     0.016 A 
ATOM     12  C   UNL d   1       5.034  -0.920   0.103  0.00  0.00     0.003 A 
ATOM     13  C   UNL d   1       3.784  -0.298   0.135  0.00  0.00     0.030 A 
BRANCH  10  14
ATOM     14  C   UNL d   1       4.200  -4.266  -1.504  0.00  0.00     0.417 C 
ATOM     15  F   UNL d   1       3.015  -4.812  -1.898  0.00  0.00    -0.166 F 
ATOM     16  F   UNL d   1       5.033  -4.357  -2.574  0.00  0.00    -0.166 F 
ATOM     17  F   UNL d   1       4.697  -5.116  -0.562  0.00  0.00    -0.166 F 
ENDBRANCH  10  14
ENDBRANCH   2   8
BRANCH   1  18
ATOM     18  O   UNL d   1       0.093  -2.339  -0.124  0.00  0.00    -0.226 OA
BRANCH  18  19
ATOM     19  C   UNL d   1      -1.013  -3.025  -0.477  0.00  0.00     0.369 C 
ATOM     20  N   UNL d   1      -0.834  -4.403  -0.341  0.00  0.00    -0.336 N 
ATOM     21  C   UNL d   1      -1.931  -5.280  -0.692  0.00  0.00     0.154 C 
ATOM     22  C   UNL d   1       0.406  -5.032   0.086  0.00  0.00     0.154 C 
ATOM     23  O   UNL d   1      -2.052  -2.542  -0.917  0.00  0.00    -0.238 OA
ENDBRANCH  18  19
ENDBRANCH   1  18
BRANCH   5  24
ATOM     24  S   UNL d   1       2.017   2.348  -0.624  0.00  0.00    -0.088 SA
BRANCH  24  25
ATOM     25  C   UNL d   1       1.016   3.740  -0.047  0.00  0.00     0.108 C 
BRANCH  25  26
ATOM     26  C   UNL d   1       1.733   5.068  -0.047  0.00  0.00    -0.026 C 
ATOM     27  C   UNL d   1       2.991   5.372  -0.400  0.00  0.00     0.007 C 
ENDBRANCH  25  26
ENDBRANCH  24  25
ENDBRANCH   5  24
TORSDOF 7
