REMARK  5 active torsions:
REMARK  status: ('A' for Active; 'I' for Inactive)
REMARK    1  A    between atoms: C_10  and  C_3 
REMARK    2  A    between atoms: C_9  and  C_7 
REMARK    3  A    between atoms: C_8  and  O_12 
REMARK    4  A    between atoms: C_18  and  C_11 
REMARK    5  A    between atoms: O_12  and  C_19 
ROOT
ATOM      1  N   UNL d   1       0.990  -0.664   0.111  0.00  0.00    -0.277 N 
ATOM      2  HN  UNL d   1       1.830  -1.244   0.119  1.00  0.00     0.189 HD
ATOM      3  C   UNL d   1      -0.255  -1.082   0.124  0.00  0.00     0.174 A 
ATOM      4  O   UNL d   1      -1.156  -0.051   0.106  0.00  0.00    -0.274 OA
ATOM      5  N   UNL d   1       0.937   0.707   0.083  0.00  0.00    -0.278 N 
ATOM      6  HN  UNL d   1       1.739   1.336   0.066  1.00  0.00     0.189 HD
ATOM      7  C   UNL d   1      -0.340   1.071   0.083  0.00  0.00     0.164 A 
ENDROOT
BRANCH   7   8
ATOM      8  C   UNL d   1      -0.795   2.410   0.051  0.00  0.00     0.059 C 
ATOM      9  C   UNL d   1      -2.093   2.755   0.019  0.00  0.00     0.015 C 
BRANCH   9  10
ATOM     10  C   UNL d   1      -2.533   4.156  -0.063  0.00  0.00    -0.036 A 
ATOM     11  C   UNL d   1      -1.778   5.129  -0.733  0.00  0.00     0.014 A 
ATOM     12  C   UNL d   1      -2.217   6.454  -0.827  0.00  0.00     0.038 A 
ATOM     13  C   UNL d   1      -3.455   6.814  -0.307  0.00  0.00     0.078 A 
ATOM     14  C   UNL d   1      -4.207   5.857   0.378  0.00  0.00     0.038 A 
ATOM     15  C   UNL d   1      -3.757   4.536   0.494  0.00  0.00     0.014 A 
BRANCH  13  16
ATOM     16  O   UNL d   1      -4.019   8.052  -0.369  0.00  0.00    -0.255 OA
BRANCH  16  17
ATOM     17  C   UNL d   1      -3.693   8.924  -1.443  0.00  0.00     0.530 C 
ATOM     18  F   UNL d   1      -3.032   8.334  -2.461  0.00  0.00    -0.144 F 
ATOM     19  F   UNL d   1      -4.843   9.430  -1.945  0.00  0.00    -0.144 F 
ATOM     20  F   UNL d   1      -2.951   9.952  -0.978  0.00  0.00    -0.144 F 
ENDBRANCH  16  17
ENDBRANCH  13  16
ENDBRANCH   9  10
ENDBRANCH   7   8
BRANCH   3  21
ATOM     21  C   UNL d   1      -0.772  -2.442   0.163  0.00  0.00     0.017 A 
ATOM     22  C   UNL d   1       0.130  -3.514   0.280  0.00  0.00     0.017 A 
ATOM     23  C   UNL d   1      -0.326  -4.834   0.323  0.00  0.00     0.025 A 
ATOM     24  C   UNL d   1      -1.691  -5.094   0.246  0.00  0.00     0.034 A 
ATOM     25  C   UNL d   1      -2.602  -4.046   0.128  0.00  0.00     0.025 A 
ATOM     26 CL   UNL d   1      -2.256  -6.717   0.297  0.00  0.00    -0.084 Cl
ATOM     27  C   UNL d   1      -2.144  -2.724   0.088  0.00  0.00     0.017 A 
ENDBRANCH   3  21
TORSDOF 5
