REMARK  0 active torsions:
REMARK  status: ('A' for Active; 'I' for Inactive)
ROOT
ATOM      1  C   UNL d   1       2.727  -0.747  -0.002  0.00  0.00     0.134 A 
ATOM      2  C   UNL d   1       1.777   0.243   0.000  0.00  0.00     0.104 A 
ATOM      3  N   UNL d   1       4.090  -0.343  -0.002  0.00  0.00    -0.288 N 
ATOM      4  N   UNL d   1       3.526   1.962  -0.007  0.00  0.00    -0.270 N 
ATOM      5  N   UNL d   1       2.257  -2.102  -0.004  0.00  0.00    -0.303 N 
ATOM      6  C   UNL d   1       4.497   1.007  -0.006  0.00  0.00     0.332 A 
ATOM      7  C   UNL d   1       2.185   1.686   0.004  0.00  0.00     0.267 A 
ATOM      8  C   UNL d   1      -0.102  -1.370  -0.002  0.00  0.00     0.061 A 
ATOM      9  C   UNL d   1       0.322  -0.070  -0.001  0.00  0.00     0.068 A 
ATOM     10  C   UNL d   1       0.879  -2.433  -0.001  0.00  0.00     0.261 A 
ATOM     11  N   UNL d   1      -0.591   0.938  -0.002  0.00  0.00    -0.354 N 
ATOM     12  HN  UNL d   1      -0.272   1.906  -0.003  1.00  0.00     0.166 HD
ATOM     13  C   UNL d   1      -1.467  -1.673  -0.003  0.00  0.00     0.033 A 
ATOM     14  C   UNL d   1      -1.918   0.672  -0.003  0.00  0.00     0.043 A 
ATOM     15  C   UNL d   1      -2.402  -0.645  -0.004  0.00  0.00    -0.008 A 
ATOM     16  O   UNL d   1       5.691   1.327  -0.006  0.00  0.00    -0.246 OA
ATOM     17  O   UNL d   1       1.374   2.611   0.017  0.00  0.00    -0.267 OA
ATOM     18  O   UNL d   1       0.450  -3.589   0.000  0.00  0.00    -0.267 OA
ATOM     19  C   UNL d   1      -2.857   1.701  -0.002  0.00  0.00     0.037 A 
ATOM     20  C   UNL d   1       5.287  -1.158   0.000  0.00  0.00     0.163 C 
ATOM     21  C   UNL d   1       3.917   3.365  -0.009  0.00  0.00     0.164 C 
ATOM     22  C   UNL d   1       2.988  -3.352  -0.004  0.00  0.00     0.161 C 
ATOM     23  C   UNL d   1      -3.779  -0.915  -0.005  0.00  0.00     0.014 A 
ATOM     24  C   UNL d   1      -4.241   1.452  -0.003  0.00  0.00    -0.060 A 
ATOM     25  C   UNL d   1      -4.695   0.131  -0.005  0.00  0.00     0.007 A 
ATOM     26  C   UNL d   1      -5.238   2.572  -0.001  0.00  0.00     0.048 C 
ENDROOT
TORSDOF 0
