REMARK  5 active torsions:
REMARK  status: ('A' for Active; 'I' for Inactive)
REMARK    1  A    between atoms: C_5  and  N_1 
REMARK    2  A    between atoms: C_13  and  C_4 
REMARK    3  A    between atoms: N_7  and  C_6 
REMARK       I    between atoms: N_25  and  C_13 
REMARK    4  A    between atoms: C_15  and  C_24 
REMARK    5  A    between atoms: N_18  and  N_25 
ROOT
ATOM      1  N   UNL d   1       0.875  -0.668  -0.084  0.00  0.00    -0.257 N 
ATOM      2  N   UNL d   1       0.922   0.697  -0.140  0.00  0.00    -0.288 N 
ATOM      3  HN  UNL d   1       1.755   1.285  -0.187  1.00  0.00     0.188 HD
ATOM      4  C   UNL d   1      -0.360   1.102  -0.121  0.00  0.00     0.119 A 
ATOM      5  C   UNL d   1      -0.435  -1.117   0.053  0.00  0.00     0.033 A 
ATOM      6  C   UNL d   1      -1.234   0.001  -0.043  0.00  0.00     0.063 A 
ATOM      7  C   UNL d   1      -0.883  -2.505   0.344  0.00  0.00     0.070 C 
ENDROOT
BRANCH   4   8
ATOM      8  C   UNL d   1      -0.774   2.513  -0.144  0.00  0.00     0.288 C 
ATOM      9  N   UNL d   1       0.281   3.413  -0.056  0.00  0.00    -0.265 N 
ATOM     10  H   UNL d   1       1.226   3.043   0.011  0.00  0.00     0.190 HD
ATOM     11  O   UNL d   1      -1.960   2.833  -0.217  0.00  0.00    -0.264 OA
BRANCH   9  12
ATOM     12  N   UNL d   1       0.017   4.752  -0.105  0.00  0.00    -0.308 N 
ATOM     13  C   UNL d   1       1.015   5.565  -0.007  0.00  0.00     0.126 C 
ATOM     14  HN  UNL d   1      -0.936   5.099  -0.216  1.00  0.00     0.186 HD
BRANCH  13  15
ATOM     15  C   UNL d   1       0.771   6.988  -0.103  0.00  0.00     0.024 A 
ATOM     16  S   UNL d   1       2.078   8.090  -0.048  0.00  0.00    -0.065 SA
ATOM     17  C   UNL d   1       1.042   9.422  -0.274  0.00  0.00     0.144 A 
ATOM     18  C   UNL d   1      -0.282   9.057  -0.369  0.00  0.00     0.045 A 
ATOM     19  C   UNL d   1      -0.438   7.643  -0.265  0.00  0.00     0.023 A 
BRANCH  17  20
ATOM     20  N   UNL d   1       1.569  10.760  -0.358  0.00  0.00    -0.108 N 
ATOM     21  O   UNL d   1       0.747  11.662  -0.575  0.00  0.00    -0.531 OA
ATOM     22  O   UNL d   1       2.787  10.922  -0.211  0.00  0.00    -0.531 OA
ENDBRANCH  17  20
ENDBRANCH  13  15
ENDBRANCH   9  12
ENDBRANCH   4   8
BRANCH   1  23
ATOM     23  C   UNL d   1       2.084  -1.422  -0.129  0.00  0.00     0.100 A 
ATOM     24  C   UNL d   1       3.212  -1.010   0.614  0.00  0.00     0.066 A 
ATOM     25  C   UNL d   1       4.389  -1.774   0.605  0.00  0.00     0.050 A 
ATOM     26 CL   UNL d   1       3.247   0.366   1.669  0.00  0.00    -0.082 Cl
ATOM     27  C   UNL d   1       4.452  -2.953  -0.125  0.00  0.00     0.037 A 
ATOM     28  C   UNL d   1       3.366  -3.361  -0.886  0.00  0.00     0.050 A 
ATOM     29 CL   UNL d   1       5.888  -3.898  -0.106  0.00  0.00    -0.084 Cl
ATOM     30  C   UNL d   1       2.198  -2.585  -0.917  0.00  0.00     0.066 A 
ATOM     31 CL   UNL d   1       1.041  -3.061  -2.117  0.00  0.00    -0.082 Cl
ENDBRANCH   1  23
TORSDOF 5
