REMARK  5 active torsions:
REMARK  status: ('A' for Active; 'I' for Inactive)
REMARK    1  A    between atoms: C_9  and  N_3 
REMARK    2  A    between atoms: N_10  and  C_4 
REMARK    3  A    between atoms: C_8  and  C_12 
REMARK    4  A    between atoms: C_21  and  N_10 
REMARK    5  A    between atoms: C_22  and  N_10 
ROOT
ATOM      1  C   UNL d   1      -0.637   1.329  -0.093  0.00  0.00     0.131 A 
ATOM      2  C   UNL d   1      -1.519   0.119  -0.092  0.00  0.00     0.291 A 
ATOM      3  N   UNL d   1      -0.860  -1.115   0.047  0.00  0.00    -0.220 N 
ATOM      4  C   UNL d   1       0.692   1.252   0.049  0.00  0.00     0.074 A 
ATOM      5  N   UNL d   1       0.500  -1.215   0.247  0.00  0.00    -0.300 N 
ATOM      6  HN  UNL d   1       0.945  -2.120   0.397  1.00  0.00     0.186 HD
ATOM      7  C   UNL d   1       1.193  -0.127   0.238  0.00  0.00     0.139 A 
ATOM      8  O   UNL d   1      -2.739   0.272  -0.190  0.00  0.00    -0.264 OA
ATOM      9 CL   UNL d   1      -1.419   2.866  -0.297  0.00  0.00    -0.076 Cl
ENDROOT
BRANCH   3  10
ATOM     10  C   UNL d   1      -1.540  -2.383   0.060  0.00  0.00     0.060 A 
ATOM     11  C   UNL d   1      -2.829  -2.555  -0.464  0.00  0.00     0.032 A 
ATOM     12  C   UNL d   1      -3.500  -3.782  -0.364  0.00  0.00     0.018 A 
ATOM     13  C   UNL d   1      -2.901  -4.877   0.268  0.00  0.00     0.048 A 
ATOM     14  C   UNL d   1      -1.592  -4.737   0.741  0.00  0.00     0.018 A 
ATOM     15  C   UNL d   1      -0.920  -3.513   0.625  0.00  0.00     0.032 A 
BRANCH  13  16
ATOM     16  C   UNL d   1      -3.671  -6.162   0.446  0.00  0.00     0.417 C 
ATOM     17  F   UNL d   1      -2.990  -7.116   1.141  0.00  0.00    -0.166 F 
ATOM     18  F   UNL d   1      -4.839  -5.976   1.124  0.00  0.00    -0.166 F 
ATOM     19  F   UNL d   1      -4.016  -6.737  -0.739  0.00  0.00    -0.166 F 
ENDBRANCH  13  16
ENDBRANCH   3  10
BRANCH   4  20
ATOM     20  N   UNL d   1       1.660   2.260  -0.005  0.00  0.00    -0.379 N 
BRANCH  20  21
ATOM     21  C   UNL d   1       2.011   3.126   1.137  0.00  0.00     0.118 C 
ATOM     22  C   UNL d   1       1.574   2.601   2.495  0.00  0.00     0.026 C 
ENDBRANCH  20  21
BRANCH  20  23
ATOM     23  C   UNL d   1       2.024   2.826  -1.319  0.00  0.00     0.118 C 
ATOM     24  C   UNL d   1       3.349   2.238  -1.777  0.00  0.00     0.026 C 
ENDBRANCH  20  23
ENDBRANCH   4  20
TORSDOF 5
