REMARK  6 active torsions:
REMARK  status: ('A' for Active; 'I' for Inactive)
REMARK    1  A    between atoms: C_7  and  C_3 
REMARK    2  A    between atoms: C_15  and  C_6 
REMARK    3  A    between atoms: C_23  and  C_12 
REMARK    4  A    between atoms: C_16  and  C_15 
REMARK    5  A    between atoms: N_21  and  C_16 
REMARK    6  A    between atoms: O_22  and  N_17 
ROOT
ATOM      1  C   UNL d   1       8.647  -3.780  -0.870  0.00  0.00    -0.042 A 
ATOM      2  C   UNL d   1       8.845  -2.813   0.125  0.00  0.00    -0.043 A 
ATOM      3  C   UNL d   1       6.431  -4.336   0.124  0.00  0.00    -0.002 A 
ATOM      4  C   UNL d   1       7.426  -4.502  -0.866  0.00  0.00     0.022 A 
ATOM      5  C   UNL d   1       7.867  -2.678   1.133  0.00  0.00     0.016 A 
ATOM      6  C   UNL d   1       6.670  -3.414   1.167  0.00  0.00    -0.045 A 
ATOM      7  C   UNL d   1       9.697  -4.068  -1.951  0.00  0.00    -0.020 C 
ATOM      8  C   UNL d   1      10.096  -1.935   0.208  0.00  0.00    -0.020 C 
ATOM      9  C   UNL d   1      10.935  -1.992  -1.086  0.00  0.00     0.015 C 
ATOM     10  C   UNL d   1      11.059  -3.391  -1.658  0.00  0.00     0.015 C 
ATOM     11  C   UNL d   1      10.935  -2.398   1.421  0.00  0.00     0.020 C 
ATOM     12  C   UNL d   1       9.157  -3.595  -3.320  0.00  0.00     0.020 C 
ATOM     13  C   UNL d   1       9.994  -5.585  -2.041  0.00  0.00     0.020 C 
ATOM     14  C   UNL d   1       9.724  -0.444   0.408  0.00  0.00     0.020 C 
ENDROOT
BRANCH   3  15
ATOM     15  C   UNL d   1       5.192  -5.122   0.060  0.00  0.00     0.050 A 
ATOM     16  N   UNL d   1       4.532  -5.535   1.211  0.00  0.00    -0.352 N 
ATOM     17  C   UNL d   1       3.417  -6.167   0.917  0.00  0.00     0.057 A 
ATOM     18  HN  UNL d   1       4.869  -5.370   2.159  1.00  0.00     0.166 HD
ATOM     19  S   UNL d   1       3.109  -6.347  -0.762  0.00  0.00    -0.086 SA
ATOM     20  C   UNL d   1       4.561  -5.496  -1.111  0.00  0.00     0.081 A 
BRANCH  17  21
ATOM     21  C   UNL d   1       2.489  -6.725   1.944  0.00  0.00     0.136 C 
BRANCH  21  22
ATOM     22  C   UNL d   1       1.418  -5.720   2.357  0.00  0.00     0.081 C 
ATOM     23  N   UNL d   1       0.269  -6.210   2.733  0.00  0.00    -0.262 N 
ATOM     24  HN  UNL d   1       0.029  -7.201   2.718  1.00  0.00     0.195 HD
BRANCH  23  25
ATOM     25  O   UNL d   1      -0.593  -5.185   3.163  0.00  0.00    -0.289 OA
ATOM     26  H   UNL d   1      -1.418  -5.673   3.341  0.00  0.00     0.244 HD
ENDBRANCH  23  25
BRANCH  22  27
ATOM     27  N   UNL d   1       1.698  -4.380   2.401  0.00  0.00    -0.290 NA
ATOM     28  H   UNL d   1       2.670  -4.113   2.529  0.00  0.00     0.125 HD
ATOM     29  H   UNL d   1       1.034  -3.867   2.975  0.00  0.00     0.125 HD
ENDBRANCH  22  27
ENDBRANCH  21  22
ENDBRANCH  17  21
ENDBRANCH   3  15
BRANCH   6  30
ATOM     30  C   UNL d   1       5.689  -3.222   2.305  0.00  0.00     0.035 C 
ATOM     31  C   UNL d   1       6.019  -2.173   3.365  0.00  0.00     0.010 C 
ENDBRANCH   6  30
TORSDOF 6
