REMARK  5 active torsions:
REMARK  status: ('A' for Active; 'I' for Inactive)
REMARK    1  A    between atoms: N_3  and  C_1 
REMARK    2  A    between atoms: N_4  and  C_2 
REMARK    3  A    between atoms: C_21  and  C_9 
REMARK    4  A    between atoms: C_10  and  C_22 
REMARK    5  A    between atoms: N_19  and  N_17 
ROOT
ATOM      1  N   UNL d   1       3.889  -0.888  -0.060  0.00  0.00    -0.311 N 
ATOM      2  HN  UNL d   1       4.014   0.104   0.142  1.00  0.00     0.186 HD
ATOM      3  C   UNL d   1       2.746  -1.450  -0.286  0.00  0.00     0.119 C 
ENDROOT
BRANCH   1   4
ATOM      4  N   UNL d   1       4.929  -1.815  -0.129  0.00  0.00    -0.311 N 
ATOM      5  C   UNL d   1       6.066  -1.240   0.098  0.00  0.00     0.119 C 
ATOM      6  HN  UNL d   1       4.810  -2.808  -0.330  1.00  0.00     0.186 HD
BRANCH   5   7
ATOM      7  C   UNL d   1       7.283  -2.030   0.044  0.00  0.00    -0.010 A 
ATOM      8  C   UNL d   1       7.387  -3.432  -0.258  0.00  0.00     0.057 A 
ATOM      9  C   UNL d   1       8.693  -3.873  -0.234  0.00  0.00     0.144 A 
ATOM     10  S   UNL d   1       9.793  -2.638   0.146  0.00  0.00    -0.077 SA
ATOM     11  C   UNL d   1       8.532  -1.485   0.280  0.00  0.00     0.065 A 
BRANCH   9  12
ATOM     12  N   UNL d   1       9.153  -5.213  -0.493  0.00  0.00    -0.108 N 
ATOM     13  O   UNL d   1       8.281  -6.048  -0.771  0.00  0.00    -0.531 OA
ATOM     14  O   UNL d   1      10.367  -5.443  -0.423  0.00  0.00    -0.531 OA
ENDBRANCH   9  12
ENDBRANCH   5   7
ENDBRANCH   1   4
BRANCH   3  15
ATOM     15  C   UNL d   1       1.552  -0.623  -0.290  0.00  0.00    -0.010 A 
ATOM     16  C   UNL d   1       1.493   0.795  -0.063  0.00  0.00     0.057 A 
ATOM     17  C   UNL d   1       0.209   1.285  -0.161  0.00  0.00     0.144 A 
ATOM     18  S   UNL d   1      -0.929   0.073  -0.504  0.00  0.00    -0.077 SA
ATOM     19  C   UNL d   1       0.290  -1.133  -0.536  0.00  0.00     0.065 A 
BRANCH  17  20
ATOM     20  N   UNL d   1      -0.201   2.658  -0.007  0.00  0.00    -0.108 N 
ATOM     21  O   UNL d   1       0.698   3.473   0.244  0.00  0.00    -0.531 OA
ATOM     22  O   UNL d   1      -1.401   2.932  -0.135  0.00  0.00    -0.531 OA
ENDBRANCH  17  20
ENDBRANCH   3  15
TORSDOF 5
