REMARK  4 active torsions:
REMARK  status: ('A' for Active; 'I' for Inactive)
REMARK    1  A    between atoms: C_2  and  S_1 
REMARK    2  A    between atoms: C_9  and  S_1 
REMARK    3  A    between atoms: N_10  and  N_3 
REMARK    4  A    between atoms: C_11  and  N_10 
ROOT
ATOM      1  C   UNL d   1       0.334  -0.890  -1.472  0.00  0.00     0.229 C 
ATOM      2  N   UNL d   1      -0.413  -1.949  -1.341  0.00  0.00    -0.281 N 
ATOM      3  HN  UNL d   1      -0.679  -2.487  -2.166  1.00  0.00     0.188 HD
ATOM      4  C   UNL d   1       0.747  -0.143  -0.317  0.00  0.00     0.132 C 
ATOM      5  N   UNL d   1       1.057   0.407   0.658  0.00  0.00    -0.189 NA
ENDROOT
BRANCH   1   6
ATOM      6  S   UNL d   1       0.858  -0.297  -3.025  0.00  0.00     0.233 S 
ATOM      7  O   UNL d   1       2.310  -0.276  -2.993  0.00  0.00    -0.215 OA
ATOM      8  O   UNL d   1       0.100   0.916  -3.279  0.00  0.00    -0.215 OA
BRANCH   6   9
ATOM      9  C   UNL d   1       0.364  -1.504  -4.230  0.00  0.00     0.066 A 
ATOM     10  C   UNL d   1      -0.895  -1.403  -4.832  0.00  0.00     0.024 A 
ATOM     11  C   UNL d   1      -1.244  -2.296  -5.846  0.00  0.00     0.002 A 
ATOM     12  C   UNL d   1      -0.339  -3.274  -6.260  0.00  0.00     0.000 A 
ATOM     13  C   UNL d   1       0.917  -3.369  -5.659  0.00  0.00     0.002 A 
ATOM     14  C   UNL d   1       1.275  -2.482  -4.644  0.00  0.00     0.024 A 
ENDBRANCH   6   9
ENDBRANCH   1   6
BRANCH   2  15
ATOM     15  N   UNL d   1      -0.842  -2.340  -0.109  0.00  0.00    -0.299 N 
ATOM     16  H   UNL d   1      -0.446  -1.995   0.768  0.00  0.00     0.187 HD
BRANCH  15  17
ATOM     17  C   UNL d   1      -1.602  -3.520   0.011  0.00  0.00     0.048 A 
ATOM     18  C   UNL d   1      -1.948  -4.309  -1.096  0.00  0.00     0.034 A 
ATOM     19  C   UNL d   1      -2.744  -5.448  -0.944  0.00  0.00     0.044 A 
ATOM     20  C   UNL d   1      -3.221  -5.787   0.314  0.00  0.00     0.116 A 
ATOM     21  C   UNL d   1      -2.922  -5.005   1.422  0.00  0.00     0.044 A 
ATOM     22  F   UNL d   1      -3.987  -6.875   0.461  0.00  0.00    -0.206 F 
ATOM     23  C   UNL d   1      -2.119  -3.873   1.269  0.00  0.00     0.034 A 
ENDBRANCH  15  17
ENDBRANCH   2  15
TORSDOF 4
