REMARK  2 active torsions:
REMARK  status: ('A' for Active; 'I' for Inactive)
REMARK    1  A    between atoms: C_4  and  C_1 
REMARK    2  A    between atoms: C_9  and  C_4 
ROOT
ATOM      1  C   UNL d   1       0.838  -0.155  -0.045  0.00  0.00     0.085 C 
ATOM      2  C   UNL d   1       0.297  -0.999   0.847  0.00  0.00     0.088 C 
ATOM      3  C   UNL d   1      -1.181  -1.303   0.862  0.00  0.00     0.304 C 
ATOM      4  N   UNL d   1       1.086  -1.587   1.853  0.00  0.00    -0.286 NA
ATOM      5  O   UNL d   1      -1.719  -1.332   2.115  0.00  0.00    -0.316 OA
ATOM      6  O   UNL d   1      -1.826  -1.577  -0.139  0.00  0.00    -0.258 OA
ATOM      7  C   UNL d   1       0.521  -1.471   3.203  0.00  0.00     0.119 C 
ATOM      8  C   UNL d   1      -0.945  -1.902   3.191  0.00  0.00     0.193 C 
ATOM      9  H   UNL d   1       1.171  -2.583   1.629  0.00  0.00     0.128 HD
ENDROOT
BRANCH   1  10
ATOM     10  C   UNL d   1       0.091   0.700  -1.010  0.00  0.00     0.184 C 
ATOM     11  O   UNL d   1      -1.066   1.042  -0.812  0.00  0.00    -0.288 OA
BRANCH  10  12
ATOM     12  C   UNL d   1       0.864   1.287  -2.142  0.00  0.00     0.014 A 
ATOM     13  C   UNL d   1       2.006   0.674  -2.675  0.00  0.00     0.015 A 
ATOM     14  C   UNL d   1       2.726   1.302  -3.696  0.00  0.00     0.001 A 
ATOM     15  C   UNL d   1       2.303   2.533  -4.197  0.00  0.00     0.000 A 
ATOM     16  C   UNL d   1       1.152   3.134  -3.692  0.00  0.00     0.001 A 
ATOM     17  C   UNL d   1       0.431   2.510  -2.672  0.00  0.00     0.015 A 
ENDBRANCH  10  12
ENDBRANCH   1  10
TORSDOF 2
