REMARK  8 active torsions:
REMARK  status: ('A' for Active; 'I' for Inactive)
REMARK    1  A    between atoms: C_4  and  C_1 
REMARK    2  A    between atoms: S_3  and  C_2 
REMARK    3  A    between atoms: C_5  and  S_3 
REMARK    4  A    between atoms: O_15  and  C_4 
REMARK    5  A    between atoms: C_10  and  C_6 
REMARK    6  A    between atoms: C_8  and  O_12 
REMARK    7  A    between atoms: O_12  and  C_10 
REMARK    8  A    between atoms: O_17  and  C_14 
ROOT
ATOM      1  C   UNL d   1       0.844  -4.019  -3.166  0.00  0.00     0.057 A 
ATOM      2  C   UNL d   1       1.058  -2.941  -2.284  0.00  0.00     0.022 A 
ATOM      3  C   UNL d   1       0.960  -3.791  -4.555  0.00  0.00     0.056 A 
ATOM      4  C   UNL d   1       1.294  -1.662  -2.828  0.00  0.00     0.023 A 
ATOM      5  C   UNL d   1       1.242  -2.529  -5.082  0.00  0.00     0.069 A 
ATOM      6  C   UNL d   1       1.381  -1.456  -4.212  0.00  0.00     0.038 A 
ENDROOT
BRANCH   2   7
ATOM      7  S   UNL d   1       1.097  -3.057  -0.487  0.00  0.00    -0.089 SA
BRANCH   7   8
ATOM      8  C   UNL d   1       2.858  -3.136  -0.112  0.00  0.00     0.014 A 
ATOM      9  C   UNL d   1       3.415  -2.601   1.075  0.00  0.00    -0.017 A 
ATOM     10  C   UNL d   1       4.818  -2.641   1.248  0.00  0.00     0.011 A 
ATOM     11  C   UNL d   1       5.651  -3.225   0.299  0.00  0.00     0.001 A 
ATOM     12  C   UNL d   1       5.098  -3.810  -0.829  0.00  0.00     0.001 A 
ATOM     13  C   UNL d   1       3.717  -3.776  -1.022  0.00  0.00     0.019 A 
BRANCH   9  14
ATOM     14  C   UNL d   1       2.613  -1.980   2.199  0.00  0.00     0.218 C 
BRANCH  14  15
ATOM     15  O   UNL d   1       2.865  -2.666   3.442  0.00  0.00    -0.317 OA
BRANCH  15  16
ATOM     16  C   UNL d   1       2.011  -3.678   3.737  0.00  0.00     0.255 C 
ATOM     17  O   UNL d   1       1.084  -4.051   3.036  0.00  0.00    -0.266 OA
ATOM     18  C   UNL d   1       2.340  -4.298   5.066  0.00  0.00     0.126 C 
ENDBRANCH  15  16
ENDBRANCH  14  15
ENDBRANCH   9  14
ENDBRANCH   7   8
ENDBRANCH   2   7
BRANCH   1  19
ATOM     19  C   UNL d   1       0.535  -5.438  -2.795  0.00  0.00     0.177 C 
ATOM     20  O   UNL d   1       0.511  -6.332  -3.631  0.00  0.00    -0.646 OA
BRANCH  19  21
ATOM     21  O   UNL d   1       0.257  -5.691  -1.505  0.00  0.00    -0.773 OA
ATOM     22  H   UNL d   1       0.318  -4.926  -0.895  0.00  0.00     0.167 HD
ENDBRANCH  19  21
ENDBRANCH   1  19
BRANCH   5  23
ATOM     23  O   UNL d   1       1.356  -2.492  -6.442  0.00  0.00    -0.356 OA
ATOM     24  C   UNL d   1       1.666  -1.242  -7.045  0.00  0.00     0.210 C 
ENDBRANCH   5  23
TORSDOF 8
