REMARK  1 active torsions:
REMARK  status: ('A' for Active; 'I' for Inactive)
REMARK    1  A    between atoms: O_13  and  N_7 
ROOT
ATOM      1  C   UNL d   1      -1.060  -0.229   1.290  0.00  0.00     0.332 C 
ATOM      2  N   UNL d   1      -0.677  -1.003   0.202  0.00  0.00    -0.291 N 
ATOM      3  N   UNL d   1      -0.039   0.344   2.034  0.00  0.00    -0.274 N 
ATOM      4  C   UNL d   1       0.612  -1.080  -0.292  0.00  0.00     0.116 C 
ATOM      5  C   UNL d   1       1.275   0.439   1.629  0.00  0.00     0.234 C 
ATOM      6  C   UNL d   1       1.633  -0.179   0.324  0.00  0.00     0.182 C 
ATOM      7  N   UNL d   1       0.873  -1.883  -1.282  0.00  0.00    -0.256 N 
ATOM      8  HN  UNL d   1       0.182  -2.489  -1.724  1.00  0.00     0.195 HD
ATOM      9  O   UNL d   1      -2.245  -0.059   1.583  0.00  0.00    -0.246 OA
ATOM     10  O   UNL d   1       2.131   1.050   2.275  0.00  0.00    -0.272 OA
ATOM     11  C   UNL d   1      -1.727  -1.724  -0.509  0.00  0.00     0.162 C 
ATOM     12  C   UNL d   1      -0.389   1.030   3.266  0.00  0.00     0.164 C 
ENDROOT
BRANCH   7  13
ATOM     13  O   UNL d   1       2.216  -1.815  -1.668  0.00  0.00    -0.288 OA
ATOM     14  H   UNL d   1       2.273  -2.504  -2.358  0.00  0.00     0.244 HD
ENDBRANCH   7  13
TORSDOF 1
