REMARK  1 active torsions:
REMARK  status: ('A' for Active; 'I' for Inactive)
REMARK    1  A    between atoms: N_8  and  C_1 
ROOT
ATOM      1  C   UNL d   1       2.486   0.061  -0.049  0.00  0.00     0.143 A 
ATOM      2  N   UNL d   1       1.623   1.045  -0.014  0.00  0.00    -0.336 N 
ATOM      3  HN  UNL d   1       1.865   2.036   0.000  1.00  0.00     0.168 HD
ATOM      4  S   UNL d   1       1.820  -1.518  -0.012  0.00  0.00    -0.052 SA
ATOM      5  C   UNL d   1       0.235  -0.852   0.001  0.00  0.00     0.035 A 
ATOM      6  C   UNL d   1       0.332   0.541  -0.000  0.00  0.00     0.051 A 
ATOM      7  C   UNL d   1      -1.006  -1.512   0.009  0.00  0.00     0.028 A 
ATOM      8  C   UNL d   1      -0.855   1.300   0.008  0.00  0.00     0.031 A 
ATOM      9  C   UNL d   1      -2.178  -0.743   0.011  0.00  0.00    -0.061 A 
ATOM     10  C   UNL d   1      -2.096   0.653   0.011  0.00  0.00     0.009 A 
ATOM     11  C   UNL d   1      -3.525  -1.409   0.012  0.00  0.00     0.048 C 
ENDROOT
BRANCH   1  12
ATOM     12  N   UNL d   1       3.811   0.252  -0.109  0.00  0.00    -0.380 N 
ATOM     13  H   UNL d   1       4.167   1.185   0.052  0.00  0.00     0.158 HD
ATOM     14  H   UNL d   1       4.450  -0.514   0.066  0.00  0.00     0.158 HD
ENDBRANCH   1  12
TORSDOF 1
