REMARK  4 active torsions:
REMARK  status: ('A' for Active; 'I' for Inactive)
REMARK    1  A    between atoms: C_8  and  N_2 
REMARK    2  A    between atoms: C_9  and  C_12 
REMARK    3  A    between atoms: O_21  and  C_9 
REMARK    4  A    between atoms: C_24  and  O_21 
ROOT
ATOM      1  C   UNL d   1       2.429   0.708   0.016  0.00  0.00     0.266 A 
ATOM      2  N   UNL d   1       2.425  -0.693   0.089  0.00  0.00    -0.268 N 
ATOM      3  C   UNL d   1       1.240  -1.392   0.250  0.00  0.00     0.087 A 
ATOM      4  C   UNL d   1       1.126   1.375   0.146  0.00  0.00     0.060 A 
ATOM      5  N   UNL d   1       0.078  -0.821   0.345  0.00  0.00    -0.345 N 
ATOM      6  HN  UNL d   1      -0.768  -1.382   0.442  1.00  0.00     0.167 HD
ATOM      7  C   UNL d   1       0.003   0.573   0.312  0.00  0.00     0.049 A 
ATOM      8  O   UNL d   1       3.420   1.411  -0.174  0.00  0.00    -0.267 OA
ATOM      9  C   UNL d   1       1.026   2.772   0.110  0.00  0.00     0.038 A 
ATOM     10  C   UNL d   1      -1.244   1.187   0.470  0.00  0.00     0.032 A 
ATOM     11  C   UNL d   1      -0.223   3.365   0.268  0.00  0.00     0.012 A 
ATOM     12  C   UNL d   1       1.243  -2.902   0.383  0.00  0.00     0.089 C 
ATOM     13  C   UNL d   1      -1.359   2.580   0.452  0.00  0.00     0.021 A 
ATOM     14 BR   UNL d   1      -0.374   5.249   0.239  0.00  0.00    -0.051 Br
ENDROOT
BRANCH   2  15
ATOM     15  C   UNL d   1       3.688  -1.338  -0.049  0.00  0.00     0.044 A 
ATOM     16  C   UNL d   1       4.734  -1.002   0.823  0.00  0.00     0.031 A 
ATOM     17  C   UNL d   1       6.007  -1.544   0.653  0.00  0.00     0.020 A 
ATOM     18  C   UNL d   1       6.253  -2.423  -0.410  0.00  0.00     0.039 A 
ATOM     19  C   UNL d   1       5.203  -2.777  -1.274  0.00  0.00     0.020 A 
ATOM     20  C   UNL d   1       3.926  -2.239  -1.094  0.00  0.00     0.031 A 
BRANCH  18  21
ATOM     21  C   UNL d   1       7.652  -2.862  -0.646  0.00  0.00     0.293 C 
ATOM     22  O   UNL d   1       8.623  -2.329  -0.133  0.00  0.00    -0.259 OA
BRANCH  21  23
ATOM     23  O   UNL d   1       7.667  -3.859  -1.562  0.00  0.00    -0.318 OA
BRANCH  23  24
ATOM     24  C   UNL d   1       8.917  -4.075  -2.227  0.00  0.00     0.174 C 
ATOM     25  C   UNL d   1       8.860  -3.324  -3.544  0.00  0.00     0.034 C 
ENDBRANCH  23  24
ENDBRANCH  21  23
ENDBRANCH  18  21
ENDBRANCH   2  15
TORSDOF 4
