REMARK  4 active torsions:
REMARK  status: ('A' for Active; 'I' for Inactive)
REMARK    1  A    between atoms: N_4  and  C_1 
REMARK       I    between atoms: C_6  and  N_4 
REMARK    2  A    between atoms: N_11  and  C_5 
REMARK    3  A    between atoms: C_13  and  C_6 
REMARK    4  A    between atoms: C_15  and  N_11 
ROOT
ATOM      1  C   UNL d   1       0.830   1.210   0.040  0.00  0.00     0.686 A 
ATOM      2  N   UNL d   1       1.512   0.060   0.011  0.00  0.00    -0.176 N 
ATOM      3  HN  UNL d   1       2.530   0.053  -0.044  1.00  0.00     0.186 HD
ATOM      4  C   UNL d   1       0.810  -1.088   0.057  0.00  0.00     0.123 A 
ATOM      5  N   UNL d   1      -0.503   1.283   0.065  0.00  0.00    -0.196 N 
ATOM      6  HN  UNL d   1      -0.981   2.184   0.076  1.00  0.00     0.184 HD
ATOM      7  C   UNL d   1      -0.570  -1.097   0.093  0.00  0.00     0.074 A 
ATOM      8  C   UNL d   1      -1.195   0.130   0.075  0.00  0.00     0.026 A 
ATOM      9  C   UNL d   1      -2.687   0.245   0.039  0.00  0.00     0.069 C 
ENDROOT
BRANCH   4  10
ATOM     10  N   UNL d   1       1.486  -2.335   0.040  0.00  0.00    -0.342 N 
ATOM     11  H   UNL d   1       1.190  -2.903   0.825  0.00  0.00     0.167 HD
BRANCH  10  12
ATOM     12  C   UNL d   1       2.846  -2.508  -0.297  0.00  0.00     0.035 A 
ATOM     13  C   UNL d   1       3.412  -1.821  -1.384  0.00  0.00     0.056 A 
ATOM     14  C   UNL d   1       4.763  -1.960  -1.689  0.00  0.00     0.074 A 
ATOM     15 CL   UNL d   1       5.428  -1.075  -3.007  0.00  0.00    -0.081 Cl
ATOM     16  C   UNL d   1       5.559  -2.804  -0.921  0.00  0.00     0.138 A 
ATOM     17  C   UNL d   1       5.011  -3.521   0.138  0.00  0.00     0.046 A 
ATOM     18  F   UNL d   1       6.867  -2.940  -1.184  0.00  0.00    -0.204 F 
ATOM     19  C   UNL d   1       3.655  -3.380   0.444  0.00  0.00     0.032 A 
ENDBRANCH  10  12
ENDBRANCH   4  10
BRANCH   1  20
ATOM     20  N   UNL d   1       1.627   2.346   0.004  0.00  0.00    -0.159 N 
ATOM     21  C   UNL d   1       1.187   3.639   0.161  0.00  0.00     0.243 C 
ATOM     22  O   UNL d   1       0.035   3.959   0.446  0.00  0.00    -0.272 OA
ATOM     23  H   UNL d   1       2.607   2.135  -0.100  0.00  0.00     0.187 HD
BRANCH  21  24
ATOM     24  C   UNL d   1       2.273   4.720  -0.061  0.00  0.00     0.031 C 
ATOM     25  C   UNL d   1       2.766   4.671  -1.515  0.00  0.00     0.025 C 
ATOM     26  C   UNL d   1       1.657   6.108   0.203  0.00  0.00     0.025 C 
ATOM     27  C   UNL d   1       3.459   4.530   0.896  0.00  0.00     0.025 C 
ENDBRANCH  21  24
ENDBRANCH   1  20
TORSDOF 4
