REMARK  5 active torsions:
REMARK  status: ('A' for Active; 'I' for Inactive)
REMARK    1  A    between atoms: N_8  and  C_3 
REMARK    2  A    between atoms: O_13  and  C_4 
REMARK    3  A    between atoms: C_11  and  C_5 
REMARK       I    between atoms: C_10  and  N_8 
REMARK    4  A    between atoms: C_14  and  C_11 
REMARK    5  A    between atoms: C_17  and  C_14 
ROOT
ATOM      1  N   UNL d   1      -0.664   1.309  -0.027  0.00  0.00    -0.170 N 
ATOM      2  HN  UNL d   1      -1.095   2.233   0.005  1.00  0.00     0.186 HD
ATOM      3  C   UNL d   1      -1.386   0.196  -0.042  0.00  0.00     0.687 A 
ATOM      4  C   UNL d   1       0.656   1.147  -0.058  0.00  0.00     0.163 A 
ATOM      5  C   UNL d   1       1.336  -0.057  -0.097  0.00  0.00     0.016 A 
ATOM      6  N   UNL d   1      -0.863  -1.037  -0.107  0.00  0.00    -0.195 N 
ATOM      7  HN  UNL d   1      -1.463  -1.860  -0.159  1.00  0.00     0.184 HD
ATOM      8  C   UNL d   1       0.490  -1.158  -0.101  0.00  0.00     0.033 A 
ATOM      9  C   UNL d   1       0.956  -2.582  -0.028  0.00  0.00     0.069 C 
ENDROOT
BRANCH   3  10
ATOM     10  N   UNL d   1      -2.770   0.233   0.018  0.00  0.00    -0.160 N 
ATOM     11  C   UNL d   1      -3.519   1.345   0.309  0.00  0.00     0.231 C 
ATOM     12  O   UNL d   1      -3.099   2.458   0.613  0.00  0.00    -0.273 OA
ATOM     13  C   UNL d   1      -5.003   1.088   0.260  0.00  0.00     0.118 C 
ATOM     14  H   UNL d   1      -3.196  -0.675  -0.070  0.00  0.00     0.187 HD
ENDBRANCH   3  10
BRANCH   4  15
ATOM     15  O   UNL d   1       1.309   2.334  -0.005  0.00  0.00    -0.345 OA
ATOM     16  H   UNL d   1       0.544   2.939   0.054  0.00  0.00     0.219 HD
ENDBRANCH   4  15
BRANCH   5  17
ATOM     17  C   UNL d   1       2.838  -0.092  -0.035  0.00  0.00     0.045 C 
BRANCH  17  18
ATOM     18  C   UNL d   1       3.590  -0.723  -1.217  0.00  0.00     0.009 C 
BRANCH  18  19
ATOM     19  C   UNL d   1       3.291  -0.159  -2.617  0.00  0.00    -0.023 C 
ATOM     20  C   UNL d   1       3.622   1.327  -2.748  0.00  0.00     0.009 C 
ATOM     21  C   UNL d   1       4.097  -0.953  -3.652  0.00  0.00     0.009 C 
ENDBRANCH  18  19
ENDBRANCH  17  18
ENDBRANCH   5  17
TORSDOF 5
