REMARK  2 active torsions:
REMARK  status: ('A' for Active; 'I' for Inactive)
REMARK    1  A    between atoms: C_9  and  C_1 
REMARK    2  A    between atoms: N_3  and  C_8 
ROOT
ATOM      1  C   UNL d   1       3.373   1.427   0.001  0.00  0.00     0.051 A 
ATOM      2  C   UNL d   1       3.843   0.014   0.010  0.00  0.00     0.299 A 
ATOM      3  C   UNL d   1       2.063   1.726  -0.025  0.00  0.00     0.032 A 
ATOM      4  O   UNL d   1       2.863  -0.974  -0.023  0.00  0.00    -0.274 OA
ATOM      5  C   UNL d   1       1.065   0.667  -0.035  0.00  0.00     0.000 A 
ATOM      6  C   UNL d   1       1.492  -0.658  -0.036  0.00  0.00     0.089 A 
ATOM      7  O   UNL d   1       5.034  -0.275   0.045  0.00  0.00    -0.259 OA
ATOM      8  C   UNL d   1      -0.306   0.934  -0.036  0.00  0.00     0.033 A 
ATOM      9  C   UNL d   1       0.591  -1.721  -0.040  0.00  0.00     0.039 A 
ATOM     10  C   UNL d   1      -1.218  -0.126  -0.035  0.00  0.00     0.011 A 
ATOM     11  C   UNL d   1      -0.777  -1.451  -0.039  0.00  0.00     0.022 A 
ATOM     12 BR   UNL d   1      -3.074   0.237  -0.024  0.00  0.00    -0.051 Br
ENDROOT
BRANCH   1  13
ATOM     13  C   UNL d   1       4.346   2.533   0.039  0.00  0.00    -0.020 A 
ATOM     14  C   UNL d   1       4.793   3.033   1.271  0.00  0.00     0.015 A 
ATOM     15  C   UNL d   1       5.686   4.108   1.318  0.00  0.00     0.037 A 
ATOM     16  C   UNL d   1       6.137   4.685   0.124  0.00  0.00     0.102 A 
ATOM     17  C   UNL d   1       5.707   4.187  -1.113  0.00  0.00     0.037 A 
ATOM     18  C   UNL d   1       4.811   3.112  -1.151  0.00  0.00     0.015 A 
BRANCH  16  19
ATOM     19  N   UNL d   1       7.060   5.827   0.170  0.00  0.00    -0.116 N 
ATOM     20  O   UNL d   1       7.427   6.314  -0.908  0.00  0.00    -0.532 OA
ATOM     21  O   UNL d   1       7.406   6.244   1.285  0.00  0.00    -0.532 OA
ENDBRANCH  16  19
ENDBRANCH   1  13
TORSDOF 2
