REMARK  11 active torsions:
REMARK  status: ('A' for Active; 'I' for Inactive)
REMARK    1  A    between atoms: N_6  and  S_1 
REMARK    2  A    between atoms: C_9  and  S_1 
REMARK    3  A    between atoms: C_2  and  N_6 
REMARK    4  A    between atoms: C_16  and  N_3 
REMARK    5  A    between atoms: C_10  and  C_8 
REMARK    6  A    between atoms: C_11  and  C_23 
REMARK    7  A    between atoms: C_12  and  C_25 
REMARK    8  A    between atoms: O_19  and  C_17 
REMARK    9  A    between atoms: C_23  and  O_19 
REMARK   10  A    between atoms: O_35  and  C_24 
REMARK   11  A    between atoms: C_25  and  O_35 
ROOT
ATOM      1  S   UNL d   1       1.066  -0.136   0.032  0.00  0.00     0.249 S 
ATOM      2  O   UNL d   1       0.280   0.008  -1.168  0.00  0.00    -0.205 OA
ATOM      3  O   UNL d   1       2.502  -0.287   0.045  0.00  0.00    -0.205 OA
ENDROOT
BRANCH   1   4
ATOM      4  N   UNL d   1       0.390  -1.481   0.887  0.00  0.00    -0.165 NA
ATOM      5  H   UNL d   1      -0.563  -1.213   1.139  0.00  0.00     0.147 HD
BRANCH   4   6
ATOM      6  C   UNL d   1       0.330  -2.698   0.107  0.00  0.00     0.119 A 
ATOM      7  N   UNL d   1       1.304  -3.587  -0.338  0.00  0.00    -0.244 N 
ATOM      8  N   UNL d   1       0.754  -4.519  -1.177  0.00  0.00    -0.291 N 
ATOM      9  C   UNL d   1      -0.565  -4.306  -1.117  0.00  0.00     0.069 A 
ATOM     10  HN  UNL d   1       1.245  -5.224  -1.729  1.00  0.00     0.187 HD
ATOM     11  C   UNL d   1      -0.875  -3.185  -0.331  0.00  0.00     0.077 A 
BRANCH   7  12
ATOM     12  C   UNL d   1       2.661  -3.738   0.068  0.00  0.00     0.058 A 
ATOM     13  C   UNL d   1       3.110  -3.246   1.301  0.00  0.00     0.034 A 
ATOM     14  C   UNL d   1       4.434  -3.470   1.700  0.00  0.00     0.044 A 
ATOM     15  C   UNL d   1       5.303  -4.161   0.862  0.00  0.00     0.116 A 
ATOM     16  C   UNL d   1       4.872  -4.655  -0.362  0.00  0.00     0.044 A 
ATOM     17  F   UNL d   1       6.570  -4.364   1.248  0.00  0.00    -0.206 F 
ATOM     18  C   UNL d   1       3.545  -4.461  -0.754  0.00  0.00     0.034 A 
ENDBRANCH   7  12
BRANCH   9  19
ATOM     19  C   UNL d   1      -1.573  -5.173  -1.812  0.00  0.00     0.033 A 
ATOM     20  S   UNL d   1      -3.255  -4.846  -1.835  0.00  0.00    -0.100 SA
ATOM     21  C   UNL d   1      -3.582  -6.241  -2.763  0.00  0.00     0.050 A 
ATOM     22  C   UNL d   1      -2.437  -6.955  -3.040  0.00  0.00     0.008 A 
ATOM     23  C   UNL d   1      -1.273  -6.334  -2.494  0.00  0.00     0.021 A 
ENDBRANCH   9  19
ENDBRANCH   4   6
ENDBRANCH   1   4
BRANCH   1  24
ATOM     24  C   UNL d   1       0.660   1.251   1.089  0.00  0.00     0.110 A 
ATOM     25  C   UNL d   1       0.098   1.005   2.356  0.00  0.00     0.064 A 
ATOM     26  C   UNL d   1      -0.299   2.059   3.172  0.00  0.00     0.070 A 
ATOM     27  C   UNL d   1      -0.010   3.359   2.786  0.00  0.00     0.039 A 
ATOM     28  C   UNL d   1       0.573   3.613   1.544  0.00  0.00     0.041 A 
ATOM     29  C   UNL d   1       0.857   2.569   0.647  0.00  0.00     0.092 A 
BRANCH  26  30
ATOM     30  O   UNL d   1      -0.911   1.918   4.384  0.00  0.00    -0.342 OA
BRANCH  30  31
ATOM     31  C   UNL d   1      -1.881   0.860   4.482  0.00  0.00     0.293 C 
BRANCH  31  32
ATOM     32  C   UNL d   1      -1.309  -0.454   5.003  0.00  0.00     0.408 C 
ATOM     33  F   UNL d   1      -0.002  -0.361   5.328  0.00  0.00    -0.169 F 
ATOM     34  F   UNL d   1      -1.977  -0.888   6.092  0.00  0.00    -0.169 F 
ATOM     35  F   UNL d   1      -1.415  -1.415   4.050  0.00  0.00    -0.169 F 
ENDBRANCH  31  32
ENDBRANCH  30  31
ENDBRANCH  26  30
BRANCH  29  36
ATOM     36  O   UNL d   1       1.310   2.785  -0.628  0.00  0.00    -0.341 OA
BRANCH  36  37
ATOM     37  C   UNL d   1       1.212   4.136  -1.119  0.00  0.00     0.293 C 
BRANCH  37  38
ATOM     38  C   UNL d   1       1.394   4.258  -2.629  0.00  0.00     0.408 C 
ATOM     39  F   UNL d   1       1.877   3.142  -3.205  0.00  0.00    -0.169 F 
ATOM     40  F   UNL d   1       0.216   4.560  -3.228  0.00  0.00    -0.169 F 
ATOM     41  F   UNL d   1       2.249   5.271  -2.915  0.00  0.00    -0.169 F 
ENDBRANCH  37  38
ENDBRANCH  36  37
ENDBRANCH  29  36
ENDBRANCH   1  24
TORSDOF 11
