REMARK  11 active torsions:
REMARK  status: ('A' for Active; 'I' for Inactive)
REMARK    1  A    between atoms: C_7  and  C_1 
REMARK    2  A    between atoms: O_12  and  C_1 
REMARK    3  A    between atoms: C_8  and  C_2 
REMARK    4  A    between atoms: O_13  and  C_2 
REMARK    5  A    between atoms: C_9  and  C_4 
REMARK    6  A    between atoms: C_10  and  C_5 
REMARK    7  A    between atoms: C_11  and  C_6 
REMARK    8  A    between atoms: O_24  and  C_9 
REMARK    9  A    between atoms: O_25  and  C_10 
REMARK   10  A    between atoms: C_31  and  O_24 
REMARK   11  A    between atoms: C_30  and  O_25 
ROOT
ATOM      1  C   UNL d   1       0.761   1.326  -0.374  0.00  0.00     0.371 C 
ATOM      2  C   UNL d   1       0.809  -1.162  -0.285  0.00  0.00     0.371 C 
ATOM      3  N   UNL d   1       1.481   0.107   0.033  0.00  0.00     0.174 N 
ATOM      4  C   UNL d   1      -0.583  -1.187   0.402  0.00  0.00     0.170 C 
ATOM      5  C   UNL d   1      -0.690   1.369   0.182  0.00  0.00     0.170 C 
ATOM      6  C   UNL d   1      -1.440   0.037  -0.046  0.00  0.00     0.056 C 
ATOM      7  H   UNL d   1       2.382   0.128  -0.449  0.00  0.00     0.324 HD
ENDROOT
BRANCH   6   8
ATOM      8  C   UNL d   1      -2.870  -0.016   0.487  0.00  0.00    -0.052 A 
ATOM      9  C   UNL d   1      -3.248   0.560   1.708  0.00  0.00     0.009 A 
ATOM     10  C   UNL d   1      -4.579   0.527   2.133  0.00  0.00     0.019 A 
ATOM     11  C   UNL d   1      -5.545  -0.091   1.346  0.00  0.00     0.011 A 
ATOM     12  C   UNL d   1      -5.191  -0.685   0.139  0.00  0.00     0.019 A 
ATOM     13 BR   UNL d   1      -7.346  -0.120   1.917  0.00  0.00    -0.051 Br
ATOM     14  C   UNL d   1      -3.860  -0.650  -0.286  0.00  0.00     0.009 A 
ENDBRANCH   6   8
BRANCH   4  15
ATOM     15  C   UNL d   1      -0.373  -1.229   1.911  0.00  0.00     0.269 C 
ATOM     16  O   UNL d   1      -0.287  -0.233   2.624  0.00  0.00    -0.265 OA
BRANCH  15  17
ATOM     17  O   UNL d   1      -0.210  -2.506   2.350  0.00  0.00    -0.321 OA
BRANCH  17  18
ATOM     18  C   UNL d   1       0.431  -2.634   3.630  0.00  0.00     0.174 C 
ATOM     19  C   UNL d   1       1.940  -2.600   3.447  0.00  0.00     0.034 C 
ENDBRANCH  17  18
ENDBRANCH  15  17
ENDBRANCH   4  15
BRANCH   5  20
ATOM     20  C   UNL d   1      -1.412   2.518  -0.497  0.00  0.00     0.269 C 
ATOM     21  O   UNL d   1      -1.460   2.648  -1.708  0.00  0.00    -0.265 OA
BRANCH  20  22
ATOM     22  O   UNL d   1      -1.900   3.404   0.405  0.00  0.00    -0.321 OA
BRANCH  22  23
ATOM     23  C   UNL d   1      -2.535   4.566  -0.154  0.00  0.00     0.174 C 
ATOM     24  C   UNL d   1      -1.500   5.581  -0.610  0.00  0.00     0.034 C 
ENDBRANCH  22  23
ENDBRANCH  20  22
ENDBRANCH   5  20
BRANCH   2  25
ATOM     25  C   UNL d   1       0.684  -1.607  -1.824  0.00  0.00     0.449 C 
ATOM     26  F   UNL d   1       1.712  -1.116  -2.559  0.00  0.00    -0.166 F 
ATOM     27  F   UNL d   1       0.780  -2.962  -1.922  0.00  0.00    -0.166 F 
ATOM     28  F   UNL d   1      -0.473  -1.263  -2.417  0.00  0.00    -0.166 F 
ENDBRANCH   2  25
BRANCH   2  29
ATOM     29  O   UNL d   1       1.642  -2.156   0.343  0.00  0.00    -0.355 OA
ATOM     30  H   UNL d   1       2.416  -2.303  -0.229  0.00  0.00     0.213 HD
ENDBRANCH   2  29
BRANCH   1  31
ATOM     31  C   UNL d   1       1.523   2.646   0.116  0.00  0.00     0.449 C 
ATOM     32  F   UNL d   1       2.817   2.387   0.430  0.00  0.00    -0.166 F 
ATOM     33  F   UNL d   1       1.532   3.585  -0.860  0.00  0.00    -0.166 F 
ATOM     34  F   UNL d   1       0.950   3.208   1.203  0.00  0.00    -0.166 F 
ENDBRANCH   1  31
BRANCH   1  35
ATOM     35  O   UNL d   1       0.753   1.234  -1.802  0.00  0.00    -0.355 OA
ATOM     36  H   UNL d   1       0.255   2.000  -2.166  0.00  0.00     0.213 HD
ENDBRANCH   1  35
TORSDOF 11
