REMARK  2 active torsions:
REMARK  status: ('A' for Active; 'I' for Inactive)
REMARK    1  A    between atoms: C_6  and  N_1 
REMARK    2  A    between atoms: C_9  and  C_6 
ROOT
ATOM      1  C   UNL d   1      -0.046   2.306   0.001  0.00  0.00     0.174 C 
ENDROOT
BRANCH   1   2
ATOM      2  N   UNL d   1      -1.026   2.083  -1.038  0.00  0.00    -0.277 N 
ATOM      3  C   UNL d   1      -1.396   3.002  -1.962  0.00  0.00     0.250 A 
ATOM      4  C   UNL d   1      -2.426   2.380  -2.800  0.00  0.00     0.080 A 
ATOM      5  O   UNL d   1      -0.978   4.134  -2.131  0.00  0.00    -0.268 OA
ATOM      6  C   UNL d   1      -2.599   1.131  -2.367  0.00  0.00     0.080 A 
ATOM      7  C   UNL d   1      -1.688   0.918  -1.238  0.00  0.00     0.250 A 
ATOM      8  O   UNL d   1      -1.580  -0.139  -0.645  0.00  0.00    -0.268 OA
ENDBRANCH   1   2
BRANCH   1   9
ATOM      9  C   UNL d   1      -0.680   2.856   1.257  0.00  0.00    -0.040 A 
ATOM     10  C   UNL d   1      -1.155   1.996   2.256  0.00  0.00     0.009 A 
ATOM     11  C   UNL d   1      -1.769   2.511   3.401  0.00  0.00     0.007 A 
ATOM     12  C   UNL d   1      -1.927   3.892   3.565  0.00  0.00    -0.062 A 
ATOM     13  C   UNL d   1      -1.457   4.751   2.567  0.00  0.00     0.007 A 
ATOM     14  C   UNL d   1      -2.608   4.430   4.788  0.00  0.00     0.048 C 
ATOM     15  C   UNL d   1      -0.843   4.238   1.422  0.00  0.00     0.009 A 
ENDBRANCH   1   9
TORSDOF 2
