REMARK  6 active torsions:
REMARK  status: ('A' for Active; 'I' for Inactive)
REMARK    1  A    between atoms: C_2  and  C_1 
REMARK    2  A    between atoms: O_10  and  C_2 
REMARK    3  A    between atoms: N_3  and  C_4 
REMARK    4  A    between atoms: C_6  and  N_3 
REMARK    5  A    between atoms: C_5  and  C_6 
REMARK    6  A    between atoms: C_9  and  C_5 
ROOT
ATOM      1  N   UNL d   1       1.111  -2.620  -0.280  0.00  0.00    -0.382 N 
ATOM      2  H   UNL d   1       0.426  -3.322   0.004  0.00  0.00     0.160 HD
ENDROOT
BRANCH   1   3
ATOM      3  C   UNL d   1       0.657  -1.327   0.003  0.00  0.00     0.045 A 
ATOM      4  C   UNL d   1       1.395  -0.158   0.290  0.00  0.00     0.064 A 
ATOM      5  C   UNL d   1       0.736   1.086   0.450  0.00  0.00     0.020 A 
ATOM      6  C   UNL d   1      -0.638   1.208   0.264  0.00  0.00     0.001 A 
ATOM      7  C   UNL d   1      -1.376   0.083  -0.059  0.00  0.00     0.002 A 
ATOM      8  C   UNL d   1      -0.737  -1.154  -0.186  0.00  0.00     0.030 A 
BRANCH   4   9
ATOM      9  C   UNL d   1       2.862  -0.106   0.513  0.00  0.00     0.178 C 
ATOM     10  O   UNL d   1       3.478  -0.827   1.280  0.00  0.00    -0.646 OA
BRANCH   9  11
ATOM     11  O   UNL d   1       3.464   0.877  -0.198  0.00  0.00    -0.773 OA
ATOM     12  H   UNL d   1       2.877   1.358  -0.811  0.00  0.00     0.167 HD
ENDBRANCH   9  11
ENDBRANCH   4   9
ENDBRANCH   1   3
BRANCH   1  13
ATOM     13  C   UNL d   1       2.469  -3.105  -0.026  0.00  0.00     0.203 C 
BRANCH  13  14
ATOM     14  C   UNL d   1       2.582  -4.582  -0.406  0.00  0.00     0.176 C 
ATOM     15  O   UNL d   1       2.433  -5.488   0.419  0.00  0.00    -0.291 OA
BRANCH  14  16
ATOM     16  C   UNL d   1       2.864  -4.935  -1.821  0.00  0.00     0.011 A 
ATOM     17  C   UNL d   1       3.628  -6.076  -2.095  0.00  0.00     0.015 A 
ATOM     18  C   UNL d   1       3.903  -6.432  -3.417  0.00  0.00     0.001 A 
ATOM     19  C   UNL d   1       3.398  -5.661  -4.465  0.00  0.00     0.000 A 
ATOM     20  C   UNL d   1       2.619  -4.537  -4.195  0.00  0.00     0.001 A 
ATOM     21  C   UNL d   1       2.355  -4.170  -2.875  0.00  0.00     0.015 A 
ENDBRANCH  14  16
ENDBRANCH  13  14
ENDBRANCH   1  13
TORSDOF 6
