REMARK  5 active torsions:
REMARK  status: ('A' for Active; 'I' for Inactive)
REMARK    1  A    between atoms: C_2  and  C_1 
REMARK    2  A    between atoms: O_6  and  C_2 
REMARK    3  A    between atoms: C_11  and  C_3 
REMARK    4  A    between atoms: C_10  and  O_6 
REMARK    5  A    between atoms: N_9  and  C_7 
ROOT
ATOM      1  C   UNL d   1       1.044   0.262   0.043  0.00  0.00     0.120 C 
ATOM      2  C   UNL d   1       0.140  -0.508   0.691  0.00  0.00     0.040 C 
ATOM      3  C   UNL d   1       0.672   1.286  -0.869  0.00  0.00     0.105 C 
ATOM      4  N   UNL d   1       0.371   2.123  -1.616  0.00  0.00    -0.191 NA
ENDROOT
BRANCH   1   5
ATOM      5  C   UNL d   1       2.488  -0.029   0.283  0.00  0.00     0.304 C 
ATOM      6  O   UNL d   1       2.885  -0.967   0.954  0.00  0.00    -0.258 OA
BRANCH   5   7
ATOM      7  O   UNL d   1       3.277   0.868  -0.362  0.00  0.00    -0.307 OA
BRANCH   7   8
ATOM      8  C   UNL d   1       4.728   0.739  -0.359  0.00  0.00     0.060 C 
ATOM      9  C   UNL d   1       5.168  -0.573  -1.021  0.00  0.00     0.046 C 
ATOM     10  C   UNL d   1       5.239   1.915  -1.208  0.00  0.00     0.046 C 
ATOM     11  C   UNL d   1       5.305   0.876   1.054  0.00  0.00     0.046 C 
ENDBRANCH   7   8
ENDBRANCH   5   7
ENDBRANCH   1   5
BRANCH   2  12
ATOM     12  C   UNL d   1      -1.320  -0.430   0.541  0.00  0.00    -0.035 A 
ATOM     13  C   UNL d   1      -1.978  -1.324  -0.307  0.00  0.00     0.013 A 
ATOM     14  C   UNL d   1      -3.370  -1.260  -0.474  0.00  0.00     0.030 A 
ATOM     15  C   UNL d   1      -4.151  -0.314   0.203  0.00  0.00     0.029 A 
ATOM     16  C   UNL d   1      -3.471   0.559   1.071  0.00  0.00     0.030 A 
ATOM     17  C   UNL d   1      -2.078   0.509   1.239  0.00  0.00     0.013 A 
BRANCH  15  18
ATOM     18  N   UNL d   1      -5.523  -0.166   0.001  0.00  0.00    -0.390 N 
ATOM     19  C   UNL d   1      -6.128  -0.667  -1.231  0.00  0.00     0.149 C 
ATOM     20  C   UNL d   1      -6.386  -0.238   1.180  0.00  0.00     0.149 C 
ENDBRANCH  15  18
ENDBRANCH   2  12
TORSDOF 5
