REMARK  6 active torsions:
REMARK  status: ('A' for Active; 'I' for Inactive)
REMARK    1  A    between atoms: C_2  and  S_1 
REMARK    2  A    between atoms: N_4  and  S_1 
REMARK    3  A    between atoms: C_6  and  C_3 
REMARK    4  A    between atoms: C_5  and  N_4 
REMARK    5  A    between atoms: O_16  and  C_6 
REMARK    6  A    between atoms: N_9  and  C_10 
ROOT
ATOM      1  N   UNL d   1       0.057   1.712  -0.664  0.00  0.00    -0.278 N 
ATOM      2  H   UNL d   1       0.538   1.137  -1.349  0.00  0.00     0.179 HD
ENDROOT
BRANCH   1   3
ATOM      3  S   UNL d   1      -0.749   0.774   0.485  0.00  0.00     0.264 S 
ATOM      4  O   UNL d   1      -1.338  -0.341  -0.222  0.00  0.00    -0.200 OA
ATOM      5  O   UNL d   1       0.107   0.540   1.627  0.00  0.00    -0.200 OA
BRANCH   3   6
ATOM      6  C   UNL d   1      -2.130   1.614   1.141  0.00  0.00     0.104 A 
ATOM      7  C   UNL d   1      -3.463   1.582   0.712  0.00  0.00     0.101 A 
ATOM      8  S   UNL d   1      -4.435   2.612   1.728  0.00  0.00    -0.094 SA
ATOM      9  C   UNL d   1      -3.116   3.087   2.683  0.00  0.00     0.052 A 
ATOM     10  C   UNL d   1      -1.955   2.479   2.280  0.00  0.00     0.034 A 
BRANCH   7  11
ATOM     11  C   UNL d   1      -4.219   0.928  -0.355  0.00  0.00     0.184 C 
ATOM     12  O   UNL d   1      -5.293   1.331  -0.797  0.00  0.00    -0.646 OA
BRANCH  11  13
ATOM     13  O   UNL d   1      -3.708  -0.227  -0.827  0.00  0.00    -0.772 OA
ATOM     14  H   UNL d   1      -2.832  -0.510  -0.481  0.00  0.00     0.167 HD
ENDBRANCH  11  13
ENDBRANCH   7  11
ENDBRANCH   3   6
ENDBRANCH   1   3
BRANCH   1  15
ATOM     15  C   UNL d   1       0.785   2.866  -0.214  0.00  0.00     0.069 A 
ATOM     16  C   UNL d   1       2.125   2.874   0.262  0.00  0.00     0.058 A 
ATOM     17  C   UNL d   1       2.588   4.114   0.772  0.00  0.00     0.031 A 
ATOM     18  C   UNL d   1       1.802   5.270   0.802  0.00  0.00     0.002 A 
ATOM     19  C   UNL d   1       0.519   5.239   0.284  0.00  0.00     0.002 A 
ATOM     20  C   UNL d   1       0.018   4.045  -0.219  0.00  0.00     0.032 A 
BRANCH  16  21
ATOM     21  N   UNL d   1       3.063   1.841   0.207  0.00  0.00    -0.375 N 
ATOM     22  C   UNL d   1       2.978   0.726  -0.740  0.00  0.00     0.149 C 
ATOM     23  C   UNL d   1       4.378   0.120  -0.962  0.00  0.00     0.187 C 
ATOM     24  O   UNL d   1       4.970  -0.315   0.270  0.00  0.00    -0.388 OA
ATOM     25  C   UNL d   1       5.101   0.788   1.179  0.00  0.00     0.187 C 
ATOM     26  C   UNL d   1       3.745   1.463   1.472  0.00  0.00     0.149 C 
ENDBRANCH  16  21
ENDBRANCH   1  15
TORSDOF 6
