REMARK  3 active torsions:
REMARK  status: ('A' for Active; 'I' for Inactive)
REMARK    1  A    between atoms: C_3  and  C_1 
REMARK       I    between atoms: C_2  and  N_4 
REMARK    2  A    between atoms: C_5  and  C_2 
REMARK    3  A    between atoms: N_4  and  C_3 
ROOT
ATOM      1  C   UNL d   1      -1.212   4.535   0.093  0.00  0.00     0.251 C 
ATOM      2  N   UNL d   1      -1.269   3.166  -0.024  0.00  0.00    -0.352 N 
ATOM      3  O   UNL d   1      -0.187   5.159   0.345  0.00  0.00    -0.268 OA
ATOM      4  H   UNL d   1      -2.170   2.707  -0.032  0.00  0.00     0.163 HD
ENDROOT
BRANCH   2   5
ATOM      5  C   UNL d   1      -0.092   2.327   0.087  0.00  0.00     0.166 C 
BRANCH   5   6
ATOM      6  C   UNL d   1      -0.148   1.251   1.146  0.00  0.00     0.020 A 
ATOM      7  C   UNL d   1       0.937   0.369   1.315  0.00  0.00     0.044 A 
ATOM      8 CL   UNL d   1       2.356   0.473   0.329  0.00  0.00    -0.084 Cl
ATOM      9  C   UNL d   1       0.910  -0.644   2.283  0.00  0.00     0.024 A 
ATOM     10  C   UNL d   1      -0.201  -0.799   3.107  0.00  0.00     0.005 A 
ATOM     11  C   UNL d   1      -1.284   0.060   2.957  0.00  0.00     0.043 A 
ATOM     12  C   UNL d   1      -1.253   1.064   1.987  0.00  0.00     0.126 A 
ATOM     13  F   UNL d   1      -2.342   1.838   1.873  0.00  0.00    -0.205 F 
ENDBRANCH   5   6
ENDBRANCH   2   5
BRANCH   1  14
ATOM     14  C   UNL d   1      -2.492   5.270  -0.101  0.00  0.00     0.032 A 
ATOM     15  C   UNL d   1      -2.676   6.486   0.573  0.00  0.00     0.018 A 
ATOM     16  C   UNL d   1      -3.831   7.244   0.360  0.00  0.00     0.025 A 
ATOM     17  C   UNL d   1      -4.798   6.793  -0.537  0.00  0.00     0.034 A 
ATOM     18  C   UNL d   1      -4.627   5.583  -1.212  0.00  0.00     0.025 A 
ATOM     19 CL   UNL d   1      -6.200   7.744  -0.833  0.00  0.00    -0.084 Cl
ATOM     20  C   UNL d   1      -3.475   4.819  -0.993  0.00  0.00     0.018 A 
ENDBRANCH   1  14
TORSDOF 3
