REMARK  7 active torsions:
REMARK  status: ('A' for Active; 'I' for Inactive)
REMARK    1  A    between atoms: S_11  and  C_3 
REMARK    2  A    between atoms: C_6  and  C_10 
REMARK    3  A    between atoms: C_12  and  C_7 
REMARK    4  A    between atoms: O_15  and  C_9 
REMARK    5  A    between atoms: C_10  and  S_11 
REMARK    6  A    between atoms: O_18  and  C_12 
REMARK    7  A    between atoms: O_19  and  C_12 
ROOT
ATOM      1  N   UNL d   1      -0.394  -1.144   0.237  0.00  0.00    -0.318 N 
ATOM      2  HN  UNL d   1      -0.973  -1.983   0.251  1.00  0.00     0.170 HD
ATOM      3  C   UNL d   1       0.935  -1.198   0.380  0.00  0.00     0.146 A 
ATOM      4  N   UNL d   1       1.746  -0.130   0.327  0.00  0.00    -0.336 N 
ATOM      5  HN  UNL d   1       2.756  -0.230   0.435  1.00  0.00     0.168 HD
ATOM      6  C   UNL d   1       1.183   1.085   0.127  0.00  0.00     0.070 A 
ATOM      7  C   UNL d   1      -0.185   1.237   0.015  0.00  0.00     0.086 A 
ATOM      8  C   UNL d   1      -0.917   0.074   0.073  0.00  0.00     0.143 A 
ENDROOT
BRANCH   3   9
ATOM      9  S   UNL d   1       1.712  -2.769   0.663  0.00  0.00    -0.089 SA
BRANCH   9  10
ATOM     10  C   UNL d   1       0.509  -3.863  -0.153  0.00  0.00     0.124 C 
BRANCH  10  11
ATOM     11  C   UNL d   1       0.924  -5.317  -0.064  0.00  0.00    -0.005 A 
ATOM     12  C   UNL d   1       0.520  -6.129   1.016  0.00  0.00     0.042 A 
ATOM     13 CL   UNL d   1      -0.477  -5.528   2.299  0.00  0.00    -0.084 Cl
ATOM     14  C   UNL d   1       0.906  -7.473   1.102  0.00  0.00     0.024 A 
ATOM     15  C   UNL d   1       1.710  -8.037   0.119  0.00  0.00     0.003 A 
ATOM     16  C   UNL d   1       2.133  -7.256  -0.951  0.00  0.00     0.024 A 
ATOM     17  C   UNL d   1       1.749  -5.911  -1.041  0.00  0.00     0.042 A 
ATOM     18 CL   UNL d   1       2.336  -5.028  -2.410  0.00  0.00    -0.084 Cl
ENDBRANCH  10  11
ENDBRANCH   9  10
ENDBRANCH   3   9
BRANCH   8  19
ATOM     19  O   UNL d   1      -2.274   0.092  -0.069  0.00  0.00    -0.346 OA
ATOM     20  H   UNL d   1      -2.577   1.011  -0.070  0.00  0.00     0.219 HD
ENDBRANCH   8  19
BRANCH   6  21
ATOM     21  C   UNL d   1       2.093   2.310  -0.013  0.00  0.00     0.309 C 
BRANCH  21  22
ATOM     22  O   UNL d   1       2.255   2.881   1.290  0.00  0.00    -0.360 OA
ATOM     23  C   UNL d   1       2.984   4.100   1.257  0.00  0.00     0.205 C 
ENDBRANCH  21  22
BRANCH  21  24
ATOM     24  O   UNL d   1       3.366   1.990  -0.585  0.00  0.00    -0.360 OA
ATOM     25  C   UNL d   1       3.284   1.578  -1.942  0.00  0.00     0.205 C 
ENDBRANCH  21  24
ENDBRANCH   6  21
TORSDOF 7
