REMARK  6 active torsions:
REMARK  status: ('A' for Active; 'I' for Inactive)
REMARK    1  A    between atoms: C_7  and  C_3 
REMARK    2  A    between atoms: C_13  and  C_4 
REMARK    3  A    between atoms: C_8  and  O_11 
REMARK    4  A    between atoms: O_9  and  C_13 
REMARK    5  A    between atoms: C_10  and  O_9 
REMARK    6  A    between atoms: O_11  and  C_16 
ROOT
ATOM      1  N   UNL d   1       1.468  -0.559   0.082  0.00  0.00    -0.351 N 
ATOM      2  HN  UNL d   1       2.367  -1.039   0.028  1.00  0.00     0.166 HD
ATOM      3  C   UNL d   1       1.303   0.819   0.071  0.00  0.00     0.049 A 
ATOM      4  C   UNL d   1       0.297  -1.157   0.172  0.00  0.00     0.075 A 
ATOM      5  S   UNL d   1      -1.060  -0.100   0.284  0.00  0.00    -0.084 SA
ATOM      6  C   UNL d   1      -0.007   1.246   0.170  0.00  0.00     0.082 A 
ENDROOT
BRANCH   3   7
ATOM      7  C   UNL d   1       2.445   1.722  -0.013  0.00  0.00    -0.009 A 
ATOM      8  C   UNL d   1       2.347   2.983  -0.619  0.00  0.00     0.016 A 
ATOM      9  C   UNL d   1       3.448   3.850  -0.657  0.00  0.00     0.038 A 
ATOM     10  C   UNL d   1       4.656   3.469  -0.074  0.00  0.00     0.074 A 
ATOM     11  C   UNL d   1       4.776   2.196   0.484  0.00  0.00     0.038 A 
ATOM     12  C   UNL d   1       3.679   1.329   0.517  0.00  0.00     0.016 A 
BRANCH  10  13
ATOM     13  O   UNL d   1       5.783   4.240  -0.016  0.00  0.00    -0.290 OA
BRANCH  13  14
ATOM     14  C   UNL d   1       5.561   5.641  -0.028  0.00  0.00     0.505 C 
ATOM     15  F   UNL d   1       6.659   6.230   0.511  0.00  0.00    -0.184 F 
ATOM     16  F   UNL d   1       5.486   6.059  -1.316  0.00  0.00    -0.184 F 
ENDBRANCH  13  14
ENDBRANCH  10  13
ENDBRANCH   3   7
BRANCH   4  17
ATOM     17  C   UNL d   1       0.071  -2.640   0.088  0.00  0.00     0.240 C 
BRANCH  17  18
ATOM     18  O   UNL d   1      -0.070  -3.144   1.421  0.00  0.00    -0.343 OA
BRANCH  18  19
ATOM     19  C   UNL d   1      -0.390  -4.479   1.512  0.00  0.00     0.090 A 
ATOM     20  C   UNL d   1       0.169  -5.233   2.551  0.00  0.00     0.067 A 
ATOM     21 CL   UNL d   1       1.300  -4.543   3.658  0.00  0.00    -0.081 Cl
ATOM     22  C   UNL d   1      -0.171  -6.581   2.713  0.00  0.00     0.026 A 
ATOM     23  C   UNL d   1      -1.082  -7.184   1.847  0.00  0.00     0.002 A 
ATOM     24  C   UNL d   1      -1.658  -6.439   0.823  0.00  0.00     0.003 A 
ATOM     25  C   UNL d   1      -1.320  -5.091   0.661  0.00  0.00     0.038 A 
ENDBRANCH  18  19
ENDBRANCH  17  18
ENDBRANCH   4  17
TORSDOF 6
