REMARK  5 active torsions:
REMARK  status: ('A' for Active; 'I' for Inactive)
REMARK    1  A    between atoms: N_2  and  S_1 
REMARK    2  A    between atoms: C_4  and  S_1 
REMARK    3  A    between atoms: C_3  and  N_2 
REMARK    4  A    between atoms: O_5  and  C_7 
REMARK    5  A    between atoms: C_6  and  O_5 
ROOT
ATOM      1  C   UNL d   1       0.723   0.790   2.565  0.00  0.00     0.056 A 
ATOM      2  C   UNL d   1       2.040   0.509   2.961  0.00  0.00     0.098 A 
ATOM      3  C   UNL d   1      -0.255   1.037   3.532  0.00  0.00     0.027 A 
ATOM      4  C   UNL d   1       2.384   0.595   4.318  0.00  0.00     0.039 A 
ATOM      5  C   UNL d   1       0.081   1.045   4.886  0.00  0.00     0.002 A 
ATOM      6  C   UNL d   1       1.403   0.844   5.277  0.00  0.00     0.003 A 
ENDROOT
BRANCH   1   7
ATOM      7  N   UNL d   1       0.368   0.909   1.171  0.00  0.00    -0.179 NA
ATOM      8  H   UNL d   1       1.088   0.461   0.594  0.00  0.00     0.146 HD
BRANCH   7   9
ATOM      9  S   UNL d   1       0.289   2.530   0.615  0.00  0.00     0.245 S 
ATOM     10  O   UNL d   1       1.486   2.739  -0.170  0.00  0.00    -0.206 OA
ATOM     11  O   UNL d   1      -0.100   3.430   1.680  0.00  0.00    -0.206 OA
BRANCH   9  12
ATOM     12  C   UNL d   1      -1.093   2.451  -0.507  0.00  0.00     0.074 A 
ATOM     13  C   UNL d   1      -2.374   2.220   0.006  0.00  0.00     0.026 A 
ATOM     14  C   UNL d   1      -3.469   2.186  -0.862  0.00  0.00     0.025 A 
ATOM     15  C   UNL d   1      -3.278   2.393  -2.228  0.00  0.00     0.034 A 
ATOM     16  C   UNL d   1      -2.002   2.642  -2.737  0.00  0.00     0.025 A 
ATOM     17 CL   UNL d   1      -4.628   2.347  -3.295  0.00  0.00    -0.084 Cl
ATOM     18  C   UNL d   1      -0.902   2.674  -1.874  0.00  0.00     0.026 A 
ENDBRANCH   9  12
ENDBRANCH   7   9
ENDBRANCH   1   7
BRANCH   2  19
ATOM     19  O   UNL d   1       2.955   0.168   1.982  0.00  0.00    -0.307 OA
BRANCH  19  20
ATOM     20  C   UNL d   1       3.939  -0.748   2.307  0.00  0.00     0.098 A 
ATOM     21  C   UNL d   1       5.251  -0.511   1.877  0.00  0.00     0.069 A 
ATOM     22  C   UNL d   1       6.279  -1.393   2.225  0.00  0.00     0.050 A 
ATOM     23 CL   UNL d   1       5.647   0.873   0.926  0.00  0.00    -0.081 Cl
ATOM     24  C   UNL d   1       5.991  -2.517   2.996  0.00  0.00     0.035 A 
ATOM     25  C   UNL d   1       4.684  -2.788   3.392  0.00  0.00     0.026 A 
ATOM     26 CL   UNL d   1       7.260  -3.581   3.464  0.00  0.00    -0.084 Cl
ATOM     27  C   UNL d   1       3.653  -1.918   3.027  0.00  0.00     0.041 A 
ENDBRANCH  19  20
ENDBRANCH   2  19
TORSDOF 5
