REMARK  7 active torsions:
REMARK  status: ('A' for Active; 'I' for Inactive)
REMARK    1  A    between atoms: O_4  and  S_1 
REMARK    2  A    between atoms: C_5  and  S_1 
REMARK    3  A    between atoms: S_2  and  O_3 
REMARK    4  A    between atoms: C_6  and  S_2 
REMARK    5  A    between atoms: O_3  and  C_21 
REMARK    6  A    between atoms: C_22  and  O_4 
REMARK    7  A    between atoms: C_11  and  C_12 
ROOT
ATOM      1  C   UNL d   1       1.945  -3.867   5.420  0.00  0.00    -0.026 A 
ATOM      2  C   UNL d   1       2.899  -3.568   6.411  0.00  0.00     0.015 A 
ATOM      3  C   UNL d   1       1.350  -5.138   5.474  0.00  0.00     0.015 A 
ATOM      4  C   UNL d   1       2.672  -5.754   7.413  0.00  0.00     0.089 A 
ATOM      5  C   UNL d   1       1.701  -6.066   6.464  0.00  0.00     0.039 A 
ATOM      6  C   UNL d   1       3.263  -4.495   7.394  0.00  0.00     0.039 A 
ENDROOT
BRANCH   1   7
ATOM      7  C   UNL d   1       1.589  -2.870   4.383  0.00  0.00    -0.026 A 
ATOM      8  C   UNL d   1       2.554  -1.981   3.878  0.00  0.00     0.015 A 
ATOM      9  C   UNL d   1       2.227  -0.983   2.957  0.00  0.00     0.039 A 
ATOM     10  C   UNL d   1       0.914  -0.839   2.519  0.00  0.00     0.089 A 
ATOM     11  C   UNL d   1      -0.049  -1.750   2.948  0.00  0.00     0.039 A 
ATOM     12  C   UNL d   1       0.284  -2.747   3.876  0.00  0.00     0.015 A 
BRANCH  10  13
ATOM     13  O   UNL d   1       0.478   0.164   1.688  0.00  0.00    -0.229 OA
BRANCH  13  14
ATOM     14  S   UNL d   1       1.327   1.554   1.541  0.00  0.00     0.303 S 
ATOM     15  O   UNL d   1       2.333   1.370   0.510  0.00  0.00    -0.193 OA
ATOM     16  O   UNL d   1       1.706   2.035   2.858  0.00  0.00    -0.193 OA
BRANCH  14  17
ATOM     17  C   UNL d   1       0.138   2.722   0.920  0.00  0.00     0.086 A 
ATOM     18  C   UNL d   1      -0.695   3.383   1.828  0.00  0.00     0.026 A 
ATOM     19  C   UNL d   1      -1.502   4.430   1.383  0.00  0.00     0.008 A 
ATOM     20  C   UNL d   1      -1.476   4.822   0.039  0.00  0.00    -0.062 A 
ATOM     21  C   UNL d   1      -0.661   4.128  -0.867  0.00  0.00     0.008 A 
ATOM     22  C   UNL d   1      -2.281   6.009  -0.403  0.00  0.00     0.048 C 
ATOM     23  C   UNL d   1       0.150   3.080  -0.430  0.00  0.00     0.026 A 
ENDBRANCH  14  17
ENDBRANCH  13  14
ENDBRANCH  10  13
ENDBRANCH   1   7
BRANCH   4  24
ATOM     24  O   UNL d   1       2.938  -6.716   8.355  0.00  0.00    -0.229 OA
BRANCH  24  25
ATOM     25  S   UNL d   1       4.430  -6.876   9.002  0.00  0.00     0.303 S 
ATOM     26  O   UNL d   1       5.367  -7.232   7.950  0.00  0.00    -0.193 OA
ATOM     27  O   UNL d   1       4.698  -5.753   9.882  0.00  0.00    -0.193 OA
BRANCH  25  28
ATOM     28  C   UNL d   1       4.262  -8.305  10.054  0.00  0.00     0.086 A 
ATOM     29  C   UNL d   1       4.592  -9.571   9.568  0.00  0.00     0.026 A 
ATOM     30  C   UNL d   1       4.526 -10.673  10.423  0.00  0.00     0.008 A 
ATOM     31  C   UNL d   1       4.148 -10.513  11.764  0.00  0.00    -0.062 A 
ATOM     32  C   UNL d   1       3.817  -9.237  12.238  0.00  0.00     0.008 A 
ATOM     33  C   UNL d   1       4.105 -11.704  12.678  0.00  0.00     0.048 C 
ATOM     34  C   UNL d   1       3.879  -8.131  11.387  0.00  0.00     0.026 A 
ENDBRANCH  25  28
ENDBRANCH  24  25
ENDBRANCH   4  24
TORSDOF 7
