REMARK  5 active torsions:
REMARK  status: ('A' for Active; 'I' for Inactive)
REMARK    1  A    between atoms: C_2  and  C_1 
REMARK       I    between atoms: N_4  and  C_1 
REMARK    2  A    between atoms: C_5  and  C_3 
REMARK    3  A    between atoms: C_6  and  N_4 
REMARK       I    between atoms: N_7  and  C_5 
REMARK    4  A    between atoms: C_15  and  N_7 
REMARK    5  A    between atoms: C_14  and  C_15 
ROOT
ATOM      1  C   UNL d   1      -1.892   0.094   1.141  0.00  0.00     0.058 A 
ATOM      2  C   UNL d   1      -1.071   1.115   0.628  0.00  0.00     0.050 A 
ATOM      3  C   UNL d   1      -3.289   0.242   1.128  0.00  0.00     0.019 A 
ATOM      4  C   UNL d   1      -1.671   2.288   0.147  0.00  0.00     0.030 A 
ATOM      5  C   UNL d   1      -3.870   1.408   0.628  0.00  0.00     0.001 A 
ATOM      6  C   UNL d   1      -3.061   2.432   0.146  0.00  0.00     0.002 A 
ENDROOT
BRANCH   1   7
ATOM      7  C   UNL d   1      -1.348  -1.114   1.824  0.00  0.00     0.254 C 
ATOM      8  N   UNL d   1      -0.181  -0.919   2.534  0.00  0.00    -0.353 N 
ATOM      9  H   UNL d   1       0.162   0.029   2.639  0.00  0.00     0.163 HD
ATOM     10  O   UNL d   1      -1.953  -2.182   1.786  0.00  0.00    -0.268 OA
BRANCH   8  11
ATOM     11  C   UNL d   1       0.400  -1.947   3.364  0.00  0.00     0.162 C 
BRANCH  11  12
ATOM     12  C   UNL d   1       1.339  -2.827   2.594  0.00  0.00    -0.025 A 
ATOM     13  C   UNL d   1       2.681  -2.496   2.435  0.00  0.00     0.096 A 
ATOM     14  N   UNL d   1       3.577  -3.252   1.759  0.00  0.00    -0.375 N 
ATOM     15  C   UNL d   1       3.114  -4.401   1.219  0.00  0.00     0.087 A 
ATOM     16  HN  UNL d   1       4.552  -2.969   1.663  1.00  0.00     0.164 HD
ATOM     17  C   UNL d   1       1.796  -4.816   1.305  0.00  0.00     0.018 A 
ATOM     18  C   UNL d   1       0.896  -4.009   1.995  0.00  0.00     0.011 A 
ENDBRANCH  11  12
ENDBRANCH   8  11
ENDBRANCH   1   7
BRANCH   2  19
ATOM     19  N   UNL d   1       0.330   0.930   0.514  0.00  0.00    -0.322 N 
ATOM     20  C   UNL d   1       1.267   1.947   0.575  0.00  0.00     0.262 C 
ATOM     21  O   UNL d   1       1.013   3.079   0.974  0.00  0.00    -0.267 OA
ATOM     22  H   UNL d   1       0.656  -0.032   0.438  0.00  0.00     0.169 HD
BRANCH  20  23
ATOM     23  C   UNL d   1       2.653   1.609   0.172  0.00  0.00     0.109 A 
ATOM     24  C   UNL d   1       2.929   0.575  -0.724  0.00  0.00     0.135 A 
ATOM     25  F   UNL d   1       1.954  -0.228  -1.173  0.00  0.00    -0.205 F 
ATOM     26  C   UNL d   1       4.224   0.355  -1.195  0.00  0.00     0.043 A 
ATOM     27  C   UNL d   1       5.269   1.172  -0.767  0.00  0.00     0.006 A 
ATOM     28  C   UNL d   1       5.014   2.189   0.150  0.00  0.00     0.043 A 
ATOM     29  C   UNL d   1       3.716   2.401   0.614  0.00  0.00     0.135 A 
ATOM     30  F   UNL d   1       3.532   3.379   1.512  0.00  0.00    -0.205 F 
ENDBRANCH  20  23
ENDBRANCH   2  19
TORSDOF 5
