REMARK  3 active torsions:
REMARK  status: ('A' for Active; 'I' for Inactive)
REMARK    1  A    between atoms: S_7  and  C_1 
REMARK    2  A    between atoms: O_9  and  C_4 
REMARK    3  A    between atoms: C_11  and  S_7 
ROOT
ATOM      1  C   UNL d   1      -1.452  -1.462  -0.019  0.00  0.00     0.107 A 
ATOM      2  C   UNL d   1      -2.006  -0.067   0.040  0.00  0.00     0.267 A 
ATOM      3  N   UNL d   1      -1.091   0.986   0.043  0.00  0.00    -0.317 N 
ATOM      4  C   UNL d   1      -0.126  -1.668  -0.077  0.00  0.00     0.100 A 
ATOM      5  C   UNL d   1       0.817  -0.543  -0.022  0.00  0.00     0.025 A 
ATOM      6  C   UNL d   1       0.321   0.771   0.026  0.00  0.00     0.050 A 
ATOM      7  O   UNL d   1      -3.223   0.123   0.078  0.00  0.00    -0.266 OA
ATOM      8  C   UNL d   1      -1.612   2.346   0.055  0.00  0.00     0.159 C 
ATOM      9  C   UNL d   1       2.206  -0.756  -0.034  0.00  0.00     0.016 A 
ATOM     10  C   UNL d   1       1.231   1.842   0.056  0.00  0.00     0.031 A 
ATOM     11  C   UNL d   1       3.097   0.316  -0.001  0.00  0.00     0.001 A 
ATOM     12  C   UNL d   1       2.608   1.615   0.043  0.00  0.00     0.002 A 
ENDROOT
BRANCH   1  13
ATOM     13  S   UNL d   1      -2.590  -2.775  -0.153  0.00  0.00    -0.082 SA
BRANCH  13  14
ATOM     14  C   UNL d   1      -2.849  -3.190   1.567  0.00  0.00     0.005 A 
ATOM     15  C   UNL d   1      -3.337  -2.266   2.496  0.00  0.00     0.019 A 
ATOM     16  C   UNL d   1      -3.587  -2.649   3.818  0.00  0.00     0.001 A 
ATOM     17  C   UNL d   1      -3.367  -3.965   4.216  0.00  0.00     0.000 A 
ATOM     18  C   UNL d   1      -2.899  -4.900   3.295  0.00  0.00     0.001 A 
ATOM     19  C   UNL d   1      -2.644  -4.514   1.976  0.00  0.00     0.019 A 
ENDBRANCH  13  14
ENDBRANCH   1  13
BRANCH   4  20
ATOM     20  O   UNL d   1       0.441  -2.924  -0.221  0.00  0.00    -0.358 OA
ATOM     21  H   UNL d   1      -0.294  -3.558  -0.312  0.00  0.00     0.217 HD
ENDBRANCH   4  20
TORSDOF 3
