REMARK  4 active torsions:
REMARK  status: ('A' for Active; 'I' for Inactive)
REMARK    1  A    between atoms: C_5  and  C_1 
REMARK    2  A    between atoms: N_9  and  C_2 
REMARK    3  A    between atoms: C_7  and  N_10 
REMARK       I    between atoms: C_11  and  N_9 
REMARK    4  A    between atoms: N_10  and  N_12 
REMARK       I    between atoms: N_12  and  C_11 
ROOT
ATOM      1  N   UNL d   1       0.643  -2.253   0.174  0.00  0.00    -0.304 N 
ATOM      2  C   UNL d   1       0.947  -3.292  -0.650  0.00  0.00     0.335 C 
ATOM      3  N   UNL d   1       1.047  -3.073  -2.003  0.00  0.00    -0.268 N 
ATOM      4  O   UNL d   1       1.173  -4.394  -0.143  0.00  0.00    -0.246 OA
ATOM      5  H   UNL d   1       0.388  -2.666   1.070  0.00  0.00     0.171 HD
ATOM      6  H   UNL d   1       1.170  -2.147  -2.395  0.00  0.00     0.185 HD
ENDROOT
BRANCH   1   7
ATOM      7  C   UNL d   1      -0.120  -1.140  -0.141  0.00  0.00     0.097 A 
ATOM      8  C   UNL d   1      -1.544  -0.959  -0.228  0.00  0.00     0.097 A 
ATOM      9  N   UNL d   1      -1.822   0.357  -0.298  0.00  0.00    -0.258 N 
ATOM     10  O   UNL d   1      -0.629   1.028  -0.213  0.00  0.00    -0.240 OA
ATOM     11  HN  UNL d   1      -2.747   0.776  -0.396  1.00  0.00     0.195 HD
ATOM     12  C   UNL d   1       0.381   0.140  -0.057  0.00  0.00     0.101 A 
ATOM     13  C   UNL d   1       1.700   0.721   0.252  0.00  0.00     0.081 C 
BRANCH   8  14
ATOM     14  C   UNL d   1      -2.660  -1.915  -0.165  0.00  0.00     0.038 A 
ATOM     15  C   UNL d   1      -2.767  -2.878   0.861  0.00  0.00     0.048 A 
ATOM     16 CL   UNL d   1      -1.609  -3.053   2.138  0.00  0.00    -0.083 Cl
ATOM     17  C   UNL d   1      -3.889  -3.719   0.954  0.00  0.00     0.025 A 
ATOM     18  C   UNL d   1      -4.949  -3.589   0.064  0.00  0.00     0.003 A 
ATOM     19  C   UNL d   1      -4.876  -2.638  -0.945  0.00  0.00     0.025 A 
ATOM     20  C   UNL d   1      -3.740  -1.824  -1.075  0.00  0.00     0.048 A 
ATOM     21 CL   UNL d   1      -3.760  -0.732  -2.426  0.00  0.00    -0.083 Cl
ENDBRANCH   8  14
ENDBRANCH   1   7
BRANCH   3  22
ATOM     22  N   UNL d   1       1.521  -4.190  -2.734  0.00  0.00    -0.199 NA
ATOM     23  H   UNL d   1       2.099  -4.790  -2.128  0.00  0.00     0.153 HD
BRANCH  22  24
ATOM     24  C   UNL d   1       2.134  -3.989  -4.003  0.00  0.00     0.071 A 
ATOM     25  C   UNL d   1       3.267  -4.774  -4.335  0.00  0.00     0.058 A 
ATOM     26 CL   UNL d   1       4.024  -5.778  -3.139  0.00  0.00    -0.082 Cl
ATOM     27  C   UNL d   1       3.824  -4.782  -5.619  0.00  0.00     0.026 A 
ATOM     28  C   UNL d   1       3.251  -4.007  -6.621  0.00  0.00     0.003 A 
ATOM     29  C   UNL d   1       2.143  -3.216  -6.326  0.00  0.00     0.026 A 
ATOM     30  C   UNL d   1       1.589  -3.200  -5.034  0.00  0.00     0.058 A 
ATOM     31 CL   UNL d   1       0.176  -2.223  -4.812  0.00  0.00    -0.082 Cl
ENDBRANCH  22  24
ENDBRANCH   3  22
TORSDOF 4
