REMARK  4 active torsions:
REMARK  status: ('A' for Active; 'I' for Inactive)
REMARK    1  A    between atoms: C_7  and  N_1 
REMARK    2  A    between atoms: C_9  and  C_2 
REMARK    3  A    between atoms: C_5  and  C_10 
REMARK    4  A    between atoms: C_6  and  C_11 
ROOT
ATOM      1  N   UNL d   1      -0.616  -1.171   0.207  0.00  0.00    -0.299 N 
ATOM      2  C   UNL d   1       0.782  -1.329  -0.158  0.00  0.00     0.188 C 
ATOM      3  S   UNL d   1       1.490   0.347  -0.227  0.00  0.00    -0.129 SA
ATOM      4  C   UNL d   1      -1.153   0.107   0.058  0.00  0.00     0.235 C 
ATOM      5  C   UNL d   1      -0.118   1.136  -0.331  0.00  0.00     0.179 C 
ATOM      6  O   UNL d   1      -2.344   0.406   0.159  0.00  0.00    -0.272 OA
ENDROOT
BRANCH   1   7
ATOM      7  C   UNL d   1      -1.448  -2.298   0.446  0.00  0.00     0.038 A 
ATOM      8  C   UNL d   1      -1.300  -3.480  -0.285  0.00  0.00     0.030 A 
ATOM      9  C   UNL d   1      -2.105  -4.585  -0.014  0.00  0.00     0.018 A 
ATOM     10  C   UNL d   1      -3.046  -4.552   1.026  0.00  0.00     0.048 A 
ATOM     11  C   UNL d   1      -3.182  -3.372   1.770  0.00  0.00     0.018 A 
ATOM     12  C   UNL d   1      -2.407  -2.250   1.468  0.00  0.00     0.030 A 
BRANCH  10  13
ATOM     13  C   UNL d   1      -3.894  -5.766   1.315  0.00  0.00     0.417 C 
ATOM     14  F   UNL d   1      -4.671  -5.644   2.423  0.00  0.00    -0.166 F 
ATOM     15  F   UNL d   1      -4.741  -6.061   0.291  0.00  0.00    -0.166 F 
ATOM     16  F   UNL d   1      -3.141  -6.888   1.508  0.00  0.00    -0.166 F 
ENDBRANCH  10  13
ENDBRANCH   1   7
BRANCH   2  17
ATOM     17  C   UNL d   1       1.625  -2.189   0.774  0.00  0.00    -0.025 A 
ATOM     18  C   UNL d   1       2.749  -2.859   0.259  0.00  0.00     0.011 A 
ATOM     19  C   UNL d   1       3.630  -3.540   1.104  0.00  0.00     0.017 A 
ATOM     20  C   UNL d   1       3.408  -3.574   2.487  0.00  0.00     0.047 A 
ATOM     21  C   UNL d   1       2.257  -2.958   3.000  0.00  0.00     0.017 A 
ATOM     22  C   UNL d   1       1.385  -2.264   2.157  0.00  0.00     0.011 A 
BRANCH  20  23
ATOM     23  C   UNL d   1       4.405  -4.207   3.426  0.00  0.00     0.417 C 
ATOM     24  F   UNL d   1       5.501  -4.715   2.795  0.00  0.00    -0.166 F 
ATOM     25  F   UNL d   1       4.886  -3.319   4.341  0.00  0.00    -0.166 F 
ATOM     26  F   UNL d   1       3.876  -5.234   4.144  0.00  0.00    -0.166 F 
ENDBRANCH  20  23
ENDBRANCH   2  17
TORSDOF 4
