REMARK  2 active torsions:
REMARK  status: ('A' for Active; 'I' for Inactive)
REMARK    1  A    between atoms: C_10  and  C_5 
REMARK    2  A    between atoms: N_8  and  C_10 
ROOT
ATOM      1  C   UNL d   1       1.063  -0.735   0.714  0.00  0.00     0.259 A 
ATOM      2  N   UNL d   1       1.899   0.345   0.679  0.00  0.00    -0.311 N 
ATOM      3  N   UNL d   1       0.457   1.740  -0.534  0.00  0.00    -0.344 N 
ATOM      4  HN  UNL d   1       0.263   2.629  -0.996  1.00  0.00     0.167 HD
ATOM      5  C   UNL d   1       1.604   1.508   0.018  0.00  0.00     0.113 A 
ATOM      6  C   UNL d   1      -0.264  -0.523   0.112  0.00  0.00     0.059 A 
ATOM      7  C   UNL d   1      -0.514   0.723  -0.475  0.00  0.00     0.049 A 
ATOM      8  O   UNL d   1       1.397  -1.814   1.194  0.00  0.00    -0.267 OA
ATOM      9  C   UNL d   1      -1.233  -1.530   0.127  0.00  0.00     0.019 A 
ATOM     10  C   UNL d   1      -1.773   0.953  -1.034  0.00  0.00     0.030 A 
ATOM     11  C   UNL d   1      -2.482  -1.287  -0.442  0.00  0.00     0.001 A 
ATOM     12  C   UNL d   1      -2.753  -0.044  -1.017  0.00  0.00     0.002 A 
ATOM     13  H   UNL d   1       2.846   0.230   1.024  0.00  0.00     0.170 HD
ENDROOT
BRANCH   5  14
ATOM     14  C   UNL d   1       2.711   2.553   0.004  0.00  0.00     0.348 C 
BRANCH  14  15
ATOM     15  N   UNL d   1       4.059   1.919   0.058  0.00  0.00     0.095 N 
ATOM     16  C   UNL d   1       4.361   1.250  -1.226  0.00  0.00     0.273 C 
ATOM     17  C   UNL d   1       5.790   0.710  -1.288  0.00  0.00     0.030 C 
ATOM     18  C   UNL d   1       6.801   1.815  -1.021  0.00  0.00     0.003 C 
ATOM     19  C   UNL d   1       6.496   2.462   0.322  0.00  0.00     0.030 C 
ATOM     20  C   UNL d   1       5.053   2.965   0.373  0.00  0.00     0.273 C 
ENDBRANCH  14  15
ENDBRANCH   5  14
TORSDOF 2
