REMARK  6 active torsions:
REMARK  status: ('A' for Active; 'I' for Inactive)
REMARK    1  A    between atoms: C_7  and  C_1 
REMARK    2  A    between atoms: C_10  and  C_2 
REMARK    3  A    between atoms: C_12  and  N_3 
REMARK    4  A    between atoms: S_4  and  N_9 
REMARK    5  A    between atoms: C_15  and  S_4 
REMARK    6  A    between atoms: N_9  and  N_11 
REMARK       I    between atoms: N_11  and  C_10 
ROOT
ATOM      1  C   UNL d   1       1.078  -0.706   0.115  0.00  0.00     0.157 C 
ATOM      2  C   UNL d   1      -0.185  -1.297   0.031  0.00  0.00     0.084 C 
ATOM      3  N   UNL d   1       0.888   0.661  -0.021  0.00  0.00    -0.251 N 
ATOM      4  N   UNL d   1      -0.405   0.938  -0.332  0.00  0.00    -0.303 N 
ATOM      5  HN  UNL d   1      -0.796   1.839  -0.607  1.00  0.00     0.186 HD
ATOM      6  C   UNL d   1      -1.052  -0.216  -0.199  0.00  0.00     0.127 C 
ENDROOT
BRANCH   2   7
ATOM      7  C   UNL d   1      -0.589  -2.693   0.156  0.00  0.00     0.274 C 
ATOM      8  N   UNL d   1       0.276  -3.604  -0.408  0.00  0.00    -0.256 N 
ATOM      9  H   UNL d   1       1.092  -3.320  -0.948  0.00  0.00     0.191 HD
ATOM     10  O   UNL d   1      -1.641  -3.018   0.697  0.00  0.00    -0.266 OA
BRANCH   8  11
ATOM     11  N   UNL d   1       0.068  -5.021  -0.249  0.00  0.00    -0.220 N 
ATOM     12  H   UNL d   1      -0.761  -5.382   0.233  0.00  0.00     0.200 HD
BRANCH  11  13
ATOM     13  S   UNL d   1       1.076  -6.115  -1.045  0.00  0.00     0.276 S 
ATOM     14  O   UNL d   1       0.521  -7.438  -0.853  0.00  0.00    -0.199 OA
ATOM     15  O   UNL d   1       1.342  -5.576  -2.362  0.00  0.00    -0.199 OA
BRANCH  13  16
ATOM     16  C   UNL d   1       2.579  -5.999  -0.101  0.00  0.00     0.081 A 
ATOM     17  C   UNL d   1       2.749  -6.786   1.040  0.00  0.00     0.025 A 
ATOM     18  C   UNL d   1       3.941  -6.698   1.762  0.00  0.00     0.002 A 
ATOM     19  C   UNL d   1       4.955  -5.832   1.344  0.00  0.00     0.000 A 
ATOM     20  C   UNL d   1       4.789  -5.063   0.192  0.00  0.00     0.002 A 
ATOM     21  C   UNL d   1       3.608  -5.158  -0.542  0.00  0.00     0.025 A 
ENDBRANCH  13  16
ENDBRANCH  11  13
ENDBRANCH   8  11
ENDBRANCH   2   7
BRANCH   1  22
ATOM     22  C   UNL d   1       2.409  -1.301   0.286  0.00  0.00     0.435 C 
ATOM     23  F   UNL d   1       2.443  -2.572  -0.181  0.00  0.00    -0.165 F 
ATOM     24  F   UNL d   1       3.384  -0.658  -0.396  0.00  0.00    -0.165 F 
ATOM     25  F   UNL d   1       2.777  -1.357   1.587  0.00  0.00    -0.165 F 
ENDBRANCH   1  22
BRANCH   3  26
ATOM     26  C   UNL d   1       1.810   1.748   0.083  0.00  0.00     0.057 A 
ATOM     27  C   UNL d   1       1.555   2.918  -0.653  0.00  0.00     0.033 A 
ATOM     28  C   UNL d   1       2.469   3.977  -0.643  0.00  0.00     0.026 A 
ATOM     29  C   UNL d   1       3.628   3.885   0.122  0.00  0.00     0.034 A 
ATOM     30  C   UNL d   1       3.867   2.754   0.898  0.00  0.00     0.026 A 
ATOM     31 CL   UNL d   1       4.765   5.175   0.119  0.00  0.00    -0.084 Cl
ATOM     32  C   UNL d   1       2.955   1.692   0.889  0.00  0.00     0.033 A 
ENDBRANCH   3  26
TORSDOF 6
