REMARK  4 active torsions:
REMARK  status: ('A' for Active; 'I' for Inactive)
REMARK    1  A    between atoms: N_5  and  C_1 
REMARK    2  A    between atoms: C_10  and  N_5 
REMARK    3  A    between atoms: O_18  and  C_12 
REMARK    4  A    between atoms: C_22  and  O_18 
ROOT
ATOM      1  C   UNL d   1       1.010  -1.683   0.486  0.00  0.00     0.118 C 
ATOM      2  C   UNL d   1       1.585  -1.290  -0.897  0.00  0.00     0.100 C 
ATOM      3  S   UNL d   1       0.756  -3.514   0.514  0.00  0.00    -0.125 SA
ATOM      4  C   UNL d   1      -0.328  -0.887   0.549  0.00  0.00    -0.013 A 
ATOM      5  C   UNL d   1       2.120  -2.558  -1.512  0.00  0.00     0.143 C 
ATOM      6  C   UNL d   1       1.279  -3.770  -1.188  0.00  0.00     0.155 C 
ATOM      7  C   UNL d   1      -0.315   0.535   0.536  0.00  0.00    -0.049 A 
ATOM      8  O   UNL d   1       3.045  -2.595  -2.312  0.00  0.00    -0.297 OA
ATOM      9  C   UNL d   1       2.504  -0.067  -0.969  0.00  0.00     0.016 C 
ATOM     10  C   UNL d   1      -1.581  -1.524   0.376  0.00  0.00     0.011 A 
ATOM     11  C   UNL d   1       1.784   1.261  -0.702  0.00  0.00     0.006 C 
ATOM     12  C   UNL d   1       0.969   1.342   0.592  0.00  0.00     0.039 C 
ATOM     13  C   UNL d   1      -1.520   1.245   0.356  0.00  0.00     0.008 A 
ATOM     14  C   UNL d   1      -2.758  -0.803   0.170  0.00  0.00     0.001 A 
ATOM     15  C   UNL d   1      -2.728   0.582   0.159  0.00  0.00     0.001 A 
ENDROOT
BRANCH   1  16
ATOM     16  N   UNL d   1       1.826  -1.360   1.669  0.00  0.00    -0.367 N 
ATOM     17  H   UNL d   1       1.338  -1.645   2.517  0.00  0.00     0.161 HD
BRANCH  16  18
ATOM     18  C   UNL d   1       3.200  -1.514   1.832  0.00  0.00     0.029 A 
ATOM     19  C   UNL d   1       3.864  -0.645   2.709  0.00  0.00     0.032 A 
ATOM     20  C   UNL d   1       5.262  -0.666   2.849  0.00  0.00     0.039 A 
ATOM     21  C   UNL d   1       6.030  -1.592   2.149  0.00  0.00     0.068 A 
ATOM     22  C   UNL d   1       5.380  -2.508   1.331  0.00  0.00     0.039 A 
ATOM     23  C   UNL d   1       3.985  -2.476   1.194  0.00  0.00     0.032 A 
BRANCH  21  24
ATOM     24  O   UNL d   1       7.386  -1.496   2.316  0.00  0.00    -0.352 OA
BRANCH  24  25
ATOM     25  C   UNL d   1       8.151  -2.638   1.923  0.00  0.00     0.171 C 
ATOM     26  C   UNL d   1       9.620  -2.356   2.184  0.00  0.00     0.034 C 
ENDBRANCH  24  25
ENDBRANCH  21  24
ENDBRANCH  16  18
ENDBRANCH   1  16
TORSDOF 4
