REMARK  6 active torsions:
REMARK  status: ('A' for Active; 'I' for Inactive)
REMARK    1  A    between atoms: N_7  and  C_1 
REMARK    2  A    between atoms: N_6  and  C_2 
REMARK    3  A    between atoms: S_8  and  C_3 
REMARK    4  A    between atoms: S_9  and  C_4 
REMARK    5  A    between atoms: C_14  and  S_8 
REMARK    6  A    between atoms: C_15  and  S_9 
ROOT
ATOM      1  C   UNL d   1       1.554   0.660   0.026  0.00  0.00     0.161 A 
ATOM      2  C   UNL d   1       1.542  -0.759  -0.144  0.00  0.00     0.161 A 
ATOM      3  C   UNL d   1       0.285   1.204   0.035  0.00  0.00     0.083 A 
ATOM      4  C   UNL d   1       0.264  -1.282  -0.101  0.00  0.00     0.083 A 
ATOM      5  S   UNL d   1      -0.907  -0.030  -0.016  0.00  0.00    -0.070 SA
ENDROOT
BRANCH   3   6
ATOM      6  S   UNL d   1      -0.191   2.900   0.152  0.00  0.00    -0.081 SA
BRANCH   6   7
ATOM      7  C   UNL d   1      -0.276   3.302  -1.588  0.00  0.00     0.006 A 
ATOM      8  C   UNL d   1      -1.441   3.055  -2.325  0.00  0.00     0.019 A 
ATOM      9  C   UNL d   1      -1.520   3.426  -3.671  0.00  0.00     0.001 A 
ATOM     10  C   UNL d   1      -0.440   4.057  -4.286  0.00  0.00     0.000 A 
ATOM     11  C   UNL d   1       0.716   4.323  -3.554  0.00  0.00     0.001 A 
ATOM     12  C   UNL d   1       0.797   3.951  -2.209  0.00  0.00     0.019 A 
ENDBRANCH   6   7
ENDBRANCH   3   6
BRANCH   1  13
ATOM     13  N   UNL d   1       2.746   1.440   0.139  0.00  0.00    -0.111 N 
ATOM     14  O   UNL d   1       3.512   1.408  -0.830  0.00  0.00    -0.532 OA
ATOM     15  O   UNL d   1       2.911   2.057   1.194  0.00  0.00    -0.532 OA
ENDBRANCH   1  13
BRANCH   2  16
ATOM     16  N   UNL d   1       2.717  -1.558  -0.295  0.00  0.00    -0.111 N 
ATOM     17  O   UNL d   1       3.545  -1.489   0.620  0.00  0.00    -0.532 OA
ATOM     18  O   UNL d   1       2.809  -2.228  -1.326  0.00  0.00    -0.532 OA
ENDBRANCH   2  16
BRANCH   4  19
ATOM     19  S   UNL d   1      -0.242  -2.972  -0.169  0.00  0.00    -0.081 SA
BRANCH  19  20
ATOM     20  C   UNL d   1      -0.230  -3.342   1.580  0.00  0.00     0.006 A 
ATOM     21  C   UNL d   1      -1.357  -3.085   2.372  0.00  0.00     0.019 A 
ATOM     22  C   UNL d   1      -1.359  -3.423   3.729  0.00  0.00     0.001 A 
ATOM     23  C   UNL d   1      -0.241  -4.025   4.301  0.00  0.00     0.000 A 
ATOM     24  C   UNL d   1       0.878  -4.299   3.517  0.00  0.00     0.001 A 
ATOM     25  C   UNL d   1       0.883  -3.963   2.160  0.00  0.00     0.019 A 
ENDBRANCH  19  20
ENDBRANCH   4  19
TORSDOF 6
