REMARK  3 active torsions:
REMARK  status: ('A' for Active; 'I' for Inactive)
REMARK    1  A    between atoms: C_4  and  C_1 
REMARK    2  A    between atoms: O_17  and  C_3 
REMARK    3  A    between atoms: C_13  and  N_5 
ROOT
ATOM      1  C   UNL d   1      -0.280   3.469  -0.035  0.00  0.00     0.102 C 
ATOM      2  N   UNL d   1       0.698   4.312   0.076  0.00  0.00    -0.365 N 
ATOM      3  HN  UNL d   1       1.657   3.978   0.172  1.00  0.00     0.165 HD
ENDROOT
BRANCH   1   4
ATOM      4  C   UNL d   1      -0.058   2.009  -0.013  0.00  0.00     0.016 A 
ATOM      5  C   UNL d   1      -1.152   1.136  -0.057  0.00  0.00     0.099 A 
ATOM      6  C   UNL d   1      -0.935  -0.246  -0.046  0.00  0.00     0.069 A 
ATOM      7 CL   UNL d   1      -2.273  -1.335  -0.100  0.00  0.00    -0.081 Cl
ATOM      8  C   UNL d   1       0.358  -0.760   0.009  0.00  0.00     0.050 A 
ATOM      9  C   UNL d   1       1.441   0.116   0.055  0.00  0.00     0.036 A 
ATOM     10  C   UNL d   1       1.242   1.498   0.047  0.00  0.00     0.039 A 
ATOM     11 CL   UNL d   1       3.040  -0.512   0.124  0.00  0.00    -0.084 Cl
BRANCH   5  12
ATOM     12  O   UNL d   1      -2.423   1.641  -0.106  0.00  0.00    -0.358 OA
ATOM     13  H   UNL d   1      -3.047   0.889  -0.128  0.00  0.00     0.217 HD
ENDBRANCH   5  12
ENDBRANCH   1   4
BRANCH   2  14
ATOM     14  C   UNL d   1       0.428   5.693   0.063  0.00  0.00     0.033 A 
ATOM     15  C   UNL d   1      -0.732   6.263   0.604  0.00  0.00     0.055 A 
ATOM     16  C   UNL d   1      -0.931   7.647   0.581  0.00  0.00     0.058 A 
ATOM     17 CL   UNL d   1      -2.410   8.251   1.242  0.00  0.00    -0.082 Cl
ATOM     18  C   UNL d   1       0.047   8.486   0.041  0.00  0.00     0.055 A 
ATOM     19  C   UNL d   1       1.220   7.933  -0.474  0.00  0.00     0.028 A 
ATOM     20 CL   UNL d   1      -0.128  10.203  -0.007  0.00  0.00    -0.083 Cl
ATOM     21  C   UNL d   1       1.404   6.545  -0.462  0.00  0.00     0.031 A 
ENDBRANCH   2  14
TORSDOF 3
