REMARK  6 active torsions:
REMARK  status: ('A' for Active; 'I' for Inactive)
REMARK       I    between atoms: C_3  and  N_4 
REMARK    1  A    between atoms: C_13  and  C_3 
REMARK    2  A    between atoms: N_4  and  C_6 
REMARK    3  A    between atoms: C_5  and  C_14 
REMARK    4  A    between atoms: O_12  and  C_5 
REMARK    5  A    between atoms: O_11  and  C_13 
REMARK    6  A    between atoms: C_14  and  O_11 
ROOT
ATOM      1  N   UNL d   1      -3.089  -0.413  -0.226  0.00  0.00    -0.191 NA
ATOM      2  C   UNL d   1      -1.940  -0.285  -0.152  0.00  0.00     0.099 C 
ATOM      3  C   UNL d   1       1.435   1.306   0.006  0.00  0.00     0.036 A 
ATOM      4  C   UNL d   1      -0.516  -0.137  -0.066  0.00  0.00     0.046 A 
ATOM      5  C   UNL d   1       0.050   1.143  -0.065  0.00  0.00     0.052 A 
ATOM      6  C   UNL d   1       1.686  -1.111   0.091  0.00  0.00     0.004 A 
ATOM      7  C   UNL d   1       2.249   0.169   0.088  0.00  0.00     0.029 A 
ATOM      8  C   UNL d   1       0.304  -1.265   0.010  0.00  0.00     0.023 A 
ENDROOT
BRANCH   3   9
ATOM      9  N   UNL d   1       2.072   2.563  -0.015  0.00  0.00    -0.325 N 
ATOM     10  C   UNL d   1       1.466   3.808  -0.069  0.00  0.00     0.245 C 
ATOM     11  O   UNL d   1       0.262   4.040  -0.043  0.00  0.00    -0.271 OA
ATOM     12  H   UNL d   1       3.084   2.563  -0.024  0.00  0.00     0.169 HD
BRANCH  10  13
ATOM     13  C   UNL d   1       2.478   4.953  -0.104  0.00  0.00     0.271 C 
BRANCH  13  14
ATOM     14  O   UNL d   1       3.469   4.749  -1.119  0.00  0.00    -0.372 OA
BRANCH  14  15
ATOM     15  C   UNL d   1       4.238   5.938  -1.326  0.00  0.00     0.277 C 
BRANCH  15  16
ATOM     16  C   UNL d   1       5.262   6.094  -0.214  0.00  0.00     0.164 C 
ATOM     17  O   UNL d   1       5.463   7.121   0.412  0.00  0.00    -0.648 OA
BRANCH  16  18
ATOM     18  O   UNL d   1       5.921   4.932   0.029  0.00  0.00    -0.775 OA
ATOM     19  H   UNL d   1       5.598   4.225  -0.568  0.00  0.00     0.167 HD
ENDBRANCH  16  18
ENDBRANCH  15  16
ENDBRANCH  14  15
ENDBRANCH  13  14
ENDBRANCH  10  13
ENDBRANCH   3   9
TORSDOF 6
