REMARK  6 active torsions:
REMARK  status: ('A' for Active; 'I' for Inactive)
REMARK    1  A    between atoms: C_11  and  N_1 
REMARK    2  A    between atoms: S_10  and  C_2 
REMARK    3  A    between atoms: C_9  and  C_8 
REMARK    4  A    between atoms: C_19  and  S_10 
REMARK    5  A    between atoms: C_13  and  C_18 
REMARK    6  A    between atoms: C_23  and  C_19 
ROOT
ATOM      1  N   UNL d   1       0.959   0.810  -0.100  0.00  0.00    -0.258 N 
ATOM      2  C   UNL d   1       2.331   0.563  -0.048  0.00  0.00     0.155 A 
ATOM      3  C   UNL d   1       0.057  -0.206   0.280  0.00  0.00     0.266 A 
ATOM      4  N   UNL d   1       2.844  -0.570   0.305  0.00  0.00    -0.335 N 
ATOM      5  HN  UNL d   1       3.855  -0.703   0.280  1.00  0.00     0.168 HD
ATOM      6  C   UNL d   1       0.634  -1.471   0.755  0.00  0.00     0.059 A 
ATOM      7  C   UNL d   1       2.014  -1.604   0.718  0.00  0.00     0.049 A 
ATOM      8  O   UNL d   1      -1.167  -0.109   0.288  0.00  0.00    -0.267 OA
ATOM      9  C   UNL d   1      -0.176  -2.492   1.262  0.00  0.00     0.019 A 
ATOM     10  C   UNL d   1       2.588  -2.800   1.151  0.00  0.00     0.030 A 
ATOM     11  C   UNL d   1       0.409  -3.671   1.723  0.00  0.00     0.001 A 
ATOM     12  C   UNL d   1       1.792  -3.829   1.655  0.00  0.00     0.002 A 
ENDROOT
BRANCH   2  13
ATOM     13  S   UNL d   1       3.492   1.806  -0.537  0.00  0.00    -0.089 SA
BRANCH  13  14
ATOM     14  C   UNL d   1       5.046   0.891  -0.256  0.00  0.00     0.121 C 
BRANCH  14  15
ATOM     15  C   UNL d   1       6.364   1.618  -0.421  0.00  0.00    -0.048 A 
ATOM     16  C   UNL d   1       6.500   2.979  -0.707  0.00  0.00     0.009 A 
ATOM     17  C   UNL d   1       7.769   3.547  -0.883  0.00  0.00     0.012 A 
ATOM     18  C   UNL d   1       8.931   2.772  -0.785  0.00  0.00    -0.036 A 
ATOM     19  C   UNL d   1       8.806   1.427  -0.435  0.00  0.00     0.012 A 
ATOM     20  C   UNL d   1       7.540   0.858  -0.263  0.00  0.00     0.009 A 
BRANCH  18  21
ATOM     21  C   UNL d   1      10.229   3.403  -1.043  0.00  0.00     0.012 C 
ATOM     22  C   UNL d   1      11.268   2.775  -1.619  0.00  0.00     0.017 C 
BRANCH  22  23
ATOM     23  C   UNL d   1      12.499   3.504  -1.944  0.00  0.00     0.024 A 
ATOM     24  C   UNL d   1      12.636   4.054  -3.226  0.00  0.00     0.128 A 
ATOM     25  F   UNL d   1      11.679   3.865  -4.148  0.00  0.00    -0.205 F 
ATOM     26  C   UNL d   1      13.750   4.812  -3.581  0.00  0.00     0.043 A 
ATOM     27  C   UNL d   1      14.759   5.033  -2.648  0.00  0.00     0.005 A 
ATOM     28  C   UNL d   1      14.655   4.478  -1.372  0.00  0.00     0.025 A 
ATOM     29  C   UNL d   1      13.534   3.714  -1.022  0.00  0.00     0.047 A 
ATOM     30 CL   UNL d   1      13.485   3.043   0.572  0.00  0.00    -0.083 Cl
ENDBRANCH  22  23
ENDBRANCH  18  21
ENDBRANCH  14  15
ENDBRANCH  13  14
ENDBRANCH   2  13
BRANCH   1  31
ATOM     31  C   UNL d   1       0.359   2.066  -0.434  0.00  0.00     0.045 A 
ATOM     32  C   UNL d   1       0.636   3.222   0.312  0.00  0.00     0.033 A 
ATOM     33  C   UNL d   1      -0.137   4.376   0.135  0.00  0.00     0.044 A 
ATOM     34  C   UNL d   1      -1.175   4.383  -0.792  0.00  0.00     0.116 A 
ATOM     35  C   UNL d   1      -1.442   3.265  -1.568  0.00  0.00     0.044 A 
ATOM     36  F   UNL d   1      -1.945   5.471  -0.917  0.00  0.00    -0.206 F 
ATOM     37  C   UNL d   1      -0.678   2.110  -1.388  0.00  0.00     0.033 A 
ENDBRANCH   1  31
TORSDOF 6
