REMARK  5 active torsions:
REMARK  status: ('A' for Active; 'I' for Inactive)
REMARK    1  A    between atoms: C_2  and  S_1 
REMARK    2  A    between atoms: N_6  and  S_1 
REMARK    3  A    between atoms: C_4  and  C_8 
REMARK    4  A    between atoms: C_5  and  C_9 
REMARK    5  A    between atoms: C_11  and  N_6 
ROOT
ATOM      1  C   UNL d   1       2.407   3.985  -1.362  0.00  0.00     0.050 A 
ATOM      2  C   UNL d   1       0.068   4.484  -1.870  0.00  0.00     0.050 A 
ATOM      3  C   UNL d   1       0.791   2.184  -1.583  0.00  0.00     0.024 A 
ATOM      4  C   UNL d   1       1.385   4.910  -1.637  0.00  0.00     0.032 A 
ATOM      5  C   UNL d   1       2.091   2.617  -1.320  0.00  0.00     0.040 A 
ATOM      6  C   UNL d   1      -0.213   3.110  -1.857  0.00  0.00     0.040 A 
ENDROOT
BRANCH   3   7
ATOM      7  N   UNL d   1       0.476   0.798  -1.513  0.00  0.00    -0.181 NA
ATOM      8  H   UNL d   1      -0.194   0.450  -2.199  0.00  0.00     0.146 HD
BRANCH   7   9
ATOM      9  S   UNL d   1       0.134   0.153   0.021  0.00  0.00     0.252 S 
ATOM     10  O   UNL d   1      -0.273  -1.220  -0.183  0.00  0.00    -0.205 OA
ATOM     11  O   UNL d   1       1.195   0.510   0.934  0.00  0.00    -0.205 OA
BRANCH   9  12
ATOM     12  C   UNL d   1      -1.313   0.968   0.673  0.00  0.00     0.117 A 
ATOM     13  S   UNL d   1      -2.758   0.817  -0.241  0.00  0.00    -0.065 SA
ATOM     14  C   UNL d   1      -3.614   1.773   0.862  0.00  0.00     0.075 A 
ATOM     15 CL   UNL d   1      -5.272   2.119   0.586  0.00  0.00    -0.076 Cl
ATOM     16  C   UNL d   1      -2.857   2.199   1.922  0.00  0.00     0.033 A 
ATOM     17  C   UNL d   1      -1.515   1.728   1.813  0.00  0.00     0.034 A 
ENDBRANCH   9  12
ENDBRANCH   7   9
ENDBRANCH   3   7
BRANCH   1  18
ATOM     18  C   UNL d   1       3.827   4.443  -1.118  0.00  0.00     0.417 C 
ATOM     19  F   UNL d   1       3.969   5.797  -1.160  0.00  0.00    -0.166 F 
ATOM     20  F   UNL d   1       4.300   4.056   0.097  0.00  0.00    -0.166 F 
ATOM     21  F   UNL d   1       4.698   3.950  -2.040  0.00  0.00    -0.166 F 
ENDBRANCH   1  18
BRANCH   2  22
ATOM     22  C   UNL d   1      -1.050   5.469  -2.112  0.00  0.00     0.417 C 
ATOM     23  F   UNL d   1      -0.648   6.768  -2.085  0.00  0.00    -0.166 F 
ATOM     24  F   UNL d   1      -1.651   5.282  -3.317  0.00  0.00    -0.166 F 
ATOM     25  F   UNL d   1      -2.035   5.360  -1.179  0.00  0.00    -0.166 F 
ENDBRANCH   2  22
TORSDOF 5
