REMARK  4 active torsions:
REMARK  status: ('A' for Active; 'I' for Inactive)
REMARK    1  A    between atoms: C_10  and  C_1 
REMARK    2  A    between atoms: S_4  and  O_9 
REMARK    3  A    between atoms: O_9  and  C_16 
REMARK    4  A    between atoms: C_19  and  C_10 
ROOT
ATOM      1  C   UNL d   1      -1.771  -0.973   0.080  0.00  0.00     0.029 A 
ATOM      2  C   UNL d   1      -2.018   0.496   0.154  0.00  0.00     0.295 A 
ATOM      3  C   UNL d   1      -0.513  -1.474   0.055  0.00  0.00    -0.036 A 
ATOM      4  O   UNL d   1      -0.924   1.331   0.078  0.00  0.00    -0.274 OA
ATOM      5  C   UNL d   1       0.380   0.825   0.038  0.00  0.00     0.093 A 
ATOM      6  C   UNL d   1       0.636  -0.540   0.066  0.00  0.00     0.005 A 
ATOM      7  C   UNL d   1       1.388   1.790  -0.029  0.00  0.00     0.076 A 
ATOM      8  C   UNL d   1       1.985  -0.926   0.057  0.00  0.00     0.017 A 
ATOM      9  O   UNL d   1      -3.147   0.963   0.254  0.00  0.00    -0.259 OA
ATOM     10  C   UNL d   1       2.717   1.394  -0.069  0.00  0.00     0.092 A 
ATOM     11  C   UNL d   1       3.015   0.031  -0.001  0.00  0.00     0.039 A 
ATOM     12  C   UNL d   1      -0.202  -2.947  -0.030  0.00  0.00     0.050 C 
ENDROOT
BRANCH   1  13
ATOM     13  C   UNL d   1      -3.042  -1.778  -0.101  0.00  0.00     0.084 C 
BRANCH  13  14
ATOM     14  C   UNL d   1      -3.682  -2.330   1.157  0.00  0.00    -0.052 A 
ATOM     15  C   UNL d   1      -3.826  -3.718   1.319  0.00  0.00     0.033 A 
ATOM     16  C   UNL d   1      -4.539  -4.248   2.402  0.00  0.00     0.056 A 
ATOM     17 CL   UNL d   1      -4.698  -5.966   2.493  0.00  0.00    -0.083 Cl
ATOM     18  C   UNL d   1      -5.114  -3.391   3.345  0.00  0.00     0.055 A 
ATOM     19  C   UNL d   1      -4.956  -2.011   3.208  0.00  0.00     0.026 A 
ATOM     20 CL   UNL d   1      -6.049  -3.969   4.678  0.00  0.00    -0.083 Cl
ATOM     21  C   UNL d   1      -4.247  -1.485   2.122  0.00  0.00     0.009 A 
ENDBRANCH  13  14
ENDBRANCH   1  13
BRANCH  10  22
ATOM     22  O   UNL d   1       3.776   2.267  -0.142  0.00  0.00    -0.233 OA
BRANCH  22  23
ATOM     23  S   UNL d   1       3.591   3.749  -0.813  0.00  0.00     0.266 S 
ATOM     24  O   UNL d   1       3.259   3.604  -2.213  0.00  0.00    -0.199 OA
ATOM     25  O   UNL d   1       2.815   4.595   0.076  0.00  0.00    -0.199 OA
ATOM     26  C   UNL d   1       5.279   4.280  -0.700  0.00  0.00     0.194 C 
ENDBRANCH  22  23
ENDBRANCH  10  22
TORSDOF 4
