REMARK  4 active torsions:
REMARK  status: ('A' for Active; 'I' for Inactive)
REMARK    1  A    between atoms: N_3  and  C_1 
REMARK       I    between atoms: C_7  and  N_3 
REMARK       I    between atoms: N_10  and  C_7 
REMARK    2  A    between atoms: C_9  and  O_11 
REMARK    3  A    between atoms: C_17  and  N_10 
REMARK    4  A    between atoms: O_11  and  C_18 
ROOT
ATOM      1  N   UNL d   1       3.389  -3.577  -0.033  0.00  0.00    -0.292 N 
ATOM      2  C   UNL d   1       2.203  -2.916  -0.425  0.00  0.00     0.326 C 
ATOM      3  N   UNL d   1       1.036  -3.341   0.121  0.00  0.00    -0.309 N 
ATOM      4  O   UNL d   1       2.414  -1.919  -1.099  0.00  0.00    -0.247 OA
ATOM      5  H   UNL d   1       4.170  -2.947  -0.175  0.00  0.00     0.172 HD
ATOM      6  H   UNL d   1       1.086  -4.043   0.848  0.00  0.00     0.170 HD
ENDROOT
BRANCH   3   7
ATOM      7  C   UNL d   1      -0.215  -2.704  -0.080  0.00  0.00     0.036 A 
ATOM      8  C   UNL d   1      -0.469  -1.836  -1.150  0.00  0.00     0.032 A 
ATOM      9  C   UNL d   1      -1.701  -1.177  -1.275  0.00  0.00     0.039 A 
ATOM     10  C   UNL d   1      -2.707  -1.398  -0.340  0.00  0.00     0.078 A 
ATOM     11  C   UNL d   1      -2.458  -2.268   0.725  0.00  0.00     0.039 A 
ATOM     12  C   UNL d   1      -1.233  -2.936   0.844  0.00  0.00     0.032 A 
BRANCH  10  13
ATOM     13  O   UNL d   1      -3.944  -0.830  -0.333  0.00  0.00    -0.255 OA
BRANCH  13  14
ATOM     14  C   UNL d   1      -4.487  -0.365  -1.560  0.00  0.00     0.530 C 
ATOM     15  F   UNL d   1      -4.078  -1.095  -2.619  0.00  0.00    -0.144 F 
ATOM     16  F   UNL d   1      -5.833  -0.458  -1.489  0.00  0.00    -0.144 F 
ATOM     17  F   UNL d   1      -4.159   0.929  -1.756  0.00  0.00    -0.144 F 
ENDBRANCH  13  14
ENDBRANCH  10  13
ENDBRANCH   3   7
BRANCH   1  18
ATOM     18  C   UNL d   1       3.699  -4.908   0.219  0.00  0.00     0.144 A 
ATOM     19  C   UNL d   1       2.965  -6.075   0.167  0.00  0.00     0.073 A 
ATOM     20  C   UNL d   1       3.884  -7.122   0.370  0.00  0.00     0.130 A 
ATOM     21 BR   UNL d   1       1.164  -6.445  -0.170  0.00  0.00    -0.045 Br
ATOM     22  N   UNL d   1       5.118  -6.671   0.582  0.00  0.00    -0.307 N 
ATOM     23  N   UNL d   1       4.988  -5.335   0.507  0.00  0.00    -0.280 N 
ATOM     24  HN  UNL d   1       5.965  -7.213   0.760  1.00  0.00     0.186 HD
ATOM     25  C   UNL d   1       6.174  -4.535   0.719  0.00  0.00     0.179 C 
ENDBRANCH   1  18
TORSDOF 4
