REMARK  2 active torsions:
REMARK  status: ('A' for Active; 'I' for Inactive)
REMARK    1  A    between atoms: C_8  and  N_1 
REMARK    2  A    between atoms: C_15  and  C_8 
ROOT
ATOM      1  N   UNL d   1       2.733   0.071  -0.004  0.00  0.00    -0.277 N 
ATOM      2  C   UNL d   1       2.044   1.283  -0.029  0.00  0.00     0.261 A 
ATOM      3  C   UNL d   1       2.118  -1.174   0.106  0.00  0.00     0.261 A 
ATOM      4  C   UNL d   1       0.562   1.219  -0.044  0.00  0.00     0.044 A 
ATOM      5  C   UNL d   1      -0.093  -0.019  -0.024  0.00  0.00     0.007 A 
ATOM      6  C   UNL d   1       0.640  -1.212   0.022  0.00  0.00     0.044 A 
ATOM      7  C   UNL d   1      -1.515  -0.065  -0.033  0.00  0.00    -0.006 A 
ATOM      8  C   UNL d   1      -0.165   2.416  -0.059  0.00  0.00     0.019 A 
ATOM      9  O   UNL d   1       2.733  -2.219   0.305  0.00  0.00    -0.267 OA
ATOM     10  O   UNL d   1       2.584   2.386   0.005  0.00  0.00    -0.267 OA
ATOM     11  C   UNL d   1      -2.227   1.163  -0.042  0.00  0.00     0.022 A 
ATOM     12  C   UNL d   1      -1.555   2.387  -0.053  0.00  0.00     0.021 A 
ATOM     13  C   UNL d   1      -0.004  -2.455   0.029  0.00  0.00     0.018 A 
ATOM     14 BR   UNL d   1      -4.131   1.246  -0.024  0.00  0.00    -0.050 Br
ATOM     15  C   UNL d   1      -2.135  -1.339  -0.023  0.00  0.00     0.014 A 
ATOM     16  C   UNL d   1      -1.390  -2.518   0.002  0.00  0.00     0.002 A 
ENDROOT
BRANCH   1  17
ATOM     17  C   UNL d   1       4.193   0.110   0.115  0.00  0.00     0.167 C 
BRANCH  17  18
ATOM     18  C   UNL d   1       4.943  -0.572  -1.039  0.00  0.00     0.140 C 
ATOM     19  O   UNL d   1       4.749   0.141  -2.276  0.00  0.00    -0.384 OA
ATOM     20  C   UNL d   1       6.005   0.218  -2.964  0.00  0.00     0.168 C 
ATOM     21  C   UNL d   1       6.995  -0.635  -2.201  0.00  0.00     0.029 C 
ATOM     22  C   UNL d   1       6.447  -0.588  -0.798  0.00  0.00     0.035 C 
ENDBRANCH  17  18
ENDBRANCH   1  17
TORSDOF 2
