REMARK  6 active torsions:
REMARK  status: ('A' for Active; 'I' for Inactive)
REMARK    1  A    between atoms: C_15  and  N_3 
REMARK    2  A    between atoms: C_8  and  C_4 
REMARK       I    between atoms: N_13  and  C_8 
REMARK    3  A    between atoms: C_9  and  N_14 
REMARK    4  A    between atoms: N_12  and  C_9 
REMARK    5  A    between atoms: C_11  and  N_12 
REMARK    6  A    between atoms: N_14  and  N_13 
ROOT
ATOM      1  C   UNL d   1      -2.452   0.064  -0.553  0.00  0.00     0.290 C 
ATOM      2  N   UNL d   1      -3.104   1.234  -0.920  0.00  0.00    -0.262 N 
ATOM      3  O   UNL d   1      -3.088  -0.976  -0.368  0.00  0.00    -0.264 OA
ATOM      4  H   UNL d   1      -2.652   2.138  -0.858  0.00  0.00     0.190 HD
ENDROOT
BRANCH   1   5
ATOM      5  C   UNL d   1      -1.002   0.176  -0.317  0.00  0.00     0.143 A 
ATOM      6  N   UNL d   1      -0.364  -0.731   0.452  0.00  0.00    -0.272 N 
ATOM      7  N   UNL d   1       0.916  -0.293   0.459  0.00  0.00    -0.196 N 
ATOM      8  HN  UNL d   1      -0.754  -1.551   0.916  1.00  0.00     0.189 HD
ATOM      9  N   UNL d   1       1.141   0.871  -0.193  0.00  0.00    -0.281 N 
ATOM     10  C   UNL d   1      -0.041   1.125  -0.765  0.00  0.00     0.057 A 
ATOM     11  HN  UNL d   1       2.000   1.420  -0.238  1.00  0.00     0.189 HD
ATOM     12  C   UNL d   1      -0.111   2.249  -1.727  0.00  0.00     0.072 C 
BRANCH   7  13
ATOM     13  C   UNL d   1       1.979  -1.030   1.044  0.00  0.00     0.074 A 
ATOM     14  C   UNL d   1       1.764  -2.331   1.518  0.00  0.00     0.033 A 
ATOM     15  C   UNL d   1       2.841  -3.078   2.003  0.00  0.00     0.002 A 
ATOM     16  C   UNL d   1       4.122  -2.525   2.037  0.00  0.00     0.000 A 
ATOM     17  C   UNL d   1       4.333  -1.219   1.596  0.00  0.00     0.002 A 
ATOM     18  C   UNL d   1       3.266  -0.471   1.097  0.00  0.00     0.033 A 
ENDBRANCH   7  13
ENDBRANCH   1   5
BRANCH   2  19
ATOM     19  N   UNL d   1      -4.510   1.267  -0.816  0.00  0.00    -0.273 N 
ATOM     20  H   UNL d   1      -4.929   0.429  -0.400  0.00  0.00     0.189 HD
BRANCH  19  21
ATOM     21  C   UNL d   1      -5.287   1.974  -1.705  0.00  0.00     0.191 C 
ATOM     22  S   UNL d   1      -4.719   2.826  -3.027  0.00  0.00    -0.039 SA
BRANCH  21  23
ATOM     23  N   UNL d   1      -6.640   1.947  -1.459  0.00  0.00    -0.332 N 
ATOM     24  H   UNL d   1      -7.208   2.206  -2.256  0.00  0.00     0.168 HD
BRANCH  23  25
ATOM     25  C   UNL d   1      -7.296   2.011  -0.199  0.00  0.00     0.042 A 
ATOM     26  C   UNL d   1      -8.682   1.756  -0.114  0.00  0.00    -0.013 A 
ATOM     27  C   UNL d   1      -9.335   1.995   1.117  0.00  0.00     0.042 A 
ATOM     28  C   UNL d   1      -9.477   1.210  -1.272  0.00  0.00     0.052 C 
ATOM     29 CL   UNL d   1     -11.038   1.754   1.308  0.00  0.00    -0.084 Cl
ATOM     30  C   UNL d   1      -8.630   2.448   2.235  0.00  0.00     0.024 A 
ATOM     31  C   UNL d   1      -7.262   2.668   2.150  0.00  0.00     0.004 A 
ATOM     32  C   UNL d   1      -6.603   2.453   0.940  0.00  0.00     0.030 A 
ENDBRANCH  23  25
ENDBRANCH  21  23
ENDBRANCH  19  21
ENDBRANCH   2  19
TORSDOF 6
