REMARK  4 active torsions:
REMARK  status: ('A' for Active; 'I' for Inactive)
REMARK    1  A    between atoms: C_7  and  N_1 
REMARK    2  A    between atoms: C_2  and  C_10 
REMARK    3  A    between atoms: N_8  and  N_13 
REMARK    4  A    between atoms: N_13  and  C_16 
ROOT
ATOM      1  N   UNL d   1      -1.957   4.773   3.373  0.00  0.00    -0.309 N 
ATOM      2  HN  UNL d   1      -1.233   5.230   2.819  1.00  0.00     0.186 HD
ATOM      3  C   UNL d   1      -2.558   5.350   4.367  0.00  0.00     0.137 C 
ENDROOT
BRANCH   1   4
ATOM      4  N   UNL d   1      -2.383   3.496   3.137  0.00  0.00    -0.301 N 
ATOM      5  H   UNL d   1      -2.667   2.923   3.930  0.00  0.00     0.187 HD
BRANCH   4   6
ATOM      6  C   UNL d   1      -1.775   2.770   2.092  0.00  0.00     0.048 A 
ATOM      7  C   UNL d   1      -1.690   1.371   2.179  0.00  0.00     0.033 A 
ATOM      8  C   UNL d   1      -1.170   0.612   1.124  0.00  0.00     0.038 A 
ATOM      9  C   UNL d   1      -0.742   1.256  -0.041  0.00  0.00     0.103 A 
ATOM     10  C   UNL d   1      -0.801   2.651  -0.141  0.00  0.00     0.038 A 
ATOM     11  C   UNL d   1      -1.311   3.398   0.928  0.00  0.00     0.033 A 
BRANCH   9  12
ATOM     12  N   UNL d   1      -0.255   0.463  -1.177  0.00  0.00    -0.116 N 
ATOM     13  O   UNL d   1       0.072   1.066  -2.206  0.00  0.00    -0.532 OA
ATOM     14  O   UNL d   1      -0.209  -0.771  -1.040  0.00  0.00    -0.532 OA
ENDBRANCH   9  12
ENDBRANCH   4   6
ENDBRANCH   1   4
BRANCH   3  15
ATOM     15  C   UNL d   1      -2.193   6.680   4.790  0.00  0.00     0.055 A 
ATOM     16  N   UNL d   1      -1.192   7.415   4.192  0.00  0.00    -0.358 N 
ATOM     17  C   UNL d   1      -1.068   8.637   4.801  0.00  0.00     0.006 A 
ATOM     18  H   UNL d   1      -0.636   7.073   3.419  0.00  0.00     0.166 HD
ATOM     19  C   UNL d   1      -0.069   9.648   4.371  0.00  0.00     0.068 C 
ATOM     20  C   UNL d   1      -2.001   8.687   5.813  0.00  0.00     0.033 A 
ATOM     21  C   UNL d   1      -2.713   7.453   5.821  0.00  0.00    -0.032 A 
ATOM     22  C   UNL d   1      -3.795   7.106   6.782  0.00  0.00     0.050 C 
ENDBRANCH   3  15
TORSDOF 4
