REMARK  2 active torsions:
REMARK  status: ('A' for Active; 'I' for Inactive)
REMARK       I    between atoms: N_2  and  C_1 
REMARK    1  A    between atoms: C_4  and  C_1 
REMARK    2  A    between atoms: C_3  and  N_2 
ROOT
ATOM      1  C   UNL d   1       0.324   0.450  -1.332  0.00  0.00     0.251 C 
ATOM      2  N   UNL d   1       0.409  -0.875  -0.931  0.00  0.00    -0.354 N 
ATOM      3  O   UNL d   1       0.826   0.852  -2.385  0.00  0.00    -0.271 OA
ATOM      4  H   UNL d   1       0.042  -1.128  -0.020  0.00  0.00     0.162 HD
ENDROOT
BRANCH   1   5
ATOM      5  C   UNL d   1      -0.480   1.382  -0.430  0.00  0.00     0.269 C 
ATOM      6 CL   UNL d   1      -2.188   1.306  -0.903  0.00  0.00    -0.098 Cl
ATOM      7 CL   UNL d   1      -0.292   0.943   1.285  0.00  0.00    -0.098 Cl
ENDBRANCH   1   5
BRANCH   2   8
ATOM      8  C   UNL d   1       1.138  -1.852  -1.675  0.00  0.00     0.084 A 
ATOM      9  C   UNL d   1       0.448  -2.696  -2.709  0.00  0.00     0.027 A 
ATOM     10  C   UNL d   1       0.923  -3.319  -1.430  0.00  0.00     0.027 A 
ENDBRANCH   2   8
TORSDOF 2
