REMARK  5 active torsions:
REMARK  status: ('A' for Active; 'I' for Inactive)
REMARK    1  A    between atoms: C_2  and  S_1 
REMARK    2  A    between atoms: N_4  and  S_1 
REMARK    3  A    between atoms: C_5  and  C_3 
REMARK    4  A    between atoms: C_12  and  N_4 
REMARK    5  A    between atoms: O_13  and  C_5 
ROOT
ATOM      1  S   UNL d   1       0.854  -0.041  -0.047  0.00  0.00     0.247 S 
ATOM      2  O   UNL d   1       0.173   0.216   1.203  0.00  0.00    -0.205 OA
ATOM      3  O   UNL d   1       2.297  -0.153  -0.094  0.00  0.00    -0.205 OA
ENDROOT
BRANCH   1   4
ATOM      4  C   UNL d   1       0.483   1.351  -1.013  0.00  0.00     0.098 A 
ATOM      5  C   UNL d   1      -0.799   1.799  -1.289  0.00  0.00     0.102 A 
ATOM      6  S   UNL d   1      -0.747   3.234  -2.241  0.00  0.00    -0.094 SA
ATOM      7  C   UNL d   1       0.958   3.267  -2.249  0.00  0.00     0.052 A 
ATOM      8  C   UNL d   1       1.495   2.208  -1.557  0.00  0.00     0.033 A 
BRANCH   5   9
ATOM      9  C   UNL d   1      -2.072   1.204  -0.913  0.00  0.00     0.301 C 
ATOM     10  O   UNL d   1      -2.251   0.026  -0.632  0.00  0.00    -0.259 OA
BRANCH   9  11
ATOM     11  O   UNL d   1      -3.073   2.134  -0.931  0.00  0.00    -0.322 OA
ATOM     12  C   UNL d   1      -4.359   1.616  -0.587  0.00  0.00     0.213 C 
ENDBRANCH   9  11
ENDBRANCH   5   9
ENDBRANCH   1   4
BRANCH   1  13
ATOM     13  N   UNL d   1       0.183  -1.424  -0.731  0.00  0.00    -0.181 NA
ATOM     14  H   UNL d   1       0.055  -2.134  -0.011  0.00  0.00     0.146 HD
BRANCH  13  15
ATOM     15  C   UNL d   1       0.720  -1.898  -1.957  0.00  0.00     0.022 A 
ATOM     16  C   UNL d   1       1.849  -2.717  -1.973  0.00  0.00     0.026 A 
ATOM     17  C   UNL d   1       2.328  -3.212  -3.189  0.00  0.00     0.026 A 
ATOM     18  C   UNL d   1       1.680  -2.878  -4.378  0.00  0.00     0.034 A 
ATOM     19  C   UNL d   1       0.566  -2.039  -4.364  0.00  0.00     0.026 A 
ATOM     20 CL   UNL d   1       2.249  -3.515  -5.870  0.00  0.00    -0.084 Cl
ATOM     21  C   UNL d   1       0.088  -1.544  -3.149  0.00  0.00     0.026 A 
ENDBRANCH  13  15
ENDBRANCH   1  13
TORSDOF 5
