REMARK  3 active torsions:
REMARK  status: ('A' for Active; 'I' for Inactive)
REMARK    1  A    between atoms: C_6  and  N_1 
REMARK    2  A    between atoms: C_14  and  N_7 
REMARK    3  A    between atoms: C_15  and  C_14 
ROOT
ATOM      1  C   UNL d   1      -0.050   2.196   0.077  0.00  0.00     0.099 C 
ATOM      2  N   UNL d   1      -2.814   3.276  -0.076  0.00  0.00     0.092 N 
ATOM      3  C   UNL d   1      -0.745   2.817   1.287  0.00  0.00     0.056 C 
ATOM      4  C   UNL d   1      -0.608   2.807  -1.204  0.00  0.00     0.056 C 
ATOM      5  C   UNL d   1      -2.265   2.776   1.194  0.00  0.00     0.275 C 
ATOM      6  C   UNL d   1      -2.130   2.764  -1.276  0.00  0.00     0.275 C 
ENDROOT
BRANCH   1   7
ATOM      7  N   UNL d   1      -0.000   0.722   0.075  0.00  0.00    -0.277 N 
ATOM      8  C   UNL d   1       1.179   0.042   0.077  0.00  0.00     0.250 A 
ATOM      9  C   UNL d   1       0.876  -1.390   0.043  0.00  0.00     0.080 A 
ATOM     10  O   UNL d   1       2.318   0.476   0.098  0.00  0.00    -0.268 OA
ATOM     11  C   UNL d   1      -0.446  -1.518   0.009  0.00  0.00     0.080 A 
ATOM     12  C   UNL d   1      -1.023  -0.172   0.024  0.00  0.00     0.250 A 
ATOM     13  O   UNL d   1      -2.229  -0.014  -0.011  0.00  0.00    -0.268 OA
ENDBRANCH   1   7
BRANCH   2  14
ATOM     14  C   UNL d   1      -4.256   2.913  -0.120  0.00  0.00     0.311 C 
BRANCH  14  15
ATOM     15  C   UNL d   1      -4.989   3.441  -1.334  0.00  0.00    -0.030 A 
ATOM     16  C   UNL d   1      -5.551   2.555  -2.267  0.00  0.00     0.009 A 
ATOM     17  C   UNL d   1      -6.173   3.042  -3.417  0.00  0.00     0.001 A 
ATOM     18  C   UNL d   1      -6.247   4.415  -3.639  0.00  0.00     0.000 A 
ATOM     19  C   UNL d   1      -5.713   5.304  -2.707  0.00  0.00     0.001 A 
ATOM     20  C   UNL d   1      -5.088   4.819  -1.558  0.00  0.00     0.009 A 
ENDBRANCH  14  15
ENDBRANCH   2  14
TORSDOF 3
