REMARK  6 active torsions:
REMARK  status: ('A' for Active; 'I' for Inactive)
REMARK    1  A    between atoms: C_2  and  C_1 
REMARK       I    between atoms: N_6  and  C_1 
REMARK    2  A    between atoms: C_9  and  C_5 
REMARK    3  A    between atoms: C_11  and  N_6 
REMARK    4  A    between atoms: O_19  and  C_9 
REMARK    5  A    between atoms: O_20  and  C_15 
REMARK    6  A    between atoms: O_21  and  C_16 
ROOT
ATOM      1  C   UNL d   1       0.873   0.047  -0.155  0.00  0.00     0.228 C 
ATOM      2  N   UNL d   1       0.189  -0.790  -1.014  0.00  0.00    -0.327 N 
ATOM      3  O   UNL d   1       1.968   0.562  -0.391  0.00  0.00    -0.273 OA
ATOM      4  H   UNL d   1      -0.769  -1.020  -0.780  0.00  0.00     0.169 HD
ENDROOT
BRANCH   1   5
ATOM      5  C   UNL d   1       0.143   0.398   1.145  0.00  0.00     0.100 C 
ATOM      6  C   UNL d   1      -0.676  -0.738   1.820  0.00  0.00     0.022 C 
ATOM      7  C   UNL d   1       0.196  -1.960   1.937  0.00  0.00    -0.025 C 
ATOM      8  C   UNL d   1      -0.654  -0.314   3.293  0.00  0.00     0.018 C 
ATOM      9  C   UNL d   1       1.153  -1.675   2.830  0.00  0.00    -0.025 C 
ATOM     10  C   UNL d   1       0.876  -0.284   3.364  0.00  0.00     0.023 C 
ATOM     11  C   UNL d   1       1.203   0.748   2.261  0.00  0.00     0.105 C 
BRANCH  11  12
ATOM     12  C   UNL d   1       1.042   2.163   2.779  0.00  0.00     0.145 C 
ATOM     13  O   UNL d   1       0.160   2.939   2.448  0.00  0.00    -0.650 OA
BRANCH  12  14
ATOM     14  O   UNL d   1       1.978   2.500   3.697  0.00  0.00    -0.776 OA
ATOM     15  H   UNL d   1       2.655   1.813   3.852  0.00  0.00     0.167 HD
ENDBRANCH  12  14
ENDBRANCH  11  12
ENDBRANCH   1   5
BRANCH   2  16
ATOM     16  C   UNL d   1       0.693  -1.377  -2.203  0.00  0.00     0.040 A 
ATOM     17  C   UNL d   1       2.016  -1.238  -2.640  0.00  0.00     0.066 A 
ATOM     18  C   UNL d   1       2.445  -1.835  -3.828  0.00  0.00     0.073 A 
ATOM     19  C   UNL d   1       1.547  -2.588  -4.585  0.00  0.00     0.073 A 
ATOM     20  C   UNL d   1       0.239  -2.777  -4.145  0.00  0.00     0.073 A 
ATOM     21  C   UNL d   1      -0.185  -2.162  -2.962  0.00  0.00     0.066 A 
BRANCH  18  22
ATOM     22  O   UNL d   1       3.705  -1.759  -4.358  0.00  0.00    -0.356 OA
ATOM     23  C   UNL d   1       4.710  -1.156  -3.550  0.00  0.00     0.210 C 
ENDBRANCH  18  22
BRANCH  20  24
ATOM     24  O   UNL d   1      -0.711  -3.529  -4.783  0.00  0.00    -0.356 OA
ATOM     25  C   UNL d   1      -0.241  -4.384  -5.822  0.00  0.00     0.210 C 
ENDBRANCH  20  24
ENDBRANCH   2  16
TORSDOF 6
