REMARK  7 active torsions:
REMARK  status: ('A' for Active; 'I' for Inactive)
REMARK    1  A    between atoms: C_7  and  S_1 
REMARK    2  A    between atoms: N_12  and  S_1 
REMARK    3  A    between atoms: C_2  and  C_6 
REMARK    4  A    between atoms: C_5  and  N_16 
REMARK    5  A    between atoms: C_21  and  N_12 
REMARK    6  A    between atoms: N_16  and  C_25 
REMARK    7  A    between atoms: C_25  and  C_21 
ROOT
ATOM      1  N   UNL d   1       5.336   2.853  -0.432  0.00  0.00    -0.263 NA
ATOM      2  H   UNL d   1       5.023   3.548   0.239  0.00  0.00     0.130 HD
ENDROOT
BRANCH   1   3
ATOM      3  C   UNL d   1       6.706   3.003  -0.517  0.00  0.00     0.157 A 
ATOM      4  N   UNL d   1       7.174   4.175  -0.075  0.00  0.00    -0.329 N 
ATOM      5  C   UNL d   1       8.510   4.402  -0.163  0.00  0.00     0.120 A 
ATOM      6  HN  UNL d   1       6.546   4.877   0.316  1.00  0.00     0.168 HD
ATOM      7  C   UNL d   1       9.372   3.458  -0.688  0.00  0.00     0.051 A 
ATOM      8  C   UNL d   1       8.796   2.283  -1.101  0.00  0.00     0.093 A 
ATOM      9  N   UNL d   1       7.477   2.035  -1.023  0.00  0.00    -0.343 N 
ATOM     10  HN  UNL d   1       7.081   1.149  -1.336  1.00  0.00     0.167 HD
BRANCH   5  11
ATOM     11  C   UNL d   1       9.073   5.721   0.337  0.00  0.00     0.432 C 
ATOM     12  F   UNL d   1       8.142   6.574   0.847  0.00  0.00    -0.165 F 
ATOM     13  F   UNL d   1       9.997   5.545   1.327  0.00  0.00    -0.165 F 
ATOM     14  F   UNL d   1       9.720   6.417  -0.643  0.00  0.00    -0.165 F 
ENDBRANCH   5  11
ENDBRANCH   1   3
BRANCH   1  15
ATOM     15  C   UNL d   1       4.844   1.501  -0.220  0.00  0.00     0.110 C 
BRANCH  15  16
ATOM     16  C   UNL d   1       3.308   1.541  -0.202  0.00  0.00     0.119 C 
BRANCH  16  17
ATOM     17  N   UNL d   1       2.714   0.205  -0.008  0.00  0.00    -0.214 NA
ATOM     18  H   UNL d   1       3.066  -0.532  -0.621  0.00  0.00     0.140 HD
BRANCH  17  19
ATOM     19  S   UNL d   1       1.020   0.148   0.090  0.00  0.00     0.241 S 
ATOM     20  O   UNL d   1       0.670  -1.219   0.398  0.00  0.00    -0.206 OA
ATOM     21  O   UNL d   1       0.571   1.257   0.903  0.00  0.00    -0.206 OA
BRANCH  19  22
ATOM     22  C   UNL d   1       0.537   0.457  -1.593  0.00  0.00     0.074 A 
ATOM     23  C   UNL d   1       0.407  -0.618  -2.475  0.00  0.00     0.025 A 
ATOM     24  C   UNL d   1       0.067  -0.380  -3.807  0.00  0.00     0.008 A 
ATOM     25  C   UNL d   1      -0.162   0.926  -4.261  0.00  0.00    -0.062 A 
ATOM     26  C   UNL d   1      -0.073   1.993  -3.356  0.00  0.00     0.008 A 
ATOM     27  C   UNL d   1      -0.491   1.163  -5.707  0.00  0.00     0.048 C 
ATOM     28  C   UNL d   1       0.267   1.763  -2.021  0.00  0.00     0.025 A 
ENDBRANCH  19  22
ENDBRANCH  17  19
ENDBRANCH  16  17
ENDBRANCH  15  16
ENDBRANCH   1  15
TORSDOF 7
