REMARK  6 active torsions:
REMARK  status: ('A' for Active; 'I' for Inactive)
REMARK    1  A    between atoms: C_9  and  C_1 
REMARK    2  A    between atoms: C_11  and  N_4 
REMARK    3  A    between atoms: C_8  and  C_10 
REMARK    4  A    between atoms: C_12  and  C_11 
REMARK       I    between atoms: N_15  and  C_12 
REMARK       I    between atoms: C_13  and  N_14 
REMARK    5  A    between atoms: C_16  and  C_13 
REMARK    6  A    between atoms: N_14  and  N_15 
ROOT
ATOM      1  C   UNL d   1      -0.804  -0.547  -1.074  0.00  0.00     0.145 A 
ATOM      2  N   UNL d   1       0.475  -0.486  -0.655  0.00  0.00    -0.268 N 
ATOM      3  HN  UNL d   1       1.098  -1.236  -0.355  1.00  0.00     0.190 HD
ATOM      4  N   UNL d   1       0.705   0.840  -0.741  0.00  0.00    -0.207 N 
ATOM      5  N   UNL d   1      -1.317   0.692  -1.359  0.00  0.00    -0.266 N 
ATOM      6  HN  UNL d   1      -2.266   0.898  -1.673  1.00  0.00     0.186 HD
ATOM      7  N   UNL d   1      -0.347   1.571  -1.150  0.00  0.00    -0.002 NA
ENDROOT
BRANCH   4   8
ATOM      8  C   UNL d   1       1.794   1.464  -0.023  0.00  0.00     0.271 C 
BRANCH   8   9
ATOM      9  C   UNL d   1       3.156   0.904  -0.329  0.00  0.00     0.257 C 
ATOM     10  N   UNL d   1       3.290  -0.466  -0.388  0.00  0.00    -0.266 N 
ATOM     11  H   UNL d   1       2.514  -1.129  -0.309  0.00  0.00     0.190 HD
ATOM     12  O   UNL d   1       4.146   1.641  -0.408  0.00  0.00    -0.270 OA
BRANCH  10  13
ATOM     13  N   UNL d   1       4.588  -0.987  -0.496  0.00  0.00    -0.263 N 
ATOM     14  C   UNL d   1       4.848  -2.245   0.016  0.00  0.00     0.270 C 
ATOM     15  O   UNL d   1       3.965  -3.016   0.388  0.00  0.00    -0.266 OA
ATOM     16  H   UNL d   1       5.324  -0.279  -0.524  0.00  0.00     0.190 HD
BRANCH  14  17
ATOM     17  C   UNL d   1       6.292  -2.597   0.146  0.00  0.00     0.033 A 
ATOM     18  C   UNL d   1       6.675  -3.516   1.129  0.00  0.00     0.017 A 
ATOM     19  C   UNL d   1       8.029  -3.805   1.333  0.00  0.00     0.007 A 
ATOM     20  C   UNL d   1       9.014  -3.191   0.547  0.00  0.00    -0.062 A 
ATOM     21  C   UNL d   1       8.624  -2.304  -0.462  0.00  0.00     0.007 A 
ATOM     22  C   UNL d   1      10.466  -3.470   0.807  0.00  0.00     0.048 C 
ATOM     23  C   UNL d   1       7.273  -2.013  -0.669  0.00  0.00     0.017 A 
ENDBRANCH  14  17
ENDBRANCH  10  13
ENDBRANCH   8   9
ENDBRANCH   4   8
BRANCH   1  24
ATOM     24  C   UNL d   1      -1.599  -1.773  -1.040  0.00  0.00     0.025 A 
ATOM     25  C   UNL d   1      -2.713  -2.026  -1.865  0.00  0.00     0.061 A 
ATOM     26  C   UNL d   1      -3.462  -3.207  -1.655  0.00  0.00     0.017 A 
ATOM     27  C   UNL d   1      -3.095  -4.140  -0.687  0.00  0.00     0.001 A 
ATOM     28  C   UNL d   1      -1.973  -3.915   0.092  0.00  0.00     0.001 A 
ATOM     29  C   UNL d   1      -1.236  -2.745  -0.082  0.00  0.00     0.016 A 
BRANCH  25  30
ATOM     30  C   UNL d   1      -3.192  -1.114  -2.975  0.00  0.00     0.418 C 
ATOM     31  F   UNL d   1      -2.265  -0.264  -3.485  0.00  0.00    -0.166 F 
ATOM     32  F   UNL d   1      -3.629  -1.830  -4.058  0.00  0.00    -0.166 F 
ATOM     33  F   UNL d   1      -4.259  -0.354  -2.599  0.00  0.00    -0.166 F 
ENDBRANCH  25  30
ENDBRANCH   1  24
TORSDOF 6
