REMARK  8 active torsions:
REMARK  status: ('A' for Active; 'I' for Inactive)
REMARK    1  A    between atoms: N_8  and  C_23 
REMARK    2  A    between atoms: C_22  and  N_8 
REMARK    3  A    between atoms: O_9  and  C_14 
REMARK    4  A    between atoms: C_10  and  O_9 
REMARK    5  A    between atoms: C_23  and  C_11 
REMARK    6  A    between atoms: C_12  and  C_22 
REMARK    7  A    between atoms: C_14  and  C_12 
REMARK    8  A    between atoms: O_21  and  C_12 
ROOT
ATOM      1  C   UNL d   1       5.878  -1.245  -0.104  0.00  0.00     0.303 C 
ENDROOT
BRANCH   1   2
ATOM      2  C   UNL d   1       7.077  -0.267  -0.040  0.00  0.00     0.170 C 
BRANCH   2   3
ATOM      3  C   UNL d   1       6.994   0.629   1.209  0.00  0.00     0.209 C 
BRANCH   3   4
ATOM      4  O   UNL d   1       8.092   1.542   1.276  0.00  0.00    -0.349 OA
BRANCH   4   5
ATOM      5  C   UNL d   1       8.072   2.391   2.354  0.00  0.00     0.069 A 
ATOM      6  C   UNL d   1       9.315   2.903   2.738  0.00  0.00     0.040 A 
ATOM      7  C   UNL d   1       9.415   3.771   3.826  0.00  0.00     0.045 A 
ATOM      8  C   UNL d   1       8.271   4.139   4.520  0.00  0.00     0.116 A 
ATOM      9  C   UNL d   1       7.026   3.660   4.139  0.00  0.00     0.045 A 
ATOM     10  F   UNL d   1       8.364   4.969   5.564  0.00  0.00    -0.206 F 
ATOM     11  C   UNL d   1       6.923   2.787   3.052  0.00  0.00     0.040 A 
ENDBRANCH   4   5
ENDBRANCH   3   4
ENDBRANCH   2   3
BRANCH   2  12
ATOM     12  O   UNL d   1       8.290  -1.032  -0.053  0.00  0.00    -0.392 OA
ATOM     13  H   UNL d   1       8.398  -1.455   0.814  0.00  0.00     0.210 HD
ENDBRANCH   2  12
ENDBRANCH   1   2
BRANCH   1  14
ATOM     14  N   UNL d   1       4.581  -0.568  -0.140  0.00  0.00     0.090 N 
ATOM     15  H   UNL d   1       4.434  -0.014   0.702  0.00  0.00     0.316 HD
BRANCH  14  16
ATOM     16  C   UNL d   1       3.466  -1.509  -0.239  0.00  0.00     0.308 C 
BRANCH  16  17
ATOM     17  C   UNL d   1       2.156  -0.751  -0.239  0.00  0.00    -0.028 A 
ATOM     18  C   UNL d   1       1.222  -0.935   0.791  0.00  0.00     0.048 A 
ATOM     19  C   UNL d   1       0.054  -0.199   0.749  0.00  0.00     0.105 A 
ATOM     20  C   UNL d   1      -0.208   0.694  -0.264  0.00  0.00     0.105 A 
ATOM     21  O   UNL d   1      -0.949  -0.248   1.668  0.00  0.00    -0.323 OA
ATOM     22  O   UNL d   1      -1.407   1.316  -0.112  0.00  0.00    -0.323 OA
ATOM     23  C   UNL d   1       0.682   0.902  -1.293  0.00  0.00     0.040 A 
ATOM     24  C   UNL d   1      -1.862   0.728   1.124  0.00  0.00     0.352 A 
ATOM     25  C   UNL d   1       1.874   0.171  -1.277  0.00  0.00     0.012 A 
ENDBRANCH  16  17
ENDBRANCH  14  16
ENDBRANCH   1  14
TORSDOF 8
