REMARK  7 active torsions:
REMARK  status: ('A' for Active; 'I' for Inactive)
REMARK    1  A    between atoms: N_5  and  C_1 
REMARK    2  A    between atoms: C_15  and  N_8 
REMARK    3  A    between atoms: C_21  and  C_15 
REMARK    4  A    between atoms: C_16  and  O_20 
REMARK    5  A    between atoms: O_20  and  C_26 
REMARK    6  A    between atoms: C_26  and  C_21 
REMARK    7  A    between atoms: O_31  and  C_21 
ROOT
ATOM      1  N   UNL d   1      -4.353   0.355   0.548  0.00  0.00    -0.360 N 
ATOM      2  N   UNL d   1      -7.204   1.646   0.878  0.00  0.00     0.092 N 
ATOM      3  C   UNL d   1      -5.130   0.980  -0.531  0.00  0.00     0.155 C 
ATOM      4  C   UNL d   1      -6.093   2.066  -0.004  0.00  0.00     0.292 C 
ATOM      5  C   UNL d   1      -5.757   0.264   2.583  0.00  0.00     0.050 C 
ATOM      6  C   UNL d   1      -5.093  -0.515   1.454  0.00  0.00     0.127 C 
ATOM      7  C   UNL d   1      -6.741   1.393   2.242  0.00  0.00     0.274 C 
ENDROOT
BRANCH   2   8
ATOM      8  C   UNL d   1      -8.052   0.627   0.254  0.00  0.00     0.306 C 
BRANCH   8   9
ATOM      9  C   UNL d   1      -9.291   0.112   1.010  0.00  0.00     0.170 C 
BRANCH   9  10
ATOM     10  C   UNL d   1     -10.360   1.186   1.265  0.00  0.00     0.209 C 
BRANCH  10  11
ATOM     11  O   UNL d   1     -11.440   0.552   1.967  0.00  0.00    -0.349 OA
BRANCH  11  12
ATOM     12  C   UNL d   1     -12.581   1.266   2.185  0.00  0.00     0.070 A 
ATOM     13  C   UNL d   1     -12.752   2.629   1.950  0.00  0.00     0.062 A 
ATOM     14  C   UNL d   1     -13.979   3.242   2.241  0.00  0.00     0.058 A 
ATOM     15 CL   UNL d   1     -14.119   4.937   1.931  0.00  0.00    -0.082 Cl
ATOM     16  C   UNL d   1     -15.037   2.491   2.769  0.00  0.00     0.056 A 
ATOM     17  C   UNL d   1     -14.863   1.125   3.003  0.00  0.00     0.028 A 
ATOM     18 CL   UNL d   1     -16.569   3.187   3.158  0.00  0.00    -0.083 Cl
ATOM     19  C   UNL d   1     -13.642   0.521   2.710  0.00  0.00     0.038 A 
ENDBRANCH  11  12
ENDBRANCH  10  11
ENDBRANCH   9  10
BRANCH   9  20
ATOM     20  O   UNL d   1      -9.849  -0.957   0.216  0.00  0.00    -0.392 OA
ATOM     21  H   UNL d   1     -10.260  -0.561  -0.572  0.00  0.00     0.210 HD
ENDBRANCH   9  20
ENDBRANCH   8   9
ENDBRANCH   2   8
BRANCH   1  22
ATOM     22  C   UNL d   1      -2.995   0.282   0.387  0.00  0.00     0.147 A 
ATOM     23  N   UNL d   1      -2.370   0.874  -0.609  0.00  0.00    -0.336 N 
ATOM     24  C   UNL d   1      -1.005   0.705  -0.537  0.00  0.00     0.051 A 
ATOM     25  HN  UNL d   1      -2.841   1.395  -1.348  1.00  0.00     0.168 HD
ATOM     26  C   UNL d   1      -0.062   1.236  -1.440  0.00  0.00     0.032 A 
ATOM     27  C   UNL d   1      -0.558  -0.052   0.541  0.00  0.00     0.036 A 
ATOM     28  C   UNL d   1       1.301   1.004  -1.234  0.00  0.00     0.026 A 
ATOM     29  C   UNL d   1       1.722   0.241  -0.149  0.00  0.00     0.035 A 
ATOM     30  C   UNL d   1       0.807  -0.308   0.754  0.00  0.00     0.045 A 
ATOM     31 CL   UNL d   1       3.406  -0.023   0.093  0.00  0.00    -0.084 Cl
ATOM     32  S   UNL d   1      -1.917  -0.540   1.469  0.00  0.00    -0.052 SA
ENDBRANCH   1  22
TORSDOF 7
