REMARK  6 active torsions:
REMARK  status: ('A' for Active; 'I' for Inactive)
REMARK    1  A    between atoms: C_7  and  C_18 
REMARK    2  A    between atoms: C_17  and  C_8 
REMARK    3  A    between atoms: C_21  and  C_17 
REMARK    4  A    between atoms: C_18  and  C_22 
REMARK    5  A    between atoms: C_23  and  C_21 
REMARK    6  A    between atoms: C_22  and  C_23 
ROOT
ATOM      1  C   UNL d   1       4.551   3.110  -0.256  0.00  0.00     0.001 C 
ENDROOT
BRANCH   1   2
ATOM      2  C   UNL d   1       6.004   2.622  -0.310  0.00  0.00     0.005 C 
BRANCH   2   3
ATOM      3  C   UNL d   1       6.276   1.667  -1.478  0.00  0.00     0.043 C 
BRANCH   3   4
ATOM      4  C   UNL d   1       7.660   1.085  -1.402  0.00  0.00    -0.004 A 
ATOM      5  C   UNL d   1       8.713   1.636  -2.021  0.00  0.00     0.066 A 
ATOM      6  C   UNL d   1      10.068   1.061  -1.940  0.00  0.00     0.178 A 
ATOM      7  O   UNL d   1      11.004   1.605  -2.513  0.00  0.00    -0.288 OA
ATOM      8  C   UNL d   1      10.244  -0.179  -1.141  0.00  0.00    -0.008 A 
ATOM      9  C   UNL d   1       9.188  -0.745  -0.543  0.00  0.00     0.066 A 
ATOM     10  C   UNL d   1      11.634  -0.725  -1.057  0.00  0.00     0.052 C 
ATOM     11  C   UNL d   1       7.829  -0.172  -0.626  0.00  0.00     0.178 A 
ATOM     12  O   UNL d   1       6.890  -0.722  -0.063  0.00  0.00    -0.288 OA
ENDBRANCH   3   4
ENDBRANCH   2   3
ENDBRANCH   1   2
BRANCH   1  13
ATOM     13  C   UNL d   1       3.497   2.004  -0.112  0.00  0.00     0.005 C 
BRANCH  13  14
ATOM     14  C   UNL d   1       3.707   1.146   1.139  0.00  0.00     0.043 C 
BRANCH  14  15
ATOM     15  C   UNL d   1       2.797  -0.049   1.183  0.00  0.00    -0.004 A 
ATOM     16  C   UNL d   1       3.165  -1.240   0.691  0.00  0.00     0.066 A 
ATOM     17  C   UNL d   1       2.309  -2.436   0.785  0.00  0.00     0.178 A 
ATOM     18  C   UNL d   1       1.029  -2.305   1.527  0.00  0.00    -0.008 A 
ATOM     19  O   UNL d   1       2.659  -3.493   0.277  0.00  0.00    -0.288 OA
ATOM     20  C   UNL d   1       0.660  -1.115   2.020  0.00  0.00     0.066 A 
ATOM     21  C   UNL d   1       0.220  -3.552   1.680  0.00  0.00     0.052 C 
ATOM     22  C   UNL d   1       1.486   0.100   1.861  0.00  0.00     0.178 A 
ATOM     23  O   UNL d   1       1.089   1.175   2.293  0.00  0.00    -0.288 OA
ENDBRANCH  14  15
ENDBRANCH  13  14
ENDBRANCH   1  13
TORSDOF 6
