REMARK  3 active torsions:
REMARK  status: ('A' for Active; 'I' for Inactive)
REMARK    1  A    between atoms: C_4  and  C_1 
REMARK    2  A    between atoms: C_18  and  C_5 
REMARK    3  A    between atoms: C_11  and  C_14 
ROOT
ATOM      1  C   UNL d   1       0.532  -1.000  -0.041  0.00  0.00     0.186 A 
ATOM      2  N   UNL d   1       1.206   0.099   0.212  0.00  0.00    -0.317 N 
ATOM      3  HN  UNL d   1       2.178   0.191   0.507  1.00  0.00     0.169 HD
ATOM      4  C   UNL d   1       0.283   1.101  -0.016  0.00  0.00     0.154 A 
ATOM      5  N   UNL d   1      -0.935   0.639  -0.353  0.00  0.00    -0.241 N 
ATOM      6  HN  UNL d   1      -1.781   1.176  -0.544  1.00  0.00     0.196 HD
ATOM      7  O   UNL d   1      -0.769  -0.741  -0.379  0.00  0.00    -0.217 OA
ENDROOT
BRANCH   4   8
ATOM      8  C   UNL d   1       0.622   2.526   0.053  0.00  0.00     0.078 A 
ATOM      9  N   UNL d   1       1.923   2.838   0.296  0.00  0.00    -0.362 N 
ATOM     10  C   UNL d   1       2.268   4.146   0.304  0.00  0.00     0.104 A 
ATOM     11  HN  UNL d   1       2.616   2.110   0.467  1.00  0.00     0.165 HD
ATOM     12  C   UNL d   1       1.377   5.185   0.082  0.00  0.00     0.063 A 
ATOM     13  C   UNL d   1       0.040   4.848  -0.149  0.00  0.00     0.020 A 
ATOM     14  C   UNL d   1      -0.343   3.507  -0.165  0.00  0.00     0.034 A 
BRANCH  12  15
ATOM     15  C   UNL d   1       1.840   6.609   0.079  0.00  0.00     0.418 C 
ATOM     16  F   UNL d   1       3.171   6.753   0.325  0.00  0.00    -0.166 F 
ATOM     17  F   UNL d   1       1.613   7.224  -1.115  0.00  0.00    -0.166 F 
ATOM     18  F   UNL d   1       1.203   7.365   1.015  0.00  0.00    -0.166 F 
ENDBRANCH  12  15
ENDBRANCH   4   8
BRANCH   1  19
ATOM     19  C   UNL d   1       1.114  -2.357   0.008  0.00  0.00     0.073 A 
ATOM     20  C   UNL d   1       0.479  -3.525  -0.339  0.00  0.00     0.089 A 
ATOM     21  O   UNL d   1       1.347  -4.560  -0.172  0.00  0.00    -0.242 OA
ATOM     22  C   UNL d   1      -0.863  -3.870  -0.843  0.00  0.00     0.080 C 
ATOM     23  N   UNL d   1       2.561  -4.081   0.287  0.00  0.00    -0.265 N 
ATOM     24  C   UNL d   1       2.415  -2.752   0.392  0.00  0.00     0.045 A 
ATOM     25  HN  UNL d   1       3.395  -4.626   0.502  1.00  0.00     0.194 HD
ATOM     26  C   UNL d   1       3.539  -1.914   0.871  0.00  0.00     0.071 C 
ENDBRANCH   1  19
TORSDOF 3
