REMARK  1 active torsions:
REMARK  status: ('A' for Active; 'I' for Inactive)
REMARK    1  A    between atoms: C_7  and  N_2 
ROOT
ATOM      1  S   UNL d   1       0.776   1.332  -0.566  0.00  0.00     0.161 S 
ATOM      2  N   UNL d   1      -0.670  -1.075   0.520  0.00  0.00    -0.248 N 
ATOM      3  C   UNL d   1       0.698  -1.204   0.236  0.00  0.00     0.245 C 
ATOM      4  C   UNL d   1      -1.446  -0.021   0.025  0.00  0.00     0.245 C 
ATOM      5  C   UNL d   1       1.533   0.027   0.309  0.00  0.00     0.244 C 
ATOM      6  C   UNL d   1      -0.830   1.336   0.112  0.00  0.00     0.244 C 
ATOM      7  O   UNL d   1       1.423   2.563  -0.157  0.00  0.00    -0.227 OA
ATOM      8  O   UNL d   1       0.686   0.966  -1.965  0.00  0.00    -0.227 OA
ATOM      9  O   UNL d   1       1.238  -2.285  -0.011  0.00  0.00    -0.272 OA
ATOM     10  O   UNL d   1      -2.621  -0.107  -0.334  0.00  0.00    -0.272 OA
ENDROOT
BRANCH   2  11
ATOM     11  C   UNL d   1      -1.306  -2.260   1.042  0.00  0.00     0.084 A 
ATOM     12  C   UNL d   1      -0.703  -2.903   2.145  0.00  0.00     0.146 A 
ATOM     13  C   UNL d   1      -1.279  -4.006   2.765  0.00  0.00     0.086 A 
ATOM     14  F   UNL d   1       0.412  -2.387   2.688  0.00  0.00    -0.204 F 
ATOM     15  C   UNL d   1      -2.482  -4.489   2.280  0.00  0.00     0.119 A 
ATOM     16  C   UNL d   1      -3.108  -3.885   1.194  0.00  0.00     0.045 A 
ATOM     17  F   UNL d   1      -3.058  -5.540   2.874  0.00  0.00    -0.206 F 
ATOM     18  C   UNL d   1      -2.527  -2.769   0.580  0.00  0.00     0.036 A 
ENDBRANCH   2  11
TORSDOF 1
