REMARK  3 active torsions:
REMARK  status: ('A' for Active; 'I' for Inactive)
REMARK    1  A    between atoms: C_2  and  C_1 
REMARK    2  A    between atoms: C_4  and  C_11 
REMARK    3  A    between atoms: C_15  and  C_7 
ROOT
ATOM      1  C   UNL d   1       1.015  -3.119   0.031  0.00  0.00     0.057 C 
ATOM      2  C   UNL d   1       2.214  -3.747   0.039  0.00  0.00     0.035 C 
ATOM      3  C   UNL d   1       0.974  -1.682   0.063  0.00  0.00     0.100 C 
ATOM      4  N   UNL d   1       0.950  -0.521   0.063  0.00  0.00    -0.191 NA
ENDROOT
BRANCH   1   5
ATOM      5  C   UNL d   1      -0.244  -3.847   0.022  0.00  0.00     0.003 A 
ATOM      6  C   UNL d   1      -0.378  -5.080   0.637  0.00  0.00     0.064 A 
ATOM      7  S   UNL d   1      -1.946  -5.727   0.516  0.00  0.00    -0.100 SA
ATOM      8  C   UNL d   1      -2.517  -4.366  -0.360  0.00  0.00     0.016 A 
ATOM      9  C   UNL d   1      -1.503  -3.422  -0.578  0.00  0.00    -0.007 A 
ATOM     10  C   UNL d   1      -3.835  -4.175  -0.829  0.00  0.00     0.019 A 
ATOM     11  C   UNL d   1      -1.862  -2.261  -1.318  0.00  0.00     0.014 A 
ATOM     12  C   UNL d   1      -3.170  -2.064  -1.774  0.00  0.00     0.001 A 
ATOM     13  C   UNL d   1      -4.148  -3.012  -1.530  0.00  0.00     0.001 A 
ENDBRANCH   1   5
BRANCH   2  14
ATOM     14  C   UNL d   1       3.520  -3.082   0.105  0.00  0.00    -0.035 A 
ATOM     15  C   UNL d   1       4.097  -2.803   1.348  0.00  0.00     0.012 A 
ATOM     16  C   UNL d   1       5.341  -2.170   1.421  0.00  0.00     0.017 A 
ATOM     17  C   UNL d   1       6.027  -1.808   0.252  0.00  0.00     0.048 A 
ATOM     18  C   UNL d   1       5.438  -2.087  -0.992  0.00  0.00     0.017 A 
ATOM     19  C   UNL d   1       4.193  -2.720  -1.065  0.00  0.00     0.012 A 
BRANCH  17  20
ATOM     20  C   UNL d   1       7.379  -1.140   0.316  0.00  0.00     0.417 C 
ATOM     21  F   UNL d   1       7.820  -0.919   1.586  0.00  0.00    -0.166 F 
ATOM     22  F   UNL d   1       8.350  -1.881  -0.289  0.00  0.00    -0.166 F 
ATOM     23  F   UNL d   1       7.396   0.072  -0.302  0.00  0.00    -0.166 F 
ENDBRANCH  17  20
ENDBRANCH   2  14
TORSDOF 3
