REMARK  5 active torsions:
REMARK  status: ('A' for Active; 'I' for Inactive)
REMARK    1  A    between atoms: N_2  and  C_1 
REMARK    2  A    between atoms: C_5  and  N_2 
REMARK    3  A    between atoms: C_8  and  N_4 
REMARK    4  A    between atoms: S_11  and  C_7 
REMARK    5  A    between atoms: C_10  and  C_8 
ROOT
ATOM      1  C   UNL d   1       1.144  -0.030  -0.079  0.00  0.00     0.172 C 
ATOM      2  S   UNL d   1       0.407  -1.523  -0.239  0.00  0.00    -0.041 SA
ATOM      3  N   UNL d   1       2.509  -0.007  -0.099  0.00  0.00    -0.363 N 
ATOM      4  H   UNL d   1       2.911  -0.932  -0.203  0.00  0.00     0.162 HD
ENDROOT
BRANCH   1   5
ATOM      5  N   UNL d   1       0.537   1.201   0.009  0.00  0.00    -0.333 N 
ATOM      6  H   UNL d   1       0.952   1.897  -0.601  0.00  0.00     0.168 HD
BRANCH   5   7
ATOM      7  C   UNL d   1      -0.779   1.456   0.451  0.00  0.00     0.035 A 
ATOM      8  C   UNL d   1      -1.312   0.771   1.547  0.00  0.00     0.048 A 
ATOM      9  C   UNL d   1      -2.624   0.994   1.970  0.00  0.00     0.002 A 
ATOM     10  C   UNL d   1      -3.389   1.959   1.307  0.00  0.00     0.018 A 
ATOM     11  C   UNL d   1      -2.843   2.688   0.245  0.00  0.00     0.004 A 
ATOM     12  C   UNL d   1      -1.534   2.450  -0.172  0.00  0.00     0.029 A 
BRANCH   9  13
ATOM     13  S   UNL d   1      -3.358   0.126   3.351  0.00  0.00    -0.134 SA
ATOM     14  C   UNL d   1      -2.496  -1.473   3.280  0.00  0.00     0.095 C 
ENDBRANCH   9  13
ENDBRANCH   5   7
ENDBRANCH   1   5
BRANCH   3  15
ATOM     15  C   UNL d   1       3.339   0.948   0.613  0.00  0.00     0.160 C 
BRANCH  15  16
ATOM     16  C   UNL d   1       4.318   1.682  -0.268  0.00  0.00    -0.040 A 
ATOM     17  C   UNL d   1       4.809   2.925   0.166  0.00  0.00     0.012 A 
ATOM     18  C   UNL d   1       5.751   3.626  -0.592  0.00  0.00     0.043 A 
ATOM     19  C   UNL d   1       6.212   3.077  -1.780  0.00  0.00     0.116 A 
ATOM     20  C   UNL d   1       5.758   1.841  -2.221  0.00  0.00     0.043 A 
ATOM     21  F   UNL d   1       7.118   3.747  -2.507  0.00  0.00    -0.206 F 
ATOM     22  C   UNL d   1       4.817   1.140  -1.464  0.00  0.00     0.012 A 
ENDBRANCH  15  16
ENDBRANCH   3  15
TORSDOF 5
