REMARK  5 active torsions:
REMARK  status: ('A' for Active; 'I' for Inactive)
REMARK    1  A    between atoms: C_2  and  S_1 
REMARK    2  A    between atoms: N_5  and  S_1 
REMARK    3  A    between atoms: N_3  and  C_12 
REMARK    4  A    between atoms: O_13  and  C_4 
REMARK    5  A    between atoms: C_18  and  O_13 
ROOT
ATOM      1  C   UNL d   1       0.578  -1.375  -0.759  0.00  0.00     0.078 A 
ATOM      2  C   UNL d   1       0.117  -3.859  -1.977  0.00  0.00     0.119 A 
ATOM      3  C   UNL d   1       1.132  -3.716  -1.014  0.00  0.00     0.071 A 
ATOM      4  C   UNL d   1      -0.625  -2.723  -2.349  0.00  0.00     0.071 A 
ATOM      5  C   UNL d   1      -0.395  -1.483  -1.750  0.00  0.00     0.051 A 
ATOM      6  C   UNL d   1       1.336  -2.486  -0.382  0.00  0.00     0.051 A 
ATOM      7 CL   UNL d   1       2.251  -4.975  -0.622  0.00  0.00    -0.081 Cl
ATOM      8 CL   UNL d   1      -1.813  -2.801  -3.605  0.00  0.00    -0.081 Cl
ENDROOT
BRANCH   2   9
ATOM      9  O   UNL d   1      -0.107  -5.006  -2.707  0.00  0.00    -0.307 OA
BRANCH   9  10
ATOM     10  C   UNL d   1      -0.307  -6.214  -2.080  0.00  0.00     0.076 A 
ATOM     11  C   UNL d   1      -0.750  -6.382  -0.765  0.00  0.00     0.040 A 
ATOM     12  C   UNL d   1      -0.827  -7.666  -0.214  0.00  0.00     0.039 A 
ATOM     13  C   UNL d   1      -0.508  -8.781  -1.001  0.00  0.00     0.103 A 
ATOM     14  C   UNL d   1      -0.136  -8.622  -2.341  0.00  0.00     0.039 A 
ATOM     15  C   UNL d   1      -0.038  -7.335  -2.873  0.00  0.00     0.040 A 
BRANCH  13  16
ATOM     16  N   UNL d   1      -0.556 -10.126  -0.414  0.00  0.00    -0.116 N 
ATOM     17  O   UNL d   1      -0.827 -10.219   0.792  0.00  0.00    -0.532 OA
ATOM     18  O   UNL d   1      -0.319 -11.089  -1.157  0.00  0.00    -0.532 OA
ENDBRANCH  13  16
ENDBRANCH   9  10
ENDBRANCH   2   9
BRANCH   1  19
ATOM     19  S   UNL d   1       1.042   0.221  -0.131  0.00  0.00     0.243 S 
ATOM     20  O   UNL d   1       0.327   1.224  -0.886  0.00  0.00    -0.206 OA
ATOM     21  O   UNL d   1       2.489   0.227  -0.059  0.00  0.00    -0.206 OA
BRANCH  19  22
ATOM     22  N   UNL d   1       0.434   0.218   1.462  0.00  0.00    -0.206 NA
ATOM     23  C   UNL d   1      -1.043   0.290   1.608  0.00  0.00     0.107 C 
ATOM     24  C   UNL d   1      -1.329   1.763   1.840  0.00  0.00     0.017 C 
ATOM     25  C   UNL d   1      -0.174   2.205   2.716  0.00  0.00     0.017 C 
ATOM     26  C   UNL d   1       0.998   1.318   2.310  0.00  0.00     0.107 C 
ENDBRANCH  19  22
ENDBRANCH   1  19
TORSDOF 5
