REMARK  2 active torsions:
REMARK  status: ('A' for Active; 'I' for Inactive)
REMARK    1  A    between atoms: C_5  and  N_1 
REMARK    2  A    between atoms: C_7  and  C_2 
ROOT
ATOM      1  N   UNL d   1      -0.816  -0.945  -0.315  0.00  0.00    -0.296 N 
ATOM      2  C   UNL d   1       0.593  -1.197  -0.052  0.00  0.00     0.190 C 
ATOM      3  C   UNL d   1      -1.237   0.369  -0.078  0.00  0.00     0.239 C 
ATOM      4  S   UNL d   1       1.407   0.406   0.187  0.00  0.00    -0.124 SA
ATOM      5  C   UNL d   1      -0.089   1.354  -0.171  0.00  0.00     0.138 C 
ATOM      6  O   UNL d   1      -2.385   0.735   0.151  0.00  0.00    -0.272 OA
ATOM      7  C   UNL d   1      -0.032   1.930  -1.578  0.00  0.00     0.031 C 
ENDROOT
BRANCH   1   8
ATOM      8  C   UNL d   1      -1.742  -1.998  -0.604  0.00  0.00     0.077 A 
ATOM      9  C   UNL d   1      -2.907  -1.748  -1.360  0.00  0.00     0.146 A 
ATOM     10  C   UNL d   1      -3.789  -2.765  -1.710  0.00  0.00     0.086 A 
ATOM     11  F   UNL d   1      -3.140  -0.536  -1.886  0.00  0.00    -0.204 F 
ATOM     12  C   UNL d   1      -3.504  -4.064  -1.325  0.00  0.00     0.119 A 
ATOM     13  C   UNL d   1      -2.358  -4.355  -0.598  0.00  0.00     0.044 A 
ATOM     14  F   UNL d   1      -4.329  -5.057  -1.685  0.00  0.00    -0.206 F 
ATOM     15  C   UNL d   1      -1.480  -3.327  -0.236  0.00  0.00     0.036 A 
ENDBRANCH   1   8
BRANCH   2  16
ATOM     16  C   UNL d   1       1.325  -2.005  -1.098  0.00  0.00    -0.010 A 
ATOM     17  C   UNL d   1       2.372  -2.843  -0.713  0.00  0.00     0.097 A 
ATOM     18  N   UNL d   1       3.067  -3.633  -1.558  0.00  0.00    -0.375 N 
ATOM     19  C   UNL d   1       2.726  -3.578  -2.862  0.00  0.00     0.087 A 
ATOM     20  HN  UNL d   1       3.814  -4.243  -1.227  1.00  0.00     0.164 HD
ATOM     21  C   UNL d   1       1.723  -2.763  -3.358  0.00  0.00     0.018 A 
ATOM     22  C   UNL d   1       1.020  -1.961  -2.464  0.00  0.00     0.013 A 
ENDBRANCH   2  16
TORSDOF 2
