REMARK  3 active torsions:
REMARK  status: ('A' for Active; 'I' for Inactive)
REMARK    1  A    between atoms: N_5  and  C_1 
REMARK    2  A    between atoms: C_2  and  C_6 
REMARK       I    between atoms: N_7  and  C_2 
REMARK    3  A    between atoms: C_8  and  N_7 
ROOT
ATOM      1  C   UNL d   1      -0.123   0.761  -0.178  0.00  0.00     0.082 A 
ATOM      2  C   UNL d   1       1.099   0.084  -0.391  0.00  0.00     0.064 A 
ATOM      3  C   UNL d   1      -1.284  -0.016   0.014  0.00  0.00     0.064 A 
ATOM      4  C   UNL d   1       0.003  -2.074  -0.193  0.00  0.00     0.035 A 
ATOM      5  C   UNL d   1      -1.209  -1.415   0.021  0.00  0.00     0.043 A 
ATOM      6  C   UNL d   1       1.155  -1.323  -0.409  0.00  0.00     0.043 A 
ATOM      7 CL   UNL d   1      -2.893   0.622   0.120  0.00  0.00    -0.082 Cl
ATOM      8 CL   UNL d   1       2.649   0.860  -0.475  0.00  0.00    -0.082 Cl
ENDROOT
BRANCH   4   9
ATOM      9  C   UNL d   1       0.009  -3.558  -0.061  0.00  0.00     0.256 C 
ATOM     10  N   UNL d   1       0.921  -4.257  -0.836  0.00  0.00    -0.320 N 
ATOM     11  H   UNL d   1       1.619  -3.736  -1.345  0.00  0.00     0.169 HD
ATOM     12  O   UNL d   1      -0.756  -4.033   0.768  0.00  0.00    -0.267 OA
BRANCH  10  13
ATOM     13  C   UNL d   1       1.082  -5.666  -0.818  0.00  0.00     0.074 A 
ATOM     14  C   UNL d   1       0.084  -6.583  -0.445  0.00  0.00     0.146 A 
ATOM     15  C   UNL d   1       0.347  -7.948  -0.366  0.00  0.00     0.086 A 
ATOM     16  F   UNL d   1      -1.184  -6.200  -0.249  0.00  0.00    -0.204 F 
ATOM     17  C   UNL d   1       1.612  -8.412  -0.688  0.00  0.00     0.119 A 
ATOM     18  C   UNL d   1       2.603  -7.539  -1.121  0.00  0.00     0.044 A 
ATOM     19  F   UNL d   1       1.879  -9.721  -0.598  0.00  0.00    -0.206 F 
ATOM     20  C   UNL d   1       2.336  -6.168  -1.200  0.00  0.00     0.036 A 
ENDBRANCH  10  13
ENDBRANCH   4   9
BRANCH   1  21
ATOM     21  N   UNL d   1      -0.183   2.188  -0.138  0.00  0.00    -0.330 N 
ATOM     22  C   UNL d   1       0.490   3.069  -0.966  0.00  0.00     0.097 A 
ATOM     23  C   UNL d   1       0.161   4.363  -0.625  0.00  0.00     0.019 A 
ATOM     24  C   UNL d   1      -0.752   4.292   0.444  0.00  0.00     0.019 A 
ATOM     25  C   UNL d   1      -0.930   2.958   0.737  0.00  0.00     0.097 A 
ENDBRANCH   1  21
TORSDOF 3
