REMARK  7 active torsions:
REMARK  status: ('A' for Active; 'I' for Inactive)
REMARK    1  A    between atoms: S_2  and  C_1 
REMARK    2  A    between atoms: N_7  and  S_2 
REMARK    3  A    between atoms: C_8  and  C_3 
REMARK    4  A    between atoms: C_11  and  C_4 
REMARK    5  A    between atoms: C_15  and  N_7 
REMARK    6  A    between atoms: O_16  and  C_8 
REMARK    7  A    between atoms: C_22  and  O_16 
ROOT
ATOM      1  C   UNL d   1      -1.682  -0.670  -0.075  0.00  0.00     0.128 A 
ATOM      2  C   UNL d   1      -0.375  -1.249  -0.113  0.00  0.00     0.094 A 
ATOM      3  C   UNL d   1      -1.518   0.703  -0.098  0.00  0.00     0.110 A 
ATOM      4  O   UNL d   1      -0.182   0.992  -0.097  0.00  0.00    -0.312 OA
ATOM      5  C   UNL d   1       0.503  -0.180  -0.094  0.00  0.00     0.068 A 
ATOM      6  C   UNL d   1       1.977  -0.043  -0.094  0.00  0.00     0.078 C 
ENDROOT
BRANCH   1   7
ATOM      7  S   UNL d   1      -3.186  -1.506   0.036  0.00  0.00     0.249 S 
ATOM      8  O   UNL d   1      -2.849  -2.864   0.393  0.00  0.00    -0.205 OA
ATOM      9  O   UNL d   1      -3.981  -0.679   0.919  0.00  0.00    -0.205 OA
BRANCH   7  10
ATOM     10  N   UNL d   1      -3.826  -1.509  -1.534  0.00  0.00    -0.181 NA
ATOM     11  H   UNL d   1      -3.221  -2.089  -2.119  0.00  0.00     0.146 HD
BRANCH  10  12
ATOM     12  C   UNL d   1      -5.216  -1.838  -1.683  0.00  0.00     0.022 A 
ATOM     13  C   UNL d   1      -6.223  -1.065  -1.098  0.00  0.00     0.024 A 
ATOM     14  C   UNL d   1      -7.567  -1.360  -1.341  0.00  0.00     0.002 A 
ATOM     15  C   UNL d   1      -7.911  -2.417  -2.181  0.00  0.00     0.000 A 
ATOM     16  C   UNL d   1      -6.910  -3.180  -2.779  0.00  0.00     0.002 A 
ATOM     17  C   UNL d   1      -5.566  -2.887  -2.536  0.00  0.00     0.024 A 
ENDBRANCH  10  12
ENDBRANCH   7  10
ENDBRANCH   1   7
BRANCH   2  18
ATOM     18  C   UNL d   1       0.009  -2.643  -0.143  0.00  0.00     0.297 C 
ATOM     19  O   UNL d   1      -0.494  -3.457  -0.906  0.00  0.00    -0.259 OA
BRANCH  18  20
ATOM     20  O   UNL d   1       0.989  -2.900   0.763  0.00  0.00    -0.318 OA
BRANCH  20  21
ATOM     21  C   UNL d   1       1.273  -4.272   1.058  0.00  0.00     0.174 C 
ATOM     22  C   UNL d   1       0.714  -4.560   2.439  0.00  0.00     0.034 C 
ENDBRANCH  20  21
ENDBRANCH  18  20
ENDBRANCH   2  18
BRANCH   3  23
ATOM     23  C   UNL d   1      -2.378   1.885  -0.109  0.00  0.00    -0.001 A 
ATOM     24  C   UNL d   1      -1.996   3.036   0.599  0.00  0.00     0.016 A 
ATOM     25  C   UNL d   1      -2.797   4.183   0.596  0.00  0.00     0.024 A 
ATOM     26  C   UNL d   1      -3.994   4.187  -0.113  0.00  0.00     0.034 A 
ATOM     27  C   UNL d   1      -4.389   3.059  -0.827  0.00  0.00     0.024 A 
ATOM     28 CL   UNL d   1      -4.984   5.593  -0.119  0.00  0.00    -0.084 Cl
ATOM     29  C   UNL d   1      -3.577   1.921  -0.834  0.00  0.00     0.016 A 
ENDBRANCH   3  23
TORSDOF 7
