REMARK  2 active torsions:
REMARK  status: ('A' for Active; 'I' for Inactive)
REMARK    1  A    between atoms: C_7  and  C_1 
REMARK    2  A    between atoms: N_8  and  C_7 
ROOT
ATOM      1  C   UNL d   1      -0.899   0.926   0.063  0.00  0.00    -0.017 C 
ATOM      2  C   UNL d   1       0.406   1.500   0.162  0.00  0.00    -0.047 C 
ATOM      3  C   UNL d   1      -1.023  -0.497  -0.036  0.00  0.00    -0.047 C 
ATOM      4  C   UNL d   1       1.553   0.672   0.042  0.00  0.00    -0.049 C 
ATOM      5  C   UNL d   1       0.132  -1.324  -0.019  0.00  0.00    -0.049 C 
ATOM      6  C   UNL d   1       1.421  -0.741  -0.004  0.00  0.00    -0.049 C 
ATOM      7  C   UNL d   1      -2.385  -1.159  -0.128  0.00  0.00     0.049 C 
ATOM      8  C   UNL d   1       0.623   2.983   0.369  0.00  0.00     0.049 C 
ATOM      9  C   UNL d   1       2.948   1.269  -0.008  0.00  0.00     0.049 C 
ATOM     10  C   UNL d   1       0.011  -2.834  -0.012  0.00  0.00     0.049 C 
ATOM     11  C   UNL d   1       2.673  -1.590  -0.043  0.00  0.00     0.049 C 
ENDROOT
BRANCH   1  12
ATOM     12  C   UNL d   1      -2.161   1.795   0.079  0.00  0.00     0.312 C 
BRANCH  12  13
ATOM     13  N   UNL d   1      -2.769   2.019  -1.258  0.00  0.00     0.092 N 
ATOM     14  C   UNL d   1      -1.944   2.916  -2.078  0.00  0.00     0.272 C 
ATOM     15  C   UNL d   1      -2.537   4.120  -2.810  0.00  0.00     0.030 C 
ATOM     16  C   UNL d   1      -3.587   3.791  -3.859  0.00  0.00     0.002 C 
ATOM     17  C   UNL d   1      -4.952   3.558  -3.239  0.00  0.00     0.002 C 
ATOM     18  C   UNL d   1      -5.013   2.281  -2.414  0.00  0.00     0.030 C 
ATOM     19  C   UNL d   1      -4.192   2.328  -1.122  0.00  0.00     0.272 C 
ENDBRANCH  12  13
ENDBRANCH   1  12
TORSDOF 2
