REMARK  5 active torsions:
REMARK  status: ('A' for Active; 'I' for Inactive)
REMARK    1  A    between atoms: C_6  and  C_1 
REMARK    2  A    between atoms: C_12  and  C_3 
REMARK    3  A    between atoms: O_15  and  C_6 
REMARK    4  A    between atoms: C_7  and  N_11 
REMARK    5  A    between atoms: N_11  and  N_8 
ROOT
ATOM      1  C   UNL d   1      -0.176   1.187  -0.021  0.00  0.00     0.111 A 
ATOM      2  N   UNL d   1       0.623   0.058  -0.024  0.00  0.00    -0.355 N 
ATOM      3  C   UNL d   1      -1.487  -0.698  -0.031  0.00  0.00    -0.001 A 
ATOM      4  C   UNL d   1      -0.162  -1.077  -0.028  0.00  0.00     0.104 A 
ATOM      5  C   UNL d   1      -1.486   0.720  -0.024  0.00  0.00     0.050 A 
ATOM      6  C   UNL d   1       2.069  -0.014  -0.029  0.00  0.00     0.156 C 
ENDROOT
BRANCH   3   7
ATOM      7  C   UNL d   1      -2.629  -1.586  -0.046  0.00  0.00     0.120 C 
ATOM      8  N   UNL d   1      -3.808  -1.054  -0.058  0.00  0.00    -0.309 N 
ATOM      9  HN  UNL d   1      -3.946  -0.044  -0.053  1.00  0.00     0.186 HD
BRANCH   8  10
ATOM     10  N   UNL d   1      -4.856  -1.929  -0.079  0.00  0.00    -0.277 N 
ATOM     11  H   UNL d   1      -4.701  -2.933  -0.087  0.00  0.00     0.189 HD
BRANCH  10  12
ATOM     12  C   UNL d   1      -6.145  -1.470  -0.098  0.00  0.00     0.184 C 
ATOM     13  S   UNL d   1      -7.452  -2.489  -0.133  0.00  0.00    -0.040 SA
ATOM     14  N   UNL d   1      -6.281  -0.122  -0.087  0.00  0.00    -0.375 N 
ATOM     15  H   UNL d   1      -5.428   0.425  -0.070  0.00  0.00     0.158 HD
ATOM     16  H   UNL d   1      -7.185   0.325  -0.102  0.00  0.00     0.158 HD
ENDBRANCH  10  12
ENDBRANCH   8  10
ENDBRANCH   3   7
BRANCH   1  17
ATOM     17  C   UNL d   1       0.261   2.571  -0.021  0.00  0.00     0.309 C 
ATOM     18  O   UNL d   1       1.418   2.969  -0.032  0.00  0.00    -0.258 OA
BRANCH  17  19
ATOM     19  O   UNL d   1      -0.831   3.390  -0.005  0.00  0.00    -0.321 OA
ATOM     20  C   UNL d   1      -0.532   4.784  -0.003  0.00  0.00     0.213 C 
ENDBRANCH  17  19
ENDBRANCH   1  17
TORSDOF 5
