REMARK  7 active torsions:
REMARK  status: ('A' for Active; 'I' for Inactive)
REMARK    1  A    between atoms: C_6  and  C_1 
REMARK    2  A    between atoms: N_5  and  C_2 
REMARK    3  A    between atoms: C_3  and  N_5 
REMARK    4  A    between atoms: N_4  and  C_3 
REMARK       I    between atoms: C_7  and  N_4 
REMARK    5  A    between atoms: O_15  and  C_6 
REMARK    6  A    between atoms: O_14  and  C_7 
REMARK    7  A    between atoms: C_16  and  O_14 
ROOT
ATOM      1  N   UNL d   1       2.419   1.601   0.379  0.00  0.00    -0.332 N 
ATOM      2  H   UNL d   1       3.285   1.139   0.659  0.00  0.00     0.168 HD
ENDROOT
BRANCH   1   3
ATOM      3  C   UNL d   1       2.240   2.895   0.811  0.00  0.00     0.180 C 
ATOM      4  S   UNL d   1       0.794   3.624   1.256  0.00  0.00    -0.040 SA
BRANCH   3   5
ATOM      5  N   UNL d   1       3.366   3.676   0.930  0.00  0.00    -0.279 N 
ATOM      6  C   UNL d   1       4.673   3.449   0.585  0.00  0.00     0.366 C 
ATOM      7  O   UNL d   1       5.141   2.394   0.184  0.00  0.00    -0.238 OA
ATOM      8  H   UNL d   1       3.191   4.621   1.244  0.00  0.00     0.173 HD
BRANCH   6   9
ATOM      9  O   UNL d   1       5.370   4.593   0.810  0.00  0.00    -0.304 OA
BRANCH   9  10
ATOM     10  C   UNL d   1       6.792   4.553   0.614  0.00  0.00     0.176 C 
ATOM     11  C   UNL d   1       7.147   5.139  -0.738  0.00  0.00     0.034 C 
ENDBRANCH   9  10
ENDBRANCH   6   9
ENDBRANCH   3   5
ENDBRANCH   1   3
BRANCH   1  12
ATOM     12  C   UNL d   1       1.465   0.796  -0.259  0.00  0.00     0.058 A 
ATOM     13  C   UNL d   1       1.419  -0.593  -0.194  0.00  0.00     0.106 A 
ATOM     14  S   UNL d   1       0.144  -1.224  -1.177  0.00  0.00    -0.094 SA
ATOM     15  C   UNL d   1      -0.337   0.321  -1.688  0.00  0.00     0.053 A 
ATOM     16  C   UNL d   1       0.445   1.304  -1.135  0.00  0.00     0.038 A 
BRANCH  13  17
ATOM     17  C   UNL d   1       2.178  -1.574   0.570  0.00  0.00     0.302 C 
ATOM     18  O   UNL d   1       2.042  -2.791   0.521  0.00  0.00    -0.259 OA
BRANCH  17  19
ATOM     19  O   UNL d   1       3.071  -0.955   1.403  0.00  0.00    -0.322 OA
ATOM     20  C   UNL d   1       3.768  -1.872   2.253  0.00  0.00     0.213 C 
ENDBRANCH  17  19
ENDBRANCH  13  17
ENDBRANCH   1  12
TORSDOF 7
