REMARK  1 active torsions:
REMARK  status: ('A' for Active; 'I' for Inactive)
REMARK    1  A    between atoms: N_3  and  C_1 
REMARK       I    between atoms: C_6  and  N_4 
ROOT
ATOM      1  C   UNL d   1       1.095  -1.781   0.130  0.00  0.00     0.131 A 
ATOM      2  C   UNL d   1       2.105  -0.822   0.053  0.00  0.00     0.076 A 
ATOM      3  N   UNL d   1       3.526  -0.830   0.013  0.00  0.00    -0.315 N 
ATOM      4  C   UNL d   1       1.678   0.521   0.012  0.00  0.00    -0.026 A 
ATOM      5  C   UNL d   1       4.513  -1.792  -0.106  0.00  0.00     0.220 C 
ATOM      6  C   UNL d   1      -0.272  -1.420   0.095  0.00  0.00     0.057 A 
ATOM      7  C   UNL d   1       4.012   0.562   0.070  0.00  0.00     0.137 A 
ATOM      8  C   UNL d   1       0.337   0.908  -0.014  0.00  0.00     0.028 A 
ATOM      9  C   UNL d   1       2.815   1.492   0.011  0.00  0.00     0.061 A 
ATOM     10  C   UNL d   1      -0.638  -0.078   0.013  0.00  0.00     0.014 A 
ATOM     11  O   UNL d   1       5.707  -1.475   0.008  0.00  0.00    -0.273 OA
ATOM     12 BR   UNL d   1      -2.463   0.403  -0.016  0.00  0.00    -0.051 Br
ATOM     13  C   UNL d   1       4.207  -3.216  -0.433  0.00  0.00     0.117 C 
ENDROOT
BRANCH   1  14
ATOM     14  N   UNL d   1       1.330  -3.177   0.408  0.00  0.00    -0.113 N 
ATOM     15  O   UNL d   1       1.833  -3.451   1.502  0.00  0.00    -0.532 OA
ATOM     16  O   UNL d   1       0.942  -3.990  -0.441  0.00  0.00    -0.532 OA
ENDBRANCH   1  14
TORSDOF 1
