REMARK  9 active torsions:
REMARK  status: ('A' for Active; 'I' for Inactive)
REMARK    1  A    between atoms: C_4  and  S_1 
REMARK    2  A    between atoms: C_5  and  S_1 
REMARK    3  A    between atoms: C_2  and  C_3 
REMARK    4  A    between atoms: C_3  and  O_17 
REMARK    5  A    between atoms: C_24  and  C_5 
REMARK    6  A    between atoms: O_17  and  C_26 
REMARK    7  A    between atoms: S_22  and  C_24 
REMARK    8  A    between atoms: C_25  and  S_22 
REMARK    9  A    between atoms: C_26  and  C_25 
ROOT
ATOM      1  S   UNL d   1       0.331   3.891   2.063  0.00  0.00    -0.166 SA
ENDROOT
BRANCH   1   2
ATOM      2  C   UNL d   1       1.075   2.227   1.926  0.00  0.00     0.089 C 
BRANCH   2   3
ATOM      3  C   UNL d   1       0.507   1.281   2.969  0.00  0.00     0.156 C 
BRANCH   3   4
ATOM      4  S   UNL d   1       1.213  -0.335   2.786  0.00  0.00     0.176 S 
ATOM      5  O   UNL d   1       0.760  -0.892   1.526  0.00  0.00    -0.223 OA
ATOM      6  O   UNL d   1       2.625  -0.248   3.098  0.00  0.00    -0.223 OA
BRANCH   4   7
ATOM      7  C   UNL d   1       0.441  -1.282   4.084  0.00  0.00     0.059 A 
ATOM      8  C   UNL d   1      -0.768  -1.937   3.828  0.00  0.00     0.025 A 
ATOM      9  C   UNL d   1      -1.309  -2.785   4.797  0.00  0.00     0.025 A 
ATOM     10  C   UNL d   1      -0.640  -2.975   6.007  0.00  0.00     0.034 A 
ATOM     11  C   UNL d   1       0.556  -2.304   6.269  0.00  0.00     0.025 A 
ATOM     12 CL   UNL d   1      -1.278  -4.068   7.171  0.00  0.00    -0.084 Cl
ATOM     13  C   UNL d   1       1.103  -1.454   5.304  0.00  0.00     0.025 A 
ENDBRANCH   4   7
ENDBRANCH   3   4
ENDBRANCH   2   3
ENDBRANCH   1   2
BRANCH   1  14
ATOM     14  C   UNL d   1       0.983   4.400   3.698  0.00  0.00     0.101 C 
BRANCH  14  15
ATOM     15  C   UNL d   1       0.482   5.792   4.083  0.00  0.00     0.189 C 
BRANCH  15  16
ATOM     16  O   UNL d   1       0.902   6.800   3.151  0.00  0.00    -0.317 OA
BRANCH  16  17
ATOM     17  C   UNL d   1       2.184   7.219   3.279  0.00  0.00     0.293 C 
ATOM     18  O   UNL d   1       2.978   6.841   4.120  0.00  0.00    -0.259 OA
BRANCH  17  19
ATOM     19  C   UNL d   1       2.502   8.231   2.236  0.00  0.00     0.042 A 
ATOM     20  C   UNL d   1       3.755   8.855   2.290  0.00  0.00     0.041 A 
ATOM     21  C   UNL d   1       4.089   9.820   1.342  0.00  0.00     0.036 A 
ATOM     22 CL   UNL d   1       5.623  10.595   1.421  0.00  0.00    -0.084 Cl
ATOM     23  C   UNL d   1       3.194  10.167   0.334  0.00  0.00     0.047 A 
ATOM     24  C   UNL d   1       1.954   9.536   0.277  0.00  0.00     0.036 A 
ATOM     25  C   UNL d   1       1.600   8.571   1.220  0.00  0.00     0.041 A 
ATOM     26 CL   UNL d   1       0.845   9.953  -0.971  0.00  0.00    -0.084 Cl
ENDBRANCH  17  19
ENDBRANCH  16  17
ENDBRANCH  15  16
ENDBRANCH  14  15
ENDBRANCH   1  14
TORSDOF 9
