REMARK  2 active torsions:
REMARK  status: ('A' for Active; 'I' for Inactive)
REMARK       I    between atoms: C_6  and  N_1 
REMARK    1  A    between atoms: O_7  and  C_2 
REMARK    2  A    between atoms: C_8  and  O_7 
ROOT
ATOM      1  N   UNL d   1       1.537   1.214   0.001  0.00  0.00    -0.290 N 
ATOM      2  C   UNL d   1       1.688  -1.051  -0.036  0.00  0.00     0.107 A 
ATOM      3  C   UNL d   1       2.399   0.115   0.003  0.00  0.00     0.138 A 
ATOM      4  C   UNL d   1       0.221   0.703   0.000  0.00  0.00     0.054 A 
ATOM      5  C   UNL d   1       0.318  -0.707  -0.006  0.00  0.00     0.027 A 
ATOM      6  C   UNL d   1       2.070   2.530   0.007  0.00  0.00     0.224 C 
ATOM      7  O   UNL d   1       3.295   2.662   0.020  0.00  0.00    -0.273 OA
ATOM      8  C   UNL d   1      -0.856  -1.495   0.002  0.00  0.00     0.017 A 
ATOM      9  C   UNL d   1      -1.063   1.293   0.005  0.00  0.00     0.031 A 
ATOM     10  C   UNL d   1       1.189   3.731   0.000  0.00  0.00     0.118 C 
ATOM     11  C   UNL d   1      -2.111  -0.891   0.005  0.00  0.00     0.001 A 
ATOM     12  C   UNL d   1      -2.209   0.488   0.005  0.00  0.00     0.002 A 
ENDROOT
BRANCH   2  13
ATOM     13  O   UNL d   1       2.171  -2.316  -0.037  0.00  0.00    -0.277 OA
BRANCH  13  14
ATOM     14  C   UNL d   1       3.391  -2.589  -0.591  0.00  0.00     0.260 C 
ATOM     15  O   UNL d   1       4.141  -1.813  -1.169  0.00  0.00    -0.265 OA
ATOM     16  C   UNL d   1       3.716  -4.048  -0.441  0.00  0.00     0.126 C 
ENDBRANCH  13  14
ENDBRANCH   2  13
TORSDOF 2
