REMARK  13 active torsions:
REMARK  status: ('A' for Active; 'I' for Inactive)
REMARK    1  A    between atoms: C_1  and  O_8 
REMARK    2  A    between atoms: C_2  and  O_9 
REMARK    3  A    between atoms: C_3  and  O_11 
REMARK    4  A    between atoms: C_4  and  O_22 
REMARK    5  A    between atoms: C_6  and  C_15 
REMARK    6  A    between atoms: C_7  and  O_10 
REMARK    7  A    between atoms: C_16  and  C_7 
REMARK    8  A    between atoms: C_17  and  C_7 
REMARK    9  A    between atoms: C_18  and  C_7 
REMARK   10  A    between atoms: C_12  and  O_8 
REMARK   11  A    between atoms: C_13  and  O_9 
REMARK   12  A    between atoms: O_10  and  C_15 
REMARK   13  A    between atoms: C_14  and  O_11 
ROOT
ATOM      1  C   UNL d   1      -1.493   2.353   0.243  0.00  0.00     0.205 C 
ENDROOT
BRANCH   1   2
ATOM      2  O   UNL d   1      -0.898   3.654   0.147  0.00  0.00    -0.363 OA
BRANCH   2   3
ATOM      3  C   UNL d   1      -1.813   4.740  -0.226  0.00  0.00     0.142 C 
BRANCH   3   4
ATOM      4  C   UNL d   1      -2.892   4.805   0.902  0.00  0.00    -0.015 A 
ATOM      5  C   UNL d   1      -2.630   5.492   2.106  0.00  0.00     0.011 A 
ATOM      6  C   UNL d   1      -3.575   5.546   3.135  0.00  0.00     0.001 A 
ATOM      7  C   UNL d   1      -4.792   4.886   3.002  0.00  0.00     0.000 A 
ATOM      8  C   UNL d   1      -5.058   4.156   1.849  0.00  0.00     0.001 A 
ATOM      9  C   UNL d   1      -4.115   4.107   0.819  0.00  0.00     0.011 A 
ENDBRANCH   3   4
BRANCH   3  10
ATOM     10  C   UNL d   1      -0.991   6.072  -0.292  0.00  0.00    -0.015 A 
ATOM     11  C   UNL d   1       0.411   6.091  -0.202  0.00  0.00     0.011 A 
ATOM     12  C   UNL d   1       1.123   7.291  -0.328  0.00  0.00     0.001 A 
ATOM     13  C   UNL d   1       0.450   8.491  -0.549  0.00  0.00     0.000 A 
ATOM     14  C   UNL d   1      -0.937   8.500  -0.633  0.00  0.00     0.001 A 
ATOM     15  C   UNL d   1      -1.650   7.306  -0.504  0.00  0.00     0.011 A 
ENDBRANCH   3  10
BRANCH   3  16
ATOM     16  C   UNL d   1      -2.340   4.520  -1.683  0.00  0.00    -0.015 A 
ATOM     17  C   UNL d   1      -3.579   5.026  -2.125  0.00  0.00     0.011 A 
ATOM     18  C   UNL d   1      -4.013   4.840  -3.440  0.00  0.00     0.001 A 
ATOM     19  C   UNL d   1      -3.201   4.179  -4.355  0.00  0.00     0.000 A 
ATOM     20  C   UNL d   1      -1.947   3.720  -3.962  0.00  0.00     0.001 A 
ATOM     21  C   UNL d   1      -1.517   3.899  -2.645  0.00  0.00     0.011 A 
ENDBRANCH   3  16
ENDBRANCH   2   3
ENDBRANCH   1   2
BRANCH   1  22
ATOM     22  C   UNL d   1      -0.465   1.216   0.380  0.00  0.00     0.180 C 
ATOM     23  O   UNL d   1       0.482   1.272  -0.697  0.00  0.00    -0.348 OA
ATOM     24  C   UNL d   1       1.272   0.083  -0.772  0.00  0.00     0.291 C 
ATOM     25  C   UNL d   1       2.141  -0.088   0.497  0.00  0.00     0.219 C 
ATOM     26  C   UNL d   1       1.261   0.013   1.754  0.00  0.00     0.198 C 
ATOM     27  C   UNL d   1       0.240   1.177   1.740  0.00  0.00     0.195 C 
BRANCH  24  28
ATOM     28  O   UNL d   1       0.431  -1.062  -0.979  0.00  0.00    -0.363 OA
ATOM     29  C   UNL d   1      -0.202  -1.027  -2.255  0.00  0.00     0.204 C 
ENDBRANCH  24  28
BRANCH  25  30
ATOM     30  O   UNL d   1       2.779  -1.399   0.443  0.00  0.00    -0.308 OA
BRANCH  30  31
ATOM     31  C   UNL d   1       3.961  -1.562   1.089  0.00  0.00     0.255 C 
ATOM     32  O   UNL d   1       4.578  -0.693   1.685  0.00  0.00    -0.266 OA
ATOM     33  C   UNL d   1       4.407  -2.991   1.008  0.00  0.00     0.126 C 
ENDBRANCH  30  31
ENDBRANCH  25  30
BRANCH  26  34
ATOM     34  O   UNL d   1       2.028  -0.009   2.994  0.00  0.00    -0.311 OA
BRANCH  34  35
ATOM     35  C   UNL d   1       2.864   1.046   3.247  0.00  0.00     0.255 C 
ATOM     36  O   UNL d   1       3.058   1.993   2.496  0.00  0.00    -0.266 OA
ATOM     37  C   UNL d   1       3.469   0.896   4.610  0.00  0.00     0.126 C 
ENDBRANCH  34  35
ENDBRANCH  26  34
BRANCH  27  38
ATOM     38  O   UNL d   1      -0.752   0.876   2.761  0.00  0.00    -0.311 OA
BRANCH  38  39
ATOM     39  C   UNL d   1      -0.517   1.354   4.010  0.00  0.00     0.255 C 
ATOM     40  O   UNL d   1       0.327   2.189   4.308  0.00  0.00    -0.266 OA
ATOM     41  C   UNL d   1      -1.364   0.641   5.018  0.00  0.00     0.126 C 
ENDBRANCH  38  39
ENDBRANCH  27  38
ENDBRANCH   1  22
TORSDOF 13
