REMARK  3 active torsions:
REMARK  status: ('A' for Active; 'I' for Inactive)
REMARK    1  A    between atoms: S_4  and  C_1 
REMARK    2  A    between atoms: O_9  and  C_2 
REMARK    3  A    between atoms: C_10  and  S_4 
ROOT
ATOM      1  C   UNL d   1       1.540  -0.354   0.107  0.00  0.00     0.080 C 
ATOM      2  C   UNL d   1       1.179   0.943   0.086  0.00  0.00     0.064 C 
ATOM      3  C   UNL d   1       0.501  -1.405   0.373  0.00  0.00     0.169 C 
ATOM      4  C   UNL d   1      -1.302   0.382   0.025  0.00  0.00    -0.035 C 
ATOM      5  C   UNL d   1      -0.221   1.427   0.362  0.00  0.00     0.075 C 
ATOM      6  C   UNL d   1      -0.922  -0.963   0.662  0.00  0.00     0.093 C 
ATOM      7  O   UNL d   1       0.787  -2.601   0.420  0.00  0.00    -0.292 OA
ATOM      8  C   UNL d   1      -2.655   0.843   0.598  0.00  0.00     0.015 C 
ATOM      9  C   UNL d   1      -1.461   0.236  -1.504  0.00  0.00     0.015 C 
ENDROOT
BRANCH   1  10
ATOM     10  S   UNL d   1       3.150  -0.886  -0.270  0.00  0.00    -0.084 SA
BRANCH  10  11
ATOM     11  C   UNL d   1       3.920  -0.862   1.344  0.00  0.00     0.005 A 
ATOM     12  C   UNL d   1       3.439  -1.617   2.420  0.00  0.00     0.019 A 
ATOM     13  C   UNL d   1       4.102  -1.605   3.651  0.00  0.00     0.001 A 
ATOM     14  C   UNL d   1       5.265  -0.850   3.813  0.00  0.00     0.000 A 
ATOM     15  C   UNL d   1       5.767  -0.117   2.742  0.00  0.00     0.001 A 
ATOM     16  C   UNL d   1       5.100  -0.126   1.512  0.00  0.00     0.019 A 
ENDBRANCH  10  11
ENDBRANCH   1  10
BRANCH   2  17
ATOM     17  O   UNL d   1       2.059   1.961  -0.243  0.00  0.00    -0.363 OA
ATOM     18  H   UNL d   1       2.905   1.548  -0.504  0.00  0.00     0.217 HD
ENDBRANCH   2  17
TORSDOF 3
