REMARK  4 active torsions:
REMARK  status: ('A' for Active; 'I' for Inactive)
REMARK    1  A    between atoms: C_8  and  N_3 
REMARK    2  A    between atoms: C_9  and  C_4 
REMARK    3  A    between atoms: C_10  and  C_8 
REMARK       I    between atoms: N_16  and  C_10 
REMARK    4  A    between atoms: N_19  and  N_16 
ROOT
ATOM      1  N   UNL d   1      -0.472  -1.214   0.067  0.00  0.00    -0.268 N 
ATOM      2  HN  UNL d   1      -0.718  -2.198   0.177  1.00  0.00     0.190 HD
ATOM      3  N   UNL d   1       0.742  -0.628  -0.005  0.00  0.00    -0.207 N 
ATOM      4  C   UNL d   1      -1.267  -0.132  -0.049  0.00  0.00     0.144 A 
ATOM      5  N   UNL d   1      -0.546   1.028  -0.222  0.00  0.00    -0.266 N 
ATOM      6  HN  UNL d   1      -0.928   1.966  -0.346  1.00  0.00     0.186 HD
ATOM      7  N   UNL d   1       0.736   0.699  -0.196  0.00  0.00    -0.002 NA
ENDROOT
BRANCH   3   8
ATOM      8  C   UNL d   1       1.964  -1.387   0.078  0.00  0.00     0.271 C 
BRANCH   8   9
ATOM      9  C   UNL d   1       2.402  -1.913  -1.267  0.00  0.00     0.252 C 
ATOM     10  O   UNL d   1       3.593  -1.980  -1.575  0.00  0.00    -0.270 OA
ATOM     11  N   UNL d   1       1.395  -2.396  -2.098  0.00  0.00    -0.292 N 
ATOM     12  H   UNL d   1       0.429  -2.470  -1.772  0.00  0.00     0.183 HD
BRANCH  11  13
ATOM     13  N   UNL d   1       1.743  -2.974  -3.336  0.00  0.00    -0.247 NA
ATOM     14  H   UNL d   1       2.766  -3.114  -3.331  0.00  0.00     0.143 HD
ATOM     15  H   UNL d   1       1.599  -2.272  -4.068  0.00  0.00     0.143 HD
ENDBRANCH  11  13
ENDBRANCH   8   9
ENDBRANCH   3   8
BRANCH   4  16
ATOM     16  C   UNL d   1      -2.724  -0.160  -0.019  0.00  0.00     0.012 A 
ATOM     17  C   UNL d   1      -3.459   1.009  -0.258  0.00  0.00     0.039 A 
ATOM     18  C   UNL d   1      -4.858   0.986  -0.251  0.00  0.00     0.041 A 
ATOM     19 CL   UNL d   1      -5.691   2.466  -0.572  0.00  0.00    -0.084 Cl
ATOM     20  C   UNL d   1      -5.556  -0.204   0.004  0.00  0.00    -0.040 A 
ATOM     21  C   UNL d   1      -4.818  -1.370   0.254  0.00  0.00     0.009 A 
ATOM     22  C   UNL d   1      -7.058  -0.262   0.007  0.00  0.00     0.050 C 
ATOM     23  C   UNL d   1      -3.419  -1.348   0.243  0.00  0.00     0.016 A 
ENDBRANCH   4  16
TORSDOF 4
