REMARK  6 active torsions:
REMARK  status: ('A' for Active; 'I' for Inactive)
REMARK    1  A    between atoms: C_5  and  C_1 
REMARK    2  A    between atoms: C_13  and  N_4 
REMARK       I    between atoms: C_6  and  N_12 
REMARK    3  A    between atoms: C_8  and  C_6 
REMARK    4  A    between atoms: C_11  and  C_10 
REMARK    5  A    between atoms: O_22  and  C_11 
REMARK    6  A    between atoms: N_12  and  C_21 
ROOT
ATOM      1  C   UNL d   1       2.028   1.364   0.146  0.00  0.00     0.056 A 
ATOM      2  C   UNL d   1       3.107   0.986  -0.664  0.00  0.00     0.034 A 
ATOM      3  C   UNL d   1       2.152   2.486   0.970  0.00  0.00     0.034 A 
ATOM      4  C   UNL d   1       4.408   2.872   0.143  0.00  0.00     0.035 A 
ATOM      5  C   UNL d   1       4.285   1.738  -0.666  0.00  0.00     0.032 A 
ATOM      6  C   UNL d   1       3.337   3.233   0.963  0.00  0.00     0.032 A 
ENDROOT
BRANCH   4   7
ATOM      7  N   UNL d   1       5.620   3.591   0.053  0.00  0.00    -0.323 N 
ATOM      8  C   UNL d   1       6.026   4.636   0.853  0.00  0.00     0.257 C 
ATOM      9  O   UNL d   1       5.391   5.028   1.835  0.00  0.00    -0.267 OA
ATOM     10  H   UNL d   1       6.301   3.175  -0.575  0.00  0.00     0.169 HD
BRANCH   8  11
ATOM     11  C   UNL d   1       7.300   5.379   0.537  0.00  0.00     0.049 A 
ATOM     12  C   UNL d   1       8.374   5.003  -0.295  0.00  0.00     0.053 A 
ATOM     13  C   UNL d   1       9.527   5.820  -0.361  0.00  0.00     0.019 A 
ATOM     14  C   UNL d   1       9.597   7.035   0.320  0.00  0.00     0.001 A 
ATOM     15  C   UNL d   1       8.522   7.447   1.088  0.00  0.00     0.001 A 
ATOM     16  C   UNL d   1       7.399   6.628   1.198  0.00  0.00     0.018 A 
BRANCH  12  17
ATOM     17  C   UNL d   1       8.412   3.750  -1.087  0.00  0.00     0.177 C 
ATOM     18  O   UNL d   1       7.920   2.704  -0.715  0.00  0.00    -0.646 OA
BRANCH  17  19
ATOM     19  O   UNL d   1       8.974   3.884  -2.308  0.00  0.00    -0.773 OA
ATOM     20  H   UNL d   1       9.211   4.789  -2.587  0.00  0.00     0.167 HD
ENDBRANCH  17  19
ENDBRANCH  12  17
ENDBRANCH   8  11
ENDBRANCH   4   7
BRANCH   1  21
ATOM     21  N   UNL d   1       0.829   0.604   0.106  0.00  0.00    -0.267 N 
ATOM     22  N   UNL d   1       0.752  -0.520  -0.649  0.00  0.00    -0.290 N 
ATOM     23  C   UNL d   1      -0.483  -1.011  -0.447  0.00  0.00     0.134 A 
ATOM     24  HN  UNL d   1       1.480  -0.912  -1.247  1.00  0.00     0.187 HD
ATOM     25  C   UNL d   1      -1.223  -0.167   0.417  0.00  0.00     0.055 A 
ATOM     26  C   UNL d   1      -0.362   0.850   0.752  0.00  0.00     0.119 A 
BRANCH  23  27
ATOM     27  C   UNL d   1      -0.963  -2.292  -1.073  0.00  0.00     0.434 C 
ATOM     28  F   UNL d   1      -0.042  -2.887  -1.876  0.00  0.00    -0.165 F 
ATOM     29  F   UNL d   1      -1.306  -3.209  -0.127  0.00  0.00    -0.165 F 
ATOM     30  F   UNL d   1      -2.074  -2.094  -1.833  0.00  0.00    -0.165 F 
ENDBRANCH  23  27
ENDBRANCH   1  21
TORSDOF 6
