REMARK  4 active torsions:
REMARK  status: ('A' for Active; 'I' for Inactive)
REMARK    1  A    between atoms: C_3  and  C_1 
REMARK       I    between atoms: N_7  and  C_3 
REMARK    2  A    between atoms: C_8  and  C_5 
REMARK    3  A    between atoms: C_14  and  N_7 
REMARK    4  A    between atoms: C_10  and  C_11 
ROOT
ATOM      1  C   UNL d   1       0.147  -2.540  -0.050  0.00  0.00     0.258 C 
ATOM      2  N   UNL d   1      -0.860  -3.479   0.095  0.00  0.00    -0.323 N 
ATOM      3  O   UNL d   1      -0.030  -1.376  -0.392  0.00  0.00    -0.267 OA
ATOM      4  H   UNL d   1      -0.616  -4.366   0.505  0.00  0.00     0.169 HD
ENDROOT
BRANCH   1   5
ATOM      5  C   UNL d   1       1.495  -3.030   0.245  0.00  0.00     0.064 A 
ATOM      6  C   UNL d   1       1.951  -4.335   0.614  0.00  0.00     0.057 A 
ATOM      7  C   UNL d   1       3.320  -4.266   0.785  0.00  0.00     0.087 A 
ATOM      8  O   UNL d   1       3.739  -2.999   0.514  0.00  0.00    -0.314 OA
ATOM      9  C   UNL d   1       2.648  -2.259   0.175  0.00  0.00     0.065 A 
ATOM     10  C   UNL d   1       2.946  -0.854  -0.191  0.00  0.00     0.077 C 
BRANCH   7  11
ATOM     11  C   UNL d   1       4.358  -5.222   1.164  0.00  0.00    -0.002 A 
ATOM     12  C   UNL d   1       4.043  -6.575   1.365  0.00  0.00     0.016 A 
ATOM     13  C   UNL d   1       5.032  -7.497   1.726  0.00  0.00     0.024 A 
ATOM     14  C   UNL d   1       6.347  -7.074   1.892  0.00  0.00     0.034 A 
ATOM     15  C   UNL d   1       6.682  -5.737   1.704  0.00  0.00     0.024 A 
ATOM     16 CL   UNL d   1       7.561  -8.211   2.329  0.00  0.00    -0.084 Cl
ATOM     17  C   UNL d   1       5.692  -4.817   1.342  0.00  0.00     0.016 A 
ENDBRANCH   7  11
ENDBRANCH   1   5
BRANCH   2  18
ATOM     18  C   UNL d   1      -2.209  -3.335  -0.305  0.00  0.00     0.035 A 
ATOM     19  C   UNL d   1      -2.697  -2.229  -0.994  0.00  0.00     0.030 A 
ATOM     20  C   UNL d   1      -4.019  -2.194  -1.449  0.00  0.00     0.010 A 
ATOM     21  C   UNL d   1      -4.904  -3.263  -1.234  0.00  0.00    -0.051 A 
ATOM     22  C   UNL d   1      -4.417  -4.351  -0.494  0.00  0.00     0.010 A 
ATOM     23  C   UNL d   1      -3.088  -4.389  -0.040  0.00  0.00     0.030 A 
BRANCH  21  24
ATOM     24  C   UNL d   1      -6.314  -3.218  -1.845  0.00  0.00    -0.024 C 
ATOM     25  C   UNL d   1      -7.165  -4.470  -1.540  0.00  0.00     0.019 C 
ATOM     26  C   UNL d   1      -7.089  -1.992  -1.314  0.00  0.00     0.019 C 
ATOM     27  C   UNL d   1      -6.196  -3.110  -3.383  0.00  0.00     0.019 C 
ENDBRANCH  21  24
ENDBRANCH   2  18
TORSDOF 4
