REMARK  3 active torsions:
REMARK  status: ('A' for Active; 'I' for Inactive)
REMARK    1  A    between atoms: C_3  and  C_1 
REMARK    2  A    between atoms: O_8  and  C_1 
REMARK    3  A    between atoms: O_13  and  C_10 
ROOT
ATOM      1  C   UNL d   1      -1.205   1.471   0.025  0.00  0.00     0.114 C 
ATOM      2  C   UNL d   1       0.088   0.652   0.125  0.00  0.00    -0.003 A 
ATOM      3  C   UNL d   1       0.118  -0.748  -0.003  0.00  0.00     0.010 A 
ATOM      4  S   UNL d   1      -1.330  -1.784  -0.132  0.00  0.00    -0.129 SA
ATOM      5  C   UNL d   1      -2.458   0.665  -0.373  0.00  0.00     0.058 C 
ATOM      6  C   UNL d   1      -2.594  -0.616   0.423  0.00  0.00     0.083 C 
ATOM      7  C   UNL d   1       1.319   1.325   0.320  0.00  0.00     0.012 A 
ATOM      8  C   UNL d   1       1.352  -1.421  -0.041  0.00  0.00     0.019 A 
ATOM      9  C   UNL d   1       2.537   0.644   0.291  0.00  0.00     0.001 A 
ATOM     10  C   UNL d   1       2.554  -0.729   0.090  0.00  0.00     0.001 A 
ENDROOT
BRANCH   1  11
ATOM     11  C   UNL d   1      -1.125   2.650  -0.969  0.00  0.00    -0.017 A 
ATOM     12  C   UNL d   1      -1.917   3.803  -0.778  0.00  0.00     0.047 A 
ATOM     13  C   UNL d   1      -1.922   4.840  -1.719  0.00  0.00     0.068 A 
ATOM     14  C   UNL d   1      -1.098   4.748  -2.839  0.00  0.00     0.037 A 
ATOM     15  C   UNL d   1      -0.307   3.623  -3.050  0.00  0.00     0.003 A 
ATOM     16  C   UNL d   1      -0.342   2.571  -2.137  0.00  0.00     0.011 A 
BRANCH  13  17
ATOM     17  O   UNL d   1      -2.689   5.970  -1.666  0.00  0.00    -0.356 OA
ATOM     18  C   UNL d   1      -3.632   6.064  -0.608  0.00  0.00     0.210 C 
ENDBRANCH  13  17
ENDBRANCH   1  11
BRANCH   1  19
ATOM     19  O   UNL d   1      -1.471   2.006   1.335  0.00  0.00    -0.380 OA
ATOM     20  H   UNL d   1      -0.634   2.359   1.678  0.00  0.00     0.211 HD
ENDBRANCH   1  19
TORSDOF 3
