REMARK  7 active torsions:
REMARK  status: ('A' for Active; 'I' for Inactive)
REMARK    1  A    between atoms: C_11  and  N_6 
REMARK    2  A    between atoms: N_9  and  C_10 
REMARK       I    between atoms: C_13  and  N_9 
REMARK    3  A    between atoms: C_10  and  N_18 
REMARK    4  A    between atoms: C_12  and  C_11 
REMARK       I    between atoms: N_19  and  C_12 
REMARK    5  A    between atoms: C_16  and  C_13 
REMARK    6  A    between atoms: C_17  and  C_16 
REMARK    7  A    between atoms: N_18  and  N_19 
ROOT
ATOM      1  C   UNL d   1       1.922  -0.086   1.548  0.00  0.00     0.257 C 
ATOM      2  N   UNL d   1       2.447  -1.235   0.997  0.00  0.00    -0.266 N 
ATOM      3  O   UNL d   1       2.008   0.146   2.758  0.00  0.00    -0.270 OA
ATOM      4  H   UNL d   1       2.305  -1.509   0.021  0.00  0.00     0.190 HD
ENDROOT
BRANCH   2   5
ATOM      5  N   UNL d   1       2.945  -2.205   1.875  0.00  0.00    -0.273 N 
ATOM      6  H   UNL d   1       2.839  -1.989   2.877  0.00  0.00     0.189 HD
BRANCH   5   7
ATOM      7  C   UNL d   1       3.888  -3.132   1.500  0.00  0.00     0.193 C 
ATOM      8  S   UNL d   1       4.465  -3.350  -0.055  0.00  0.00    -0.039 SA
BRANCH   7   9
ATOM      9  N   UNL d   1       4.312  -3.993   2.494  0.00  0.00    -0.299 N 
ATOM     10  C   UNL d   1       3.933  -3.955   3.813  0.00  0.00     0.247 C 
ATOM     11  O   UNL d   1       3.422  -2.974   4.350  0.00  0.00    -0.268 OA
ATOM     12  H   UNL d   1       4.894  -4.753   2.164  0.00  0.00     0.171 HD
BRANCH  10  13
ATOM     13  C   UNL d   1       4.202  -5.206   4.569  0.00  0.00     0.076 C 
BRANCH  13  14
ATOM     14  C   UNL d   1       4.116  -5.142   5.907  0.00  0.00     0.024 C 
ATOM     15  C   UNL d   1       4.146  -6.286   6.755  0.00  0.00     0.004 A 
ATOM     16  S   UNL d   1       4.167  -6.022   8.464  0.00  0.00    -0.102 SA
ATOM     17  C   UNL d   1       4.111  -7.644   6.482  0.00  0.00     0.019 A 
ATOM     18  C   UNL d   1       4.048  -7.688   8.805  0.00  0.00     0.050 A 
ATOM     19  C   UNL d   1       4.035  -8.448   7.660  0.00  0.00     0.008 A 
ENDBRANCH  13  14
ENDBRANCH  10  13
ENDBRANCH   7   9
ENDBRANCH   5   7
ENDBRANCH   2   5
BRANCH   1  20
ATOM     20  C   UNL d   1       1.362   0.949   0.618  0.00  0.00     0.272 C 
BRANCH  20  21
ATOM     21  N   UNL d   1       0.593   0.444  -0.499  0.00  0.00    -0.194 N 
ATOM     22  N   UNL d   1      -0.398   1.208  -1.001  0.00  0.00    -0.115 N 
ATOM     23  C   UNL d   1      -0.337   0.882  -2.296  0.00  0.00     0.709 A 
ATOM     24  HN  UNL d   1      -1.024   1.857  -0.524  1.00  0.00     0.207 HD
ATOM     25  N   UNL d   1       0.555  -0.137  -2.533  0.00  0.00    -0.113 N 
ATOM     26  N   UNL d   1      -0.974   1.516  -3.313  0.00  0.00    -0.211 N 
ATOM     27  N   UNL d   1       1.147  -0.413  -1.381  0.00  0.00     0.011 NA
ATOM     28  HN  UNL d   1       0.728  -0.595  -3.428  1.00  0.00     0.203 HD
ATOM     29  C   UNL d   1      -1.770   2.707  -2.955  0.00  0.00     0.167 C 
ATOM     30  C   UNL d   1      -0.181   1.716  -4.543  0.00  0.00     0.167 C 
ATOM     31  C   UNL d   1      -2.595   3.181  -4.158  0.00  0.00     0.188 C 
ATOM     32  O   UNL d   1      -1.764   3.432  -5.301  0.00  0.00    -0.388 OA
ATOM     33  C   UNL d   1      -1.074   2.231  -5.679  0.00  0.00     0.188 C 
ENDBRANCH  20  21
ENDBRANCH   1  20
TORSDOF 7
