REMARK  5 active torsions:
REMARK  status: ('A' for Active; 'I' for Inactive)
REMARK    1  A    between atoms: N_2  and  C_1 
REMARK    2  A    between atoms: N_5  and  C_1 
REMARK       I    between atoms: C_4  and  N_2 
REMARK    3  A    between atoms: C_3  and  N_5 
REMARK    4  A    between atoms: O_17  and  C_4 
REMARK    5  A    between atoms: C_18  and  O_17 
ROOT
ATOM      1  N   UNL d   1       0.338  -0.811  -0.713  0.00  0.00    -0.358 N 
ATOM      2  H   UNL d   1       0.789  -1.592  -1.179  0.00  0.00     0.162 HD
ENDROOT
BRANCH   1   3
ATOM      3  C   UNL d   1      -1.141  -0.814  -0.753  0.00  0.00     0.033 C 
ATOM      4  C   UNL d   1      -1.698   0.346  -1.610  0.00  0.00     0.035 C 
ATOM      5  C   UNL d   1      -3.236   0.271  -1.684  0.00  0.00    -0.012 C 
ATOM      6  C   UNL d   1      -3.655  -1.058  -2.334  0.00  0.00     0.009 C 
ATOM      7  C   UNL d   1      -3.814   0.344  -0.260  0.00  0.00     0.009 C 
ATOM      8  C   UNL d   1      -3.127  -2.237  -1.503  0.00  0.00    -0.012 C 
ATOM      9  C   UNL d   1      -1.594  -2.145  -1.421  0.00  0.00     0.035 C 
ATOM     10  C   UNL d   1      -3.721  -2.161  -0.089  0.00  0.00     0.009 C 
ATOM     11  C   UNL d   1      -3.309  -0.843   0.579  0.00  0.00    -0.012 C 
ATOM     12  C   UNL d   1      -1.776  -0.781   0.663  0.00  0.00     0.035 C 
ENDBRANCH   1   3
BRANCH   1  13
ATOM     13  C   UNL d   1       1.222  -0.135   0.081  0.00  0.00     0.176 C 
ATOM     14  S   UNL d   1       2.765  -0.759   0.194  0.00  0.00    -0.041 SA
BRANCH  13  15
ATOM     15  N   UNL d   1       0.743   0.969   0.730  0.00  0.00    -0.279 N 
ATOM     16  C   UNL d   1       1.122   1.510   1.933  0.00  0.00     0.366 C 
ATOM     17  O   UNL d   1       1.867   1.019   2.767  0.00  0.00    -0.238 OA
ATOM     18  H   UNL d   1      -0.013   1.469   0.298  0.00  0.00     0.173 HD
BRANCH  16  19
ATOM     19  O   UNL d   1       0.369   2.625   2.137  0.00  0.00    -0.304 OA
BRANCH  19  20
ATOM     20  C   UNL d   1       0.252   3.051   3.503  0.00  0.00     0.176 C 
ATOM     21  C   UNL d   1      -0.952   2.350   4.109  0.00  0.00     0.034 C 
ENDBRANCH  19  20
ENDBRANCH  16  19
ENDBRANCH  13  15
ENDBRANCH   1  13
TORSDOF 5
