REMARK  3 active torsions:
REMARK  status: ('A' for Active; 'I' for Inactive)
REMARK    1  A    between atoms: C_2  and  C_1 
REMARK    2  A    between atoms: C_3  and  C_1 
REMARK    3  A    between atoms: O_13  and  N_6 
ROOT
ATOM      1  C   UNL d   1       0.521  -0.495   1.312  0.00  0.00     0.187 C 
ATOM      2  C   UNL d   1       0.469  -1.911   1.611  0.00  0.00     0.123 C 
ATOM      3  N   UNL d   1       0.442  -3.053   1.829  0.00  0.00    -0.190 NA
ATOM      4  N   UNL d   1       0.190   0.363   2.240  0.00  0.00    -0.255 N 
ATOM      5  HN  UNL d   1       0.242   1.373   2.113  1.00  0.00     0.195 HD
ENDROOT
BRANCH   1   6
ATOM      6  C   UNL d   1       1.005  -0.030  -0.032  0.00  0.00     0.244 C 
ATOM      7  O   UNL d   1       1.983  -0.596  -0.513  0.00  0.00    -0.282 OA
BRANCH   6   8
ATOM      8  C   UNL d   1       0.286   1.042  -0.676  0.00  0.00     0.128 A 
ATOM      9  O   UNL d   1      -0.826   1.585  -0.092  0.00  0.00    -0.319 OA
ATOM     10  C   UNL d   1      -1.259   2.589  -0.896  0.00  0.00     0.142 A 
ATOM     11  C   UNL d   1      -0.465   2.688  -2.012  0.00  0.00     0.027 A 
ATOM     12  C   UNL d   1       0.526   1.686  -1.877  0.00  0.00     0.043 A 
ENDBRANCH   6   8
ENDBRANCH   1   6
BRANCH   4  13
ATOM     13  O   UNL d   1      -0.243  -0.244   3.427  0.00  0.00    -0.289 OA
ATOM     14  H   UNL d   1      -0.520   0.517   3.974  0.00  0.00     0.244 HD
ENDBRANCH   4  13
TORSDOF 3
