REMARK  7 active torsions:
REMARK  status: ('A' for Active; 'I' for Inactive)
REMARK    1  A    between atoms: N_4  and  C_1 
REMARK    2  A    between atoms: N_10  and  C_1 
REMARK    3  A    between atoms: C_2  and  C_6 
REMARK    4  A    between atoms: C_3  and  C_5 
REMARK       I    between atoms: C_7  and  N_4 
REMARK    5  A    between atoms: C_11  and  C_7 
REMARK    6  A    between atoms: C_9  and  N_10 
REMARK    7  A    between atoms: C_23  and  C_15 
ROOT
ATOM      1  N   UNL d   1       0.180   0.843  -0.875  0.00  0.00    -0.333 N 
ATOM      2  H   UNL d   1       0.395   1.013  -1.857  0.00  0.00     0.168 HD
ENDROOT
BRANCH   1   3
ATOM      3  C   UNL d   1      -1.028   1.369  -0.372  0.00  0.00     0.035 A 
ATOM      4  C   UNL d   1      -1.172   1.729   0.972  0.00  0.00     0.045 A 
ATOM      5  C   UNL d   1      -2.387   2.227   1.465  0.00  0.00     0.050 A 
ATOM      6  C   UNL d   1      -3.472   2.349   0.587  0.00  0.00     0.032 A 
ATOM      7  C   UNL d   1      -3.342   2.004  -0.770  0.00  0.00     0.050 A 
ATOM      8  C   UNL d   1      -2.099   1.549  -1.247  0.00  0.00     0.045 A 
BRANCH   5   9
ATOM      9  C   UNL d   1      -2.493   2.619   2.920  0.00  0.00     0.417 C 
ATOM     10  F   UNL d   1      -3.736   3.040   3.280  0.00  0.00    -0.166 F 
ATOM     11  F   UNL d   1      -2.187   1.589   3.755  0.00  0.00    -0.166 F 
ATOM     12  F   UNL d   1      -1.643   3.631   3.245  0.00  0.00    -0.166 F 
ENDBRANCH   5   9
BRANCH   7  13
ATOM     13  C   UNL d   1      -4.525   2.084  -1.708  0.00  0.00     0.417 C 
ATOM     14  F   UNL d   1      -5.673   2.492  -1.100  0.00  0.00    -0.166 F 
ATOM     15  F   UNL d   1      -4.315   2.948  -2.737  0.00  0.00    -0.166 F 
ATOM     16  F   UNL d   1      -4.810   0.881  -2.277  0.00  0.00    -0.166 F 
ENDBRANCH   7  13
ENDBRANCH   1   3
BRANCH   1  17
ATOM     17  C   UNL d   1       1.123   0.086  -0.200  0.00  0.00     0.179 C 
ATOM     18  S   UNL d   1       2.650  -0.064  -0.846  0.00  0.00    -0.040 SA
BRANCH  17  19
ATOM     19  N   UNL d   1       0.617  -0.573   0.918  0.00  0.00    -0.300 N 
ATOM     20  C   UNL d   1       1.115  -1.481   1.828  0.00  0.00     0.247 C 
ATOM     21  O   UNL d   1       0.399  -2.428   2.155  0.00  0.00    -0.268 OA
ATOM     22  H   UNL d   1      -0.354  -0.814   0.764  0.00  0.00     0.171 HD
BRANCH  20  23
ATOM     23  C   UNL d   1       2.433  -1.226   2.454  0.00  0.00     0.075 C 
ATOM     24  C   UNL d   1       2.737  -1.960   3.537  0.00  0.00     0.017 C 
BRANCH  24  25
ATOM     25  C   UNL d   1       3.934  -1.855   4.382  0.00  0.00    -0.036 A 
ATOM     26  C   UNL d   1       4.655  -0.667   4.551  0.00  0.00     0.011 A 
ATOM     27  C   UNL d   1       5.716  -0.606   5.461  0.00  0.00     0.001 A 
ATOM     28  C   UNL d   1       6.064  -1.728   6.211  0.00  0.00     0.000 A 
ATOM     29  C   UNL d   1       5.359  -2.917   6.048  0.00  0.00     0.001 A 
ATOM     30  C   UNL d   1       4.300  -2.978   5.141  0.00  0.00     0.011 A 
ENDBRANCH  24  25
ENDBRANCH  20  23
ENDBRANCH  17  19
ENDBRANCH   1  17
TORSDOF 7
