REMARK  5 active torsions:
REMARK  status: ('A' for Active; 'I' for Inactive)
REMARK    1  A    between atoms: N_4  and  C_1 
REMARK    2  A    between atoms: N_5  and  C_2 
REMARK    3  A    between atoms: S_10  and  C_3 
REMARK    4  A    between atoms: C_6  and  C_7 
REMARK    5  A    between atoms: C_13  and  S_10 
ROOT
ATOM      1  C   UNL d   1       1.356  -0.244  -0.136  0.00  0.00     0.123 A 
ATOM      2  C   UNL d   1      -0.821  -1.176   0.019  0.00  0.00     0.123 A 
ATOM      3  C   UNL d   1       0.564  -1.404  -0.061  0.00  0.00     0.073 A 
ATOM      4  C   UNL d   1      -0.566   1.247   0.073  0.00  0.00     0.052 A 
ATOM      5  C   UNL d   1      -1.388   0.115   0.085  0.00  0.00     0.053 A 
ATOM      6  C   UNL d   1       0.814   1.059  -0.070  0.00  0.00     0.053 A 
ENDROOT
BRANCH   3   7
ATOM      7  S   UNL d   1       1.260  -3.049   0.060  0.00  0.00    -0.068 SA
BRANCH   7   8
ATOM      8  C   UNL d   1       1.468  -3.552  -1.633  0.00  0.00     0.074 A 
ATOM      9  N   UNL d   1       1.121  -2.691  -2.613  0.00  0.00    -0.360 N 
ATOM     10  C   UNL d   1       1.303  -3.119  -3.886  0.00  0.00     0.089 A 
ATOM     11  HN  UNL d   1       0.742  -1.767  -2.407  1.00  0.00     0.166 HD
ATOM     12  C   UNL d   1       1.817  -4.363  -4.225  0.00  0.00     0.017 A 
ATOM     13  C   UNL d   1       2.165  -5.228  -3.199  0.00  0.00     0.004 A 
ATOM     14  C   UNL d   1       1.989  -4.820  -1.881  0.00  0.00     0.037 A 
ENDBRANCH   7   8
ENDBRANCH   3   7
BRANCH   2  15
ATOM     15  N   UNL d   1      -1.761  -2.281   0.056  0.00  0.00    -0.114 N 
ATOM     16  O   UNL d   1      -1.801  -2.954   1.094  0.00  0.00    -0.532 OA
ATOM     17  O   UNL d   1      -2.507  -2.409  -0.922  0.00  0.00    -0.532 OA
ENDBRANCH   2  15
BRANCH   1  18
ATOM     18  N   UNL d   1       2.802  -0.323  -0.268  0.00  0.00    -0.114 N 
ATOM     19  O   UNL d   1       3.434  -0.820   0.671  0.00  0.00    -0.532 OA
ATOM     20  O   UNL d   1       3.296   0.201  -1.276  0.00  0.00    -0.532 OA
ENDBRANCH   1  18
BRANCH   4  21
ATOM     21  C   UNL d   1      -1.134   2.640   0.239  0.00  0.00     0.417 C 
ATOM     22  F   UNL d   1      -2.485   2.656   0.390  0.00  0.00    -0.166 F 
ATOM     23  F   UNL d   1      -0.627   3.265   1.336  0.00  0.00    -0.166 F 
ATOM     24  F   UNL d   1      -0.857   3.445  -0.819  0.00  0.00    -0.166 F 
ENDBRANCH   4  21
TORSDOF 5
