REMARK  2 active torsions:
REMARK  status: ('A' for Active; 'I' for Inactive)
REMARK    1  A    between atoms: C_7  and  C_1 
REMARK    2  A    between atoms: C_5  and  C_4 
REMARK       I    between atoms: N_14  and  C_7 
ROOT
ATOM      1  C   UNL d   1       0.212   1.304  -0.002  0.00  0.00     0.099 A 
ATOM      2  C   UNL d   1       0.976   0.021   0.001  0.00  0.00     0.261 A 
ATOM      3  N   UNL d   1       0.233  -1.135   0.005  0.00  0.00    -0.319 N 
ATOM      4  C   UNL d   1      -1.152  -1.186   0.005  0.00  0.00     0.119 A 
ATOM      5  C   UNL d   1      -1.133   1.238  -0.004  0.00  0.00     0.025 A 
ATOM      6  C   UNL d   1      -1.835  -0.027  -0.002  0.00  0.00     0.035 A 
ATOM      7  O   UNL d   1       2.204  -0.018   0.001  0.00  0.00    -0.267 OA
ATOM      8  H   UNL d   1       0.763  -2.003   0.008  0.00  0.00     0.169 HD
ENDROOT
BRANCH   1   9
ATOM      9  C   UNL d   1       0.850   2.649   0.001  0.00  0.00     0.254 C 
ATOM     10  O   UNL d   1       0.204   3.692   0.001  0.00  0.00    -0.268 OA
ATOM     11  N   UNL d   1       2.208   2.675   0.004  0.00  0.00    -0.366 N 
ATOM     12  H   UNL d   1       2.764   1.822   0.004  0.00  0.00     0.159 HD
ATOM     13  H   UNL d   1       2.681   3.567   0.007  0.00  0.00     0.159 HD
ENDBRANCH   1   9
BRANCH   4  14
ATOM     14  C   UNL d   1      -1.827  -2.538   0.015  0.00  0.00     0.432 C 
ATOM     15  F   UNL d   1      -0.917  -3.548   0.007  0.00  0.00    -0.165 F 
ATOM     16  F   UNL d   1      -2.599  -2.710   1.116  0.00  0.00    -0.165 F 
ATOM     17  F   UNL d   1      -2.625  -2.716  -1.067  0.00  0.00    -0.165 F 
ENDBRANCH   4  14
TORSDOF 2
