REMARK  4 active torsions:
REMARK  status: ('A' for Active; 'I' for Inactive)
REMARK    1  A    between atoms: N_2  and  C_1 
REMARK       I    between atoms: C_3  and  N_2 
REMARK    2  A    between atoms: C_8  and  N_2 
REMARK       I    between atoms: N_7  and  C_3 
REMARK    3  A    between atoms: C_12  and  N_7 
REMARK    4  A    between atoms: C_13  and  C_8 
ROOT
ATOM      1  N   UNL d   1       2.402   1.034  -0.503  0.00  0.00    -0.276 N 
ATOM      2  C   UNL d   1       3.708   0.816  -0.994  0.00  0.00     0.329 C 
ATOM      3  N   UNL d   1       4.143  -0.489  -1.045  0.00  0.00    -0.309 N 
ATOM      4  O   UNL d   1       4.412   1.766  -1.355  0.00  0.00    -0.246 OA
ATOM      5  H   UNL d   1       3.694  -1.120  -0.392  0.00  0.00     0.170 HD
ENDROOT
BRANCH   1   6
ATOM      6  C   UNL d   1       1.363   0.149  -0.204  0.00  0.00     0.147 C 
ATOM      7  N   UNL d   1       0.120   0.509  -0.230  0.00  0.00    -0.369 N 
ATOM      8  C   UNL d   1      -0.741  -0.630   0.143  0.00  0.00     0.137 C 
ATOM      9  HN  UNL d   1      -0.215   1.441  -0.472  1.00  0.00     0.161 HD
ATOM     10  C   UNL d   1       0.025  -1.544   1.093  0.00  0.00     0.069 C 
ATOM     11  S   UNL d   1       1.697  -1.460   0.383  0.00  0.00    -0.088 SA
ATOM     12  C   UNL d   1      -0.003  -1.020   2.525  0.00  0.00     0.023 C 
ENDBRANCH   1   6
BRANCH   1  13
ATOM     13  C   UNL d   1       2.118   2.433  -0.169  0.00  0.00     0.174 C 
BRANCH  13  14
ATOM     14  C   UNL d   1       2.379   2.645   1.317  0.00  0.00    -0.040 A 
ATOM     15  C   UNL d   1       3.693   2.668   1.812  0.00  0.00     0.009 A 
ATOM     16  C   UNL d   1       3.934   2.699   3.186  0.00  0.00     0.001 A 
ATOM     17  C   UNL d   1       2.866   2.721   4.079  0.00  0.00     0.000 A 
ATOM     18  C   UNL d   1       1.557   2.727   3.600  0.00  0.00     0.001 A 
ATOM     19  C   UNL d   1       1.314   2.691   2.225  0.00  0.00     0.009 A 
ENDBRANCH  13  14
ENDBRANCH   1  13
BRANCH   3  20
ATOM     20  C   UNL d   1       5.419  -0.873  -1.523  0.00  0.00     0.036 A 
ATOM     21  C   UNL d   1       6.038  -1.990  -0.954  0.00  0.00     0.029 A 
ATOM     22  C   UNL d   1       7.335  -2.350  -1.339  0.00  0.00     0.002 A 
ATOM     23  C   UNL d   1       8.006  -1.624  -2.319  0.00  0.00     0.000 A 
ATOM     24  C   UNL d   1       7.375  -0.540  -2.928  0.00  0.00     0.002 A 
ATOM     25  C   UNL d   1       6.088  -0.172  -2.532  0.00  0.00     0.029 A 
ENDBRANCH   3  20
TORSDOF 4
