REMARK  9 active torsions:
REMARK  status: ('A' for Active; 'I' for Inactive)
REMARK    1  A    between atoms: C_9  and  C_1 
REMARK    2  A    between atoms: N_2  and  C_8 
REMARK    3  A    between atoms: C_10  and  C_3 
REMARK    4  A    between atoms: S_6  and  C_4 
REMARK    5  A    between atoms: C_7  and  S_6 
REMARK    6  A    between atoms: O_17  and  C_9 
REMARK    7  A    between atoms: O_18  and  C_10 
REMARK    8  A    between atoms: C_21  and  O_17 
REMARK    9  A    between atoms: C_22  and  O_18 
ROOT
ATOM      1  C   UNL d   1       1.381  -0.303  -0.348  0.00  0.00     0.059 A 
ATOM      2  C   UNL d   1       0.536  -1.427  -0.464  0.00  0.00     0.022 A 
ATOM      3  C   UNL d   1       0.858   0.999  -0.254  0.00  0.00     0.055 A 
ATOM      4  C   UNL d   1      -0.529   1.184  -0.244  0.00  0.00     0.103 A 
ATOM      5  C   UNL d   1      -0.851  -1.204  -0.472  0.00  0.00     0.022 A 
ATOM      6  C   UNL d   1      -1.388   0.087  -0.368  0.00  0.00     0.037 A 
ENDROOT
BRANCH   2   7
ATOM      7  S   UNL d   1       1.094  -3.123  -0.381  0.00  0.00    -0.088 SA
BRANCH   7   8
ATOM      8  C   UNL d   1       1.359  -3.606  -2.087  0.00  0.00     0.021 A 
ATOM      9  C   UNL d   1       0.418  -4.240  -2.932  0.00  0.00     0.056 A 
ATOM     10  C   UNL d   1       0.846  -4.708  -4.197  0.00  0.00     0.019 A 
ATOM     11  C   UNL d   1       2.171  -4.586  -4.612  0.00  0.00     0.001 A 
ATOM     12  C   UNL d   1       3.095  -3.975  -3.778  0.00  0.00     0.001 A 
ATOM     13  C   UNL d   1       2.691  -3.485  -2.534  0.00  0.00     0.020 A 
BRANCH   9  14
ATOM     14  C   UNL d   1      -0.997  -4.518  -2.514  0.00  0.00     0.294 C 
ATOM     15  O   UNL d   1      -1.454  -4.362  -1.395  0.00  0.00    -0.259 OA
BRANCH  14  16
ATOM     16  O   UNL d   1      -1.702  -5.011  -3.569  0.00  0.00    -0.318 OA
BRANCH  16  17
ATOM     17  C   UNL d   1      -3.016  -5.517  -3.285  0.00  0.00     0.174 C 
ATOM     18  C   UNL d   1      -2.922  -7.005  -3.002  0.00  0.00     0.034 C 
ENDBRANCH  16  17
ENDBRANCH  14  16
ENDBRANCH   9  14
ENDBRANCH   7   8
ENDBRANCH   2   7
BRANCH   1  19
ATOM     19  C   UNL d   1       2.848  -0.412  -0.317  0.00  0.00     0.294 C 
ATOM     20  O   UNL d   1       3.567   0.046  -1.188  0.00  0.00    -0.259 OA
BRANCH  19  21
ATOM     21  O   UNL d   1       3.226  -0.987   0.847  0.00  0.00    -0.318 OA
BRANCH  21  22
ATOM     22  C   UNL d   1       4.640  -1.161   1.025  0.00  0.00     0.174 C 
ATOM     23  C   UNL d   1       5.239   0.042   1.728  0.00  0.00     0.034 C 
ENDBRANCH  21  22
ENDBRANCH  19  21
ENDBRANCH   1  19
BRANCH   4  24
ATOM     24  N   UNL d   1      -1.090   2.528  -0.060  0.00  0.00    -0.116 N 
ATOM     25  O   UNL d   1      -0.297   3.463   0.118  0.00  0.00    -0.532 OA
ATOM     26  O   UNL d   1      -2.324   2.647  -0.077  0.00  0.00    -0.532 OA
ENDBRANCH   4  24
TORSDOF 9
