REMARK  4 active torsions:
REMARK  status: ('A' for Active; 'I' for Inactive)
REMARK    1  A    between atoms: N_2  and  C_1 
REMARK    2  A    between atoms: C_3  and  N_17 
REMARK    3  A    between atoms: C_16  and  C_8 
REMARK    4  A    between atoms: N_17  and  N_11 
ROOT
ATOM      1  N   UNL d   1       0.857  -3.599  -0.092  0.00  0.00    -0.326 N 
ATOM      2  HN  UNL d   1       1.711  -3.301   0.379  1.00  0.00     0.180 HD
ATOM      3  C   UNL d   1      -0.015  -2.759  -0.555  0.00  0.00     0.120 C 
ENDROOT
BRANCH   1   4
ATOM      4  N   UNL d   1       0.544  -4.911  -0.285  0.00  0.00    -0.203 NA
ATOM      5  H   UNL d   1      -0.296  -5.249   0.196  0.00  0.00     0.153 HD
BRANCH   4   6
ATOM      6  C   UNL d   1       1.627  -5.828  -0.132  0.00  0.00     0.071 A 
ATOM      7  C   UNL d   1       1.421  -7.037   0.569  0.00  0.00     0.060 A 
ATOM      8  C   UNL d   1       2.435  -7.986   0.710  0.00  0.00     0.049 A 
ATOM      9 CL   UNL d   1      -0.109  -7.376   1.311  0.00  0.00    -0.082 Cl
ATOM     10  C   UNL d   1       3.679  -7.752   0.139  0.00  0.00     0.037 A 
ATOM     11  C   UNL d   1       3.920  -6.575  -0.559  0.00  0.00     0.049 A 
ATOM     12 CL   UNL d   1       4.922  -8.932   0.273  0.00  0.00    -0.084 Cl
ATOM     13  C   UNL d   1       2.905  -5.621  -0.700  0.00  0.00     0.060 A 
ATOM     14 CL   UNL d   1       3.301  -4.239  -1.673  0.00  0.00    -0.082 Cl
ENDBRANCH   4   6
ENDBRANCH   1   4
BRANCH   3  15
ATOM     15  C   UNL d   1       0.273  -1.345  -0.537  0.00  0.00     0.023 A 
ATOM     16  S   UNL d   1      -0.825  -0.247  -1.253  0.00  0.00    -0.065 SA
ATOM     17  C   UNL d   1       0.200   1.073  -0.943  0.00  0.00     0.144 A 
ATOM     18  C   UNL d   1       1.354   0.709  -0.282  0.00  0.00     0.045 A 
ATOM     19  C   UNL d   1       1.392  -0.697  -0.044  0.00  0.00     0.023 A 
BRANCH  17  20
ATOM     20  N   UNL d   1      -0.164   2.401  -1.361  0.00  0.00    -0.108 N 
ATOM     21  O   UNL d   1       0.631   3.309  -1.068  0.00  0.00    -0.531 OA
ATOM     22  O   UNL d   1      -1.227   2.554  -1.978  0.00  0.00    -0.531 OA
ENDBRANCH  17  20
ENDBRANCH   3  15
TORSDOF 4
