REMARK  5 active torsions:
REMARK  status: ('A' for Active; 'I' for Inactive)
REMARK    1  A    between atoms: C_6  and  C_1 
REMARK    2  A    between atoms: C_7  and  C_3 
REMARK    3  A    between atoms: N_8  and  C_4 
REMARK    4  A    between atoms: C_15  and  C_12 
REMARK    5  A    between atoms: C_17  and  C_15 
ROOT
ATOM      1  C   UNL d   1      -0.724   0.715  -0.771  0.00  0.00     0.077 A 
ATOM      2  S   UNL d   1       0.125  -0.562  -1.554  0.00  0.00    -0.084 SA
ATOM      3  C   UNL d   1       0.771  -1.170  -0.091  0.00  0.00     0.018 A 
ATOM      4  C   UNL d   1      -0.519   0.668   0.592  0.00  0.00     0.048 A 
ATOM      5  C   UNL d   1       0.343  -0.398   0.976  0.00  0.00     0.050 A 
ENDROOT
BRANCH   3   6
ATOM      6  C   UNL d   1       1.649  -2.354  -0.067  0.00  0.00    -0.019 A 
ATOM      7  C   UNL d   1       2.632  -2.474   0.926  0.00  0.00     0.013 A 
ATOM      8  C   UNL d   1       3.430  -3.620   1.022  0.00  0.00     0.008 A 
ATOM      9  C   UNL d   1       3.269  -4.677   0.121  0.00  0.00    -0.058 A 
ATOM     10  C   UNL d   1       2.307  -4.557  -0.887  0.00  0.00     0.008 A 
ATOM     11  C   UNL d   1       1.510  -3.409  -0.982  0.00  0.00     0.013 A 
BRANCH   9  12
ATOM     12  C   UNL d   1       4.086  -5.939   0.278  0.00  0.00     0.042 C 
BRANCH  12  13
ATOM     13  C   UNL d   1       4.936  -6.326  -0.947  0.00  0.00    -0.019 C 
ATOM     14  C   UNL d   1       6.002  -5.274  -1.264  0.00  0.00     0.010 C 
ATOM     15  C   UNL d   1       5.607  -7.680  -0.699  0.00  0.00     0.010 C 
ENDBRANCH  12  13
ENDBRANCH   9  12
ENDBRANCH   3   6
BRANCH   1  16
ATOM     16  C   UNL d   1      -1.493   1.613  -1.621  0.00  0.00     0.164 C 
ATOM     17  O   UNL d   1      -2.002   1.265  -2.692  0.00  0.00    -0.292 OA
ATOM     18  C   UNL d   1      -1.664   3.051  -1.194  0.00  0.00     0.097 C 
ENDBRANCH   1  16
BRANCH   4  19
ATOM     19  N   UNL d   1      -1.059   1.486   1.524  0.00  0.00    -0.398 N 
ATOM     20  H   UNL d   1      -1.884   2.052   1.345  0.00  0.00     0.156 HD
ATOM     21  H   UNL d   1      -0.949   1.281   2.513  0.00  0.00     0.156 HD
ENDBRANCH   4  19
TORSDOF 5
