REMARK  6 active torsions:
REMARK  status: ('A' for Active; 'I' for Inactive)
REMARK    1  A    between atoms: C_7  and  S_1 
REMARK    2  A    between atoms: C_8  and  S_1 
REMARK    3  A    between atoms: N_19  and  C_2 
REMARK    4  A    between atoms: C_11  and  N_16 
REMARK    5  A    between atoms: S_21  and  C_12 
REMARK    6  A    between atoms: N_16  and  C_13 
ROOT
ATOM      1  C   UNL d   1       0.620  -1.728  -0.028  0.00  0.00     0.160 C 
ATOM      2  C   UNL d   1      -0.281  -2.155   0.881  0.00  0.00     0.141 C 
ATOM      3  C   UNL d   1       1.290  -0.491   0.070  0.00  0.00     0.113 C 
ATOM      4  N   UNL d   1       1.849   0.519   0.188  0.00  0.00    -0.191 NA
ENDROOT
BRANCH   1   5
ATOM      5  S   UNL d   1       0.931  -2.696  -1.429  0.00  0.00     0.219 S 
ATOM      6  O   UNL d   1       0.517  -1.924  -2.590  0.00  0.00    -0.216 OA
ATOM      7  O   UNL d   1       0.417  -4.045  -1.268  0.00  0.00    -0.216 OA
BRANCH   5   8
ATOM      8  C   UNL d   1       2.702  -2.866  -1.537  0.00  0.00     0.086 A 
ATOM      9  C   UNL d   1       3.444  -3.493  -0.533  0.00  0.00     0.056 A 
ATOM     10 CL   UNL d   1       2.775  -4.042   0.959  0.00  0.00    -0.083 Cl
ATOM     11  C   UNL d   1       4.816  -3.701  -0.721  0.00  0.00     0.025 A 
ATOM     12  C   UNL d   1       5.443  -3.294  -1.900  0.00  0.00     0.002 A 
ATOM     13  C   UNL d   1       4.704  -2.662  -2.896  0.00  0.00     0.002 A 
ATOM     14  C   UNL d   1       3.337  -2.446  -2.719  0.00  0.00     0.025 A 
ENDBRANCH   5   8
ENDBRANCH   1   5
BRANCH   2  15
ATOM     15  N   UNL d   1      -0.734  -1.509   2.006  0.00  0.00    -0.199 N 
ATOM     16  H   UNL d   1      -0.498  -0.538   2.178  0.00  0.00     0.183 HD
BRANCH  15  17
ATOM     17  C   UNL d   1      -1.522  -2.029   3.033  0.00  0.00     0.698 A 
ATOM     18  N   UNL d   1      -1.817  -3.323   3.066  0.00  0.00    -0.022 N 
ATOM     19  C   UNL d   1      -2.546  -3.761   4.088  0.00  0.00     0.696 A 
ATOM     20  HN  UNL d   1      -1.495  -3.957   2.335  1.00  0.00     0.203 HD
ATOM     21  N   UNL d   1      -2.985  -2.950   5.042  0.00  0.00    -0.169 N 
ATOM     22  C   UNL d   1      -2.650  -1.671   4.923  0.00  0.00     0.174 A 
ATOM     23  HN  UNL d   1      -3.548  -3.289   5.822  1.00  0.00     0.186 HD
ATOM     24  N   UNL d   1      -1.911  -1.159   3.948  0.00  0.00    -0.169 N 
ATOM     25  HN  UNL d   1      -1.661  -0.171   3.908  1.00  0.00     0.186 HD
BRANCH  19  26
ATOM     26  N   UNL d   1      -2.913  -5.095   4.117  0.00  0.00    -0.226 N 
ATOM     27  C   UNL d   1      -3.598  -5.624   5.282  0.00  0.00     0.168 C 
ATOM     28  C   UNL d   1      -2.155  -6.046   3.319  0.00  0.00     0.168 C 
ENDBRANCH  19  26
BRANCH  22  29
ATOM     29  S   UNL d   1      -3.213  -0.504   6.144  0.00  0.00    -0.097 SA
ATOM     30  C   UNL d   1      -4.247  -1.570   7.175  0.00  0.00     0.099 C 
ENDBRANCH  22  29
ENDBRANCH  15  17
ENDBRANCH   2  15
TORSDOF 6
