REMARK  3 active torsions:
REMARK  status: ('A' for Active; 'I' for Inactive)
REMARK    1  A    between atoms: C_3  and  C_21 
REMARK    2  A    between atoms: N_22  and  C_13 
REMARK    3  A    between atoms: N_18  and  N_22 
ROOT
ATOM      1  C   UNL d   1      -0.285   0.941   0.083  0.00  0.00     0.072 A 
ATOM      2  C   UNL d   1       0.020  -0.388  -0.152  0.00  0.00     0.138 A 
ATOM      3  N   UNL d   1       1.944   0.630   0.525  0.00  0.00    -0.307 N 
ATOM      4  HN  UNL d   1       2.918   0.788   0.782  1.00  0.00     0.186 HD
ATOM      5  N   UNL d   1       1.353  -0.522   0.128  0.00  0.00    -0.281 N 
ATOM      6  C   UNL d   1       0.936   1.511   0.498  0.00  0.00     0.126 A 
ATOM      7  C   UNL d   1      -1.610   1.348  -0.120  0.00  0.00     0.136 A 
ATOM      8  N   UNL d   1      -0.831  -1.343  -0.566  0.00  0.00    -0.337 N 
ATOM      9  HN  UNL d   1      -0.569  -2.315  -0.733  1.00  0.00     0.168 HD
ATOM     10  N   UNL d   1      -2.505   0.410  -0.530  0.00  0.00    -0.337 N 
ATOM     11  HN  UNL d   1      -3.483   0.655  -0.685  1.00  0.00     0.168 HD
ATOM     12  C   UNL d   1      -2.071  -0.852  -0.729  0.00  0.00     0.183 A 
ATOM     13  C   UNL d   1       2.141  -1.726   0.051  0.00  0.00     0.179 C 
ENDROOT
BRANCH   7  14
ATOM     14  N   UNL d   1      -2.092   2.655   0.084  0.00  0.00    -0.285 N 
ATOM     15  H   UNL d   1      -3.034   2.720  -0.298  0.00  0.00     0.188 HD
BRANCH  14  16
ATOM     16  N   UNL d   1      -1.212   3.682  -0.071  0.00  0.00    -0.309 N 
ATOM     17  C   UNL d   1      -1.718   4.869   0.029  0.00  0.00     0.122 C 
ATOM     18  HN  UNL d   1      -0.220   3.527  -0.254  1.00  0.00     0.186 HD
BRANCH  17  19
ATOM     19  C   UNL d   1      -0.848   6.010  -0.132  0.00  0.00     0.021 A 
ATOM     20  C   UNL d   1      -1.145   7.394   0.003  0.00  0.00     0.035 A 
ATOM     21  N   UNL d   1      -0.071   8.160  -0.231  0.00  0.00    -0.303 N 
ATOM     22  C   UNL d   1      -2.439   8.029   0.357  0.00  0.00     0.070 C 
ATOM     23  N   UNL d   1       0.905   7.279  -0.507  0.00  0.00    -0.307 N 
ATOM     24  HN  UNL d   1      -0.009   9.177  -0.206  1.00  0.00     0.186 HD
ATOM     25  C   UNL d   1       0.494   5.983  -0.459  0.00  0.00     0.124 A 
ATOM     26  C   UNL d   1       2.230   7.758  -0.819  0.00  0.00     0.177 C 
ENDBRANCH  17  19
ENDBRANCH  14  16
ENDBRANCH   7  14
TORSDOF 3
