REMARK  3 active torsions:
REMARK  status: ('A' for Active; 'I' for Inactive)
REMARK    1  A    between atoms: C_15  and  N_3 
REMARK    2  A    between atoms: C_17  and  N_6 
REMARK    3  A    between atoms: C_21  and  C_14 
ROOT
ATOM      1  C   UNL d   1      -1.018  -0.937  -0.008  0.00  0.00     0.140 A 
ATOM      2  C   UNL d   1      -0.455   0.301  -0.021  0.00  0.00     0.114 A 
ATOM      3  N   UNL d   1      -2.434  -1.020   0.059  0.00  0.00    -0.247 N 
ATOM      4  C   UNL d   1       1.803  -0.691   0.073  0.00  0.00     0.138 A 
ATOM      5  C   UNL d   1      -3.269   0.130   0.111  0.00  0.00     0.342 A 
ATOM      6  N   UNL d   1      -2.639   1.370   0.006  0.00  0.00    -0.229 N 
ATOM      7  N   UNL d   1      -0.149  -2.090  -0.093  0.00  0.00    -0.301 N 
ATOM      8  C   UNL d   1       0.966   0.392   0.005  0.00  0.00     0.129 A 
ATOM      9  C   UNL d   1      -1.270   1.539  -0.093  0.00  0.00     0.273 A 
ATOM     10  C   UNL d   1       1.267  -2.027   0.059  0.00  0.00     0.278 C 
ATOM     11  N   UNL d   1       3.122  -0.326   0.098  0.00  0.00    -0.333 N 
ATOM     12  HN  UNL d   1       3.946  -0.925   0.154  1.00  0.00     0.168 HD
ATOM     13  O   UNL d   1       1.793   1.496  -0.018  0.00  0.00    -0.294 OA
ATOM     14  C   UNL d   1       3.066   0.984   0.033  0.00  0.00     0.124 A 
ATOM     15  O   UNL d   1      -4.497   0.037   0.224  0.00  0.00    -0.245 OA
ATOM     16  O   UNL d   1      -0.716   2.632  -0.207  0.00  0.00    -0.266 OA
ATOM     17  O   UNL d   1       1.985  -3.021   0.131  0.00  0.00    -0.265 OA
ATOM     18  C   UNL d   1      -0.569  -3.438  -0.436  0.00  0.00     0.161 C 
ENDROOT
BRANCH   3  19
ATOM     19  C   UNL d   1      -3.171  -2.249   0.174  0.00  0.00     0.045 A 
ATOM     20  C   UNL d   1      -4.098  -2.591  -0.827  0.00  0.00     0.030 A 
ATOM     21  C   UNL d   1      -4.722  -3.838  -0.819  0.00  0.00     0.002 A 
ATOM     22  C   UNL d   1      -4.437  -4.748   0.196  0.00  0.00     0.000 A 
ATOM     23  C   UNL d   1      -3.573  -4.392   1.232  0.00  0.00     0.002 A 
ATOM     24  C   UNL d   1      -2.958  -3.135   1.236  0.00  0.00     0.030 A 
ENDBRANCH   3  19
BRANCH   6  25
ATOM     25  C   UNL d   1      -3.470   2.545   0.001  0.00  0.00     0.047 A 
ATOM     26  C   UNL d   1      -4.383   2.778   1.041  0.00  0.00     0.030 A 
ATOM     27  C   UNL d   1      -5.202   3.910   1.030  0.00  0.00     0.002 A 
ATOM     28  C   UNL d   1      -5.139   4.805  -0.036  0.00  0.00     0.000 A 
ATOM     29  C   UNL d   1      -4.245   4.579  -1.080  0.00  0.00     0.002 A 
ATOM     30  C   UNL d   1      -3.401   3.464  -1.055  0.00  0.00     0.030 A 
ENDBRANCH   6  25
BRANCH  14  31
ATOM     31  C   UNL d   1       4.201   1.939  -0.004  0.00  0.00     0.080 C 
ATOM     32  C   UNL d   1       4.678   2.175  -1.427  0.00  0.00     0.013 C 
ENDBRANCH  14  31
TORSDOF 3
