REMARK  5 active torsions:
REMARK  status: ('A' for Active; 'I' for Inactive)
REMARK    1  A    between atoms: C_5  and  C_1 
REMARK    2  A    between atoms: C_8  and  C_2 
REMARK       I    between atoms: N_17  and  C_8 
REMARK    3  A    between atoms: C_11  and  C_21 
REMARK    4  A    between atoms: C_20  and  N_17 
REMARK    5  A    between atoms: C_21  and  C_20 
ROOT
ATOM      1  C   UNL d   1      -1.131  -0.838   0.623  0.00  0.00     0.086 A 
ATOM      2  C   UNL d   1       0.038  -1.294  -0.079  0.00  0.00     0.092 A 
ATOM      3  N   UNL d   1      -1.039   0.483   0.844  0.00  0.00    -0.259 N 
ATOM      4  HN  UNL d   1      -1.703   1.061   1.361  1.00  0.00     0.195 HD
ATOM      5  O   UNL d   1       0.120   0.909   0.240  0.00  0.00    -0.241 OA
ATOM      6  C   UNL d   1       0.769  -0.149  -0.306  0.00  0.00     0.090 A 
ATOM      7  C   UNL d   1       2.025   0.178  -1.012  0.00  0.00     0.080 C 
ENDROOT
BRANCH   2   8
ATOM      8  C   UNL d   1       0.370  -2.643  -0.481  0.00  0.00     0.256 C 
ATOM      9  O   UNL d   1      -0.465  -3.415  -0.942  0.00  0.00    -0.267 OA
ATOM     10  N   UNL d   1       1.672  -3.012  -0.209  0.00  0.00    -0.356 N 
ATOM     11  H   UNL d   1       2.227  -2.397   0.373  0.00  0.00     0.162 HD
BRANCH  10  12
ATOM     12  C   UNL d   1       2.075  -4.405  -0.303  0.00  0.00     0.127 C 
BRANCH  12  13
ATOM     13  C   UNL d   1       3.581  -4.621  -0.129  0.00  0.00     0.059 C 
BRANCH  13  14
ATOM     14  C   UNL d   1       4.420  -3.889  -1.145  0.00  0.00    -0.038 A 
ATOM     15  C   UNL d   1       4.343  -4.119  -2.505  0.00  0.00     0.058 A 
ATOM     16  S   UNL d   1       5.393  -3.134  -3.409  0.00  0.00    -0.101 SA
ATOM     17  C   UNL d   1       6.019  -2.381  -1.997  0.00  0.00     0.015 A 
ATOM     18  C   UNL d   1       5.415  -2.878  -0.837  0.00  0.00    -0.012 A 
ATOM     19  C   UNL d   1       7.015  -1.385  -1.948  0.00  0.00     0.019 A 
ATOM     20  C   UNL d   1       5.851  -2.346   0.406  0.00  0.00     0.013 A 
ATOM     21  C   UNL d   1       6.842  -1.362   0.458  0.00  0.00     0.001 A 
ATOM     22  C   UNL d   1       7.417  -0.885  -0.709  0.00  0.00     0.001 A 
ENDBRANCH  13  14
ENDBRANCH  12  13
ENDBRANCH  10  12
ENDBRANCH   2   8
BRANCH   1  23
ATOM     23  C   UNL d   1      -2.283  -1.601   1.122  0.00  0.00     0.037 A 
ATOM     24  C   UNL d   1      -2.116  -2.753   1.918  0.00  0.00     0.048 A 
ATOM     25 CL   UNL d   1      -0.578  -3.273   2.531  0.00  0.00    -0.083 Cl
ATOM     26  C   UNL d   1      -3.220  -3.514   2.336  0.00  0.00     0.025 A 
ATOM     27  C   UNL d   1      -4.513  -3.107   2.030  0.00  0.00     0.003 A 
ATOM     28  C   UNL d   1      -4.706  -1.940   1.301  0.00  0.00     0.025 A 
ATOM     29  C   UNL d   1      -3.607  -1.200   0.835  0.00  0.00     0.048 A 
ATOM     30 CL   UNL d   1      -3.998   0.199  -0.114  0.00  0.00    -0.083 Cl
ENDBRANCH   1  23
TORSDOF 5
