REMARK  2 active torsions:
REMARK  status: ('A' for Active; 'I' for Inactive)
REMARK    1  A    between atoms: C_13  and  C_6 
REMARK    2  A    between atoms: C_9  and  C_14 
ROOT
ATOM      1  C   UNL d   1       0.012   0.723   0.007  0.00  0.00     0.091 A 
ATOM      2  N   UNL d   1       1.220  -1.393  -0.020  0.00  0.00    -0.334 N 
ATOM      3  HN  UNL d   1       1.217  -2.412  -0.047  1.00  0.00     0.168 HD
ATOM      4  C   UNL d   1       0.022  -0.676  -0.013  0.00  0.00     0.070 A 
ATOM      5  C   UNL d   1       1.340   1.381   0.029  0.00  0.00     0.304 A 
ATOM      6  C   UNL d   1       2.327  -0.738   0.009  0.00  0.00     0.162 A 
ATOM      7  O   UNL d   1       2.445   0.598   0.038  0.00  0.00    -0.257 OA
ATOM      8  C   UNL d   1      -1.215   1.424   0.010  0.00  0.00     0.070 A 
ATOM      9  C   UNL d   1      -1.196  -1.374  -0.022  0.00  0.00     0.040 A 
ATOM     10  C   UNL d   1      -2.421   0.698   0.000  0.00  0.00     0.035 A 
ATOM     11  C   UNL d   1      -2.411  -0.696  -0.014  0.00  0.00     0.042 A 
ATOM     12  O   UNL d   1       1.478   2.596   0.043  0.00  0.00    -0.259 OA
ATOM     13 CL   UNL d   1      -1.289   3.159   0.026  0.00  0.00    -0.082 Cl
ATOM     14 BR   UNL d   1      -1.247  -3.276  -0.040  0.00  0.00    -0.049 Br
ATOM     15 BR   UNL d   1      -4.138   1.524   0.008  0.00  0.00    -0.049 Br
ENDROOT
BRANCH   6  16
ATOM     16  C   UNL d   1       3.658  -1.398   0.018  0.00  0.00     0.016 A 
ATOM     17  C   UNL d   1       4.852  -0.662   0.078  0.00  0.00     0.032 A 
ATOM     18  C   UNL d   1       6.096  -1.316   0.108  0.00  0.00     0.048 A 
ATOM     19  C   UNL d   1       6.130  -2.718   0.067  0.00  0.00     0.016 A 
ATOM     20  C   UNL d   1       4.947  -3.454   0.002  0.00  0.00     0.002 A 
ATOM     21  C   UNL d   1       3.716  -2.797  -0.021  0.00  0.00     0.016 A 
BRANCH  18  22
ATOM     22  C   UNL d   1       7.386  -0.534   0.196  0.00  0.00     0.417 C 
ATOM     23  F   UNL d   1       7.203   0.815   0.223  0.00  0.00    -0.166 F 
ATOM     24  F   UNL d   1       8.098  -0.837   1.316  0.00  0.00    -0.166 F 
ATOM     25  F   UNL d   1       8.215  -0.780  -0.855  0.00  0.00    -0.166 F 
ENDBRANCH  18  22
ENDBRANCH   6  16
TORSDOF 2
