REMARK  6 active torsions:
REMARK  status: ('A' for Active; 'I' for Inactive)
REMARK    1  A    between atoms: N_2  and  C_1 
REMARK    2  A    between atoms: C_3  and  C_1 
REMARK    3  A    between atoms: C_5  and  C_1 
REMARK    4  A    between atoms: O_8  and  C_1 
REMARK       I    between atoms: C_4  and  N_2 
REMARK    5  A    between atoms: C_6  and  C_4 
REMARK    6  A    between atoms: O_15  and  C_5 
ROOT
ATOM      1  C   UNL d   1      -0.551   0.178  -1.274  0.00  0.00     0.325 C 
ENDROOT
BRANCH   1   2
ATOM      2  N   UNL d   1       0.804   0.726  -1.138  0.00  0.00    -0.309 N 
ATOM      3  C   UNL d   1       1.083   2.034  -1.444  0.00  0.00     0.254 C 
ATOM      4  O   UNL d   1       0.216   2.763  -1.919  0.00  0.00    -0.268 OA
ATOM      5  H   UNL d   1       1.518   0.083  -0.829  0.00  0.00     0.166 HD
BRANCH   3   6
ATOM      6  C   UNL d   1       2.473   2.531  -1.198  0.00  0.00     0.032 A 
ATOM      7  C   UNL d   1       3.442   1.791  -0.504  0.00  0.00     0.017 A 
ATOM      8  C   UNL d   1       4.725   2.319  -0.301  0.00  0.00     0.007 A 
ATOM      9  C   UNL d   1       5.058   3.591  -0.781  0.00  0.00    -0.062 A 
ATOM     10  C   UNL d   1       4.088   4.334  -1.458  0.00  0.00     0.007 A 
ATOM     11  C   UNL d   1       6.426   4.151  -0.525  0.00  0.00     0.048 C 
ATOM     12  C   UNL d   1       2.807   3.808  -1.668  0.00  0.00     0.017 A 
ENDBRANCH   3   6
ENDBRANCH   1   2
BRANCH   1  13
ATOM     13  C   UNL d   1      -1.678   0.900  -0.464  0.00  0.00     0.448 C 
ATOM     14  F   UNL d   1      -1.202   1.889   0.332  0.00  0.00    -0.166 F 
ATOM     15  F   UNL d   1      -2.586   1.467  -1.302  0.00  0.00    -0.166 F 
ATOM     16  F   UNL d   1      -2.376   0.068   0.348  0.00  0.00    -0.166 F 
ENDBRANCH   1  13
BRANCH   1  17
ATOM     17  C   UNL d   1      -0.510  -1.248  -0.694  0.00  0.00     0.324 C 
ATOM     18  O   UNL d   1       0.293  -1.612   0.162  0.00  0.00    -0.259 OA
BRANCH  17  19
ATOM     19  O   UNL d   1      -1.461  -2.050  -1.254  0.00  0.00    -0.322 OA
ATOM     20  C   UNL d   1      -1.477  -3.394  -0.772  0.00  0.00     0.213 C 
ENDBRANCH  17  19
ENDBRANCH   1  17
BRANCH   1  21
ATOM     21  O   UNL d   1      -0.791   0.145  -2.684  0.00  0.00    -0.356 OA
ATOM     22  H   UNL d   1      -0.999   1.073  -2.918  0.00  0.00     0.213 HD
ENDBRANCH   1  21
TORSDOF 6
