REMARK  3 active torsions:
REMARK  status: ('A' for Active; 'I' for Inactive)
REMARK    1  A    between atoms: N_3  and  C_1 
REMARK    2  A    between atoms: N_2  and  N_3 
REMARK    3  A    between atoms: C_4  and  N_2 
ROOT
ATOM      1  N   UNL d   1       0.902   1.889   1.625  0.00  0.00    -0.203 NA
ATOM      2  H   UNL d   1       0.345   1.847   0.769  0.00  0.00     0.153 HD
ENDROOT
BRANCH   1   3
ATOM      3  N   UNL d   1       2.268   2.128   1.380  0.00  0.00    -0.293 N 
ATOM      4  H   UNL d   1       2.881   1.816   2.130  0.00  0.00     0.183 HD
BRANCH   3   5
ATOM      5  C   UNL d   1       2.766   2.051   0.114  0.00  0.00     0.180 C 
ATOM      6  S   UNL d   1       4.359   1.696  -0.177  0.00  0.00    -0.040 SA
ATOM      7  N   UNL d   1       1.899   2.274  -0.907  0.00  0.00    -0.375 N 
ATOM      8  H   UNL d   1       1.184   2.971  -0.751  0.00  0.00     0.158 HD
ATOM      9  H   UNL d   1       2.322   2.305  -1.826  0.00  0.00     0.158 HD
ENDBRANCH   3   5
ENDBRANCH   1   3
BRANCH   1  10
ATOM     10  C   UNL d   1       0.325   2.758   2.584  0.00  0.00     0.033 A 
ATOM     11  C   UNL d   1      -0.821   2.346   3.297  0.00  0.00    -0.038 A 
ATOM     12  C   UNL d   1      -1.409   3.217   4.235  0.00  0.00     0.032 A 
ATOM     13  C   UNL d   1      -1.445   0.987   3.123  0.00  0.00     0.050 C 
ATOM     14  C   UNL d   1      -0.875   4.483   4.459  0.00  0.00     0.034 A 
ATOM     15  C   UNL d   1       0.236   4.909   3.743  0.00  0.00     0.026 A 
ATOM     16 CL   UNL d   1      -1.595   5.524   5.624  0.00  0.00    -0.084 Cl
ATOM     17  C   UNL d   1       0.825   4.055   2.806  0.00  0.00     0.027 A 
ENDBRANCH   1  10
TORSDOF 3
