REMARK  4 active torsions:
REMARK  status: ('A' for Active; 'I' for Inactive)
REMARK    1  A    between atoms: C_2  and  S_1 
REMARK    2  A    between atoms: N_3  and  S_1 
REMARK    3  A    between atoms: C_6  and  C_10 
REMARK    4  A    between atoms: O_16  and  C_11 
ROOT
ATOM      1  N   UNL d   1      -0.022   1.512  -0.163  0.00  0.00    -0.206 NA
ATOM      2  C   UNL d   1      -0.081   1.767  -1.632  0.00  0.00     0.108 C 
ATOM      3  C   UNL d   1       0.705   2.532   0.640  0.00  0.00     0.108 C 
ATOM      4  C   UNL d   1       0.490   4.226  -1.319  0.00  0.00     0.024 C 
ATOM      5  C   UNL d   1       0.483   3.976   0.198  0.00  0.00     0.025 C 
ATOM      6  C   UNL d   1      -0.458   3.206  -1.964  0.00  0.00     0.025 C 
ENDROOT
BRANCH   1   7
ATOM      7  S   UNL d   1       0.518  -0.098   0.226  0.00  0.00     0.245 S 
ATOM      8  O   UNL d   1       1.374  -0.540  -0.859  0.00  0.00    -0.206 OA
ATOM      9  O   UNL d   1       1.016  -0.119   1.581  0.00  0.00    -0.206 OA
BRANCH   7  10
ATOM     10  C   UNL d   1      -0.966  -1.075   0.186  0.00  0.00     0.092 A 
ATOM     11  C   UNL d   1      -1.922  -1.022   1.207  0.00  0.00     0.033 A 
ATOM     12 BR   UNL d   1      -1.908   0.212   2.651  0.00  0.00    -0.049 Br
ATOM     13  C   UNL d   1      -2.998  -1.922   1.188  0.00  0.00     0.020 A 
ATOM     14  C   UNL d   1      -3.124  -2.862   0.165  0.00  0.00     0.001 A 
ATOM     15  C   UNL d   1      -2.174  -2.913  -0.850  0.00  0.00     0.002 A 
ATOM     16  C   UNL d   1      -1.095  -2.029  -0.839  0.00  0.00     0.026 A 
ENDBRANCH   7  10
ENDBRANCH   1   7
BRANCH   4  17
ATOM     17  C   UNL d   1       1.853   4.337  -2.016  0.00  0.00    -0.021 A 
ATOM     18  C   UNL d   1       1.997   5.081  -3.211  0.00  0.00     0.074 A 
ATOM     19  C   UNL d   1       3.235   5.138  -3.873  0.00  0.00     0.037 A 
ATOM     20  C   UNL d   1       4.361   4.523  -3.333  0.00  0.00     0.003 A 
ATOM     21  C   UNL d   1       4.251   3.836  -2.135  0.00  0.00     0.001 A 
ATOM     22  C   UNL d   1       3.013   3.739  -1.494  0.00  0.00     0.010 A 
BRANCH  18  23
ATOM     23  O   UNL d   1       0.883   5.733  -3.686  0.00  0.00    -0.355 OA
ATOM     24  C   UNL d   1       1.147   6.896  -4.472  0.00  0.00     0.210 C 
ENDBRANCH  18  23
ENDBRANCH   4  17
TORSDOF 4
