REMARK  5 active torsions:
REMARK  status: ('A' for Active; 'I' for Inactive)
REMARK    1  A    between atoms: C_11  and  C_3 
REMARK    2  A    between atoms: N_7  and  C_9 
REMARK    3  A    between atoms: C_10  and  C_8 
REMARK    4  A    between atoms: O_20  and  C_15 
REMARK    5  A    between atoms: C_23  and  O_20 
ROOT
ATOM      1  N   UNL d   1       1.595  -0.041   0.400  0.00  0.00    -0.331 N 
ATOM      2  HN  UNL d   1       2.545  -0.411   0.369  1.00  0.00     0.168 HD
ATOM      3  C   UNL d   1       1.206   1.196   0.419  0.00  0.00     0.162 A 
ATOM      4  C   UNL d   1       0.405  -0.729   0.433  0.00  0.00     0.111 A 
ATOM      5  O   UNL d   1      -0.119   1.438   0.518  0.00  0.00    -0.256 OA
ATOM      6  C   UNL d   1      -0.738   0.225   0.559  0.00  0.00     0.316 A 
ATOM      7  C   UNL d   1       0.321  -2.054   0.262  0.00  0.00     0.050 C 
ATOM      8  O   UNL d   1      -1.929   0.028   0.678  0.00  0.00    -0.257 OA
ENDROOT
BRANCH   7   9
ATOM      9  C   UNL d   1      -0.923  -2.800   0.047  0.00  0.00    -0.000 A 
ATOM     10  C   UNL d   1      -1.691  -3.441   1.031  0.00  0.00     0.079 A 
ATOM     11  C   UNL d   1      -2.896  -4.060   0.659  0.00  0.00     0.037 A 
ATOM     12  C   UNL d   1      -3.329  -4.072  -0.666  0.00  0.00     0.003 A 
ATOM     13  C   UNL d   1      -2.565  -3.453  -1.645  0.00  0.00     0.001 A 
ATOM     14  C   UNL d   1      -1.373  -2.823  -1.290  0.00  0.00     0.014 A 
BRANCH  10  15
ATOM     15  O   UNL d   1      -1.457  -3.520   2.377  0.00  0.00    -0.351 OA
BRANCH  15  16
ATOM     16  C   UNL d   1      -0.110  -3.521   2.833  0.00  0.00     0.171 C 
ATOM     17  C   UNL d   1      -0.079  -4.227   4.179  0.00  0.00     0.034 C 
ENDBRANCH  15  16
ENDBRANCH  10  15
ENDBRANCH   7   9
BRANCH   3  18
ATOM     18  C   UNL d   1       2.054   2.396   0.327  0.00  0.00     0.015 A 
ATOM     19  C   UNL d   1       3.434   2.245   0.137  0.00  0.00     0.018 A 
ATOM     20  C   UNL d   1       4.262   3.370   0.053  0.00  0.00     0.037 A 
ATOM     21  C   UNL d   1       3.702   4.651   0.160  0.00  0.00     0.102 A 
ATOM     22  C   UNL d   1       2.320   4.810   0.331  0.00  0.00     0.037 A 
ATOM     23  C   UNL d   1       1.499   3.681   0.412  0.00  0.00     0.018 A 
BRANCH  21  24
ATOM     24  N   UNL d   1       4.568   5.836   0.105  0.00  0.00    -0.116 N 
ATOM     25  O   UNL d   1       5.785   5.653  -0.042  0.00  0.00    -0.532 OA
ATOM     26  O   UNL d   1       4.031   6.947   0.213  0.00  0.00    -0.532 OA
ENDBRANCH  21  24
ENDBRANCH   3  18
TORSDOF 5
