REMARK  7 active torsions:
REMARK  status: ('A' for Active; 'I' for Inactive)
REMARK    1  A    between atoms: C_5  and  C_1 
REMARK    2  A    between atoms: C_7  and  C_1 
REMARK       I    between atoms: C_2  and  N_8 
REMARK    3  A    between atoms: C_6  and  C_2 
REMARK    4  A    between atoms: N_8  and  N_3 
REMARK    5  A    between atoms: C_10  and  C_5 
REMARK    6  A    between atoms: O_17  and  C_7 
REMARK    7  A    between atoms: O_18  and  C_10 
ROOT
ATOM      1  C   UNL d   1       0.940  -0.186   0.079  0.00  0.00     0.110 C 
ATOM      2  N   UNL d   1       0.164  -1.151   0.485  0.00  0.00    -0.296 N 
ATOM      3  HN  UNL d   1      -0.841  -1.001   0.571  1.00  0.00     0.187 HD
ENDROOT
BRANCH   2   4
ATOM      4  N   UNL d   1       0.707  -2.362   0.793  0.00  0.00    -0.265 N 
ATOM      5  C   UNL d   1       0.008  -3.283   1.567  0.00  0.00     0.277 C 
ATOM      6  O   UNL d   1      -1.086  -3.041   2.077  0.00  0.00    -0.265 OA
ATOM      7  H   UNL d   1       1.564  -2.669   0.349  0.00  0.00     0.190 HD
BRANCH   5   8
ATOM      8  C   UNL d   1       0.693  -4.559   1.768  0.00  0.00     0.074 A 
ATOM      9  S   UNL d   1       2.209  -4.914   1.045  0.00  0.00    -0.097 SA
ATOM     10  C   UNL d   1       2.280  -6.455   1.780  0.00  0.00     0.050 A 
ATOM     11  C   UNL d   1       1.172  -6.707   2.556  0.00  0.00     0.009 A 
ATOM     12  C   UNL d   1       0.256  -5.616   2.545  0.00  0.00     0.025 A 
ENDBRANCH   5   8
ENDBRANCH   2   4
BRANCH   1  13
ATOM     13  C   UNL d   1       2.446  -0.184   0.051  0.00  0.00     0.176 C 
BRANCH  13  14
ATOM     14  C   UNL d   1       3.017   0.126  -1.298  0.00  0.00     0.264 C 
ATOM     15  O   UNL d   1       2.367   0.260  -2.324  0.00  0.00    -0.265 OA
BRANCH  14  16
ATOM     16  O   UNL d   1       4.376   0.176  -1.210  0.00  0.00    -0.326 OA
ATOM     17  C   UNL d   1       5.051   0.418  -2.447  0.00  0.00     0.213 C 
ENDBRANCH  14  16
ENDBRANCH  13  14
ENDBRANCH   1  13
BRANCH   1  18
ATOM     18  C   UNL d   1       0.291   1.143  -0.295  0.00  0.00     0.307 C 
ATOM     19  O   UNL d   1       0.845   2.202  -0.059  0.00  0.00    -0.258 OA
BRANCH  18  20
ATOM     20  O   UNL d   1      -0.905   0.946  -0.881  0.00  0.00    -0.322 OA
ATOM     21  C   UNL d   1      -1.615   2.146  -1.176  0.00  0.00     0.213 C 
ENDBRANCH  18  20
ENDBRANCH   1  18
TORSDOF 7
