REMARK  4 active torsions:
REMARK  status: ('A' for Active; 'I' for Inactive)
REMARK    1  A    between atoms: C_10  and  C_1 
REMARK    2  A    between atoms: C_6  and  C_10 
REMARK    3  A    between atoms: C_13  and  C_7 
REMARK    4  A    between atoms: O_14  and  C_9 
ROOT
ATOM      1  C   UNL d   1       1.022  -1.097  -0.037  0.00  0.00     0.087 A 
ATOM      2  N   UNL d   1      -0.322  -1.133  -0.026  0.00  0.00    -0.326 N 
ATOM      3  HN  UNL d   1      -0.845  -2.009  -0.005  1.00  0.00     0.169 HD
ATOM      4  N   UNL d   1       1.748   0.038  -0.065  0.00  0.00    -0.345 N 
ATOM      5  HN  UNL d   1       2.767   0.009  -0.086  1.00  0.00     0.167 HD
ATOM      6  C   UNL d   1       1.085   1.220  -0.064  0.00  0.00     0.047 A 
ATOM      7  C   UNL d   1      -0.293   1.270  -0.064  0.00  0.00     0.086 A 
ATOM      8  C   UNL d   1      -0.922   0.057  -0.046  0.00  0.00     0.143 A 
ENDROOT
BRANCH   1   9
ATOM      9  C   UNL d   1       1.766  -2.409   0.053  0.00  0.00     0.118 C 
BRANCH   9  10
ATOM     10  C   UNL d   1       1.985  -3.098  -1.280  0.00  0.00    -0.008 A 
ATOM     11  C   UNL d   1       3.140  -2.854  -2.049  0.00  0.00     0.042 A 
ATOM     12 CL   UNL d   1       4.396  -1.787  -1.521  0.00  0.00    -0.084 Cl
ATOM     13  C   UNL d   1       3.337  -3.487  -3.283  0.00  0.00     0.024 A 
ATOM     14  C   UNL d   1       2.385  -4.370  -3.783  0.00  0.00     0.003 A 
ATOM     15  C   UNL d   1       1.234  -4.621  -3.044  0.00  0.00     0.024 A 
ATOM     16  C   UNL d   1       1.033  -3.993  -1.808  0.00  0.00     0.042 A 
ATOM     17 CL   UNL d   1      -0.425  -4.399  -0.967  0.00  0.00    -0.084 Cl
ENDBRANCH   9  10
ENDBRANCH   1   9
BRANCH   8  18
ATOM     18  O   UNL d   1      -2.278  -0.007  -0.023  0.00  0.00    -0.346 OA
ATOM     19  H   UNL d   1      -2.407  -0.974   0.000  0.00  0.00     0.219 HD
ENDBRANCH   8  18
BRANCH   6  20
ATOM     20  C   UNL d   1       1.931   2.433  -0.036  0.00  0.00    -0.009 A 
ATOM     21  C   UNL d   1       3.199   2.442  -0.646  0.00  0.00     0.013 A 
ATOM     22  C   UNL d   1       4.017   3.577  -0.615  0.00  0.00     0.001 A 
ATOM     23  C   UNL d   1       3.586   4.729   0.035  0.00  0.00     0.000 A 
ATOM     24  C   UNL d   1       2.339   4.748   0.652  0.00  0.00     0.001 A 
ATOM     25  C   UNL d   1       1.522   3.612   0.617  0.00  0.00     0.013 A 
ENDBRANCH   6  20
TORSDOF 4
