REMARK  5 active torsions:
REMARK  status: ('A' for Active; 'I' for Inactive)
REMARK    1  A    between atoms: C_3  and  O_6 
REMARK       I    between atoms: N_10  and  C_3 
REMARK    2  A    between atoms: C_13  and  C_4 
REMARK    3  A    between atoms: O_6  and  C_5 
REMARK    4  A    between atoms: C_17  and  C_11 
REMARK    5  A    between atoms: O_16  and  C_17 
ROOT
ATOM      1  N   UNL d   1       1.202   0.563   0.039  0.00  0.00    -0.322 N 
ATOM      2  HN  UNL d   1       2.147   0.939  -0.042  1.00  0.00     0.169 HD
ATOM      3  C   UNL d   1       0.121   1.362   0.040  0.00  0.00     0.117 A 
ATOM      4  C   UNL d   1       0.973  -0.760   0.150  0.00  0.00     0.156 A 
ATOM      5  N   UNL d   1      -1.149   0.919   0.091  0.00  0.00    -0.343 N 
ATOM      6  HN  UNL d   1      -1.937   1.565   0.052  1.00  0.00     0.167 HD
ATOM      7  C   UNL d   1      -0.286  -1.305   0.248  0.00  0.00     0.083 A 
ATOM      8  C   UNL d   1      -1.338  -0.413   0.198  0.00  0.00     0.038 A 
ENDROOT
BRANCH   3   9
ATOM      9  C   UNL d   1       0.329   2.822  -0.012  0.00  0.00     0.011 A 
ATOM     10  C   UNL d   1       1.613   3.386  -0.055  0.00  0.00     0.032 A 
ATOM     11  C   UNL d   1       1.751   4.766  -0.061  0.00  0.00     0.088 A 
ATOM     12  N   UNL d   1       0.713   5.626  -0.036  0.00  0.00    -0.375 N 
ATOM     13  C   UNL d   1      -0.518   5.080  -0.005  0.00  0.00     0.088 A 
ATOM     14  HN  UNL d   1       0.853   6.636  -0.041  1.00  0.00     0.164 HD
ATOM     15  C   UNL d   1      -0.754   3.714   0.004  0.00  0.00     0.032 A 
ENDBRANCH   3   9
BRANCH   4  16
ATOM     16  O   UNL d   1       2.140  -1.541  -0.003  0.00  0.00    -0.244 OA
BRANCH  16  17
ATOM     17  C   UNL d   1       2.251  -2.903   0.275  0.00  0.00     0.368 C 
ATOM     18  N   UNL d   1       3.434  -3.448  -0.206  0.00  0.00    -0.336 N 
ATOM     19  C   UNL d   1       4.494  -2.655  -0.805  0.00  0.00     0.154 C 
ATOM     20  C   UNL d   1       3.732  -4.845   0.059  0.00  0.00     0.154 C 
ATOM     21  O   UNL d   1       1.399  -3.556   0.869  0.00  0.00    -0.238 OA
ENDBRANCH  16  17
ENDBRANCH   4  16
BRANCH   8  22
ATOM     22  C   UNL d   1      -2.760  -0.918   0.193  0.00  0.00     0.224 C 
BRANCH  22  23
ATOM     23  O   UNL d   1      -3.072  -1.538   1.440  0.00  0.00    -0.390 OA
ATOM     24  C   UNL d   1      -4.389  -2.072   1.431  0.00  0.00     0.201 C 
ENDBRANCH  22  23
ENDBRANCH   8  22
TORSDOF 5
