REMARK  4 active torsions:
REMARK  status: ('A' for Active; 'I' for Inactive)
REMARK    1  A    between atoms: C_10  and  C_5 
REMARK    2  A    between atoms: C_8  and  C_6 
REMARK    3  A    between atoms: O_13  and  C_8 
REMARK    4  A    between atoms: C_12  and  C_10 
ROOT
ATOM      1  N   UNL d   1       1.147   0.355   0.734  0.00  0.00    -0.320 N 
ATOM      2  HN  UNL d   1       2.098   0.195   1.064  1.00  0.00     0.169 HD
ATOM      3  C   UNL d   1      -1.179  -0.009   0.389  0.00  0.00     0.080 C 
ATOM      4  C   UNL d   1       0.129  -0.572   0.844  0.00  0.00     0.263 C 
ATOM      5  C   UNL d   1       0.756   1.451   0.165  0.00  0.00     0.058 C 
ATOM      6  C   UNL d   1      -2.336  -0.631   0.640  0.00  0.00     0.106 C 
ATOM      7  S   UNL d   1      -0.899   1.505  -0.373  0.00  0.00    -0.071 SA
ATOM      8  O   UNL d   1       0.249  -1.700   1.298  0.00  0.00    -0.267 OA
ENDROOT
BRANCH   5   9
ATOM      9  C   UNL d   1       1.606   2.678  -0.006  0.00  0.00     0.103 C 
BRANCH   9  10
ATOM     10  C   UNL d   1       2.427   2.687  -1.271  0.00  0.00    -0.052 A 
ATOM     11  C   UNL d   1       2.271   3.704  -2.222  0.00  0.00     0.008 A 
ATOM     12  C   UNL d   1       3.056   3.722  -3.379  0.00  0.00     0.007 A 
ATOM     13  C   UNL d   1       4.015   2.728  -3.603  0.00  0.00    -0.062 A 
ATOM     14  C   UNL d   1       4.180   1.719  -2.649  0.00  0.00     0.007 A 
ATOM     15  C   UNL d   1       4.846   2.754  -4.851  0.00  0.00     0.048 C 
ATOM     16  C   UNL d   1       3.397   1.700  -1.493  0.00  0.00     0.008 A 
ENDBRANCH   9  10
ENDBRANCH   5   9
BRANCH   6  17
ATOM     17  C   UNL d   1      -3.652  -0.038   0.348  0.00  0.00     0.283 C 
ATOM     18  O   UNL d   1      -3.870   1.147   0.154  0.00  0.00    -0.260 OA
BRANCH  17  19
ATOM     19  O   UNL d   1      -4.588  -1.019   0.368  0.00  0.00    -0.323 OA
ATOM     20  C   UNL d   1      -5.908  -0.527   0.121  0.00  0.00     0.213 C 
ENDBRANCH  17  19
ENDBRANCH   6  17
TORSDOF 4
