REMARK  3 active torsions:
REMARK  status: ('A' for Active; 'I' for Inactive)
REMARK    1  A    between atoms: N_4  and  C_1 
REMARK       I    between atoms: C_6  and  N_4 
REMARK    2  A    between atoms: C_9  and  C_6 
REMARK    3  A    between atoms: O_14  and  C_12 
ROOT
ATOM      1  N   UNL d   1      -1.790  -2.349  -0.253  0.00  0.00    -0.307 N 
ATOM      2  C   UNL d   1      -1.186  -3.587  -0.174  0.00  0.00     0.257 C 
ATOM      3  O   UNL d   1      -1.684  -4.670  -0.468  0.00  0.00    -0.267 OA
ATOM      4  H   UNL d   1      -1.244  -1.509  -0.144  0.00  0.00     0.170 HD
ENDROOT
BRANCH   1   5
ATOM      5  C   UNL d   1      -3.154  -2.165  -0.410  0.00  0.00     0.135 A 
ATOM      6  N   UNL d   1      -4.043  -3.157  -0.489  0.00  0.00    -0.284 N 
ATOM      7  N   UNL d   1      -5.232  -2.551  -0.521  0.00  0.00    -0.298 N 
ATOM      8  HN  UNL d   1      -3.855  -4.159  -0.519  1.00  0.00     0.188 HD
ATOM      9  C   UNL d   1      -5.168  -1.190  -0.444  0.00  0.00     0.062 A 
ATOM     10  H   UNL d   1      -6.060  -3.133  -0.577  0.00  0.00     0.187 HD
ATOM     11  C   UNL d   1      -3.809  -0.892  -0.426  0.00  0.00     0.037 A 
ATOM     12  C   UNL d   1      -6.173  -0.220  -0.380  0.00  0.00     0.032 A 
ATOM     13  C   UNL d   1      -3.418   0.461  -0.388  0.00  0.00     0.017 A 
ATOM     14  C   UNL d   1      -4.409   1.453  -0.334  0.00  0.00     0.001 A 
ATOM     15  C   UNL d   1      -5.762   1.114  -0.315  0.00  0.00     0.002 A 
ENDBRANCH   1   5
BRANCH   2  16
ATOM     16  C   UNL d   1       0.229  -3.604   0.309  0.00  0.00     0.035 A 
ATOM     17  C   UNL d   1       1.017  -4.718  -0.030  0.00  0.00     0.053 A 
ATOM     18  C   UNL d   1       2.312  -4.846   0.466  0.00  0.00     0.069 A 
ATOM     19  C   UNL d   1       2.843  -3.836   1.269  0.00  0.00     0.037 A 
ATOM     20  C   UNL d   1       2.067  -2.730   1.620  0.00  0.00     0.004 A 
ATOM     21  C   UNL d   1       0.755  -2.617   1.153  0.00  0.00     0.017 A 
BRANCH  18  22
ATOM     22  O   UNL d   1       3.144  -5.904   0.222  0.00  0.00    -0.356 OA
ATOM     23  C   UNL d   1       2.489  -7.141  -0.052  0.00  0.00     0.210 C 
ENDBRANCH  18  22
ENDBRANCH   2  16
TORSDOF 3
