REMARK  5 active torsions:
REMARK  status: ('A' for Active; 'I' for Inactive)
REMARK       I    between atoms: C_2  and  N_1 
REMARK    1  A    between atoms: O_5  and  C_2 
REMARK    2  A    between atoms: C_3  and  C_4 
REMARK    3  A    between atoms: O_9  and  C_4 
REMARK    4  A    between atoms: C_10  and  O_5 
REMARK    5  A    between atoms: C_11  and  C_10 
ROOT
ATOM      1  N   UNL d   1      -1.038   0.540   0.003  0.00  0.00    -0.313 N 
ATOM      2  C   UNL d   1      -2.289   1.078   0.221  0.00  0.00     0.363 C 
ATOM      3  C   UNL d   1      -0.879  -0.863  -0.403  0.00  0.00     0.187 C 
ATOM      4  O   UNL d   1      -3.309   0.480  -0.092  0.00  0.00    -0.238 OA
ATOM      5  C   UNL d   1       0.228   1.135   0.401  0.00  0.00     0.129 C 
ATOM      6  C   UNL d   1       0.524  -1.220   0.087  0.00  0.00     0.038 C 
ATOM      7  C   UNL d   1       1.275   0.106  -0.010  0.00  0.00     0.022 C 
ENDROOT
BRANCH   2   8
ATOM      8  O   UNL d   1      -2.239   2.344   0.699  0.00  0.00    -0.299 OA
BRANCH   8   9
ATOM      9  C   UNL d   1      -3.463   3.089   0.575  0.00  0.00     0.219 C 
BRANCH   9  10
ATOM     10  C   UNL d   1      -4.043   3.575   1.885  0.00  0.00    -0.034 A 
ATOM     11  C   UNL d   1      -3.254   3.846   3.010  0.00  0.00     0.009 A 
ATOM     12  C   UNL d   1      -3.830   4.396   4.161  0.00  0.00     0.001 A 
ATOM     13  C   UNL d   1      -5.194   4.686   4.201  0.00  0.00     0.000 A 
ATOM     14  C   UNL d   1      -5.988   4.423   3.090  0.00  0.00     0.001 A 
ATOM     15  C   UNL d   1      -5.416   3.873   1.942  0.00  0.00     0.009 A 
ENDBRANCH   9  10
ENDBRANCH   8   9
ENDBRANCH   2   8
BRANCH   3  16
ATOM     16  C   UNL d   1      -0.973  -1.053  -1.926  0.00  0.00     0.163 C 
ATOM     17  O   UNL d   1      -0.875  -2.137  -2.486  0.00  0.00    -0.648 OA
BRANCH  16  18
ATOM     18  O   UNL d   1      -1.103   0.104  -2.619  0.00  0.00    -0.775 OA
ATOM     19  H   UNL d   1      -1.178   0.857  -2.000  0.00  0.00     0.167 HD
ENDBRANCH  16  18
ENDBRANCH   3  16
TORSDOF 5
