REMARK  5 active torsions:
REMARK  status: ('A' for Active; 'I' for Inactive)
REMARK    1  A    between atoms: N_4  and  C_1 
REMARK    2  A    between atoms: N_5  and  C_2 
REMARK    3  A    between atoms: O_10  and  C_3 
REMARK    4  A    between atoms: C_6  and  C_7 
REMARK    5  A    between atoms: C_18  and  O_10 
ROOT
ATOM      1  C   UNL d   1       1.400  -0.020   0.029  0.00  0.00     0.140 A 
ATOM      2  C   UNL d   1      -0.740  -1.057  -0.028  0.00  0.00     0.140 A 
ATOM      3  C   UNL d   1       0.655  -1.201  -0.084  0.00  0.00     0.142 A 
ATOM      4  C   UNL d   1      -0.614   1.361   0.168  0.00  0.00     0.052 A 
ATOM      5  C   UNL d   1      -1.379   0.191   0.100  0.00  0.00     0.055 A 
ATOM      6  C   UNL d   1       0.784   1.246   0.125  0.00  0.00     0.055 A 
ENDROOT
BRANCH   3   7
ATOM      7  O   UNL d   1       1.142  -2.485  -0.117  0.00  0.00    -0.306 OA
BRANCH   7   8
ATOM      8  C   UNL d   1       2.243  -2.816  -0.868  0.00  0.00     0.076 A 
ATOM      9  C   UNL d   1       3.032  -3.845  -0.340  0.00  0.00     0.040 A 
ATOM     10  C   UNL d   1       4.220  -4.212  -0.970  0.00  0.00     0.045 A 
ATOM     11  C   UNL d   1       4.606  -3.553  -2.130  0.00  0.00     0.116 A 
ATOM     12  C   UNL d   1       3.800  -2.570  -2.696  0.00  0.00     0.045 A 
ATOM     13  F   UNL d   1       5.769  -3.870  -2.712  0.00  0.00    -0.206 F 
ATOM     14  C   UNL d   1       2.595  -2.220  -2.082  0.00  0.00     0.040 A 
ENDBRANCH   7   8
ENDBRANCH   3   7
BRANCH   2  15
ATOM     15  N   UNL d   1      -1.590  -2.234  -0.076  0.00  0.00    -0.113 N 
ATOM     16  O   UNL d   1      -1.539  -2.924  -1.103  0.00  0.00    -0.532 OA
ATOM     17  O   UNL d   1      -2.339  -2.421   0.891  0.00  0.00    -0.532 OA
ENDBRANCH   2  15
BRANCH   1  18
ATOM     18  N   UNL d   1       2.848  -0.024   0.136  0.00  0.00    -0.113 N 
ATOM     19  O   UNL d   1       3.341  -0.621   1.100  0.00  0.00    -0.532 OA
ATOM     20  O   UNL d   1       3.468   0.630  -0.712  0.00  0.00    -0.532 OA
ENDBRANCH   1  18
BRANCH   4  21
ATOM     21  C   UNL d   1      -1.255   2.722   0.316  0.00  0.00     0.417 C 
ATOM     22  F   UNL d   1      -2.610   2.672   0.403  0.00  0.00    -0.166 F 
ATOM     23  F   UNL d   1      -0.825   3.370   1.430  0.00  0.00    -0.166 F 
ATOM     24  F   UNL d   1      -0.969   3.537  -0.734  0.00  0.00    -0.166 F 
ENDBRANCH   4  21
TORSDOF 5
