REMARK  5 active torsions:
REMARK  status: ('A' for Active; 'I' for Inactive)
REMARK       I    between atoms: C_3  and  N_1 
REMARK    1  A    between atoms: C_2  and  C_9 
REMARK    2  A    between atoms: O_12  and  C_3 
REMARK    3  A    between atoms: C_4  and  C_10 
REMARK    4  A    between atoms: O_17  and  C_9 
REMARK    5  A    between atoms: C_10  and  O_12 
ROOT
ATOM      1  C   UNL d   1      -5.140   0.815   1.874  0.00  0.00     0.078 A 
ATOM      2  C   UNL d   1      -5.556   1.263   4.211  0.00  0.00    -0.018 A 
ATOM      3  C   UNL d   1      -5.484   2.538   3.534  0.00  0.00    -0.018 A 
ATOM      4  C   UNL d   1      -5.350   0.230   3.270  0.00  0.00    -0.036 A 
ATOM      5  C   UNL d   1      -5.243   2.317   2.160  0.00  0.00    -0.036 A 
ATOM      6  C   UNL d   1      -5.783   0.969   5.546  0.00  0.00     0.013 A 
ATOM      7  C   UNL d   1      -5.595   3.825   4.039  0.00  0.00     0.013 A 
ATOM      8  C   UNL d   1      -5.109   3.383   1.281  0.00  0.00     0.009 A 
ATOM      9  C   UNL d   1      -5.393  -1.102   3.655  0.00  0.00     0.009 A 
ATOM     10  C   UNL d   1      -5.615  -1.397   5.002  0.00  0.00     0.001 A 
ATOM     11  C   UNL d   1      -5.210   4.680   1.793  0.00  0.00     0.001 A 
ATOM     12  C   UNL d   1      -5.453   4.900   3.159  0.00  0.00     0.001 A 
ATOM     13  C   UNL d   1      -5.807  -0.371   5.940  0.00  0.00     0.001 A 
ENDROOT
BRANCH   1  14
ATOM     14  C   UNL d   1      -3.784   0.467   1.241  0.00  0.00     0.194 C 
BRANCH  14  15
ATOM     15  O   UNL d   1      -3.504  -0.945   1.180  0.00  0.00    -0.303 OA
BRANCH  15  16
ATOM     16  C   UNL d   1      -3.985  -1.658   0.137  0.00  0.00     0.364 C 
ATOM     17  N   UNL d   1      -3.530  -2.955   0.129  0.00  0.00    -0.304 N 
ATOM     18  C   UNL d   1      -3.831  -3.886  -0.975  0.00  0.00     0.197 C 
ATOM     19  C   UNL d   1      -2.575  -3.445   1.095  0.00  0.00     0.203 C 
ATOM     20  C   UNL d   1      -2.858  -5.074  -0.937  0.00  0.00     0.112 C 
ATOM     21  S   UNL d   1      -1.543  -4.626   0.218  0.00  0.00    -0.146 SA
ATOM     22  O   UNL d   1      -4.771  -1.230  -0.702  0.00  0.00    -0.238 OA
BRANCH  18  23
ATOM     23  C   UNL d   1      -5.284  -4.393  -0.949  0.00  0.00     0.164 C 
ATOM     24  O   UNL d   1      -5.612  -5.569  -1.012  0.00  0.00    -0.648 OA
BRANCH  23  25
ATOM     25  O   UNL d   1      -6.217  -3.409  -0.958  0.00  0.00    -0.775 OA
ATOM     26  H   UNL d   1      -5.843  -2.499  -1.022  0.00  0.00     0.167 HD
ENDBRANCH  23  25
ENDBRANCH  18  23
ENDBRANCH  15  16
ENDBRANCH  14  15
ENDBRANCH   1  14
TORSDOF 5
