REMARK  6 active torsions:
REMARK  status: ('A' for Active; 'I' for Inactive)
REMARK    1  A    between atoms: S_2  and  C_1 
REMARK    2  A    between atoms: S_4  and  C_1 
REMARK    3  A    between atoms: C_8  and  S_2 
REMARK    4  A    between atoms: C_3  and  C_7 
REMARK    5  A    between atoms: C_6  and  C_3 
REMARK    6  A    between atoms: C_7  and  S_4 
ROOT
ATOM      1  C   UNL d   1      -2.438  -1.048   2.332  0.00  0.00     0.169 C 
ATOM      2  O   UNL d   1      -2.037  -1.896   3.134  0.00  0.00    -0.291 OA
ENDROOT
BRANCH   1   3
ATOM      3  C   UNL d   1      -1.563  -0.537   1.189  0.00  0.00     0.164 C 
BRANCH   3   4
ATOM      4  S   UNL d   1       0.201  -0.566   1.685  0.00  0.00    -0.104 SA
BRANCH   4   5
ATOM      5  C   UNL d   1       1.023  -0.018   0.231  0.00  0.00     0.105 C 
ATOM      6  S   UNL d   1       0.645   1.413  -0.559  0.00  0.00    -0.065 SA
BRANCH   5   7
ATOM      7  S   UNL d   1       2.223  -1.143  -0.401  0.00  0.00    -0.102 SA
BRANCH   7   8
ATOM      8  C   UNL d   1       3.813  -0.660   0.407  0.00  0.00     0.003 C 
ATOM      9  C   UNL d   1       3.785  -0.956   1.910  0.00  0.00     0.026 C 
ATOM     10  C   UNL d   1       4.912  -1.530  -0.238  0.00  0.00     0.026 C 
ATOM     11  C   UNL d   1       4.177   0.812   0.166  0.00  0.00     0.026 C 
ENDBRANCH   7   8
ENDBRANCH   5   7
ENDBRANCH   4   5
ENDBRANCH   3   4
ENDBRANCH   1   3
BRANCH   1  12
ATOM     12  C   UNL d   1      -3.857  -0.577   2.478  0.00  0.00     0.011 A 
ATOM     13  C   UNL d   1      -4.493   0.282   1.572  0.00  0.00     0.015 A 
ATOM     14  C   UNL d   1      -5.835   0.654   1.773  0.00  0.00     0.007 A 
ATOM     15  C   UNL d   1      -6.560   0.172   2.874  0.00  0.00    -0.062 A 
ATOM     16  C   UNL d   1      -5.922  -0.677   3.778  0.00  0.00     0.007 A 
ATOM     17  C   UNL d   1      -7.999   0.553   3.060  0.00  0.00     0.048 C 
ATOM     18  C   UNL d   1      -4.588  -1.044   3.582  0.00  0.00     0.015 A 
ENDBRANCH   1  12
TORSDOF 6
