REMARK  4 active torsions:
REMARK  status: ('A' for Active; 'I' for Inactive)
REMARK    1  A    between atoms: C_8  and  C_1 
REMARK    2  A    between atoms: C_10  and  C_5 
REMARK    3  A    between atoms: S_11  and  C_9 
REMARK    4  A    between atoms: C_16  and  S_11 
ROOT
ATOM      1  C   UNL d   1      -0.781  -2.326  -0.121  0.00  0.00     0.051 A 
ATOM      2  C   UNL d   1      -0.373  -3.110   0.964  0.00  0.00     0.089 A 
ATOM      3  N   UNL d   1      -0.744  -4.416   1.107  0.00  0.00    -0.359 N 
ATOM      4  HN  UNL d   1      -0.433  -4.961   1.911  1.00  0.00     0.166 HD
ATOM      5  C   UNL d   1      -1.610  -2.951  -1.073  0.00  0.00     0.020 A 
ATOM      6  C   UNL d   1      -1.531  -4.972   0.161  0.00  0.00     0.089 A 
ATOM      7  C   UNL d   1      -1.988  -4.283  -0.938  0.00  0.00     0.018 A 
ENDROOT
BRANCH   1   8
ATOM      8  C   UNL d   1      -0.437  -0.928  -0.363  0.00  0.00     0.177 A 
ATOM      9  O   UNL d   1       0.659  -0.379   0.248  0.00  0.00    -0.277 OA
ATOM     10  C   UNL d   1       0.722   0.863  -0.332  0.00  0.00     0.144 A 
ATOM     11  N   UNL d   1      -0.248   1.060  -1.198  0.00  0.00    -0.281 N 
ATOM     12  N   UNL d   1      -0.996  -0.094  -1.220  0.00  0.00    -0.277 N 
ATOM     13  HN  UNL d   1      -0.413   1.904  -1.747  1.00  0.00     0.189 HD
ATOM     14  HN  UNL d   1      -1.823  -0.272  -1.789  1.00  0.00     0.189 HD
BRANCH  10  15
ATOM     15  C   UNL d   1       1.802   1.898  -0.070  0.00  0.00     0.062 A 
ATOM     16  C   UNL d   1       3.169   1.410   0.366  0.00  0.00     0.013 A 
ATOM     17  C   UNL d   1       2.302   2.135   1.338  0.00  0.00     0.013 A 
ENDBRANCH  10  15
ENDBRANCH   1   8
BRANCH   2  18
ATOM     18  S   UNL d   1       0.589  -2.514   2.339  0.00  0.00    -0.072 SA
BRANCH  18  19
ATOM     19  C   UNL d   1       2.263  -3.001   1.944  0.00  0.00     0.007 A 
ATOM     20  C   UNL d   1       3.299  -2.307   2.584  0.00  0.00     0.019 A 
ATOM     21  C   UNL d   1       4.634  -2.664   2.385  0.00  0.00     0.008 A 
ATOM     22  C   UNL d   1       4.964  -3.730   1.544  0.00  0.00    -0.062 A 
ATOM     23  C   UNL d   1       3.938  -4.412   0.883  0.00  0.00     0.008 A 
ATOM     24  C   UNL d   1       6.398  -4.136   1.374  0.00  0.00     0.048 C 
ATOM     25  C   UNL d   1       2.599  -4.054   1.089  0.00  0.00     0.019 A 
ENDBRANCH  18  19
ENDBRANCH   2  18
TORSDOF 4
