REMARK  6 active torsions:
REMARK  status: ('A' for Active; 'I' for Inactive)
REMARK    1  A    between atoms: C_10  and  C_2 
REMARK    2  A    between atoms: S_16  and  C_5 
REMARK    3  A    between atoms: C_8  and  C_11 
REMARK    4  A    between atoms: C_9  and  C_12 
REMARK    5  A    between atoms: C_25  and  S_16 
REMARK    6  A    between atoms: C_23  and  C_25 
ROOT
ATOM      1  C   UNL d   1      -0.800   2.422   0.046  0.00  0.00     0.011 A 
ATOM      2  C   UNL d   1      -0.642   4.724  -0.789  0.00  0.00     0.049 A 
ATOM      3  C   UNL d   1      -1.950   4.244   1.212  0.00  0.00     0.049 A 
ATOM      4  C   UNL d   1      -1.459   5.155   0.266  0.00  0.00     0.032 A 
ATOM      5  C   UNL d   1      -1.621   2.880   1.088  0.00  0.00     0.031 A 
ATOM      6  C   UNL d   1      -0.331   3.358  -0.890  0.00  0.00     0.031 A 
ENDROOT
BRANCH   1   7
ATOM      7  C   UNL d   1      -0.371   1.025  -0.068  0.00  0.00     0.132 A 
ATOM      8  N   UNL d   1      -0.681   0.012   0.807  0.00  0.00    -0.320 N 
ATOM      9  C   UNL d   1       0.021  -1.077   0.397  0.00  0.00     0.161 A 
ATOM     10  H   UNL d   1      -1.256   0.060   1.632  0.00  0.00     0.169 HD
ATOM     11  N   UNL d   1       0.681  -0.799  -0.696  0.00  0.00    -0.278 N 
ATOM     12  N   UNL d   1       0.427   0.522  -0.997  0.00  0.00    -0.283 N 
ATOM     13  HN  UNL d   1       1.273  -1.439  -1.226  1.00  0.00     0.189 HD
ATOM     14  HN  UNL d   1       0.794   1.029  -1.802  1.00  0.00     0.188 HD
BRANCH   9  15
ATOM     15  S   UNL d   1      -0.020  -2.538   1.299  0.00  0.00    -0.089 SA
BRANCH  15  16
ATOM     16  C   UNL d   1       1.561  -3.278   0.790  0.00  0.00     0.108 C 
BRANCH  16  17
ATOM     17  C   UNL d   1       1.704  -4.622   1.442  0.00  0.00    -0.026 C 
ATOM     18  C   UNL d   1       2.665  -4.949   2.316  0.00  0.00     0.007 C 
ENDBRANCH  16  17
ENDBRANCH  15  16
ENDBRANCH   9  15
ENDBRANCH   1   7
BRANCH   3  19
ATOM     19  C   UNL d   1      -2.797   4.710   2.375  0.00  0.00     0.417 C 
ATOM     20  F   UNL d   1      -2.993   6.056   2.406  0.00  0.00    -0.166 F 
ATOM     21  F   UNL d   1      -4.036   4.146   2.371  0.00  0.00    -0.166 F 
ATOM     22  F   UNL d   1      -2.241   4.382   3.574  0.00  0.00    -0.166 F 
ENDBRANCH   3  19
BRANCH   2  23
ATOM     23  C   UNL d   1      -0.070   5.703  -1.789  0.00  0.00     0.417 C 
ATOM     24  F   UNL d   1      -0.409   6.996  -1.529  0.00  0.00    -0.166 F 
ATOM     25  F   UNL d   1       1.290   5.675  -1.822  0.00  0.00    -0.166 F 
ATOM     26  F   UNL d   1      -0.487   5.457  -3.061  0.00  0.00    -0.166 F 
ENDBRANCH   2  23
TORSDOF 6
