REMARK  3 active torsions:
REMARK  status: ('A' for Active; 'I' for Inactive)
REMARK    1  A    between atoms: C_14  and  N_3 
REMARK    2  A    between atoms: C_10  and  C_5 
REMARK    3  A    between atoms: N_8  and  C_9 
ROOT
ATOM      1  N   UNL d   1      -0.385  -1.187   0.161  0.00  0.00    -0.268 N 
ATOM      2  HN  UNL d   1      -0.596  -2.170   0.331  1.00  0.00     0.190 HD
ATOM      3  N   UNL d   1       0.808  -0.567   0.035  0.00  0.00    -0.212 N 
ATOM      4  N   UNL d   1       0.751   0.756  -0.187  0.00  0.00    -0.002 NA
ATOM      5  C   UNL d   1      -1.217  -0.141  -0.002  0.00  0.00     0.144 A 
ATOM      6  N   UNL d   1      -0.542   1.040  -0.210  0.00  0.00    -0.266 N 
ATOM      7  HN  UNL d   1      -0.958   1.959  -0.355  1.00  0.00     0.186 HD
ENDROOT
BRANCH   5   8
ATOM      8  C   UNL d   1      -2.674  -0.218   0.014  0.00  0.00     0.013 A 
ATOM      9  C   UNL d   1      -3.335  -1.434   0.244  0.00  0.00     0.051 A 
ATOM     10  C   UNL d   1      -4.738  -1.478   0.239  0.00  0.00     0.103 A 
ATOM     11  C   UNL d   1      -5.494  -0.320   0.007  0.00  0.00     0.036 A 
ATOM     12  C   UNL d   1      -4.839   0.889  -0.218  0.00  0.00     0.003 A 
ATOM     13  C   UNL d   1      -3.442   0.938  -0.214  0.00  0.00     0.015 A 
BRANCH  10  14
ATOM     14  N   UNL d   1      -5.430  -2.752   0.478  0.00  0.00    -0.116 N 
ATOM     15  O   UNL d   1      -4.734  -3.758   0.674  0.00  0.00    -0.532 OA
ATOM     16  O   UNL d   1      -6.669  -2.746   0.468  0.00  0.00    -0.532 OA
ENDBRANCH  10  14
ENDBRANCH   5   8
BRANCH   3  17
ATOM     17  C   UNL d   1       2.079  -1.271   0.070  0.00  0.00     0.117 C 
ATOM     18  C   UNL d   1       2.289  -2.009   1.390  0.00  0.00     0.035 C 
ATOM     19  C   UNL d   1       2.230  -2.214  -1.122  0.00  0.00     0.035 C 
ENDBRANCH   3  17
TORSDOF 3
