REMARK  4 active torsions:
REMARK  status: ('A' for Active; 'I' for Inactive)
REMARK    1  A    between atoms: S_9  and  C_3 
REMARK    2  A    between atoms: O_10  and  C_4 
REMARK    3  A    between atoms: C_12  and  C_8 
REMARK    4  A    between atoms: O_11  and  C_12 
ROOT
ATOM      1  N   UNL d   1      -0.299  -1.156   0.002  0.00  0.00    -0.318 N 
ATOM      2  HN  UNL d   1      -0.850  -2.014  -0.009  1.00  0.00     0.170 HD
ATOM      3  C   UNL d   1       1.042  -1.162   0.003  0.00  0.00     0.146 A 
ATOM      4  C   UNL d   1      -0.858   0.053   0.017  0.00  0.00     0.143 A 
ATOM      5  N   UNL d   1       1.817  -0.061   0.002  0.00  0.00    -0.338 N 
ATOM      6  HN  UNL d   1       2.834  -0.127  -0.016  1.00  0.00     0.168 HD
ATOM      7  C   UNL d   1      -0.187   1.243   0.030  0.00  0.00     0.083 A 
ATOM      8  C   UNL d   1       1.187   1.139   0.026  0.00  0.00     0.039 A 
ENDROOT
BRANCH   8   9
ATOM      9  C   UNL d   1       2.041   2.384   0.026  0.00  0.00     0.224 C 
BRANCH   9  10
ATOM     10  O   UNL d   1       1.716   3.192   1.160  0.00  0.00    -0.390 OA
ATOM     11  C   UNL d   1       2.515   4.365   1.210  0.00  0.00     0.201 C 
ENDBRANCH   9  10
ENDBRANCH   8   9
BRANCH   4  12
ATOM     12  O   UNL d   1      -2.216   0.035   0.011  0.00  0.00    -0.346 OA
ATOM     13  H   UNL d   1      -2.380  -0.925   0.009  0.00  0.00     0.219 HD
ENDBRANCH   4  12
BRANCH   3  14
ATOM     14  S   UNL d   1       1.809  -2.766  -0.004  0.00  0.00    -0.098 SA
ATOM     15  C   UNL d   1       3.555  -2.300   0.034  0.00  0.00     0.099 C 
ENDBRANCH   3  14
TORSDOF 4
