REMARK  10 active torsions:
REMARK  status: ('A' for Active; 'I' for Inactive)
REMARK    1  A    between atoms: S_15  and  C_2 
REMARK    2  A    between atoms: S_14  and  C_3 
REMARK    3  A    between atoms: C_8  and  C_21 
REMARK    4  A    between atoms: C_9  and  C_20 
REMARK    5  A    between atoms: C_16  and  C_10 
REMARK    6  A    between atoms: C_17  and  C_11 
REMARK    7  A    between atoms: C_20  and  S_14 
REMARK    8  A    between atoms: C_21  and  S_15 
REMARK    9  A    between atoms: O_29  and  C_18 
REMARK   10  A    between atoms: O_28  and  C_19 
ROOT
ATOM      1  S   UNL d   1       1.167   0.116   0.464  0.00  0.00    -0.038 SA
ATOM      2  C   UNL d   1      -0.139   1.119   0.003  0.00  0.00     0.129 A 
ATOM      3  C   UNL d   1       0.025  -1.152   0.610  0.00  0.00     0.129 A 
ATOM      4  N   UNL d   1      -1.303   0.509  -0.062  0.00  0.00    -0.287 N 
ATOM      5  HN  UNL d   1      -2.172   0.965  -0.339  1.00  0.00     0.188 HD
ATOM      6  N   UNL d   1      -1.206  -0.820   0.290  0.00  0.00    -0.287 N 
ATOM      7  HN  UNL d   1      -1.994  -1.467   0.302  1.00  0.00     0.188 HD
ENDROOT
BRANCH   2   8
ATOM      8  S   UNL d   1       0.034   2.824  -0.317  0.00  0.00    -0.099 SA
BRANCH   8   9
ATOM      9  C   UNL d   1      -1.573   3.394   0.328  0.00  0.00     0.123 C 
BRANCH   9  10
ATOM     10  C   UNL d   1      -1.786   4.891   0.336  0.00  0.00    -0.014 A 
ATOM     11  C   UNL d   1      -0.692   5.766   0.524  0.00  0.00     0.026 A 
ATOM     12  C   UNL d   1      -0.832   7.149   0.404  0.00  0.00     0.010 A 
ATOM     13  C   UNL d   1      -2.102   7.697   0.206  0.00  0.00     0.018 A 
ATOM     14  C   UNL d   1      -3.208   6.853   0.096  0.00  0.00     0.038 A 
ATOM     15  C   UNL d   1      -3.062   5.461   0.171  0.00  0.00     0.075 A 
BRANCH  12  16
ATOM     16  C   UNL d   1       0.340   8.063   0.445  0.00  0.00     0.155 C 
ATOM     17  O   UNL d   1       0.189   9.220   0.820  0.00  0.00    -0.293 OA
ATOM     18  C   UNL d   1       1.687   7.565  -0.022  0.00  0.00     0.096 C 
ENDBRANCH  12  16
BRANCH  15  19
ATOM     19  O   UNL d   1      -4.226   4.772  -0.047  0.00  0.00    -0.355 OA
ATOM     20  C   UNL d   1      -4.539   3.723   0.865  0.00  0.00     0.210 C 
ENDBRANCH  15  19
ENDBRANCH   9  10
ENDBRANCH   8   9
ENDBRANCH   2   8
BRANCH   3  21
ATOM     21  S   UNL d   1       0.441  -2.744   1.180  0.00  0.00    -0.099 SA
BRANCH  21  22
ATOM     22  C   UNL d   1      -0.781  -3.734   0.263  0.00  0.00     0.123 C 
BRANCH  22  23
ATOM     23  C   UNL d   1      -0.689  -5.195   0.630  0.00  0.00    -0.014 A 
ATOM     24  C   UNL d   1      -1.395  -5.617   1.783  0.00  0.00     0.026 A 
ATOM     25  C   UNL d   1      -1.445  -6.965   2.155  0.00  0.00     0.010 A 
ATOM     26  C   UNL d   1      -0.786  -7.912   1.371  0.00  0.00     0.018 A 
ATOM     27  C   UNL d   1      -0.066  -7.507   0.245  0.00  0.00     0.038 A 
ATOM     28  C   UNL d   1       0.001  -6.157  -0.126  0.00  0.00     0.075 A 
BRANCH  25  29
ATOM     29  C   UNL d   1      -2.226  -7.438   3.331  0.00  0.00     0.155 C 
ATOM     30  O   UNL d   1      -2.679  -8.582   3.334  0.00  0.00    -0.293 OA
ATOM     31  C   UNL d   1      -2.439  -6.519   4.506  0.00  0.00     0.096 C 
ENDBRANCH  25  29
BRANCH  28  32
ATOM     32  O   UNL d   1       0.637  -5.942  -1.318  0.00  0.00    -0.355 OA
ATOM     33  C   UNL d   1       1.628  -4.921  -1.343  0.00  0.00     0.210 C 
ENDBRANCH  28  32
ENDBRANCH  22  23
ENDBRANCH  21  22
ENDBRANCH   3  21
TORSDOF 10
