REMARK  4 active torsions:
REMARK  status: ('A' for Active; 'I' for Inactive)
REMARK       I    between atoms: N_2  and  C_1 
REMARK    1  A    between atoms: C_5  and  C_1 
REMARK    2  A    between atoms: C_4  and  N_3 
REMARK    3  A    between atoms: C_11  and  C_4 
REMARK    4  A    between atoms: C_12  and  C_4 
ROOT
ATOM      1  C   UNL d   1       0.932   0.139   0.052  0.00  0.00     0.253 C 
ATOM      2  N   UNL d   1       0.354  -1.130   0.163  0.00  0.00    -0.345 N 
ATOM      3  N   UNL d   1      -0.546  -3.964   0.349  0.00  0.00     0.105 N 
ATOM      4  C   UNL d   1       0.897  -2.032   1.185  0.00  0.00     0.156 C 
ATOM      5  C   UNL d   1      -0.889  -1.574  -0.482  0.00  0.00     0.156 C 
ATOM      6  C   UNL d   1       0.798  -3.516   0.790  0.00  0.00     0.293 C 
ATOM      7  C   UNL d   1      -0.924  -3.086  -0.786  0.00  0.00     0.293 C 
ATOM      8  O   UNL d   1       1.992   0.427   0.618  0.00  0.00    -0.267 OA
ENDROOT
BRANCH   3   9
ATOM      9  C   UNL d   1      -1.571  -3.946   1.437  0.00  0.00     0.289 C 
BRANCH   9  10
ATOM     10  C   UNL d   1      -2.949  -4.401   0.930  0.00  0.00    -0.021 A 
ATOM     11  C   UNL d   1      -3.119  -5.654   0.318  0.00  0.00     0.010 A 
ATOM     12  C   UNL d   1      -4.374  -6.069  -0.128  0.00  0.00     0.001 A 
ATOM     13  C   UNL d   1      -5.477  -5.231   0.024  0.00  0.00     0.000 A 
ATOM     14  C   UNL d   1      -5.325  -3.981   0.620  0.00  0.00     0.001 A 
ATOM     15  C   UNL d   1      -4.071  -3.567   1.074  0.00  0.00     0.010 A 
ENDBRANCH   9  10
BRANCH   9  16
ATOM     16  C   UNL d   1      -1.208  -4.756   2.691  0.00  0.00    -0.021 A 
ATOM     17  C   UNL d   1      -1.649  -4.307   3.951  0.00  0.00     0.010 A 
ATOM     18  C   UNL d   1      -1.391  -5.048   5.107  0.00  0.00     0.001 A 
ATOM     19  C   UNL d   1      -0.692  -6.248   5.023  0.00  0.00     0.000 A 
ATOM     20  C   UNL d   1      -0.255  -6.712   3.784  0.00  0.00     0.001 A 
ATOM     21  C   UNL d   1      -0.518  -5.978   2.627  0.00  0.00     0.010 A 
ENDBRANCH   9  16
ENDBRANCH   3   9
BRANCH   1  22
ATOM     22  C   UNL d   1       0.311   1.206  -0.780  0.00  0.00     0.032 A 
ATOM     23  C   UNL d   1      -1.067   1.451  -0.798  0.00  0.00     0.018 A 
ATOM     24  C   UNL d   1      -1.600   2.451  -1.617  0.00  0.00     0.025 A 
ATOM     25  C   UNL d   1      -0.749   3.261  -2.365  0.00  0.00     0.034 A 
ATOM     26  C   UNL d   1       0.630   3.081  -2.299  0.00  0.00     0.025 A 
ATOM     27 CL   UNL d   1      -1.409   4.502  -3.356  0.00  0.00    -0.084 Cl
ATOM     28  C   UNL d   1       1.159   2.053  -1.512  0.00  0.00     0.018 A 
ENDBRANCH   1  22
TORSDOF 4
