REMARK  4 active torsions:
REMARK  status: ('A' for Active; 'I' for Inactive)
REMARK    1  A    between atoms: C_9  and  C_3 
REMARK    2  A    between atoms: C_7  and  C_4 
REMARK    3  A    between atoms: C_8  and  C_7 
REMARK    4  A    between atoms: O_14  and  C_8 
ROOT
ATOM      1  N   UNL d   1      -1.274  -1.008  -0.113  0.00  0.00    -0.352 N 
ATOM      2  HN  UNL d   1      -2.034  -1.684  -0.185  1.00  0.00     0.166 HD
ATOM      3  C   UNL d   1      -1.440   0.300  -0.114  0.00  0.00     0.085 A 
ATOM      4  C   UNL d   1       0.071  -1.348  -0.000  0.00  0.00     0.033 A 
ATOM      5  S   UNL d   1       0.022   1.197   0.000  0.00  0.00    -0.075 SA
ATOM      6  C   UNL d   1       0.927  -0.259   0.074  0.00  0.00     0.004 A 
ATOM      7  C   UNL d   1       2.411  -0.181   0.192  0.00  0.00     0.058 C 
ENDROOT
BRANCH   3   8
ATOM      8  C   UNL d   1      -2.748   0.977  -0.162  0.00  0.00    -0.002 A 
ATOM      9  C   UNL d   1      -3.862   0.364   0.436  0.00  0.00     0.016 A 
ATOM     10  C   UNL d   1      -5.121   0.977   0.414  0.00  0.00     0.024 A 
ATOM     11  C   UNL d   1      -5.279   2.207  -0.218  0.00  0.00     0.034 A 
ATOM     12  C   UNL d   1      -4.192   2.829  -0.825  0.00  0.00     0.024 A 
ATOM     13 CL   UNL d   1      -6.824   2.962  -0.252  0.00  0.00    -0.084 Cl
ATOM     14  C   UNL d   1      -2.934   2.217  -0.798  0.00  0.00     0.016 A 
ENDBRANCH   3   8
BRANCH   4  15
ATOM     15  C   UNL d   1       0.392  -2.810   0.058  0.00  0.00     0.168 C 
BRANCH  15  16
ATOM     16  C   UNL d   1       1.627  -3.208  -0.710  0.00  0.00     0.145 C 
ATOM     17  O   UNL d   1       2.552  -3.844  -0.223  0.00  0.00    -0.650 OA
BRANCH  16  18
ATOM     18  O   UNL d   1       1.627  -2.837  -2.010  0.00  0.00    -0.776 OA
ATOM     19  H   UNL d   1       0.819  -2.353  -2.278  0.00  0.00     0.167 HD
ENDBRANCH  16  18
ENDBRANCH  15  16
ENDBRANCH   4  15
TORSDOF 4
