REMARK  1 active torsions:
REMARK  status: ('A' for Active; 'I' for Inactive)
REMARK       I    between atoms: C_7  and  N_1 
REMARK    1  A    between atoms: C_9  and  C_5 
ROOT
ATOM      1  N   UNL d   1       0.180  -1.114   0.087  0.00  0.00    -0.252 N 
ATOM      2  N   UNL d   1       1.170  -0.168   0.090  0.00  0.00    -0.297 N 
ATOM      3  HN  UNL d   1       2.175  -0.339   0.123  1.00  0.00     0.187 HD
ATOM      4  C   UNL d   1       0.582   0.990   0.043  0.00  0.00     0.062 A 
ATOM      5  C   UNL d   1      -1.165  -0.539   0.043  0.00  0.00     0.150 A 
ATOM      6  C   UNL d   1      -0.916   0.963  -0.023  0.00  0.00     0.093 A 
ATOM      7  C   UNL d   1       0.438  -2.464  -0.063  0.00  0.00     0.234 C 
ATOM      8  C   UNL d   1       1.316   2.220   0.034  0.00  0.00     0.099 A 
ATOM      9  O   UNL d   1       0.627   3.401  -0.006  0.00  0.00    -0.321 OA
ATOM     10  C   UNL d   1       2.672   2.478   0.059  0.00  0.00     0.041 A 
ATOM     11  O   UNL d   1      -0.453  -3.302  -0.212  0.00  0.00    -0.272 OA
ATOM     12  C   UNL d   1       1.548   4.400  -0.001  0.00  0.00     0.142 A 
ATOM     13  C   UNL d   1       2.821   3.884   0.038  0.00  0.00     0.027 A 
ATOM     14  C   UNL d   1       1.888  -2.886  -0.060  0.00  0.00     0.119 C 
ENDROOT
BRANCH   5  15
ATOM     15  C   UNL d   1      -2.050  -0.896   1.225  0.00  0.00    -0.033 A 
ATOM     16  C   UNL d   1      -1.530  -1.138   2.507  0.00  0.00     0.011 A 
ATOM     17  C   UNL d   1      -2.377  -1.451   3.573  0.00  0.00     0.019 A 
ATOM     18  C   UNL d   1      -3.754  -1.510   3.369  0.00  0.00     0.011 A 
ATOM     19  C   UNL d   1      -4.292  -1.257   2.110  0.00  0.00     0.019 A 
ATOM     20 BR   UNL d   1      -4.900  -1.934   4.812  0.00  0.00    -0.051 Br
ATOM     21  C   UNL d   1      -3.443  -0.951   1.044  0.00  0.00     0.011 A 
ENDBRANCH   5  15
TORSDOF 1
