REMARK  6 active torsions:
REMARK  status: ('A' for Active; 'I' for Inactive)
REMARK    1  A    between atoms: C_4  and  C_1 
REMARK    2  A    between atoms: C_2  and  C_5 
REMARK    3  A    between atoms: C_3  and  C_6 
REMARK    4  A    between atoms: C_9  and  C_4 
REMARK    5  A    between atoms: N_13  and  N_7 
REMARK    6  A    between atoms: C_15  and  N_13 
ROOT
ATOM      1  C   UNL d   1       0.839   0.353  -0.365  0.00  0.00     0.181 C 
ATOM      2  N   UNL d   1       0.185   0.829   0.656  0.00  0.00    -0.287 N 
ATOM      3  HN  UNL d   1       0.679   1.401   1.342  1.00  0.00     0.188 HD
ATOM      4  C   UNL d   1       0.147  -0.482  -1.316  0.00  0.00     0.123 C 
ATOM      5  N   UNL d   1      -0.430  -1.173  -2.050  0.00  0.00    -0.190 NA
ENDROOT
BRANCH   1   6
ATOM      6  C   UNL d   1       2.309   0.633  -0.485  0.00  0.00     0.244 C 
ATOM      7  O   UNL d   1       3.048  -0.293  -0.804  0.00  0.00    -0.282 OA
BRANCH   6   8
ATOM      8  C   UNL d   1       2.743   1.962  -0.136  0.00  0.00     0.128 A 
ATOM      9  O   UNL d   1       1.853   3.002  -0.179  0.00  0.00    -0.319 OA
ATOM     10  C   UNL d   1       2.510   4.114   0.238  0.00  0.00     0.142 A 
ATOM     11  C   UNL d   1       3.818   3.816   0.536  0.00  0.00     0.027 A 
ATOM     12  C   UNL d   1       3.977   2.434   0.272  0.00  0.00     0.043 A 
ENDBRANCH   6   8
ENDBRANCH   1   6
BRANCH   2  13
ATOM     13  N   UNL d   1      -1.146   0.581   0.830  0.00  0.00    -0.300 N 
ATOM     14  H   UNL d   1      -1.480  -0.381   0.729  0.00  0.00     0.187 HD
BRANCH  13  15
ATOM     15  C   UNL d   1      -1.712   1.241   1.947  0.00  0.00     0.049 A 
ATOM     16  C   UNL d   1      -1.296   2.532   2.308  0.00  0.00     0.047 A 
ATOM     17  C   UNL d   1      -1.821   3.188   3.431  0.00  0.00     0.050 A 
ATOM     18  C   UNL d   1      -2.791   2.531   4.201  0.00  0.00     0.032 A 
ATOM     19  C   UNL d   1      -3.235   1.245   3.854  0.00  0.00     0.050 A 
ATOM     20  C   UNL d   1      -2.706   0.621   2.710  0.00  0.00     0.047 A 
BRANCH  17  21
ATOM     21  C   UNL d   1      -1.313   4.561   3.794  0.00  0.00     0.417 C 
ATOM     22  F   UNL d   1      -1.904   5.080   4.907  0.00  0.00    -0.166 F 
ATOM     23  F   UNL d   1       0.025   4.573   4.045  0.00  0.00    -0.166 F 
ATOM     24  F   UNL d   1      -1.516   5.475   2.805  0.00  0.00    -0.166 F 
ENDBRANCH  17  21
BRANCH  19  25
ATOM     25  C   UNL d   1      -4.242   0.509   4.706  0.00  0.00     0.417 C 
ATOM     26  F   UNL d   1      -4.627   1.202   5.813  0.00  0.00    -0.166 F 
ATOM     27  F   UNL d   1      -5.384   0.216   4.028  0.00  0.00    -0.166 F 
ATOM     28  F   UNL d   1      -3.759  -0.680   5.160  0.00  0.00    -0.166 F 
ENDBRANCH  19  25
ENDBRANCH  13  15
ENDBRANCH   2  13
TORSDOF 6
