REMARK  7 active torsions:
REMARK  status: ('A' for Active; 'I' for Inactive)
REMARK    1  A    between atoms: S_6  and  C_1 
REMARK    2  A    between atoms: N_7  and  C_1 
REMARK    3  A    between atoms: N_4  and  N_2 
REMARK    4  A    between atoms: C_9  and  S_6 
REMARK    5  A    between atoms: C_10  and  C_8 
REMARK    6  A    between atoms: C_12  and  C_9 
REMARK    7  A    between atoms: O_23  and  C_13 
ROOT
ATOM      1  C   UNL d   1       0.840  -0.017   0.042  0.00  0.00     0.131 C 
ATOM      2  N   UNL d   1       0.155  -1.119   0.109  0.00  0.00    -0.285 N 
ATOM      3  HN  UNL d   1      -0.854  -1.184  -0.027  1.00  0.00     0.188 HD
ENDROOT
BRANCH   1   4
ATOM      4  S   UNL d   1       0.120   1.500  -0.431  0.00  0.00    -0.094 SA
BRANCH   4   5
ATOM      5  C   UNL d   1      -1.545   1.347   0.267  0.00  0.00     0.120 C 
BRANCH   5   6
ATOM      6  C   UNL d   1      -2.325   2.627   0.036  0.00  0.00    -0.048 A 
ATOM      7  C   UNL d   1      -3.034   2.821  -1.162  0.00  0.00     0.011 A 
ATOM      8  C   UNL d   1      -3.698   4.024  -1.408  0.00  0.00     0.043 A 
ATOM      9  C   UNL d   1      -3.655   5.037  -0.459  0.00  0.00     0.116 A 
ATOM     10  C   UNL d   1      -2.961   4.871   0.733  0.00  0.00     0.043 A 
ATOM     11  F   UNL d   1      -4.281   6.197  -0.702  0.00  0.00    -0.206 F 
ATOM     12  C   UNL d   1      -2.295   3.666   0.980  0.00  0.00     0.011 A 
ENDBRANCH   5   6
ENDBRANCH   4   5
ENDBRANCH   1   4
BRANCH   1  13
ATOM     13  N   UNL d   1       2.186   0.079   0.244  0.00  0.00    -0.282 NA
ATOM     14  H   UNL d   1       2.594  -0.848   0.183  0.00  0.00     0.126 HD
ATOM     15  H   UNL d   1       2.631   0.776  -0.338  0.00  0.00     0.126 HD
ENDBRANCH   1  13
BRANCH   2  16
ATOM     16  N   UNL d   1       0.996  -2.213   0.395  0.00  0.00    -0.309 N 
ATOM     17  C   UNL d   1       0.346  -3.332   0.452  0.00  0.00     0.118 C 
ATOM     18  HN  UNL d   1       2.002  -2.133   0.541  1.00  0.00     0.186 HD
BRANCH  17  19
ATOM     19  C   UNL d   1       1.040  -4.612   0.720  0.00  0.00    -0.019 A 
ATOM     20  C   UNL d   1       2.428  -4.653   0.889  0.00  0.00     0.015 A 
ATOM     21  C   UNL d   1       3.075  -5.871   1.135  0.00  0.00     0.037 A 
ATOM     22  C   UNL d   1       2.335  -7.051   1.211  0.00  0.00     0.068 A 
ATOM     23  C   UNL d   1       0.946  -7.002   1.061  0.00  0.00     0.037 A 
ATOM     24  C   UNL d   1       0.295  -5.790   0.806  0.00  0.00     0.015 A 
BRANCH  22  25
ATOM     25  O   UNL d   1       2.849  -8.293   1.465  0.00  0.00    -0.356 OA
ATOM     26  C   UNL d   1       4.212  -8.490   1.102  0.00  0.00     0.210 C 
ENDBRANCH  22  25
ENDBRANCH  17  19
ENDBRANCH   2  16
TORSDOF 7
