REMARK  3 active torsions:
REMARK  status: ('A' for Active; 'I' for Inactive)
REMARK    1  A    between atoms: N_2  and  C_1 
REMARK    2  A    between atoms: N_9  and  C_3 
REMARK    3  A    between atoms: N_8  and  C_5 
REMARK       I    between atoms: C_10  and  N_9 
ROOT
ATOM      1  C   UNL d   1      -1.296   1.220  -0.148  0.00  0.00     0.132 A 
ATOM      2  C   UNL d   1      -1.975  -0.004   0.009  0.00  0.00     0.070 A 
ATOM      3  C   UNL d   1       0.102   1.258  -0.168  0.00  0.00     0.083 A 
ATOM      4  C   UNL d   1       0.204  -1.184   0.057  0.00  0.00     0.071 A 
ATOM      5  C   UNL d   1      -1.204  -1.184   0.090  0.00  0.00     0.064 A 
ATOM      6  C   UNL d   1       0.822   0.074  -0.057  0.00  0.00     0.145 A 
ATOM      7  F   UNL d   1       2.160   0.185  -0.009  0.00  0.00    -0.204 F 
ENDROOT
BRANCH   4   8
ATOM      8  N   UNL d   1       0.941  -2.349   0.192  0.00  0.00    -0.374 N 
ATOM      9  C   UNL d   1       0.388  -3.586   0.768  0.00  0.00     0.149 C 
ATOM     10  C   UNL d   1       1.505  -4.315   1.541  0.00  0.00     0.187 C 
ATOM     11  O   UNL d   1       2.652  -4.573   0.712  0.00  0.00    -0.388 OA
ATOM     12  C   UNL d   1       3.183  -3.340   0.195  0.00  0.00     0.187 C 
ATOM     13  C   UNL d   1       2.135  -2.592  -0.643  0.00  0.00     0.149 C 
ENDBRANCH   4   8
BRANCH   2  14
ATOM     14  N   UNL d   1      -3.392  -0.062   0.070  0.00  0.00    -0.325 N 
ATOM     15  C   UNL d   1      -4.148  -1.051   0.673  0.00  0.00     0.218 C 
ATOM     16  O   UNL d   1      -3.712  -2.003   1.312  0.00  0.00    -0.274 OA
ATOM     17  C   UNL d   1      -5.630  -0.814   0.544  0.00  0.00     0.117 C 
ATOM     18  H   UNL d   1      -3.890   0.796  -0.174  0.00  0.00     0.169 HD
ENDBRANCH   2  14
BRANCH   1  19
ATOM     19  N   UNL d   1      -2.011   2.499  -0.233  0.00  0.00    -0.113 N 
ATOM     20  O   UNL d   1      -3.231   2.472  -0.456  0.00  0.00    -0.532 OA
ATOM     21  O   UNL d   1      -1.354   3.542  -0.089  0.00  0.00    -0.532 OA
ENDBRANCH   1  19
TORSDOF 3
