REMARK  4 active torsions:
REMARK  status: ('A' for Active; 'I' for Inactive)
REMARK    1  A    between atoms: N_2  and  C_1 
REMARK    2  A    between atoms: C_3  and  C_9 
REMARK    3  A    between atoms: N_11  and  C_6 
REMARK    4  A    between atoms: N_7  and  N_11 
ROOT
ATOM      1  N   UNL d   1       3.157   2.720  -0.703  0.00  0.00    -0.298 N 
ATOM      2  H   UNL d   1       3.098   3.138   0.238  0.00  0.00     0.187 HD
ENDROOT
BRANCH   1   3
ATOM      3  N   UNL d   1       3.916   3.462  -1.558  0.00  0.00    -0.303 N 
ATOM      4  C   UNL d   1       5.144   3.586  -1.119  0.00  0.00     0.038 C 
ATOM      5  C   UNL d   1       6.032   4.679  -1.567  0.00  0.00     0.008 A 
ATOM      6  C   UNL d   1       5.752   2.723  -0.026  0.00  0.00     0.070 C 
ATOM      7  C   UNL d   1       6.788   5.361  -0.589  0.00  0.00     0.013 A 
ATOM      8  C   UNL d   1       6.112   5.036  -2.913  0.00  0.00     0.057 A 
ATOM      9  C   UNL d   1       7.618   6.417  -0.987  0.00  0.00     0.022 A 
ATOM     10  S   UNL d   1       6.802   4.981   1.166  0.00  0.00    -0.129 SA
ATOM     11  C   UNL d   1       7.713   6.768  -2.335  0.00  0.00     0.043 A 
ATOM     12  C   UNL d   1       6.970   6.071  -3.279  0.00  0.00     0.117 A 
ATOM     13  F   UNL d   1       7.092   6.399  -4.572  0.00  0.00    -0.206 F 
ATOM     14  C   UNL d   1       5.724   3.515   1.261  0.00  0.00     0.085 C 
ATOM     15  HN  UNL d   1       3.573   3.867  -2.428  1.00  0.00     0.186 HD
ENDBRANCH   1   3
BRANCH   1  16
ATOM     16  C   UNL d   1       1.902   2.157  -1.031  0.00  0.00     0.081 A 
ATOM     17  C   UNL d   1       1.089   1.607  -0.008  0.00  0.00     0.131 A 
ATOM     18  C   UNL d   1      -0.095   0.908  -0.281  0.00  0.00     0.054 A 
ATOM     19  C   UNL d   1      -0.502   0.720  -1.606  0.00  0.00     0.050 A 
ATOM     20  C   UNL d   1       0.302   1.246  -2.633  0.00  0.00     0.018 A 
ATOM     21  C   UNL d   1       1.491   1.943  -2.350  0.00  0.00     0.034 A 
BRANCH  17  22
ATOM     22  N   UNL d   1       1.482   1.739   1.397  0.00  0.00    -0.113 N 
ATOM     23  O   UNL d   1       1.177   0.818   2.168  0.00  0.00    -0.532 OA
ATOM     24  O   UNL d   1       2.099   2.761   1.733  0.00  0.00    -0.532 OA
ENDBRANCH  17  22
BRANCH  19  25
ATOM     25  C   UNL d   1      -1.767  -0.047  -1.913  0.00  0.00     0.417 C 
ATOM     26  F   UNL d   1      -2.392  -0.522  -0.798  0.00  0.00    -0.166 F 
ATOM     27  F   UNL d   1      -2.691   0.712  -2.561  0.00  0.00    -0.166 F 
ATOM     28  F   UNL d   1      -1.542  -1.131  -2.703  0.00  0.00    -0.166 F 
ENDBRANCH  19  25
ENDBRANCH   1  16
TORSDOF 4
