REMARK  2 active torsions:
REMARK  status: ('A' for Active; 'I' for Inactive)
REMARK    1  A    between atoms: C_7  and  C_9 
REMARK    2  A    between atoms: C_14  and  C_8 
ROOT
ATOM      1  C   UNL d   1      -0.121  -1.509  -0.166  0.00  0.00    -0.013 C 
ATOM      2  C   UNL d   1      -0.026   1.332  -0.347  0.00  0.00     0.194 C 
ATOM      3  C   UNL d   1       1.194  -0.821   0.023  0.00  0.00    -0.011 A 
ATOM      4  C   UNL d   1      -1.374  -0.736   0.073  0.00  0.00    -0.011 A 
ATOM      5  C   UNL d   1       1.230   0.577  -0.108  0.00  0.00     0.026 A 
ATOM      6  C   UNL d   1      -1.323   0.659  -0.087  0.00  0.00     0.026 A 
ATOM      7  C   UNL d   1      -0.096  -2.742  -0.728  0.00  0.00     0.024 C 
ATOM      8  O   UNL d   1       0.011   2.511  -0.686  0.00  0.00    -0.287 OA
ATOM      9  C   UNL d   1      -2.587  -1.299   0.492  0.00  0.00     0.013 A 
ATOM     10  C   UNL d   1       2.392  -1.487   0.334  0.00  0.00     0.013 A 
ATOM     11  C   UNL d   1      -2.473   1.448   0.060  0.00  0.00     0.016 A 
ATOM     12  C   UNL d   1       2.433   1.284   0.017  0.00  0.00     0.016 A 
ATOM     13  C   UNL d   1       3.615   0.603   0.298  0.00  0.00     0.001 A 
ATOM     14  C   UNL d   1       3.592  -0.781   0.463  0.00  0.00     0.001 A 
ATOM     15  C   UNL d   1      -3.733  -0.513   0.650  0.00  0.00     0.001 A 
ATOM     16  C   UNL d   1      -3.682   0.857   0.416  0.00  0.00     0.001 A 
ENDROOT
BRANCH   7  17
ATOM     17  C   UNL d   1      -1.214  -3.576  -1.184  0.00  0.00    -0.035 A 
ATOM     18  C   UNL d   1      -1.772  -3.377  -2.450  0.00  0.00     0.012 A 
ATOM     19  C   UNL d   1      -2.799  -4.211  -2.904  0.00  0.00     0.017 A 
ATOM     20  C   UNL d   1      -3.287  -5.249  -2.095  0.00  0.00     0.048 A 
ATOM     21  C   UNL d   1      -2.732  -5.431  -0.820  0.00  0.00     0.017 A 
ATOM     22  C   UNL d   1      -1.695  -4.609  -0.373  0.00  0.00     0.012 A 
BRANCH  20  23
ATOM     23  C   UNL d   1      -4.374  -6.161  -2.611  0.00  0.00     0.417 C 
ATOM     24  F   UNL d   1      -4.760  -7.110  -1.714  0.00  0.00    -0.166 F 
ATOM     25  F   UNL d   1      -5.508  -5.485  -2.950  0.00  0.00    -0.166 F 
ATOM     26  F   UNL d   1      -3.995  -6.839  -3.730  0.00  0.00    -0.166 F 
ENDBRANCH  20  23
ENDBRANCH   7  17
TORSDOF 2
