REMARK  6 active torsions:
REMARK  status: ('A' for Active; 'I' for Inactive)
REMARK    1  A    between atoms: N_6  and  C_1 
REMARK    2  A    between atoms: C_8  and  C_2 
REMARK    3  A    between atoms: O_19  and  C_8 
REMARK    4  A    between atoms: C_9  and  C_12 
REMARK    5  A    between atoms: O_20  and  C_11 
REMARK    6  A    between atoms: C_23  and  O_19 
ROOT
ATOM      1  C   UNL d   1      -2.216  -0.862   0.032  0.00  0.00     0.091 A 
ATOM      2  C   UNL d   1      -1.084  -1.675  -0.058  0.00  0.00     0.080 A 
ATOM      3  S   UNL d   1      -1.761   0.804   0.097  0.00  0.00    -0.075 SA
ATOM      4  C   UNL d   1       0.141  -0.908  -0.006  0.00  0.00    -0.026 A 
ATOM      5  C   UNL d   1      -0.107   0.447   0.015  0.00  0.00    -0.008 A 
ATOM      6  C   UNL d   1       1.545  -1.450  -0.031  0.00  0.00     0.041 C 
ATOM      7  C   UNL d   1       0.937   1.522   0.033  0.00  0.00     0.047 C 
ATOM      8  C   UNL d   1       2.571  -0.391   0.402  0.00  0.00     0.005 C 
ATOM      9  C   UNL d   1       2.323   0.948  -0.301  0.00  0.00     0.005 C 
ENDROOT
BRANCH   1  10
ATOM     10  N   UNL d   1      -3.510  -1.266   0.181  0.00  0.00    -0.359 N 
ATOM     11  C   UNL d   1      -4.456  -0.652  -0.455  0.00  0.00     0.103 C 
ATOM     12  HN  UNL d   1      -3.732  -2.051   0.794  1.00  0.00     0.166 HD
BRANCH  11  13
ATOM     13  C   UNL d   1      -5.861  -1.104  -0.303  0.00  0.00     0.014 A 
ATOM     14  C   UNL d   1      -6.920  -0.360  -0.827  0.00  0.00     0.078 A 
ATOM     15  C   UNL d   1      -8.237  -0.794  -0.656  0.00  0.00     0.057 A 
ATOM     16  C   UNL d   1      -8.500  -1.978   0.045  0.00  0.00     0.031 A 
ATOM     17  C   UNL d   1      -7.443  -2.730   0.566  0.00  0.00     0.029 A 
ATOM     18 BR   UNL d   1     -10.323  -2.475   0.249  0.00  0.00    -0.050 Br
ATOM     19  C   UNL d   1      -6.126  -2.294   0.389  0.00  0.00     0.036 A 
ATOM     20 BR   UNL d   1      -7.694  -4.350   1.526  0.00  0.00    -0.050 Br
BRANCH  14  21
ATOM     21  O   UNL d   1      -6.672   0.804  -1.501  0.00  0.00    -0.360 OA
ATOM     22  H   UNL d   1      -7.514   1.232  -1.738  0.00  0.00     0.217 HD
ENDBRANCH  14  21
ENDBRANCH  11  13
ENDBRANCH   1  10
BRANCH   2  23
ATOM     23  C   UNL d   1      -1.136  -3.133  -0.190  0.00  0.00     0.296 C 
ATOM     24  O   UNL d   1      -0.201  -3.865   0.119  0.00  0.00    -0.259 OA
BRANCH  23  25
ATOM     25  O   UNL d   1      -2.253  -3.575  -0.838  0.00  0.00    -0.318 OA
BRANCH  25  26
ATOM     26  C   UNL d   1      -2.164  -4.890  -1.396  0.00  0.00     0.174 C 
ATOM     27  C   UNL d   1      -1.522  -4.785  -2.769  0.00  0.00     0.034 C 
ENDBRANCH  25  26
ENDBRANCH  23  25
ENDBRANCH   2  23
TORSDOF 6
