REMARK  3 active torsions:
REMARK  status: ('A' for Active; 'I' for Inactive)
REMARK    1  A    between atoms: C_13  and  N_1 
REMARK    2  A    between atoms: C_10  and  C_4 
REMARK    3  A    between atoms: N_7  and  C_14 
ROOT
ATOM      1  C   UNL d   1       3.344  -0.080  -0.134  0.00  0.00     0.046 A 
ATOM      2  C   UNL d   1       6.176  -0.192  -0.199  0.00  0.00     0.056 A 
ATOM      3  C   UNL d   1       4.119   0.547   0.853  0.00  0.00     0.032 A 
ATOM      4  C   UNL d   1       4.020  -0.755  -1.160  0.00  0.00     0.032 A 
ATOM      5  C   UNL d   1       5.417  -0.803  -1.202  0.00  0.00     0.034 A 
ATOM      6  C   UNL d   1       5.520   0.482   0.834  0.00  0.00     0.034 A 
ENDROOT
BRANCH   1   7
ATOM      7  N   UNL d   1       1.924  -0.038  -0.096  0.00  0.00    -0.244 N 
ATOM      8  C   UNL d   1       1.101  -0.942  -0.738  0.00  0.00     0.266 A 
ATOM      9  C   UNL d   1      -0.271  -0.552  -0.441  0.00  0.00     0.048 A 
ATOM     10  O   UNL d   1       1.343  -1.929  -1.408  0.00  0.00    -0.267 OA
ATOM     11  C   UNL d   1      -1.462  -1.134  -0.828  0.00  0.00     0.018 A 
ATOM     12  C   UNL d   1      -0.228   0.573   0.354  0.00  0.00     0.048 A 
ATOM     13  C   UNL d   1      -2.642  -0.519  -0.400  0.00  0.00     0.001 A 
ATOM     14  C   UNL d   1      -2.600   0.646   0.392  0.00  0.00     0.001 A 
ATOM     15  C   UNL d   1      -1.379   1.206   0.782  0.00  0.00     0.018 A 
ATOM     16  C   UNL d   1       1.176   0.893   0.596  0.00  0.00     0.266 A 
ATOM     17  O   UNL d   1       1.501   1.849   1.276  0.00  0.00    -0.267 OA
ENDBRANCH   1   7
BRANCH   2  18
ATOM     18  N   UNL d   1       7.595  -0.252  -0.261  0.00  0.00    -0.267 N 
ATOM     19  N   UNL d   1       8.218  -0.802  -1.333  0.00  0.00    -0.290 N 
ATOM     20  C   UNL d   1       9.533  -0.609  -1.125  0.00  0.00     0.134 A 
ATOM     21  HN  UNL d   1       7.781  -1.264  -2.130  1.00  0.00     0.187 HD
ATOM     22  C   UNL d   1       9.757   0.008   0.129  0.00  0.00     0.055 A 
ATOM     23  C   UNL d   1       8.506   0.218   0.657  0.00  0.00     0.119 A 
BRANCH  20  24
ATOM     24  C   UNL d   1      10.588  -0.997  -2.126  0.00  0.00     0.434 C 
ATOM     25  F   UNL d   1      10.096  -1.601  -3.238  0.00  0.00    -0.165 F 
ATOM     26  F   UNL d   1      11.288   0.092  -2.551  0.00  0.00    -0.165 F 
ATOM     27  F   UNL d   1      11.502  -1.850  -1.587  0.00  0.00    -0.165 F 
ENDBRANCH  20  24
ENDBRANCH   2  18
TORSDOF 3
