REMARK  5 active torsions:
REMARK  status: ('A' for Active; 'I' for Inactive)
REMARK    1  A    between atoms: C_13  and  C_3 
REMARK    2  A    between atoms: C_4  and  C_7 
REMARK    3  A    between atoms: N_8  and  C_11 
REMARK    4  A    between atoms: O_12  and  C_10 
REMARK    5  A    between atoms: C_11  and  C_13 
ROOT
ATOM      1  C   UNL d   1      -0.388  -5.904   0.166  0.00  0.00     0.014 C 
ATOM      2  N   UNL d   1      -1.233  -4.920   0.111  0.00  0.00    -0.392 N 
ATOM      3  HN  UNL d   1      -0.921  -3.949   0.130  1.00  0.00     0.159 HD
ATOM      4  C   UNL d   1      -0.799  -7.365   0.208  0.00  0.00     0.068 C 
ENDROOT
BRANCH   2   5
ATOM      5  C   UNL d   1      -2.660  -5.265   0.019  0.00  0.00     0.124 C 
BRANCH   5   6
ATOM      6  C   UNL d   1      -3.508  -3.996  -0.099  0.00  0.00     0.060 C 
BRANCH   6   7
ATOM      7  C   UNL d   1      -4.970  -4.327  -0.148  0.00  0.00    -0.029 A 
ATOM      8  C   UNL d   1      -5.804  -4.486   0.943  0.00  0.00     0.096 A 
ATOM      9  N   UNL d   1      -7.047  -4.833   0.489  0.00  0.00    -0.365 N 
ATOM     10  C   UNL d   1      -7.049  -4.906  -0.884  0.00  0.00     0.042 A 
ATOM     11  H   UNL d   1      -7.850  -5.020   1.073  0.00  0.00     0.165 HD
ATOM     12  C   UNL d   1      -5.762  -4.582  -1.314  0.00  0.00    -0.002 A 
ATOM     13  C   UNL d   1      -8.085  -5.234  -1.767  0.00  0.00     0.030 A 
ATOM     14  C   UNL d   1      -5.500  -4.581  -2.701  0.00  0.00     0.014 A 
ATOM     15  C   UNL d   1      -6.527  -4.902  -3.598  0.00  0.00     0.001 A 
ATOM     16  C   UNL d   1      -7.799  -5.226  -3.135  0.00  0.00     0.002 A 
ENDBRANCH   6   7
ENDBRANCH   5   6
ENDBRANCH   2   5
BRANCH   1  17
ATOM     17  C   UNL d   1       1.074  -5.587   0.223  0.00  0.00     0.019 A 
ATOM     18  C   UNL d   1       1.518  -4.399   0.822  0.00  0.00     0.077 A 
ATOM     19  C   UNL d   1       2.879  -4.121   0.931  0.00  0.00     0.037 A 
ATOM     20  C   UNL d   1       3.814  -5.017   0.412  0.00  0.00     0.003 A 
ATOM     21  C   UNL d   1       3.386  -6.183  -0.222  0.00  0.00     0.001 A 
ATOM     22  C   UNL d   1       2.020  -6.467  -0.320  0.00  0.00     0.016 A 
BRANCH  18  23
ATOM     23  O   UNL d   1       0.657  -3.462   1.329  0.00  0.00    -0.360 OA
ATOM     24  H   UNL d   1      -0.239  -3.702   0.996  0.00  0.00     0.217 HD
ENDBRANCH  18  23
ENDBRANCH   1  17
TORSDOF 5
