REMARK  3 active torsions:
REMARK  status: ('A' for Active; 'I' for Inactive)
REMARK    1  A    between atoms: C_7  and  N_1 
REMARK    2  A    between atoms: C_2  and  C_10 
REMARK    3  A    between atoms: C_13  and  C_3 
ROOT
ATOM      1  C   UNL d   1      -2.308   3.541   2.908  0.00  0.00     0.055 C 
ATOM      2  C   UNL d   1      -3.462   3.055   3.416  0.00  0.00     0.035 C 
ATOM      3  C   UNL d   1      -1.441   2.694   2.135  0.00  0.00     0.100 C 
ATOM      4  N   UNL d   1      -0.733   2.034   1.495  0.00  0.00    -0.191 NA
ENDROOT
BRANCH   1   5
ATOM      5  C   UNL d   1      -1.938   4.974   3.105  0.00  0.00    -0.015 A 
ATOM      6  C   UNL d   1      -2.298   5.682   4.269  0.00  0.00     0.015 A 
ATOM      7  C   UNL d   1      -1.935   7.024   4.450  0.00  0.00     0.037 A 
ATOM      8  C   UNL d   1      -1.186   7.677   3.468  0.00  0.00     0.102 A 
ATOM      9  C   UNL d   1      -0.806   6.998   2.307  0.00  0.00     0.037 A 
ATOM     10  C   UNL d   1      -1.183   5.659   2.132  0.00  0.00     0.015 A 
BRANCH   8  11
ATOM     11  N   UNL d   1      -0.789   9.078   3.660  0.00  0.00    -0.116 N 
ATOM     12  O   UNL d   1      -0.106   9.611   2.774  0.00  0.00    -0.532 OA
ATOM     13  O   UNL d   1      -1.160   9.644   4.699  0.00  0.00    -0.532 OA
ENDBRANCH   8  11
ENDBRANCH   1   5
BRANCH   2  14
ATOM     14  C   UNL d   1      -3.933   1.674   3.251  0.00  0.00    -0.032 A 
ATOM     15  C   UNL d   1      -4.751   1.350   2.161  0.00  0.00     0.051 A 
ATOM     16  C   UNL d   1      -5.148   0.036   2.023  0.00  0.00     0.105 A 
ATOM     17  O   UNL d   1      -5.927  -0.455   1.023  0.00  0.00    -0.323 OA
ATOM     18  C   UNL d   1      -4.768  -0.935   2.919  0.00  0.00     0.105 A 
ATOM     19  C   UNL d   1      -5.959  -1.856   1.369  0.00  0.00     0.352 A 
ATOM     20  O   UNL d   1      -5.259  -2.160   2.593  0.00  0.00    -0.323 OA
ATOM     21  C   UNL d   1      -3.975  -0.647   4.008  0.00  0.00     0.040 A 
ATOM     22  C   UNL d   1      -3.551   0.676   4.174  0.00  0.00     0.014 A 
ENDBRANCH   2  14
TORSDOF 3
