REMARK  3 active torsions:
REMARK  status: ('A' for Active; 'I' for Inactive)
REMARK    1  A    between atoms: C_7  and  C_1 
REMARK    2  A    between atoms: O_15  and  C_2 
REMARK    3  A    between atoms: N_9  and  N_4 
REMARK       I    between atoms: C_6  and  N_9 
REMARK       I    between atoms: N_13  and  C_6 
ROOT
ATOM      1  N   UNL d   1      -1.548   3.979   0.021  0.00  0.00    -0.300 N 
ATOM      2  HN  UNL d   1      -1.643   4.995   0.031  1.00  0.00     0.186 HD
ATOM      3  C   UNL d   1      -0.358   3.442   0.017  0.00  0.00     0.035 C 
ATOM      4  C   UNL d   1      -0.066   1.953   0.010  0.00  0.00     0.070 C 
ENDROOT
BRANCH   3   5
ATOM      5  C   UNL d   1       0.827   4.390   0.023  0.00  0.00     0.024 A 
ATOM      6  C   UNL d   1       0.640   5.790   0.028  0.00  0.00     0.099 A 
ATOM      7  C   UNL d   1       1.740   6.658   0.032  0.00  0.00     0.069 A 
ATOM      8 CL   UNL d   1       1.536   8.373   0.037  0.00  0.00    -0.081 Cl
ATOM      9  C   UNL d   1       3.035   6.150   0.032  0.00  0.00     0.050 A 
ATOM     10  C   UNL d   1       3.225   4.772   0.027  0.00  0.00     0.036 A 
ATOM     11  C   UNL d   1       2.138   3.894   0.023  0.00  0.00     0.040 A 
ATOM     12 CL   UNL d   1       4.825   4.137   0.027  0.00  0.00    -0.084 Cl
BRANCH   6  13
ATOM     13  O   UNL d   1      -0.613   6.350   0.031  0.00  0.00    -0.358 OA
ATOM     14  H   UNL d   1      -1.248   5.605   0.057  0.00  0.00     0.217 HD
ENDBRANCH   6  13
ENDBRANCH   3   5
BRANCH   1  15
ATOM     15  N   UNL d   1      -2.662   3.200   0.013  0.00  0.00    -0.252 N 
ATOM     16  C   UNL d   1      -3.932   3.710   0.022  0.00  0.00     0.332 C 
ATOM     17  O   UNL d   1      -4.930   2.993  -0.016  0.00  0.00    -0.246 OA
ATOM     18  N   UNL d   1      -4.025   5.059   0.100  0.00  0.00    -0.351 N 
ATOM     19  H   UNL d   1      -3.205   5.620  -0.057  0.00  0.00     0.160 HD
ATOM     20  H   UNL d   1      -4.936   5.484   0.012  0.00  0.00     0.160 HD
ATOM     21  H   UNL d   1      -2.617   2.189  -0.026  0.00  0.00     0.191 HD
ENDBRANCH   1  15
TORSDOF 3
