REMARK  8 active torsions:
REMARK  status: ('A' for Active; 'I' for Inactive)
REMARK    1  A    between atoms: C_3  and  N_1 
REMARK    2  A    between atoms: C_12  and  N_2 
REMARK    3  A    between atoms: C_13  and  C_3 
REMARK    4  A    between atoms: C_14  and  C_3 
REMARK    5  A    between atoms: C_7  and  C_12 
REMARK    6  A    between atoms: O_11  and  C_7 
REMARK    7  A    between atoms: O_21  and  C_7 
REMARK    8  A    between atoms: C_8  and  O_11 
ROOT
ATOM      1  N   UNL d   1      -1.896   0.389   0.041  0.00  0.00     0.105 N 
ATOM      2  N   UNL d   1       1.051  -0.038  -0.606  0.00  0.00     0.096 N 
ATOM      3  C   UNL d   1      -1.402  -0.803  -0.682  0.00  0.00     0.304 C 
ATOM      4  C   UNL d   1      -1.004   1.501  -0.376  0.00  0.00     0.304 C 
ATOM      5  C   UNL d   1       0.086  -1.145  -0.431  0.00  0.00     0.302 C 
ATOM      6  C   UNL d   1       0.506   1.246  -0.125  0.00  0.00     0.302 C 
ENDROOT
BRANCH   1   7
ATOM      7  C   UNL d   1      -1.896   0.226   1.533  0.00  0.00     0.289 C 
BRANCH   7   8
ATOM      8  C   UNL d   1      -2.405   1.491   2.243  0.00  0.00    -0.021 A 
ATOM      9  C   UNL d   1      -3.694   1.993   2.002  0.00  0.00     0.010 A 
ATOM     10  C   UNL d   1      -4.142   3.149   2.643  0.00  0.00     0.001 A 
ATOM     11  C   UNL d   1      -3.303   3.824   3.527  0.00  0.00     0.000 A 
ATOM     12  C   UNL d   1      -2.021   3.343   3.776  0.00  0.00     0.001 A 
ATOM     13  C   UNL d   1      -1.572   2.181   3.142  0.00  0.00     0.010 A 
ENDBRANCH   7   8
BRANCH   7  14
ATOM     14  C   UNL d   1      -2.647  -1.001   2.073  0.00  0.00    -0.021 A 
ATOM     15  C   UNL d   1      -2.141  -1.668   3.207  0.00  0.00     0.010 A 
ATOM     16  C   UNL d   1      -2.822  -2.746   3.773  0.00  0.00     0.001 A 
ATOM     17  C   UNL d   1      -4.026  -3.178   3.220  0.00  0.00     0.000 A 
ATOM     18  C   UNL d   1      -4.545  -2.527   2.098  0.00  0.00     0.001 A 
ATOM     19  C   UNL d   1      -3.866  -1.445   1.535  0.00  0.00     0.010 A 
ENDBRANCH   7  14
ENDBRANCH   1   7
BRANCH   2  20
ATOM     20  C   UNL d   1       1.648  -0.006  -1.959  0.00  0.00     0.333 C 
BRANCH  20  21
ATOM     21  C   UNL d   1       2.929   0.883  -2.114  0.00  0.00     0.291 C 
BRANCH  21  22
ATOM     22  O   UNL d   1       3.602   0.534  -3.333  0.00  0.00    -0.319 OA
BRANCH  22  23
ATOM     23  C   UNL d   1       4.857   1.048  -3.539  0.00  0.00     0.073 A 
ATOM     24  C   UNL d   1       5.550   1.905  -2.681  0.00  0.00     0.062 A 
ATOM     25  C   UNL d   1       6.849   2.331  -2.996  0.00  0.00     0.058 A 
ATOM     26 CL   UNL d   1       7.648   3.372  -1.869  0.00  0.00    -0.082 Cl
ATOM     27  C   UNL d   1       7.458   1.909  -4.181  0.00  0.00     0.056 A 
ATOM     28  C   UNL d   1       6.756   1.079  -5.057  0.00  0.00     0.028 A 
ATOM     29 CL   UNL d   1       9.067   2.364  -4.614  0.00  0.00    -0.083 Cl
ATOM     30  C   UNL d   1       5.463   0.653  -4.736  0.00  0.00     0.038 A 
ENDBRANCH  22  23
ENDBRANCH  21  22
BRANCH  21  31
ATOM     31  O   UNL d   1       2.602   2.269  -2.146  0.00  0.00    -0.369 OA
ATOM     32  H   UNL d   1       1.868   2.353  -2.774  0.00  0.00     0.212 HD
ENDBRANCH  21  31
ENDBRANCH  20  21
ENDBRANCH   2  20
TORSDOF 8
