REMARK  10 active torsions:
REMARK  status: ('A' for Active; 'I' for Inactive)
REMARK    1  A    between atoms: C_14  and  S_1 
REMARK    2  A    between atoms: C_15  and  S_1 
REMARK    3  A    between atoms: N_4  and  C_2 
REMARK    4  A    between atoms: N_5  and  C_3 
REMARK    5  A    between atoms: C_6  and  C_13 
REMARK    6  A    between atoms: C_7  and  C_12 
REMARK    7  A    between atoms: C_10  and  O_21 
REMARK    8  A    between atoms: C_11  and  O_20 
REMARK    9  A    between atoms: O_20  and  C_39 
REMARK   10  A    between atoms: O_21  and  C_38 
ROOT
ATOM      1  S   UNL d   1       0.995   0.137  -0.199  0.00  0.00     0.206 S 
ATOM      2  O   UNL d   1       0.246   0.408  -1.415  0.00  0.00    -0.217 OA
ATOM      3  O   UNL d   1       2.442   0.048  -0.236  0.00  0.00    -0.217 OA
ENDROOT
BRANCH   1   4
ATOM      4  C   UNL d   1       0.391  -1.427   0.406  0.00  0.00     0.064 A 
ATOM      5  C   UNL d   1      -0.922  -1.822   0.124  0.00  0.00     0.026 A 
ATOM      6  C   UNL d   1      -1.337  -3.119   0.444  0.00  0.00     0.039 A 
ATOM      7  C   UNL d   1      -0.448  -4.020   1.037  0.00  0.00     0.076 A 
ATOM      8  C   UNL d   1       0.874  -3.630   1.282  0.00  0.00     0.039 A 
ATOM      9  C   UNL d   1       1.290  -2.331   0.980  0.00  0.00     0.026 A 
BRANCH   7  10
ATOM     10  O   UNL d   1      -0.938  -5.288   1.282  0.00  0.00    -0.308 OA
BRANCH  10  11
ATOM     11  C   UNL d   1      -0.421  -6.003   2.339  0.00  0.00     0.109 A 
ATOM     12  C   UNL d   1      -0.057  -7.352   2.205  0.00  0.00     0.137 A 
ATOM     13  C   UNL d   1       0.491  -8.045   3.306  0.00  0.00     0.055 A 
ATOM     14  C   UNL d   1       0.655  -7.407   4.547  0.00  0.00     0.050 A 
ATOM     15  C   UNL d   1       0.236  -6.077   4.682  0.00  0.00     0.019 A 
ATOM     16  C   UNL d   1      -0.315  -5.392   3.598  0.00  0.00     0.040 A 
BRANCH  12  17
ATOM     17  N   UNL d   1      -0.225  -8.088   0.940  0.00  0.00    -0.113 N 
ATOM     18  O   UNL d   1       0.141  -9.274   0.924  0.00  0.00    -0.532 OA
ATOM     19  O   UNL d   1      -0.721  -7.510  -0.034  0.00  0.00    -0.532 OA
ENDBRANCH  12  17
BRANCH  14  20
ATOM     20  C   UNL d   1       1.284  -8.116   5.725  0.00  0.00     0.417 C 
ATOM     21  F   UNL d   1       1.484  -9.444   5.514  0.00  0.00    -0.166 F 
ATOM     22  F   UNL d   1       2.500  -7.596   6.043  0.00  0.00    -0.166 F 
ATOM     23  F   UNL d   1       0.527  -8.022   6.851  0.00  0.00    -0.166 F 
ENDBRANCH  14  20
ENDBRANCH  10  11
ENDBRANCH   7  10
ENDBRANCH   1   4
BRANCH   1  24
ATOM     24  C   UNL d   1       0.625   1.469   0.916  0.00  0.00     0.064 A 
ATOM     25  C   UNL d   1       0.329   1.267   2.265  0.00  0.00     0.026 A 
ATOM     26  C   UNL d   1       0.030   2.377   3.070  0.00  0.00     0.039 A 
ATOM     27  C   UNL d   1       0.018   3.669   2.530  0.00  0.00     0.076 A 
ATOM     28  C   UNL d   1       0.374   3.864   1.193  0.00  0.00     0.039 A 
ATOM     29  C   UNL d   1       0.655   2.765   0.383  0.00  0.00     0.026 A 
BRANCH  27  30
ATOM     30  O   UNL d   1      -0.320   4.699   3.386  0.00  0.00    -0.308 OA
BRANCH  30  31
ATOM     31  C   UNL d   1      -1.005   5.785   2.883  0.00  0.00     0.109 A 
ATOM     32  C   UNL d   1      -0.687   7.095   3.277  0.00  0.00     0.137 A 
ATOM     33  C   UNL d   1      -1.407   8.189   2.746  0.00  0.00     0.055 A 
ATOM     34  C   UNL d   1      -2.459   7.986   1.838  0.00  0.00     0.050 A 
ATOM     35  C   UNL d   1      -2.797   6.673   1.485  0.00  0.00     0.019 A 
ATOM     36  C   UNL d   1      -2.095   5.589   2.018  0.00  0.00     0.040 A 
BRANCH  32  37
ATOM     37  N   UNL d   1       0.386   7.384   4.245  0.00  0.00    -0.113 N 
ATOM     38  O   UNL d   1       0.494   8.557   4.634  0.00  0.00    -0.532 OA
ATOM     39  O   UNL d   1       1.123   6.462   4.619  0.00  0.00    -0.532 OA
ENDBRANCH  32  37
BRANCH  34  40
ATOM     40  C   UNL d   1      -3.224   9.145   1.239  0.00  0.00     0.417 C 
ATOM     41  F   UNL d   1      -2.890  10.350   1.776  0.00  0.00    -0.166 F 
ATOM     42  F   UNL d   1      -3.017   9.258  -0.101  0.00  0.00    -0.166 F 
ATOM     43  F   UNL d   1      -4.568   9.019   1.404  0.00  0.00    -0.166 F 
ENDBRANCH  34  40
ENDBRANCH  30  31
ENDBRANCH  27  30
ENDBRANCH   1  24
TORSDOF 10
