REMARK  2 active torsions:
REMARK  status: ('A' for Active; 'I' for Inactive)
REMARK    1  A    between atoms: C_2  and  C_1 
REMARK    2  A    between atoms: N_16  and  C_14 
ROOT
ATOM      1  C   UNL d   1       1.217   1.470   0.051  0.00  0.00     0.066 A 
ATOM      2  C   UNL d   1      -0.047  -0.648   0.060  0.00  0.00     0.092 A 
ATOM      3  C   UNL d   1      -0.068   0.751   0.029  0.00  0.00     0.013 A 
ATOM      4  O   UNL d   1       1.163  -1.373   0.085  0.00  0.00    -0.275 OA
ATOM      5  C   UNL d   1       2.382  -0.727   0.048  0.00  0.00     0.289 A 
ATOM      6  C   UNL d   1       2.346   0.739   0.051  0.00  0.00     0.099 A 
ATOM      7  C   UNL d   1      -1.210  -1.426   0.039  0.00  0.00     0.061 A 
ATOM      8  C   UNL d   1      -1.329   1.351  -0.052  0.00  0.00     0.017 A 
ATOM      9  O   UNL d   1       3.448  -1.327   0.027  0.00  0.00    -0.260 OA
ATOM     10  C   UNL d   1      -2.458  -0.812   0.013  0.00  0.00     0.008 A 
ATOM     11  C   UNL d   1      -2.502   0.579  -0.081  0.00  0.00     0.024 A 
ENDROOT
BRANCH   1  12
ATOM     12  C   UNL d   1       1.349   2.965   0.074  0.00  0.00     0.418 C 
ATOM     13  F   UNL d   1       0.189   3.659   0.147  0.00  0.00    -0.166 F 
ATOM     14  F   UNL d   1       2.096   3.368   1.137  0.00  0.00    -0.166 F 
ATOM     15  F   UNL d   1       1.995   3.412  -1.036  0.00  0.00    -0.166 F 
ENDBRANCH   1  12
BRANCH  10  16
ATOM     16  N   UNL d   1      -3.620  -1.566  -0.164  0.00  0.00    -0.303 NA
ATOM     17  H   UNL d   1      -4.475  -1.090   0.106  0.00  0.00     0.124 HD
ATOM     18  H   UNL d   1      -3.569  -2.508   0.214  0.00  0.00     0.124 HD
ENDBRANCH  10  16
TORSDOF 2
