REMARK  8 active torsions:
REMARK  status: ('A' for Active; 'I' for Inactive)
REMARK    1  A    between atoms: C_2  and  S_1 
REMARK    2  A    between atoms: C_7  and  S_1 
REMARK    3  A    between atoms: O_8  and  N_3 
REMARK    4  A    between atoms: C_5  and  C_9 
REMARK    5  A    between atoms: N_20  and  C_5 
REMARK    6  A    between atoms: C_6  and  O_8 
REMARK    7  A    between atoms: C_14  and  C_6 
REMARK    8  A    between atoms: C_16  and  C_7 
ROOT
ATOM      1  C   UNL d   1       2.966  -2.422  -5.611  0.00  0.00     0.004 A 
ATOM      2  C   UNL d   1       2.552  -3.109  -4.459  0.00  0.00     0.022 A 
ATOM      3  C   UNL d   1       2.842  -4.475  -4.293  0.00  0.00    -0.043 A 
ATOM      4  C   UNL d   1       3.652  -3.115  -6.616  0.00  0.00     0.015 A 
ATOM      5  C   UNL d   1       3.939  -4.472  -6.462  0.00  0.00     0.002 A 
ATOM      6  C   UNL d   1       3.545  -5.146  -5.306  0.00  0.00     0.008 A 
ENDROOT
BRANCH   1   7
ATOM      7  C   UNL d   1       2.681  -0.953  -5.766  0.00  0.00     0.109 C 
ATOM      8  N   UNL d   1       1.663  -0.456  -5.128  0.00  0.00    -0.246 N 
ATOM      9  HN  UNL d   1       1.041  -1.005  -4.534  1.00  0.00     0.196 HD
BRANCH   8  10
ATOM     10  O   UNL d   1       1.514   0.935  -5.350  0.00  0.00    -0.193 OA
BRANCH  10  11
ATOM     11  C   UNL d   1       0.363   1.372  -4.748  0.00  0.00     0.315 C 
ATOM     12  O   UNL d   1      -0.468   0.695  -4.157  0.00  0.00    -0.257 OA
BRANCH  11  13
ATOM     13  C   UNL d   1       0.219   2.856  -4.863  0.00  0.00     0.041 A 
ATOM     14  C   UNL d   1      -0.926   3.447  -4.299  0.00  0.00     0.019 A 
ATOM     15  C   UNL d   1      -1.115   4.833  -4.343  0.00  0.00     0.025 A 
ATOM     16  C   UNL d   1      -0.160   5.640  -4.953  0.00  0.00     0.034 A 
ATOM     17  C   UNL d   1       0.980   5.072  -5.521  0.00  0.00     0.025 A 
ATOM     18 CL   UNL d   1      -0.380   7.346  -4.998  0.00  0.00    -0.084 Cl
ATOM     19  C   UNL d   1       1.170   3.682  -5.480  0.00  0.00     0.019 A 
ENDBRANCH  11  13
ENDBRANCH  10  11
ENDBRANCH   8  10
BRANCH   7  20
ATOM     20  N   UNL d   1       3.523  -0.205  -6.557  0.00  0.00    -0.286 NA
ATOM     21  H   UNL d   1       3.423   0.791  -6.395  0.00  0.00     0.125 HD
ATOM     22  H   UNL d   1       4.491  -0.501  -6.563  0.00  0.00     0.125 HD
ENDBRANCH   7  20
ENDBRANCH   1   7
BRANCH   3  23
ATOM     23  C   UNL d   1       2.372  -5.223  -3.068  0.00  0.00     0.185 C 
BRANCH  23  24
ATOM     24  S   UNL d   1       3.632  -5.323  -1.813  0.00  0.00     0.195 S 
ATOM     25  O   UNL d   1       3.066  -5.995  -0.654  0.00  0.00    -0.221 OA
ATOM     26  O   UNL d   1       4.844  -5.861  -2.417  0.00  0.00    -0.221 OA
BRANCH  24  27
ATOM     27  C   UNL d   1       3.971  -3.640  -1.333  0.00  0.00     0.128 A 
ATOM     28  N   UNL d   1       2.877  -2.947  -0.921  0.00  0.00    -0.357 N 
ATOM     29  C   UNL d   1       3.113  -1.698  -0.463  0.00  0.00     0.089 A 
ATOM     30  HN  UNL d   1       1.938  -3.344  -0.956  1.00  0.00     0.166 HD
ATOM     31  C   UNL d   1       4.373  -1.118  -0.417  0.00  0.00     0.017 A 
ATOM     32  C   UNL d   1       5.465  -1.854  -0.874  0.00  0.00     0.004 A 
ATOM     33  C   UNL d   1       5.267  -3.148  -1.344  0.00  0.00     0.042 A 
ENDBRANCH  24  27
ENDBRANCH  23  24
ENDBRANCH   3  23
TORSDOF 8
