REMARK  3 active torsions:
REMARK  status: ('A' for Active; 'I' for Inactive)
REMARK    1  A    between atoms: C_3  and  C_1 
REMARK    2  A    between atoms: N_5  and  C_2 
REMARK       I    between atoms: C_4  and  N_7 
REMARK    3  A    between atoms: C_6  and  C_4 
ROOT
ATOM      1  C   UNL d   1      -3.717   5.868   0.931  0.00  0.00     0.254 C 
ATOM      2  N   UNL d   1      -1.263   2.435   0.344  0.00  0.00    -0.266 NA
ATOM      3  N   UNL d   1      -2.988   4.691   0.731  0.00  0.00    -0.346 N 
ATOM      4  C   UNL d   1      -1.391   3.409  -0.758  0.00  0.00     0.117 C 
ATOM      5  C   UNL d   1      -2.570   2.216   0.985  0.00  0.00     0.117 C 
ATOM      6  C   UNL d   1      -3.025   3.528   1.635  0.00  0.00     0.141 C 
ATOM      7  C   UNL d   1      -1.814   4.771  -0.161  0.00  0.00     0.141 C 
ATOM      8  O   UNL d   1      -3.531   6.894   0.286  0.00  0.00    -0.267 OA
ENDROOT
BRANCH   2   9
ATOM      9  C   UNL d   1      -0.633   1.232   0.028  0.00  0.00     0.097 A 
ATOM     10  C   UNL d   1       0.056   0.516   1.010  0.00  0.00     0.086 A 
ATOM     11  C   UNL d   1       0.611  -0.728   0.662  0.00  0.00     0.021 A 
ATOM     12  C   UNL d   1       0.491  -1.210  -0.633  0.00  0.00     0.018 A 
ATOM     13  C   UNL d   1      -0.179  -0.423  -1.545  0.00  0.00     0.089 A 
ATOM     14  N   UNL d   1      -0.734   0.772  -1.242  0.00  0.00    -0.356 N 
ATOM     15  HN  UNL d   1      -1.218   1.317  -1.956  1.00  0.00     0.166 HD
BRANCH  10  16
ATOM     16  C   UNL d   1       0.228   0.999   2.421  0.00  0.00     0.420 C 
ATOM     17  F   UNL d   1      -0.149   2.277   2.698  0.00  0.00    -0.166 F 
ATOM     18  F   UNL d   1      -0.475   0.223   3.302  0.00  0.00    -0.166 F 
ATOM     19  F   UNL d   1       1.528   0.916   2.837  0.00  0.00    -0.166 F 
ENDBRANCH  10  16
ENDBRANCH   2   9
BRANCH   1  20
ATOM     20  C   UNL d   1      -4.839   5.878   1.903  0.00  0.00     0.035 A 
ATOM     21  C   UNL d   1      -4.676   5.515   3.243  0.00  0.00     0.041 A 
ATOM     22  C   UNL d   1      -5.795   5.427   4.069  0.00  0.00     0.036 A 
ATOM     23 CL   UNL d   1      -5.615   4.849   5.679  0.00  0.00    -0.084 Cl
ATOM     24  C   UNL d   1      -7.059   5.769   3.595  0.00  0.00     0.047 A 
ATOM     25  C   UNL d   1      -7.197   6.216   2.283  0.00  0.00     0.036 A 
ATOM     26  C   UNL d   1      -6.096   6.272   1.432  0.00  0.00     0.041 A 
ATOM     27 CL   UNL d   1      -8.749   6.680   1.701  0.00  0.00    -0.084 Cl
ENDBRANCH   1  20
TORSDOF 3
