REMARK  2 active torsions:
REMARK  status: ('A' for Active; 'I' for Inactive)
REMARK    1  A    between atoms: C_3  and  C_1 
REMARK       I    between atoms: N_6  and  C_3 
REMARK    2  A    between atoms: C_9  and  N_6 
ROOT
ATOM      1  C   UNL d   1      -2.718  -2.427  -0.251  0.00  0.00     0.262 C 
ATOM      2  N   UNL d   1      -4.037  -2.094  -0.011  0.00  0.00    -0.323 N 
ATOM      3  O   UNL d   1      -2.326  -3.556  -0.545  0.00  0.00    -0.267 OA
ATOM      4  H   UNL d   1      -4.249  -1.102   0.121  0.00  0.00     0.169 HD
ENDROOT
BRANCH   1   5
ATOM      5  C   UNL d   1      -1.726  -1.306  -0.164  0.00  0.00     0.108 A 
ATOM      6  C   UNL d   1      -2.098   0.101   0.090  0.00  0.00     0.304 A 
ATOM      7  O   UNL d   1      -1.070   1.041   0.132  0.00  0.00    -0.274 OA
ATOM      8  O   UNL d   1      -3.271   0.433   0.250  0.00  0.00    -0.259 OA
ATOM      9  C   UNL d   1       0.279   0.661   0.004  0.00  0.00     0.089 A 
ATOM     10  C   UNL d   1       0.620  -0.668  -0.219  0.00  0.00    -0.001 A 
ATOM     11  C   UNL d   1       1.253   1.648   0.128  0.00  0.00     0.038 A 
ATOM     12  C   UNL d   1      -0.439  -1.653  -0.326  0.00  0.00     0.037 A 
ATOM     13  C   UNL d   1       1.967  -1.022  -0.312  0.00  0.00     0.014 A 
ATOM     14  C   UNL d   1       2.954  -0.045  -0.175  0.00  0.00     0.001 A 
ATOM     15  C   UNL d   1       2.598   1.288   0.042  0.00  0.00     0.003 A 
ENDBRANCH   1   5
BRANCH   2  16
ATOM     16  C   UNL d   1      -5.139  -2.979  -0.033  0.00  0.00     0.038 A 
ATOM     17  C   UNL d   1      -5.012  -4.372  -0.064  0.00  0.00     0.053 A 
ATOM     18  C   UNL d   1      -6.144  -5.185  -0.139  0.00  0.00     0.037 A 
ATOM     19 CL   UNL d   1      -5.962  -6.896  -0.189  0.00  0.00    -0.084 Cl
ATOM     20  C   UNL d   1      -7.416  -4.628  -0.178  0.00  0.00     0.048 A 
ATOM     21  C   UNL d   1      -7.547  -3.244  -0.117  0.00  0.00     0.037 A 
ATOM     22  C   UNL d   1      -6.421  -2.419  -0.031  0.00  0.00     0.053 A 
ATOM     23 CL   UNL d   1      -9.117  -2.540  -0.167  0.00  0.00    -0.084 Cl
ENDBRANCH   2  16
TORSDOF 2
