REMARK  2 active torsions:
REMARK  status: ('A' for Active; 'I' for Inactive)
REMARK    1  A    between atoms: C_5  and  C_1 
REMARK    2  A    between atoms: N_6  and  N_2 
REMARK       I    between atoms: C_4  and  N_6 
REMARK       I    between atoms: N_10  and  C_4 
ROOT
ATOM      1  N   UNL d   1      -1.172   3.155   0.015  0.00  0.00    -0.300 N 
ATOM      2  HN  UNL d   1      -1.122   4.174   0.025  1.00  0.00     0.186 HD
ATOM      3  C   UNL d   1      -0.071   2.460   0.014  0.00  0.00     0.038 C 
ATOM      4  C   UNL d   1      -0.015   0.943   0.003  0.00  0.00     0.071 C 
ENDROOT
BRANCH   3   5
ATOM      5  C   UNL d   1       1.238   3.210   0.025  0.00  0.00     0.065 A 
ATOM      6  C   UNL d   1       1.259   4.613   0.037  0.00  0.00     0.131 A 
ATOM      7  F   UNL d   1       0.130   5.338   0.042  0.00  0.00    -0.205 F 
ATOM      8  C   UNL d   1       2.462   5.328   0.044  0.00  0.00     0.043 A 
ATOM      9  C   UNL d   1       3.678   4.654   0.040  0.00  0.00     0.006 A 
ATOM     10  C   UNL d   1       3.683   3.264   0.029  0.00  0.00     0.043 A 
ATOM     11  C   UNL d   1       2.477   2.556   0.022  0.00  0.00     0.131 A 
ATOM     12  F   UNL d   1       2.570   1.220   0.012  0.00  0.00    -0.205 F 
ENDBRANCH   3   5
BRANCH   1  13
ATOM     13  N   UNL d   1      -2.390   2.545   0.005  0.00  0.00    -0.252 N 
ATOM     14  C   UNL d   1      -3.559   3.266   0.008  0.00  0.00     0.332 C 
ATOM     15  O   UNL d   1      -4.666   2.742  -0.011  0.00  0.00    -0.246 OA
ATOM     16  N   UNL d   1      -3.385   4.609   0.035  0.00  0.00    -0.351 N 
ATOM     17  H   UNL d   1      -2.432   4.947   0.021  0.00  0.00     0.160 HD
ATOM     18  H   UNL d   1      -4.178   5.229   0.019  0.00  0.00     0.160 HD
ATOM     19  H   UNL d   1      -2.501   1.542  -0.013  0.00  0.00     0.191 HD
ENDBRANCH   1  13
TORSDOF 2
