REMARK  4 active torsions:
REMARK  status: ('A' for Active; 'I' for Inactive)
REMARK    1  A    between atoms: C_6  and  C_1 
REMARK    2  A    between atoms: C_5  and  C_2 
REMARK       I    between atoms: N_14  and  C_5 
REMARK    3  A    between atoms: N_16  and  C_7 
REMARK    4  A    between atoms: C_21  and  N_14 
REMARK       I    between atoms: C_17  and  N_16 
ROOT
ATOM      1  C   UNL d   1       0.150  -2.433   0.159  0.00  0.00     0.261 C 
ATOM      2  N   UNL d   1      -0.134  -3.675  -0.367  0.00  0.00    -0.323 N 
ATOM      3  O   UNL d   1      -0.652  -1.505   0.126  0.00  0.00    -0.267 OA
ATOM      4  H   UNL d   1       0.628  -4.175  -0.797  0.00  0.00     0.169 HD
ENDROOT
BRANCH   2   5
ATOM      5  C   UNL d   1      -1.376  -4.340  -0.301  0.00  0.00     0.035 A 
ATOM      6  C   UNL d   1      -1.471  -5.583  -0.941  0.00  0.00     0.043 A 
ATOM      7  C   UNL d   1      -2.608  -6.383  -0.778  0.00  0.00     0.002 A 
ATOM      8  C   UNL d   1      -2.718  -7.678  -1.419  0.00  0.00     0.050 C 
ATOM      9  C   UNL d   1      -3.642  -5.930   0.029  0.00  0.00     0.090 A 
ATOM     10  C   UNL d   1      -3.760  -8.483  -1.162  0.00  0.00     0.112 C 
ATOM     11  C   UNL d   1      -4.822  -8.042  -0.200  0.00  0.00     0.315 C 
ATOM     12  O   UNL d   1      -4.755  -6.745   0.292  0.00  0.00    -0.273 OA
ATOM     13  O   UNL d   1      -5.731  -8.812   0.107  0.00  0.00    -0.257 OA
ATOM     14  C   UNL d   1      -3.590  -4.679   0.636  0.00  0.00     0.040 A 
ATOM     15  C   UNL d   1      -2.455  -3.881   0.466  0.00  0.00     0.032 A 
BRANCH  10  16
ATOM     16  N   UNL d   1      -3.952  -9.742  -1.712  0.00  0.00    -0.322 N 
ATOM     17  C   UNL d   1      -3.179 -10.394  -2.651  0.00  0.00     0.218 C 
ATOM     18  O   UNL d   1      -2.160  -9.954  -3.174  0.00  0.00    -0.274 OA
ATOM     19  C   UNL d   1      -3.705 -11.757  -3.025  0.00  0.00     0.117 C 
ATOM     20  H   UNL d   1      -4.789 -10.213  -1.369  0.00  0.00     0.169 HD
ENDBRANCH  10  16
ENDBRANCH   2   5
BRANCH   1  21
ATOM     21  C   UNL d   1       1.472  -2.294   0.759  0.00  0.00     0.093 A 
ATOM     22  C   UNL d   1       2.103  -1.080   1.208  0.00  0.00     0.086 A 
ATOM     23  N   UNL d   1       3.262  -1.347   1.828  0.00  0.00    -0.259 N 
ATOM     24  O   UNL d   1       3.439  -2.701   1.753  0.00  0.00    -0.241 OA
ATOM     25  HN  UNL d   1       3.888  -0.673   2.269  1.00  0.00     0.195 HD
ATOM     26  C   UNL d   1       2.388  -3.276   1.113  0.00  0.00     0.090 A 
ATOM     27  C   UNL d   1       2.508  -4.749   1.028  0.00  0.00     0.080 C 
BRANCH  22  28
ATOM     28  C   UNL d   1       1.693   0.313   1.046  0.00  0.00     0.037 A 
ATOM     29  C   UNL d   1       0.579   0.846   1.718  0.00  0.00     0.048 A 
ATOM     30 CL   UNL d   1      -0.345  -0.064   2.869  0.00  0.00    -0.083 Cl
ATOM     31  C   UNL d   1       0.199   2.182   1.521  0.00  0.00     0.025 A 
ATOM     32  C   UNL d   1       0.954   3.019   0.703  0.00  0.00     0.003 A 
ATOM     33  C   UNL d   1       2.089   2.522   0.071  0.00  0.00     0.025 A 
ATOM     34  C   UNL d   1       2.450   1.178   0.228  0.00  0.00     0.048 A 
ATOM     35 CL   UNL d   1       3.856   0.654  -0.644  0.00  0.00    -0.083 Cl
ENDBRANCH  22  28
ENDBRANCH   1  21
TORSDOF 4
