REMARK  9 active torsions:
REMARK  status: ('A' for Active; 'I' for Inactive)
REMARK    1  A    between atoms: C_4  and  C_1 
REMARK    2  A    between atoms: C_2  and  C_3 
REMARK    3  A    between atoms: C_9  and  S_13 
REMARK    4  A    between atoms: O_22  and  C_10 
REMARK    5  A    between atoms: S_13  and  C_26 
REMARK    6  A    between atoms: C_27  and  O_22 
REMARK    7  A    between atoms: C_23  and  C_27 
REMARK    8  A    between atoms: C_26  and  C_23 
REMARK    9  A    between atoms: O_28  and  C_23 
ROOT
ATOM      1  C   UNL d   1      -0.658  -3.772   6.857  0.00  0.00     0.152 C 
ENDROOT
BRANCH   1   2
ATOM      2  C   UNL d   1      -0.247  -3.501   5.400  0.00  0.00     0.209 C 
BRANCH   2   3
ATOM      3  O   UNL d   1       1.111  -3.927   5.223  0.00  0.00    -0.333 OA
BRANCH   3   4
ATOM      4  C   UNL d   1       1.597  -3.704   3.954  0.00  0.00     0.141 A 
ATOM      5  C   UNL d   1       2.904  -4.099   3.713  0.00  0.00     0.057 A 
ATOM      6  C   UNL d   1       3.446  -3.864   2.452  0.00  0.00     0.022 A 
ATOM      7  C   UNL d   1       2.668  -3.241   1.470  0.00  0.00     0.063 A 
ATOM      8  C   UNL d   1       1.365  -2.898   1.808  0.00  0.00     0.106 A 
ATOM      9  N   UNL d   1       0.813  -3.115   3.025  0.00  0.00    -0.346 N 
ATOM     10  HN  UNL d   1      -0.149  -2.846   3.231  1.00  0.00     0.167 HD
BRANCH   7  11
ATOM     11  C   UNL d   1       3.209  -2.944   0.106  0.00  0.00     0.418 C 
ATOM     12  F   UNL d   1       2.323  -2.300  -0.704  0.00  0.00    -0.166 F 
ATOM     13  F   UNL d   1       3.579  -4.069  -0.566  0.00  0.00    -0.166 F 
ATOM     14  F   UNL d   1       4.317  -2.153   0.147  0.00  0.00    -0.166 F 
ENDBRANCH   7  11
ENDBRANCH   3   4
ENDBRANCH   2   3
ENDBRANCH   1   2
BRANCH   1  15
ATOM     15  C   UNL d   1      -2.077  -3.247   7.137  0.00  0.00     0.114 C 
BRANCH  15  16
ATOM     16  S   UNL d   1      -2.443  -3.362   8.928  0.00  0.00    -0.110 SA
BRANCH  16  17
ATOM     17  C   UNL d   1      -4.181  -2.973   8.970  0.00  0.00     0.069 A 
ATOM     18  N   UNL d   1      -4.782  -2.479   7.866  0.00  0.00    -0.360 N 
ATOM     19  C   UNL d   1      -6.105  -2.184   7.956  0.00  0.00     0.105 A 
ATOM     20  HN  UNL d   1      -4.264  -2.333   6.999  1.00  0.00     0.166 HD
ATOM     21  C   UNL d   1      -6.869  -2.362   9.100  0.00  0.00     0.063 A 
ATOM     22  C   UNL d   1      -6.223  -2.872  10.228  0.00  0.00     0.020 A 
ATOM     23  C   UNL d   1      -4.866  -3.179  10.163  0.00  0.00     0.038 A 
BRANCH  21  24
ATOM     24  C   UNL d   1      -8.327  -2.018   9.126  0.00  0.00     0.418 C 
ATOM     25  F   UNL d   1      -8.795  -1.528   7.945  0.00  0.00    -0.166 F 
ATOM     26  F   UNL d   1      -9.108  -3.094   9.419  0.00  0.00    -0.166 F 
ATOM     27  F   UNL d   1      -8.625  -1.077  10.064  0.00  0.00    -0.166 F 
ENDBRANCH  21  24
ENDBRANCH  16  17
ENDBRANCH  15  16
ENDBRANCH   1  15
BRANCH   1  28
ATOM     28  O   UNL d   1      -0.588  -5.184   7.121  0.00  0.00    -0.393 OA
ATOM     29  H   UNL d   1      -1.162  -5.640   6.484  0.00  0.00     0.210 HD
ENDBRANCH   1  28
TORSDOF 9
