REMARK  4 active torsions:
REMARK  status: ('A' for Active; 'I' for Inactive)
REMARK    1  A    between atoms: C_13  and  N_5 
REMARK    2  A    between atoms: N_8  and  C_16 
REMARK    3  A    between atoms: C_14  and  C_13 
REMARK    4  A    between atoms: C_16  and  C_14 
ROOT
ATOM      1  C   UNL d   1       2.881   3.532  -0.957  0.00  0.00     0.262 C 
ATOM      2  N   UNL d   1       3.612   2.788  -3.578  0.00  0.00    -0.338 N 
ATOM      3  HN  UNL d   1       3.823   2.482  -4.528  1.00  0.00     0.168 HD
ATOM      4  C   UNL d   1       2.767   4.493  -2.057  0.00  0.00     0.076 A 
ATOM      5  N   UNL d   1       3.494   2.321  -1.262  0.00  0.00    -0.310 N 
ATOM      6  C   UNL d   1       3.172   4.085  -3.315  0.00  0.00     0.121 A 
ATOM      7  C   UNL d   1       3.743   1.994  -2.574  0.00  0.00     0.187 C 
ATOM      8  N   UNL d   1       3.154   4.906  -4.387  0.00  0.00    -0.351 N 
ATOM      9  HN  UNL d   1       3.463   4.589  -5.306  1.00  0.00     0.166 HD
ATOM     10  O   UNL d   1       2.440   3.826   0.151  0.00  0.00    -0.267 OA
ATOM     11  C   UNL d   1       2.288   5.789  -1.875  0.00  0.00     0.022 A 
ATOM     12  C   UNL d   1       2.708   6.167  -4.189  0.00  0.00     0.090 A 
ATOM     13  C   UNL d   1       2.261   6.649  -2.968  0.00  0.00     0.018 A 
ENDROOT
BRANCH   5  14
ATOM     14  C   UNL d   1       3.639   1.339  -0.186  0.00  0.00     0.135 C 
BRANCH  14  15
ATOM     15  C   UNL d   1       4.884   0.447  -0.239  0.00  0.00     0.050 C 
BRANCH  15  16
ATOM     16  C   UNL d   1       6.208   1.228  -0.231  0.00  0.00     0.274 C 
BRANCH  16  17
ATOM     17  N   UNL d   1       7.344   0.337  -0.504  0.00  0.00     0.092 N 
ATOM     18  C   UNL d   1       7.670  -0.594   0.598  0.00  0.00     0.298 C 
ATOM     19  C   UNL d   1       8.467   0.032   1.755  0.00  0.00     0.198 C 
ATOM     20  O   UNL d   1       9.661   0.662   1.283  0.00  0.00    -0.388 OA
ATOM     21  C   UNL d   1       9.344   1.672   0.319  0.00  0.00     0.198 C 
ATOM     22  C   UNL d   1       8.569   1.084  -0.872  0.00  0.00     0.298 C 
ENDBRANCH  16  17
ENDBRANCH  15  16
ENDBRANCH  14  15
ENDBRANCH   5  14
TORSDOF 4
