REMARK  8 active torsions:
REMARK  status: ('A' for Active; 'I' for Inactive)
REMARK       I    between atoms: C_2  and  N_1 
REMARK    1  A    between atoms: C_6  and  C_2 
REMARK    2  A    between atoms: C_4  and  N_3 
REMARK    3  A    between atoms: C_15  and  C_4 
REMARK    4  A    between atoms: C_16  and  C_4 
REMARK    5  A    between atoms: C_5  and  C_6 
REMARK    6  A    between atoms: C_13  and  C_5 
REMARK    7  A    between atoms: C_7  and  C_13 
REMARK    8  A    between atoms: O_17  and  C_7 
ROOT
ATOM      1  N   UNL d   1      -1.323   0.034   0.290  0.00  0.00    -0.349 N 
ATOM      2  C   UNL d   1      -2.495   0.090   1.027  0.00  0.00     0.220 C 
ATOM      3  N   UNL d   1       1.569  -0.312  -0.286  0.00  0.00     0.105 N 
ATOM      4  C   UNL d   1      -0.792  -1.278  -0.094  0.00  0.00     0.156 C 
ATOM      5  C   UNL d   1      -0.511   1.169  -0.173  0.00  0.00     0.156 C 
ATOM      6  C   UNL d   1       0.707  -1.405   0.232  0.00  0.00     0.293 C 
ATOM      7  C   UNL d   1       0.977   0.969   0.203  0.00  0.00     0.293 C 
ATOM      8  O   UNL d   1      -3.062  -0.932   1.414  0.00  0.00    -0.273 OA
ENDROOT
BRANCH   2   9
ATOM      9  C   UNL d   1      -3.115   1.453   1.299  0.00  0.00     0.113 C 
BRANCH   9  10
ATOM     10  C   UNL d   1      -4.008   1.549   2.561  0.00  0.00    -0.023 C 
ATOM     11  C   UNL d   1      -5.285   0.677   2.531  0.00  0.00     0.010 C 
ATOM     12  C   UNL d   1      -6.275   1.385   3.466  0.00  0.00     0.001 C 
ATOM     13  C   UNL d   1      -5.833   2.846   3.533  0.00  0.00     0.001 C 
ATOM     14  C   UNL d   1      -4.660   2.949   2.573  0.00  0.00     0.010 C 
BRANCH  10  15
ATOM     15  C   UNL d   1      -3.235   1.178   3.858  0.00  0.00     0.119 C 
BRANCH  15  16
ATOM     16  C   UNL d   1      -1.942   1.908   4.149  0.00  0.00     0.140 C 
ATOM     17  O   UNL d   1      -1.566   2.931   3.604  0.00  0.00    -0.650 OA
BRANCH  16  18
ATOM     18  O   UNL d   1      -1.233   1.307   5.130  0.00  0.00    -0.776 OA
ATOM     19  H   UNL d   1      -1.647   0.499   5.476  0.00  0.00     0.167 HD
ENDBRANCH  16  18
ENDBRANCH  15  16
ENDBRANCH  10  15
ENDBRANCH   9  10
ENDBRANCH   2   9
BRANCH   3  20
ATOM     20  C   UNL d   1       1.723  -0.303  -1.774  0.00  0.00     0.289 C 
BRANCH  20  21
ATOM     21  C   UNL d   1       2.669   0.815  -2.235  0.00  0.00    -0.021 A 
ATOM     22  C   UNL d   1       4.013   0.848  -1.826  0.00  0.00     0.010 A 
ATOM     23  C   UNL d   1       4.860   1.877  -2.241  0.00  0.00     0.001 A 
ATOM     24  C   UNL d   1       4.375   2.893  -3.060  0.00  0.00     0.000 A 
ATOM     25  C   UNL d   1       3.041   2.885  -3.463  0.00  0.00     0.001 A 
ATOM     26  C   UNL d   1       2.193   1.852  -3.057  0.00  0.00     0.010 A 
ENDBRANCH  20  21
BRANCH  20  27
ATOM     27  C   UNL d   1       2.131  -1.639  -2.413  0.00  0.00    -0.021 A 
ATOM     28  C   UNL d   1       1.621  -1.967  -3.683  0.00  0.00     0.010 A 
ATOM     29  C   UNL d   1       1.935  -3.184  -4.291  0.00  0.00     0.001 A 
ATOM     30  C   UNL d   1       2.769  -4.089  -3.643  0.00  0.00     0.000 A 
ATOM     31  C   UNL d   1       3.315  -3.766  -2.402  0.00  0.00     0.001 A 
ATOM     32  C   UNL d   1       3.013  -2.542  -1.799  0.00  0.00     0.010 A 
ENDBRANCH  20  27
ENDBRANCH   3  20
TORSDOF 8
