REMARK  4 active torsions:
REMARK  status: ('A' for Active; 'I' for Inactive)
REMARK    1  A    between atoms: C_14  and  C_1 
REMARK    2  A    between atoms: C_2  and  C_13 
REMARK    3  A    between atoms: C_15  and  C_9 
REMARK    4  A    between atoms: C_16  and  C_10 
ROOT
ATOM      1  C   UNL d   1       0.100   5.380   0.204  0.00  0.00     0.015 A 
ATOM      2  C   UNL d   1      -0.066   2.548   0.059  0.00  0.00     0.015 A 
ATOM      3  C   UNL d   1      -0.546   4.639   1.205  0.00  0.00     0.017 A 
ATOM      4  C   UNL d   1       0.591   3.286  -0.938  0.00  0.00     0.017 A 
ATOM      5  C   UNL d   1       0.673   4.686  -0.868  0.00  0.00     0.017 A 
ATOM      6  C   UNL d   1      -0.630   3.245   1.134  0.00  0.00     0.017 A 
ENDROOT
BRANCH   1   7
ATOM      7  C   UNL d   1       0.144   6.835   0.326  0.00  0.00     0.158 A 
ATOM      8  N   UNL d   1      -0.304   7.582   1.319  0.00  0.00    -0.343 N 
ATOM      9  C   UNL d   1      -0.022   8.861   0.922  0.00  0.00     0.128 A 
ATOM     10  HN  UNL d   1      -0.755   7.276   2.181  1.00  0.00     0.167 HD
ATOM     11  C   UNL d   1       0.589   8.861  -0.313  0.00  0.00     0.103 A 
ATOM     12  O   UNL d   1       0.701   7.548  -0.706  0.00  0.00    -0.291 OA
BRANCH  11  13
ATOM     13  C   UNL d   1       1.103   9.890  -1.207  0.00  0.00    -0.001 A 
ATOM     14  C   UNL d   1       1.643   9.573  -2.461  0.00  0.00     0.014 A 
ATOM     15  C   UNL d   1       2.143  10.575  -3.300  0.00  0.00     0.001 A 
ATOM     16  C   UNL d   1       2.107  11.908  -2.897  0.00  0.00     0.000 A 
ATOM     17  C   UNL d   1       1.569  12.242  -1.659  0.00  0.00     0.001 A 
ATOM     18  C   UNL d   1       1.070  11.241  -0.821  0.00  0.00     0.014 A 
ENDBRANCH  11  13
ENDBRANCH   1   7
BRANCH   2  19
ATOM     19  C   UNL d   1      -0.160   1.093  -0.043  0.00  0.00     0.158 A 
ATOM     20  N   UNL d   1       0.300   0.285  -0.979  0.00  0.00    -0.343 N 
ATOM     21  C   UNL d   1      -0.094  -0.962  -0.559  0.00  0.00     0.128 A 
ATOM     22  HN  UNL d   1       0.825   0.530  -1.819  1.00  0.00     0.167 HD
ATOM     23  C   UNL d   1      -0.786  -0.877   0.630  0.00  0.00     0.103 A 
ATOM     24  O   UNL d   1      -0.831   0.451   0.967  0.00  0.00    -0.291 OA
BRANCH  23  25
ATOM     25  C   UNL d   1      -1.425  -1.820   1.540  0.00  0.00    -0.001 A 
ATOM     26  C   UNL d   1      -2.069  -1.384   2.709  0.00  0.00     0.014 A 
ATOM     27  C   UNL d   1      -2.666  -2.297   3.585  0.00  0.00     0.001 A 
ATOM     28  C   UNL d   1      -2.630  -3.659   3.303  0.00  0.00     0.000 A 
ATOM     29  C   UNL d   1      -2.002  -4.110   2.145  0.00  0.00     0.001 A 
ATOM     30  C   UNL d   1      -1.405  -3.197   1.270  0.00  0.00     0.014 A 
ENDBRANCH  23  25
ENDBRANCH   2  19
TORSDOF 4
