REMARK  3 active torsions:
REMARK  status: ('A' for Active; 'I' for Inactive)
REMARK    1  A    between atoms: C_15  and  C_6 
REMARK    2  A    between atoms: O_23  and  C_7 
REMARK    3  A    between atoms: C_8  and  C_14 
ROOT
ATOM      1  C   UNL d   1      -0.794  -0.391  -0.001  0.00  0.00     0.052 A 
ATOM      2  C   UNL d   1      -1.199   0.954   0.001  0.00  0.00    -0.013 A 
ATOM      3  N   UNL d   1      -1.613  -1.444  -0.051  0.00  0.00    -0.335 N 
ATOM      4  HN  UNL d   1      -1.274  -2.406  -0.035  1.00  0.00     0.168 HD
ATOM      5  C   UNL d   1      -3.443   0.179  -0.157  0.00  0.00     0.107 A 
ATOM      6  C   UNL d   1      -2.559   1.286  -0.063  0.00  0.00     0.008 A 
ATOM      7  C   UNL d   1      -2.928  -1.134  -0.126  0.00  0.00     0.164 A 
ATOM      8  C   UNL d   1       0.646  -0.476   0.052  0.00  0.00    -0.002 A 
ATOM      9  C   UNL d   1       0.036   1.837   0.093  0.00  0.00     0.081 A 
ATOM     10  C   UNL d   1       1.167   0.831   0.103  0.00  0.00    -0.041 A 
ATOM     11  C   UNL d   1      -4.860   0.348  -0.309  0.00  0.00     0.104 C 
ATOM     12  N   UNL d   1      -6.003   0.511  -0.418  0.00  0.00    -0.191 NA
ATOM     13  C   UNL d   1       1.494  -1.569   0.027  0.00  0.00     0.014 A 
ATOM     14  C   UNL d   1       2.528   1.075   0.109  0.00  0.00     0.008 A 
ATOM     15  C   UNL d   1       2.873  -1.337   0.038  0.00  0.00     0.001 A 
ATOM     16  C   UNL d   1       3.385  -0.028   0.074  0.00  0.00     0.001 A 
ENDROOT
BRANCH   7  17
ATOM     17  O   UNL d   1      -3.838  -2.178  -0.168  0.00  0.00    -0.340 OA
ATOM     18  C   UNL d   1      -3.238  -3.467  -0.060  0.00  0.00     0.211 C 
ENDBRANCH   7  17
BRANCH   6  19
ATOM     19  C   UNL d   1      -3.000   2.707   0.019  0.00  0.00    -0.024 A 
ATOM     20  C   UNL d   1      -2.351   3.719  -0.711  0.00  0.00     0.013 A 
ATOM     21  C   UNL d   1      -2.628   5.075  -0.505  0.00  0.00     0.017 A 
ATOM     22  C   UNL d   1      -3.624   5.468   0.394  0.00  0.00     0.048 A 
ATOM     23  C   UNL d   1      -4.353   4.472   1.051  0.00  0.00     0.017 A 
ATOM     24  C   UNL d   1      -4.029   3.118   0.884  0.00  0.00     0.013 A 
BRANCH  22  25
ATOM     25  C   UNL d   1      -3.912   6.926   0.655  0.00  0.00     0.417 C 
ATOM     26  F   UNL d   1      -2.976   7.764   0.127  0.00  0.00    -0.166 F 
ATOM     27  F   UNL d   1      -5.106   7.325   0.143  0.00  0.00    -0.166 F 
ATOM     28  F   UNL d   1      -3.955   7.216   1.986  0.00  0.00    -0.166 F 
ENDBRANCH  22  25
ENDBRANCH   6  19
TORSDOF 3
