REMARK  6 active torsions:
REMARK  status: ('A' for Active; 'I' for Inactive)
REMARK    1  A    between atoms: C_2  and  N_1 
REMARK    2  A    between atoms: C_3  and  C_2 
REMARK    3  A    between atoms: S_4  and  C_3 
REMARK    4  A    between atoms: C_7  and  C_3 
REMARK    5  A    between atoms: C_10  and  S_4 
REMARK    6  A    between atoms: N_13  and  C_11 
ROOT
ATOM      1  C   UNL d   1       1.139   2.259  -0.804  0.00  0.00     0.109 C 
ENDROOT
BRANCH   1   2
ATOM      2  C   UNL d   1       0.192   1.193  -0.233  0.00  0.00     0.221 C 
BRANCH   2   3
ATOM      3  N   UNL d   1       0.892  -0.100   0.033  0.00  0.00    -0.154 N 
ATOM      4  O   UNL d   1       0.370  -1.123  -0.423  0.00  0.00    -0.536 OA
ATOM      5  O   UNL d   1       1.894  -0.064   0.757  0.00  0.00    -0.536 OA
ENDBRANCH   2   3
ENDBRANCH   1   2
BRANCH   1   6
ATOM      6  S   UNL d   1       2.118   1.638  -2.277  0.00  0.00    -0.118 SA
BRANCH   6   7
ATOM      7  C   UNL d   1       0.889   1.569  -3.562  0.00  0.00     0.001 A 
ATOM      8  C   UNL d   1       0.926   2.493  -4.609  0.00  0.00     0.020 A 
ATOM      9  C   UNL d   1      -0.036   2.459  -5.621  0.00  0.00     0.024 A 
ATOM     10  C   UNL d   1      -1.066   1.516  -5.591  0.00  0.00     0.005 A 
ATOM     11  C   UNL d   1      -1.035   0.531  -4.604  0.00  0.00     0.024 A 
ATOM     12  C   UNL d   1      -0.069   0.556  -3.596  0.00  0.00     0.020 A 
BRANCH  10  13
ATOM     13  N   UNL d   1      -1.960   1.411  -6.660  0.00  0.00    -0.303 NA
ATOM     14  H   UNL d   1      -2.826   0.938  -6.424  0.00  0.00     0.124 HD
ATOM     15  H   UNL d   1      -2.123   2.288  -7.146  0.00  0.00     0.124 HD
ENDBRANCH  10  13
ENDBRANCH   6   7
ENDBRANCH   1   6
BRANCH   1  16
ATOM     16  C   UNL d   1       0.439   3.614  -1.053  0.00  0.00    -0.042 A 
ATOM     17  C   UNL d   1      -0.759   3.960  -0.394  0.00  0.00     0.010 A 
ATOM     18  C   UNL d   1      -1.409   5.175  -0.643  0.00  0.00     0.024 A 
ATOM     19  C   UNL d   1      -0.872   6.076  -1.552  0.00  0.00     0.034 A 
ATOM     20  C   UNL d   1       0.337   5.794  -2.174  0.00  0.00     0.024 A 
ATOM     21 CL   UNL d   1      -1.697   7.544  -1.895  0.00  0.00    -0.084 Cl
ATOM     22  C   UNL d   1       1.000   4.591  -1.899  0.00  0.00     0.010 A 
ENDBRANCH   1  16
TORSDOF 6
