REMARK  8 active torsions:
REMARK  status: ('A' for Active; 'I' for Inactive)
REMARK    1  A    between atoms: N_3  and  C_1 
REMARK    2  A    between atoms: N_9  and  C_1 
REMARK    3  A    between atoms: C_2  and  N_3 
REMARK    4  A    between atoms: C_4  and  C_6 
REMARK    5  A    between atoms: O_12  and  C_4 
REMARK    6  A    between atoms: C_6  and  C_11 
REMARK    7  A    between atoms: C_16  and  C_8 
REMARK    8  A    between atoms: C_11  and  N_9 
ROOT
ATOM      1  N   UNL d   1       0.429   1.298   0.232  0.00  0.00    -0.332 N 
ATOM      2  H   UNL d   1       0.448   0.647  -0.533  0.00  0.00     0.168 HD
ENDROOT
BRANCH   1   3
ATOM      3  C   UNL d   1       0.933   2.597  -0.016  0.00  0.00     0.046 C 
ATOM      4  C   UNL d   1       0.532   3.682   0.808  0.00  0.00    -0.035 C 
ATOM      5  C   UNL d   1       1.159   4.930   0.674  0.00  0.00     0.009 C 
ATOM      6  C   UNL d   1      -0.597   3.612   1.807  0.00  0.00     0.050 C 
ATOM      7  C   UNL d   1       2.102   5.140  -0.317  0.00  0.00     0.001 C 
ATOM      8  C   UNL d   1       2.392   4.116  -1.213  0.00  0.00     0.009 C 
ATOM      9  C   UNL d   1       1.796   2.837  -1.111  0.00  0.00    -0.031 C 
BRANCH   9  10
ATOM     10  C   UNL d   1       2.270   1.831  -2.148  0.00  0.00     0.036 C 
ATOM     11  C   UNL d   1       1.274   0.844  -2.742  0.00  0.00     0.010 C 
ENDBRANCH   9  10
ENDBRANCH   1   3
BRANCH   1  12
ATOM     12  C   UNL d   1       0.371   0.653   1.464  0.00  0.00     0.172 C 
ATOM     13  S   UNL d   1       1.376   0.933   2.774  0.00  0.00    -0.041 SA
BRANCH  12  14
ATOM     14  N   UNL d   1      -0.631  -0.301   1.443  0.00  0.00    -0.366 N 
ATOM     15  H   UNL d   1      -1.126  -0.410   0.562  0.00  0.00     0.161 HD
BRANCH  14  16
ATOM     16  C   UNL d   1      -1.355  -0.827   2.598  0.00  0.00     0.132 C 
BRANCH  16  17
ATOM     17  C   UNL d   1      -2.704  -0.126   2.766  0.00  0.00     0.129 C 
BRANCH  17  18
ATOM     18  C   UNL d   1      -3.642  -0.459   1.629  0.00  0.00     0.140 C 
ATOM     19  O   UNL d   1      -3.338  -1.099   0.635  0.00  0.00    -0.650 OA
BRANCH  18  20
ATOM     20  O   UNL d   1      -4.878   0.060   1.799  0.00  0.00    -0.776 OA
ATOM     21  H   UNL d   1      -4.984   0.580   2.618  0.00  0.00     0.167 HD
ENDBRANCH  18  20
ENDBRANCH  17  18
ENDBRANCH  16  17
ENDBRANCH  14  16
ENDBRANCH  12  14
ENDBRANCH   1  12
TORSDOF 8
