REMARK  4 active torsions:
REMARK  status: ('A' for Active; 'I' for Inactive)
REMARK    1  A    between atoms: C_9  and  N_1 
REMARK    2  A    between atoms: N_5  and  C_2 
REMARK    3  A    between atoms: N_8  and  C_3 
REMARK       I    between atoms: C_6  and  N_7 
REMARK    4  A    between atoms: C_12  and  C_6 
ROOT
ATOM      1  C   UNL d   1      -3.761  -4.468  -7.507  0.00  0.00     0.253 C 
ATOM      2  N   UNL d   1      -3.171  -3.696  -6.501  0.00  0.00    -0.345 N 
ATOM      3  N   UNL d   1      -1.740  -2.376  -4.373  0.00  0.00    -0.376 N 
ATOM      4  C   UNL d   1      -2.453  -2.432  -6.735  0.00  0.00     0.146 C 
ATOM      5  C   UNL d   1      -2.829  -4.406  -5.259  0.00  0.00     0.146 C 
ATOM      6  C   UNL d   1      -2.262  -1.558  -5.479  0.00  0.00     0.143 C 
ATOM      7  C   UNL d   1      -2.677  -3.478  -4.040  0.00  0.00     0.143 C 
ATOM      8  O   UNL d   1      -4.135  -5.626  -7.329  0.00  0.00    -0.267 OA
ENDROOT
BRANCH   3   9
ATOM      9  C   UNL d   1      -1.084  -1.773  -3.295  0.00  0.00     0.058 A 
ATOM     10  C   UNL d   1      -1.298  -0.409  -2.998  0.00  0.00     0.034 A 
ATOM     11  C   UNL d   1      -0.696   0.224  -1.905  0.00  0.00     0.038 A 
ATOM     12  C   UNL d   1       0.133  -0.509  -1.058  0.00  0.00     0.105 A 
ATOM     13  C   UNL d   1       0.369  -1.865  -1.301  0.00  0.00     0.068 A 
ATOM     14  C   UNL d   1      -0.206  -2.485  -2.430  0.00  0.00     0.067 A 
BRANCH  12  15
ATOM     15  N   UNL d   1       0.792   0.156   0.073  0.00  0.00    -0.116 N 
ATOM     16  O   UNL d   1       1.427  -0.551   0.867  0.00  0.00    -0.532 OA
ATOM     17  O   UNL d   1       0.676   1.387   0.163  0.00  0.00    -0.532 OA
ENDBRANCH  12  15
BRANCH  14  18
ATOM     18  N   UNL d   1       0.199  -3.826  -2.698  0.00  0.00    -0.331 N 
ATOM     19  C   UNL d   1       0.447  -4.805  -1.751  0.00  0.00     0.097 A 
ATOM     20  C   UNL d   1       0.750  -5.986  -2.395  0.00  0.00     0.019 A 
ATOM     21  C   UNL d   1       0.756  -5.719  -3.780  0.00  0.00     0.019 A 
ATOM     22  C   UNL d   1       0.444  -4.388  -3.937  0.00  0.00     0.097 A 
ENDBRANCH  14  18
ENDBRANCH   3   9
BRANCH   1  23
ATOM     23  C   UNL d   1      -4.057  -3.869  -8.833  0.00  0.00     0.032 A 
ATOM     24  C   UNL d   1      -3.070  -3.294  -9.643  0.00  0.00     0.020 A 
ATOM     25  C   UNL d   1      -3.430  -2.718 -10.864  0.00  0.00     0.043 A 
ATOM     26  C   UNL d   1      -4.756  -2.763 -11.283  0.00  0.00     0.116 A 
ATOM     27  C   UNL d   1      -5.731  -3.388 -10.514  0.00  0.00     0.043 A 
ATOM     28  F   UNL d   1      -5.097  -2.204 -12.452  0.00  0.00    -0.206 F 
ATOM     29  C   UNL d   1      -5.381  -3.946  -9.286  0.00  0.00     0.020 A 
ENDBRANCH   1  23
TORSDOF 4
