REMARK  4 active torsions:
REMARK  status: ('A' for Active; 'I' for Inactive)
REMARK    1  A    between atoms: C_3  and  C_1 
REMARK    2  A    between atoms: C_2  and  C_3 
REMARK       I    between atoms: N_5  and  C_2 
REMARK    3  A    between atoms: N_6  and  C_4 
REMARK    4  A    between atoms: C_13  and  N_5 
REMARK       I    between atoms: C_9  and  N_6 
ROOT
ATOM      1  C   UNL d   1       2.947  -2.576  -0.134  0.00  0.00     0.252 C 
ATOM      2  O   UNL d   1       2.249  -3.505   0.264  0.00  0.00    -0.281 OA
ENDROOT
BRANCH   1   3
ATOM      3  C   UNL d   1       4.374  -2.842  -0.609  0.00  0.00     0.297 C 
ATOM      4  N   UNL d   1       4.470  -3.859  -1.538  0.00  0.00    -0.320 N 
ATOM      5  H   UNL d   1       3.633  -4.416  -1.679  0.00  0.00     0.169 HD
ATOM      6  O   UNL d   1       5.256  -2.133  -0.156  0.00  0.00    -0.264 OA
BRANCH   4   7
ATOM      7  C   UNL d   1       5.652  -4.274  -2.185  0.00  0.00     0.037 A 
ATOM      8  C   UNL d   1       6.862  -3.572  -2.097  0.00  0.00     0.069 A 
ATOM      9  C   UNL d   1       7.980  -4.115  -2.697  0.00  0.00     0.107 A 
ATOM     10  O   UNL d   1       9.231  -3.584  -2.668  0.00  0.00    -0.323 OA
ATOM     11  C   UNL d   1       7.930  -5.299  -3.391  0.00  0.00     0.105 A 
ATOM     12  C   UNL d   1       9.980  -4.622  -3.332  0.00  0.00     0.352 A 
ATOM     13  O   UNL d   1       9.146  -5.672  -3.868  0.00  0.00    -0.323 OA
ATOM     14  C   UNL d   1       6.750  -5.992  -3.544  0.00  0.00     0.042 A 
ATOM     15  C   UNL d   1       5.601  -5.468  -2.936  0.00  0.00     0.032 A 
ENDBRANCH   4   7
ENDBRANCH   1   3
BRANCH   1  16
ATOM     16  C   UNL d   1       2.475  -1.175  -0.167  0.00  0.00     0.048 A 
ATOM     17  C   UNL d   1       1.715  -0.640   0.888  0.00  0.00     0.049 A 
ATOM     18  C   UNL d   1       1.348   0.711   0.826  0.00  0.00     0.032 A 
ATOM     19  C   UNL d   1       1.739   1.517  -0.246  0.00  0.00     0.021 A 
ATOM     20  C   UNL d   1       2.506   0.977  -1.270  0.00  0.00     0.012 A 
ATOM     21  C   UNL d   1       2.877  -0.363  -1.240  0.00  0.00     0.037 A 
ATOM     22 BR   UNL d   1       3.059   2.071  -2.709  0.00  0.00    -0.051 Br
BRANCH  17  23
ATOM     23  N   UNL d   1       1.314  -1.441   1.986  0.00  0.00    -0.327 N 
ATOM     24  C   UNL d   1       1.155  -0.955   3.272  0.00  0.00     0.218 C 
ATOM     25  O   UNL d   1       1.481   0.165   3.658  0.00  0.00    -0.274 OA
ATOM     26  C   UNL d   1       0.486  -1.923   4.212  0.00  0.00     0.117 C 
ATOM     27  H   UNL d   1       1.365  -2.453   1.863  0.00  0.00     0.169 HD
ENDBRANCH  17  23
ENDBRANCH   1  16
TORSDOF 4
