REMARK  4 active torsions:
REMARK  status: ('A' for Active; 'I' for Inactive)
REMARK    1  A    between atoms: C_8  and  C_3 
REMARK    2  A    between atoms: C_13  and  C_6 
REMARK    3  A    between atoms: C_9  and  S_12 
REMARK    4  A    between atoms: S_12  and  C_13 
ROOT
ATOM      1  N   UNL d   1       1.301   0.184  -0.236  0.00  0.00    -0.322 N 
ATOM      2  HN  UNL d   1       2.278   0.369  -0.465  1.00  0.00     0.169 HD
ATOM      3  C   UNL d   1       0.275   1.084  -0.056  0.00  0.00     0.137 A 
ATOM      4  N   UNL d   1      -0.917   0.508   0.175  0.00  0.00    -0.242 N 
ATOM      5  HN  UNL d   1      -1.820   0.963   0.306  1.00  0.00     0.196 HD
ATOM      6  C   UNL d   1       0.710  -0.976  -0.040  0.00  0.00     0.158 A 
ATOM      7  O   UNL d   1      -0.629  -0.858   0.193  0.00  0.00    -0.222 OA
ENDROOT
BRANCH   6   8
ATOM      8  C   UNL d   1       1.299  -2.337   0.040  0.00  0.00     0.167 C 
BRANCH   8   9
ATOM      9  S   UNL d   1       2.468  -2.372   1.445  0.00  0.00    -0.104 SA
BRANCH   9  10
ATOM     10  C   UNL d   1       3.101  -4.031   1.354  0.00  0.00     0.069 A 
ATOM     11  N   UNL d   1       2.635  -4.874   0.408  0.00  0.00    -0.361 N 
ATOM     12  C   UNL d   1       3.151  -6.129   0.407  0.00  0.00     0.089 A 
ATOM     13  HN  UNL d   1       1.932  -4.583  -0.271  1.00  0.00     0.165 HD
ATOM     14  C   UNL d   1       4.106  -6.579   1.306  0.00  0.00     0.017 A 
ATOM     15  C   UNL d   1       4.570  -5.694   2.267  0.00  0.00     0.004 A 
ATOM     16  C   UNL d   1       4.062  -4.399   2.292  0.00  0.00     0.037 A 
ENDBRANCH   9  10
ENDBRANCH   8   9
ENDBRANCH   6   8
BRANCH   3  17
ATOM     17  C   UNL d   1       0.504   2.526  -0.102  0.00  0.00     0.010 A 
ATOM     18  C   UNL d   1       1.806   3.023  -0.283  0.00  0.00     0.017 A 
ATOM     19  C   UNL d   1       2.045   4.400  -0.342  0.00  0.00     0.025 A 
ATOM     20  C   UNL d   1       0.984   5.291  -0.216  0.00  0.00     0.034 A 
ATOM     21  C   UNL d   1      -0.313   4.818  -0.020  0.00  0.00     0.025 A 
ATOM     22 CL   UNL d   1       1.274   6.984  -0.305  0.00  0.00    -0.084 Cl
ATOM     23  C   UNL d   1      -0.552   3.440   0.039  0.00  0.00     0.017 A 
ENDBRANCH   3  17
TORSDOF 4
