REMARK  6 active torsions:
REMARK  status: ('A' for Active; 'I' for Inactive)
REMARK    1  A    between atoms: C_8  and  C_1 
REMARK    2  A    between atoms: N_21  and  C_3 
REMARK    3  A    between atoms: C_9  and  C_8 
REMARK    4  A    between atoms: C_14  and  C_8 
REMARK    5  A    between atoms: N_11  and  C_14 
REMARK    6  A    between atoms: N_22  and  C_12 
ROOT
ATOM      1  C   UNL d   1       3.021   4.204  -2.250  0.00  0.00     0.110 A 
ATOM      2  C   UNL d   1       0.810   3.698  -1.281  0.00  0.00    -0.007 A 
ATOM      3  C   UNL d   1       2.207   3.720  -1.200  0.00  0.00     0.146 A 
ATOM      4  C   UNL d   1       2.448   4.701  -3.447  0.00  0.00     0.053 A 
ATOM      5  C   UNL d   1       4.436   4.110  -2.052  0.00  0.00     0.105 C 
ATOM      6  N   UNL d   1       5.587   4.053  -1.870  0.00  0.00    -0.191 NA
ATOM      7  C   UNL d   1       0.245   4.172  -2.465  0.00  0.00     0.013 A 
ATOM      8  C   UNL d   1       1.042   4.662  -3.507  0.00  0.00     0.031 A 
ATOM      9  F   UNL d   1       2.782   3.265  -0.072  0.00  0.00    -0.204 F 
ENDROOT
BRANCH   4  10
ATOM     10  N   UNL d   1       3.169   5.172  -4.540  0.00  0.00    -0.388 N 
ATOM     11  C   UNL d   1       2.620   5.137  -5.898  0.00  0.00     0.149 C 
ATOM     12  C   UNL d   1       4.349   6.026  -4.390  0.00  0.00     0.149 C 
ENDBRANCH   4  10
BRANCH   2  13
ATOM     13  C   UNL d   1      -0.043   3.195  -0.102  0.00  0.00     0.087 C 
BRANCH  13  14
ATOM     14  C   UNL d   1      -0.242   1.663  -0.112  0.00  0.00     0.059 A 
ATOM     15  C   UNL d   1       0.222   0.800   0.829  0.00  0.00     0.096 A 
ATOM     16  N   UNL d   1      -0.088  -0.555   0.728  0.00  0.00    -0.294 N 
ATOM     17  C   UNL d   1       0.311  -1.542   1.727  0.00  0.00     0.162 C 
ATOM     18  C   UNL d   1      -0.830  -1.103  -0.318  0.00  0.00     0.332 A 
ATOM     19  N   UNL d   1      -1.290  -0.225  -1.271  0.00  0.00    -0.270 N 
ATOM     20  O   UNL d   1      -1.070  -2.313  -0.389  0.00  0.00    -0.246 OA
ATOM     21  C   UNL d   1      -1.093   1.129  -1.213  0.00  0.00     0.261 A 
ATOM     22  C   UNL d   1      -2.110  -0.777  -2.335  0.00  0.00     0.164 C 
ATOM     23  O   UNL d   1      -1.600   1.905  -2.022  0.00  0.00    -0.267 OA
BRANCH  15  24
ATOM     24  N   UNL d   1       0.978   1.269   1.890  0.00  0.00    -0.288 NA
ATOM     25  H   UNL d   1       1.549   0.562   2.341  0.00  0.00     0.125 HD
ATOM     26  H   UNL d   1       1.563   2.074   1.682  0.00  0.00     0.125 HD
ENDBRANCH  15  24
ENDBRANCH  13  14
BRANCH  13  27
ATOM     27  C   UNL d   1      -1.346   4.013   0.023  0.00  0.00     0.215 C 
BRANCH  27  28
ATOM     28  N   UNL d   1      -1.978   3.749   1.351  0.00  0.00    -0.155 N 
ATOM     29  O   UNL d   1      -2.826   2.850   1.404  0.00  0.00    -0.537 OA
ATOM     30  O   UNL d   1      -1.621   4.468   2.292  0.00  0.00    -0.537 OA
ENDBRANCH  27  28
ENDBRANCH  13  27
ENDBRANCH   2  13
TORSDOF 6
