REMARK  2 active torsions:
REMARK  status: ('A' for Active; 'I' for Inactive)
REMARK    1  A    between atoms: C_8  and  C_2 
REMARK    2  A    between atoms: O_19  and  C_7 
ROOT
ATOM      1  C   UNL d   1       0.799  -0.266  -0.084  0.00  0.00     0.052 A 
ATOM      2  C   UNL d   1       2.876   1.040   0.075  0.00  0.00     0.009 A 
ATOM      3  C   UNL d   1       1.448   0.985  -0.055  0.00  0.00    -0.017 A 
ATOM      4  N   UNL d   1       1.483  -1.433  -0.037  0.00  0.00    -0.335 N 
ATOM      5  HN  UNL d   1       0.999  -2.326  -0.127  1.00  0.00     0.168 HD
ATOM      6  C   UNL d   1       3.546  -0.208   0.241  0.00  0.00     0.107 A 
ATOM      7  C   UNL d   1       2.817  -1.386   0.133  0.00  0.00     0.164 A 
ATOM      8  C   UNL d   1      -0.676  -0.400  -0.086  0.00  0.00    -0.003 A 
ATOM      9  C   UNL d   1       4.929  -0.301   0.608  0.00  0.00     0.104 C 
ATOM     10  N   UNL d   1       6.049  -0.362   0.929  0.00  0.00    -0.191 NA
ATOM     11  C   UNL d   1       0.586   2.229  -0.024  0.00  0.00     0.046 C 
ATOM     12  C   UNL d   1      -1.499   0.741  -0.132  0.00  0.00    -0.045 A 
ATOM     13  C   UNL d   1      -0.915   2.105  -0.296  0.00  0.00     0.044 C 
ATOM     14  C   UNL d   1      -1.310  -1.654  -0.009  0.00  0.00     0.014 A 
ATOM     15  C   UNL d   1      -2.900   0.610  -0.082  0.00  0.00     0.008 A 
ATOM     16  C   UNL d   1      -2.702  -1.779   0.033  0.00  0.00     0.001 A 
ATOM     17  C   UNL d   1      -3.499  -0.640   0.001  0.00  0.00     0.001 A 
ENDROOT
BRANCH   7  18
ATOM     18  O   UNL d   1       3.504  -2.585   0.230  0.00  0.00    -0.340 OA
ATOM     19  C   UNL d   1       2.680  -3.740   0.096  0.00  0.00     0.211 C 
ENDBRANCH   7  18
BRANCH   2  20
ATOM     20  C   UNL d   1       3.646   2.340   0.090  0.00  0.00    -0.002 A 
ATOM     21  C   UNL d   1       4.787   2.608  -0.711  0.00  0.00     0.046 A 
ATOM     22  C   UNL d   1       5.513   3.807  -0.591  0.00  0.00     0.048 A 
ATOM     23 CL   UNL d   1       5.332   1.533  -1.959  0.00  0.00    -0.083 Cl
ATOM     24  C   UNL d   1       5.046   4.823   0.232  0.00  0.00     0.035 A 
ATOM     25  C   UNL d   1       3.890   4.633   0.970  0.00  0.00     0.025 A 
ATOM     26 CL   UNL d   1       5.884   6.320   0.327  0.00  0.00    -0.084 Cl
ATOM     27  C   UNL d   1       3.248   3.389   0.947  0.00  0.00     0.016 A 
ENDBRANCH   2  20
TORSDOF 2
