REMARK  2 active torsions:
REMARK  status: ('A' for Active; 'I' for Inactive)
REMARK    1  A    between atoms: C_15  and  N_5 
REMARK    2  A    between atoms: C_19  and  C_14 
ROOT
ATOM      1  C   UNL d   1      -1.052  -0.892   0.006  0.00  0.00     0.140 A 
ATOM      2  C   UNL d   1      -0.468   0.340  -0.014  0.00  0.00     0.114 A 
ATOM      3  C   UNL d   1       1.774  -0.677   0.006  0.00  0.00     0.139 A 
ATOM      4  N   UNL d   1      -2.467  -0.926   0.095  0.00  0.00    -0.288 N 
ATOM      5  N   UNL d   1      -0.213  -2.074  -0.004  0.00  0.00    -0.261 N 
ATOM      6  C   UNL d   1       0.947   0.417  -0.013  0.00  0.00     0.129 A 
ATOM      7  N   UNL d   1      -2.637   1.432  -0.047  0.00  0.00    -0.270 N 
ATOM      8  C   UNL d   1      -3.277   0.216  -0.028  0.00  0.00     0.332 C 
ATOM      9  C   UNL d   1       1.227  -2.008  -0.001  0.00  0.00     0.283 A 
ATOM     10  C   UNL d   1      -1.269   1.583   0.001  0.00  0.00     0.268 C 
ATOM     11  N   UNL d   1       3.098  -0.317  -0.004  0.00  0.00    -0.329 N 
ATOM     12  HN  UNL d   1       3.918  -0.924   0.004  1.00  0.00     0.168 HD
ATOM     13  O   UNL d   1       1.783   1.515  -0.024  0.00  0.00    -0.289 OA
ATOM     14  C   UNL d   1       3.058   0.999  -0.027  0.00  0.00     0.159 A 
ATOM     15  O   UNL d   1      -4.509   0.136  -0.090  0.00  0.00    -0.246 OA
ATOM     16  O   UNL d   1       1.977  -2.984  -0.038  0.00  0.00    -0.265 OA
ATOM     17  O   UNL d   1      -0.733   2.691   0.050  0.00  0.00    -0.267 OA
ATOM     18  C   UNL d   1      -3.255  -2.123   0.353  0.00  0.00     0.163 C 
ATOM     19  C   UNL d   1      -3.441   2.643  -0.043  0.00  0.00     0.164 C 
ENDROOT
BRANCH   5  20
ATOM     20  C   UNL d   1      -0.678  -3.422  -0.140  0.00  0.00     0.044 A 
ATOM     21  C   UNL d   1      -0.330  -4.370   0.840  0.00  0.00     0.030 A 
ATOM     22  C   UNL d   1      -0.713  -5.702   0.704  0.00  0.00     0.002 A 
ATOM     23  C   UNL d   1      -1.435  -6.103  -0.414  0.00  0.00     0.000 A 
ATOM     24  C   UNL d   1      -1.778  -5.175  -1.401  0.00  0.00     0.002 A 
ATOM     25  C   UNL d   1      -1.388  -3.836  -1.270  0.00  0.00     0.030 A 
ENDBRANCH   5  20
BRANCH  14  26
ATOM     26  C   UNL d   1       4.175   1.939  -0.104  0.00  0.00     0.015 A 
ATOM     27  C   UNL d   1       3.990   3.326  -0.032  0.00  0.00     0.016 A 
ATOM     28  C   UNL d   1       5.079   4.196  -0.154  0.00  0.00     0.001 A 
ATOM     29  C   UNL d   1       6.363   3.692  -0.348  0.00  0.00     0.000 A 
ATOM     30  C   UNL d   1       6.567   2.316  -0.406  0.00  0.00     0.001 A 
ATOM     31  C   UNL d   1       5.480   1.446  -0.279  0.00  0.00     0.016 A 
ENDBRANCH  14  26
TORSDOF 2
