REMARK  7 active torsions:
REMARK  status: ('A' for Active; 'I' for Inactive)
REMARK    1  A    between atoms: C_2  and  S_1 
REMARK    2  A    between atoms: N_9  and  S_1 
REMARK    3  A    between atoms: C_10  and  C_3 
REMARK    4  A    between atoms: C_11  and  C_4 
REMARK    5  A    between atoms: C_5  and  N_9 
REMARK    6  A    between atoms: O_19  and  C_10 
REMARK    7  A    between atoms: O_20  and  C_11 
ROOT
ATOM      1  S   UNL d   1       0.752  -0.008   0.089  0.00  0.00     0.268 S 
ATOM      2  O   UNL d   1      -0.278  -0.639   0.883  0.00  0.00    -0.204 OA
ATOM      3  O   UNL d   1       2.146  -0.055   0.467  0.00  0.00    -0.204 OA
ENDROOT
BRANCH   1   4
ATOM      4  C   UNL d   1       0.331   1.722  -0.006  0.00  0.00     0.186 A 
ATOM      5  C   UNL d   1      -0.587   2.495   0.683  0.00  0.00     0.072 A 
ATOM      6  C   UNL d   1      -0.571   3.820   0.136  0.00  0.00     0.070 A 
ATOM      7  C   UNL d   1       0.392   3.779  -0.859  0.00  0.00     0.067 A 
ATOM      8  O   UNL d   1       0.942   2.536  -0.927  0.00  0.00    -0.301 OA
ATOM      9  C   UNL d   1       0.940   4.730  -1.854  0.00  0.00     0.078 C 
BRANCH   6  10
ATOM     10  C   UNL d   1      -1.433   4.906   0.592  0.00  0.00     0.178 C 
ATOM     11  O   UNL d   1      -2.235   4.756   1.504  0.00  0.00    -0.646 OA
BRANCH  10  12
ATOM     12  O   UNL d   1      -1.315   6.099  -0.037  0.00  0.00    -0.773 OA
ATOM     13  H   UNL d   1      -0.675   6.120  -0.764  0.00  0.00     0.167 HD
ENDBRANCH  10  12
ENDBRANCH   6  10
ENDBRANCH   1   4
BRANCH   1  14
ATOM     14  N   UNL d   1       0.671  -0.627  -1.529  0.00  0.00    -0.178 NA
ATOM     15  H   UNL d   1       1.192  -1.510  -1.443  0.00  0.00     0.146 HD
BRANCH  14  16
ATOM     16  C   UNL d   1      -0.617  -0.826  -2.097  0.00  0.00     0.047 A 
ATOM     17  C   UNL d   1      -1.237  -0.016  -3.037  0.00  0.00     0.100 A 
ATOM     18  S   UNL d   1      -2.786  -0.642  -3.465  0.00  0.00    -0.093 SA
ATOM     19  C   UNL d   1      -2.583  -2.023  -2.490  0.00  0.00     0.052 A 
ATOM     20  C   UNL d   1      -1.387  -1.999  -1.814  0.00  0.00     0.033 A 
BRANCH  17  21
ATOM     21  C   UNL d   1      -0.802   1.195  -3.716  0.00  0.00     0.185 C 
ATOM     22  O   UNL d   1      -1.472   1.888  -4.470  0.00  0.00    -0.646 OA
BRANCH  21  23
ATOM     23  O   UNL d   1       0.493   1.510  -3.462  0.00  0.00    -0.772 OA
ATOM     24  H   UNL d   1       0.918   0.918  -2.810  0.00  0.00     0.167 HD
ENDBRANCH  21  23
ENDBRANCH  17  21
ENDBRANCH  14  16
ENDBRANCH   1  14
TORSDOF 7
