REMARK  3 active torsions:
REMARK  status: ('A' for Active; 'I' for Inactive)
REMARK       I    between atoms: N_2  and  C_1 
REMARK    1  A    between atoms: C_4  and  C_1 
REMARK    2  A    between atoms: C_12  and  N_2 
REMARK    3  A    between atoms: C_3  and  C_5 
ROOT
ATOM      1  C   UNL d   1       0.268  -1.288   0.005  0.00  0.00     0.032 A 
ATOM      2  C   UNL d   1      -1.244  -3.683  -0.113  0.00  0.00    -0.023 A 
ATOM      3  C   UNL d   1       0.668  -2.405   0.741  0.00  0.00     0.018 A 
ATOM      4  C   UNL d   1      -0.901  -1.345  -0.754  0.00  0.00     0.018 A 
ATOM      5  C   UNL d   1      -1.647  -2.528  -0.805  0.00  0.00     0.013 A 
ATOM      6  C   UNL d   1      -0.075  -3.589   0.669  0.00  0.00     0.013 A 
ENDROOT
BRANCH   1   7
ATOM      7  C   UNL d   1       1.056  -0.027   0.011  0.00  0.00     0.256 C 
ATOM      8  N   UNL d   1       2.428  -0.203   0.066  0.00  0.00    -0.323 N 
ATOM      9  H   UNL d   1       2.774  -1.147  -0.047  0.00  0.00     0.169 HD
ATOM     10  O   UNL d   1       0.455   1.034  -0.092  0.00  0.00    -0.267 OA
BRANCH   8  11
ATOM     11  C   UNL d   1       3.404   0.812   0.074  0.00  0.00     0.035 A 
ATOM     12  C   UNL d   1       3.107   2.162   0.282  0.00  0.00     0.031 A 
ATOM     13  C   UNL d   1       4.120   3.126   0.233  0.00  0.00     0.026 A 
ATOM     14  C   UNL d   1       5.431   2.741  -0.020  0.00  0.00     0.034 A 
ATOM     15  C   UNL d   1       5.747   1.395  -0.200  0.00  0.00     0.026 A 
ATOM     16 CL   UNL d   1       6.669   3.930  -0.112  0.00  0.00    -0.084 Cl
ATOM     17  C   UNL d   1       4.734   0.432  -0.145  0.00  0.00     0.031 A 
ENDBRANCH   8  11
ENDBRANCH   1   7
BRANCH   2  18
ATOM     18  C   UNL d   1      -2.008  -4.951  -0.199  0.00  0.00     0.013 A 
ATOM     19  C   UNL d   1      -2.651  -5.362  -1.380  0.00  0.00     0.127 A 
ATOM     20  F   UNL d   1      -2.590  -4.612  -2.491  0.00  0.00    -0.205 F 
ATOM     21  C   UNL d   1      -3.357  -6.565  -1.461  0.00  0.00     0.043 A 
ATOM     22  C   UNL d   1      -3.427  -7.404  -0.354  0.00  0.00     0.003 A 
ATOM     23  C   UNL d   1      -2.801  -7.031   0.830  0.00  0.00     0.001 A 
ATOM     24  C   UNL d   1      -2.109  -5.817   0.908  0.00  0.00     0.015 A 
ENDBRANCH   2  18
TORSDOF 3
