REMARK  2 active torsions:
REMARK  status: ('A' for Active; 'I' for Inactive)
REMARK    1  A    between atoms: C_7  and  C_3 
REMARK    2  A    between atoms: C_8  and  C_9 
ROOT
ATOM      1  N   UNL d   1       1.457   0.414   1.004  0.00  0.00    -0.334 N 
ATOM      2  HN  UNL d   1       1.655   1.059   1.769  1.00  0.00     0.168 HD
ATOM      3  C   UNL d   1       2.310  -0.139   0.158  0.00  0.00     0.159 A 
ATOM      4  O   UNL d   1       1.732  -0.972  -0.769  0.00  0.00    -0.291 OA
ATOM      5  C   UNL d   1       0.240  -0.087   0.611  0.00  0.00     0.069 A 
ATOM      6  C   UNL d   1       0.406  -0.935  -0.471  0.00  0.00     0.104 A 
ATOM      7  C   UNL d   1      -1.051   0.123   1.110  0.00  0.00     0.039 A 
ATOM      8  C   UNL d   1      -0.617  -1.617  -1.111  0.00  0.00     0.040 A 
ATOM      9  C   UNL d   1      -2.130  -0.545   0.495  0.00  0.00    -0.060 A 
ATOM     10  C   UNL d   1      -1.902  -1.402  -0.598  0.00  0.00     0.009 A 
ATOM     11  C   UNL d   1      -3.529  -0.352   1.004  0.00  0.00     0.048 C 
ENDROOT
BRANCH   3  12
ATOM     12  C   UNL d   1       3.759   0.014   0.068  0.00  0.00     0.015 A 
ATOM     13  C   UNL d   1       4.453   0.786   1.005  0.00  0.00     0.016 A 
ATOM     14  C   UNL d   1       5.842   0.961   0.904  0.00  0.00     0.009 A 
ATOM     15  C   UNL d   1       6.581   0.380  -0.145  0.00  0.00    -0.051 A 
ATOM     16  C   UNL d   1       5.873  -0.415  -1.059  0.00  0.00     0.009 A 
ATOM     17  C   UNL d   1       4.490  -0.594  -0.957  0.00  0.00     0.016 A 
BRANCH  15  18
ATOM     18  C   UNL d   1       8.090   0.644  -0.286  0.00  0.00    -0.024 C 
ATOM     19  C   UNL d   1       8.712  -0.029  -1.532  0.00  0.00     0.019 C 
ATOM     20  C   UNL d   1       8.339   2.162  -0.417  0.00  0.00     0.019 C 
ATOM     21  C   UNL d   1       8.850   0.116   0.948  0.00  0.00     0.019 C 
ENDBRANCH  15  18
ENDBRANCH   3  12
TORSDOF 2
