REMARK  7 active torsions:
REMARK  status: ('A' for Active; 'I' for Inactive)
REMARK    1  A    between atoms: C_7  and  C_1 
REMARK       I    between atoms: C_6  and  N_8 
REMARK    2  A    between atoms: C_14  and  C_6 
REMARK    3  A    between atoms: N_8  and  C_7 
REMARK    4  A    between atoms: C_9  and  C_15 
REMARK    5  A    between atoms: O_13  and  C_9 
REMARK    6  A    between atoms: O_12  and  C_14 
REMARK    7  A    between atoms: C_15  and  O_12 
ROOT
ATOM      1  C   UNL d   1      -0.400  -5.206  -0.043  0.00  0.00     0.241 C 
ATOM      2  N   UNL d   1      -0.291  -3.832  -0.006  0.00  0.00    -0.355 N 
ATOM      3  O   UNL d   1       0.568  -5.950  -0.169  0.00  0.00    -0.271 OA
ATOM      4  H   UNL d   1      -1.066  -3.280   0.342  0.00  0.00     0.162 HD
ENDROOT
BRANCH   2   5
ATOM      5  C   UNL d   1       1.008  -3.202  -0.067  0.00  0.00     0.162 C 
BRANCH   5   6
ATOM      6  C   UNL d   1       0.826  -1.718   0.014  0.00  0.00    -0.022 A 
ATOM      7  C   UNL d   1       0.775  -1.027   1.210  0.00  0.00     0.060 A 
ATOM      8  S   UNL d   1       0.559   0.646   1.007  0.00  0.00    -0.101 SA
ATOM      9  C   UNL d   1       0.531   0.509  -0.707  0.00  0.00     0.015 A 
ATOM     10  C   UNL d   1       0.686  -0.821  -1.118  0.00  0.00    -0.011 A 
ATOM     11  C   UNL d   1       0.375   1.562  -1.630  0.00  0.00     0.019 A 
ATOM     12  C   UNL d   1       0.685  -1.078  -2.515  0.00  0.00     0.013 A 
ATOM     13  C   UNL d   1       0.531  -0.034  -3.435  0.00  0.00     0.001 A 
ATOM     14  C   UNL d   1       0.377   1.273  -2.996  0.00  0.00     0.001 A 
ENDBRANCH   5   6
ENDBRANCH   2   5
BRANCH   1  15
ATOM     15  C   UNL d   1      -1.845  -5.730   0.098  0.00  0.00     0.271 C 
BRANCH  15  16
ATOM     16  O   UNL d   1      -2.048  -6.953   0.803  0.00  0.00    -0.372 OA
BRANCH  16  17
ATOM     17  C   UNL d   1      -1.571  -6.906   2.146  0.00  0.00     0.277 C 
BRANCH  17  18
ATOM     18  C   UNL d   1      -2.400  -5.972   3.015  0.00  0.00     0.164 C 
ATOM     19  O   UNL d   1      -1.942  -5.069   3.696  0.00  0.00    -0.648 OA
BRANCH  18  20
ATOM     20  O   UNL d   1      -3.728  -6.219   2.912  0.00  0.00    -0.775 OA
ATOM     21  H   UNL d   1      -3.903  -6.940   2.268  0.00  0.00     0.167 HD
ENDBRANCH  18  20
ENDBRANCH  17  18
ENDBRANCH  16  17
ENDBRANCH  15  16
ENDBRANCH   1  15
TORSDOF 7
