REMARK  7 active torsions:
REMARK  status: ('A' for Active; 'I' for Inactive)
REMARK    1  A    between atoms: C_2  and  C_1 
REMARK    2  A    between atoms: N_3  and  C_1 
REMARK    3  A    between atoms: C_4  and  C_1 
REMARK    4  A    between atoms: O_5  and  C_1 
REMARK       I    between atoms: C_6  and  N_3 
REMARK    5  A    between atoms: O_12  and  C_4 
REMARK    6  A    between atoms: C_13  and  O_5 
REMARK    7  A    between atoms: C_15  and  O_12 
ROOT
ATOM      1  C   UNL d   1       0.926  -0.082  -0.029  0.00  0.00     0.327 C 
ENDROOT
BRANCH   1   2
ATOM      2  C   UNL d   1       0.198   0.181  -1.390  0.00  0.00     0.448 C 
ATOM      3  F   UNL d   1      -0.268  -0.992  -1.910  0.00  0.00    -0.166 F 
ATOM      4  F   UNL d   1      -0.864   1.013  -1.303  0.00  0.00    -0.166 F 
ATOM      5  F   UNL d   1       1.033   0.694  -2.329  0.00  0.00    -0.166 F 
ENDBRANCH   1   2
BRANCH   1   6
ATOM      6  N   UNL d   1       0.397  -1.252   0.685  0.00  0.00    -0.314 N 
ATOM      7  C   UNL d   1      -0.921  -1.350   1.026  0.00  0.00     0.216 C 
ATOM      8  O   UNL d   1      -1.703  -0.412   0.928  0.00  0.00    -0.274 OA
ATOM      9  C   UNL d   1      -1.317  -2.720   1.512  0.00  0.00     0.117 C 
ATOM     10  H   UNL d   1       0.840  -2.114   0.399  0.00  0.00     0.166 HD
ENDBRANCH   1   6
BRANCH   1  11
ATOM     11  C   UNL d   1       0.905   1.296   0.682  0.00  0.00     0.325 C 
ATOM     12  O   UNL d   1       1.219   2.353   0.139  0.00  0.00    -0.259 OA
BRANCH  11  13
ATOM     13  O   UNL d   1       0.726   1.169   2.035  0.00  0.00    -0.318 OA
BRANCH  13  14
ATOM     14  C   UNL d   1       1.092   2.325   2.808  0.00  0.00     0.174 C 
ATOM     15  C   UNL d   1       0.297   2.328   4.097  0.00  0.00     0.034 C 
ENDBRANCH  13  14
ENDBRANCH  11  13
ENDBRANCH   1  11
BRANCH   1  16
ATOM     16  O   UNL d   1       2.308  -0.463  -0.297  0.00  0.00    -0.341 OA
BRANCH  16  17
ATOM     17  C   UNL d   1       3.215  -0.484   0.817  0.00  0.00     0.117 C 
ATOM     18  C   UNL d   1       3.204  -1.842   1.515  0.00  0.00     0.039 C 
ATOM     19  C   UNL d   1       4.607  -0.202   0.264  0.00  0.00     0.039 C 
ENDBRANCH  16  17
ENDBRANCH   1  16
TORSDOF 7
