REMARK  5 active torsions:
REMARK  status: ('A' for Active; 'I' for Inactive)
REMARK    1  A    between atoms: C_2  and  C_1 
REMARK       I    between atoms: N_5  and  C_1 
REMARK    2  A    between atoms: C_3  and  C_4 
REMARK    3  A    between atoms: O_13  and  C_3 
REMARK    4  A    between atoms: C_11  and  N_5 
REMARK    5  A    between atoms: C_12  and  C_6 
ROOT
ATOM      1  C   UNL d   1      -3.914  -1.204   0.824  0.00  0.00    -0.054 A 
ATOM      2  C   UNL d   1      -3.256  -1.167   2.063  0.00  0.00     0.010 A 
ATOM      3  C   UNL d   1      -3.106  -1.223  -0.322  0.00  0.00     0.010 A 
ATOM      4  C   UNL d   1      -1.085  -0.957   1.004  0.00  0.00     0.035 A 
ATOM      5  C   UNL d   1      -1.865  -1.038   2.152  0.00  0.00     0.030 A 
ATOM      6  C   UNL d   1      -1.715  -1.085  -0.236  0.00  0.00     0.030 A 
ENDROOT
BRANCH   4   7
ATOM      7  N   UNL d   1       0.309  -0.720   1.007  0.00  0.00    -0.324 N 
ATOM      8  C   UNL d   1       1.097  -0.490   2.114  0.00  0.00     0.245 C 
ATOM      9  O   UNL d   1       0.761  -0.540   3.291  0.00  0.00    -0.268 OA
ATOM     10  H   UNL d   1       0.742  -0.649   0.097  0.00  0.00     0.169 HD
BRANCH   8  11
ATOM     11  C   UNL d   1       2.490  -0.123   1.756  0.00  0.00     0.081 C 
ATOM     12  C   UNL d   1       3.329   0.211   2.749  0.00  0.00     0.086 C 
BRANCH  12  13
ATOM     13  C   UNL d   1       4.707   0.603   2.430  0.00  0.00     0.165 C 
ATOM     14  O   UNL d   1       5.168   0.642   1.303  0.00  0.00    -0.647 OA
BRANCH  13  15
ATOM     15  O   UNL d   1       5.412   0.924   3.532  0.00  0.00    -0.773 OA
ATOM     16  H   UNL d   1       4.932   0.855   4.375  0.00  0.00     0.167 HD
ENDBRANCH  13  15
ENDBRANCH  12  13
ENDBRANCH   8  11
ENDBRANCH   4   7
BRANCH   1  17
ATOM     17  C   UNL d   1      -5.442  -1.243   0.786  0.00  0.00     0.018 C 
ATOM     18  C   UNL d   1      -6.094  -1.218  -0.613  0.00  0.00     0.009 C 
ATOM     19  C   UNL d   1      -5.996   0.142  -1.310  0.00  0.00     0.001 C 
ATOM     20  C   UNL d   1      -6.491   1.294  -0.441  0.00  0.00     0.000 C 
ATOM     21  C   UNL d   1      -5.930   1.260   0.977  0.00  0.00     0.001 C 
ATOM     22  C   UNL d   1      -6.090  -0.115   1.624  0.00  0.00     0.009 C 
ENDBRANCH   1  17
TORSDOF 5
