REMARK  3 active torsions:
REMARK  status: ('A' for Active; 'I' for Inactive)
REMARK    1  A    between atoms: C_8  and  N_1 
REMARK    2  A    between atoms: C_7  and  N_4 
REMARK    3  A    between atoms: C_18  and  C_8 
ROOT
ATOM      1  N   UNL d   1      -0.372   1.014  -0.044  0.00  0.00    -0.293 N 
ATOM      2  C   UNL d   1       0.912   0.548   0.066  0.00  0.00     0.150 C 
ATOM      3  C   UNL d   1      -1.384   0.077  -0.023  0.00  0.00     0.235 C 
ATOM      4  N   UNL d   1       1.936   1.308  -0.144  0.00  0.00    -0.337 N 
ATOM      5  HN  UNL d   1       1.764   2.285  -0.382  1.00  0.00     0.168 HD
ATOM      6  S   UNL d   1       0.893  -1.139   0.515  0.00  0.00    -0.084 SA
ATOM      7  C   UNL d   1      -0.846  -1.325   0.086  0.00  0.00     0.185 C 
ATOM      8  O   UNL d   1      -2.578   0.324  -0.140  0.00  0.00    -0.272 OA
ENDROOT
BRANCH   1   9
ATOM      9  C   UNL d   1      -0.690   2.428  -0.147  0.00  0.00     0.174 C 
BRANCH   9  10
ATOM     10  C   UNL d   1      -0.912   3.041   1.213  0.00  0.00    -0.024 A 
ATOM     11  C   UNL d   1      -2.178   3.069   1.791  0.00  0.00     0.096 A 
ATOM     12  N   UNL d   1      -2.441   3.577   3.019  0.00  0.00    -0.375 N 
ATOM     13  C   UNL d   1      -1.393   4.073   3.709  0.00  0.00     0.087 A 
ATOM     14  HN  UNL d   1      -3.385   3.584   3.404  1.00  0.00     0.164 HD
ATOM     15  C   UNL d   1      -0.094   4.084   3.230  0.00  0.00     0.018 A 
ATOM     16  C   UNL d   1       0.147   3.558   1.964  0.00  0.00     0.011 A 
ENDBRANCH   9  10
ENDBRANCH   1   9
BRANCH   4  17
ATOM     17  C   UNL d   1       3.270   0.877  -0.066  0.00  0.00     0.037 A 
ATOM     18  C   UNL d   1       3.755  -0.271  -0.704  0.00  0.00     0.053 A 
ATOM     19  C   UNL d   1       5.097  -0.636  -0.587  0.00  0.00     0.037 A 
ATOM     20 CL   UNL d   1       5.644  -2.100  -1.308  0.00  0.00    -0.084 Cl
ATOM     21  C   UNL d   1       5.994   0.169   0.104  0.00  0.00     0.048 A 
ATOM     22  C   UNL d   1       5.533   1.349   0.678  0.00  0.00     0.037 A 
ATOM     23  C   UNL d   1       4.184   1.699   0.601  0.00  0.00     0.053 A 
ATOM     24 CL   UNL d   1       6.641   2.393   1.481  0.00  0.00    -0.084 Cl
ENDBRANCH   4  17
TORSDOF 3
