REMARK  3 active torsions:
REMARK  status: ('A' for Active; 'I' for Inactive)
REMARK    1  A    between atoms: C_4  and  N_1 
REMARK    2  A    between atoms: C_5  and  C_4 
REMARK    3  A    between atoms: C_12  and  C_4 
REMARK       I    between atoms: N_8  and  C_5 
ROOT
ATOM      1  C   UNL d   1       3.434   0.084  -0.225  0.00  0.00     0.192 C 
ENDROOT
BRANCH   1   2
ATOM      2  N   UNL d   1       1.958   0.099  -0.117  0.00  0.00    -0.266 N 
ATOM      3  C   UNL d   1       1.126   1.103  -0.550  0.00  0.00     0.262 A 
ATOM      4  C   UNL d   1      -0.242   0.640  -0.340  0.00  0.00     0.048 A 
ATOM      5  O   UNL d   1       1.377   2.205  -0.996  0.00  0.00    -0.267 OA
ATOM      6  C   UNL d   1      -1.443   1.285  -0.565  0.00  0.00     0.018 A 
ATOM      7  C   UNL d   1      -0.177  -0.641   0.169  0.00  0.00     0.048 A 
ATOM      8  C   UNL d   1      -2.613   0.581  -0.266  0.00  0.00     0.001 A 
ATOM      9  C   UNL d   1      -2.550  -0.734   0.239  0.00  0.00     0.001 A 
ATOM     10  C   UNL d   1      -1.318  -1.360   0.467  0.00  0.00     0.018 A 
ATOM     11  C   UNL d   1       1.240  -0.991   0.303  0.00  0.00     0.262 A 
ATOM     12  O   UNL d   1       1.646  -2.052   0.723  0.00  0.00    -0.267 OA
ENDBRANCH   1   2
BRANCH   1  13
ATOM     13  C   UNL d   1       3.725  -0.420  -1.676  0.00  0.00     0.243 C 
ATOM     14  N   UNL d   1       4.813  -1.270  -1.927  0.00  0.00    -0.350 N 
ATOM     15  C   UNL d   1       5.104  -1.596  -3.329  0.00  0.00     0.126 C 
ATOM     16  C   UNL d   1       5.583  -1.941  -0.878  0.00  0.00     0.126 C 
ATOM     17  C   UNL d   1       4.502  -2.934  -3.759  0.00  0.00     0.020 C 
ATOM     18  C   UNL d   1       5.345  -4.147  -3.371  0.00  0.00     0.002 C 
ATOM     19  C   UNL d   1       5.603  -4.291  -1.875  0.00  0.00     0.002 C 
ATOM     20  C   UNL d   1       6.431  -3.147  -1.294  0.00  0.00     0.020 C 
ATOM     21  O   UNL d   1       3.000  -0.052  -2.610  0.00  0.00    -0.271 OA
ENDBRANCH   1  13
BRANCH   1  22
ATOM     22  C   UNL d   1       4.064   1.466   0.105  0.00  0.00     0.010 C 
ATOM     23  C   UNL d   1       3.657   1.940   1.513  0.00  0.00     0.012 C 
ATOM     24  C   UNL d   1       5.591   1.519   0.017  0.00  0.00     0.012 C 
ENDBRANCH   1  22
TORSDOF 3
