REMARK  2 active torsions:
REMARK  status: ('A' for Active; 'I' for Inactive)
REMARK    1  A    between atoms: N_7  and  C_1 
REMARK    2  A    between atoms: C_8  and  C_5 
ROOT
ATOM      1  C   UNL d   1      -1.122  -1.516  -0.038  0.00  0.00     0.045 A 
ATOM      2  N   UNL d   1      -1.222   1.294  -0.148  0.00  0.00    -0.354 N 
ATOM      3  HN  UNL d   1      -1.265   2.312  -0.196  1.00  0.00     0.166 HD
ATOM      4  C   UNL d   1      -2.340  -0.829  -0.064  0.00  0.00     0.061 A 
ATOM      5  C   UNL d   1      -2.356   0.558  -0.104  0.00  0.00     0.052 A 
ATOM      6  C   UNL d   1       0.079  -0.745  -0.075  0.00  0.00     0.017 A 
ATOM      7  C   UNL d   1      -0.045   0.661  -0.125  0.00  0.00     0.045 A 
ATOM      8  C   UNL d   1       1.383  -1.297  -0.014  0.00  0.00     0.016 A 
ATOM      9  C   UNL d   1       1.108   1.440  -0.115  0.00  0.00     0.030 A 
ATOM     10  C   UNL d   1       2.525  -0.497  -0.039  0.00  0.00     0.001 A 
ATOM     11  C   UNL d   1       2.384   0.879  -0.083  0.00  0.00     0.002 A 
ENDROOT
BRANCH   1  12
ATOM     12  N   UNL d   1      -1.085  -2.904   0.113  0.00  0.00    -0.376 N 
ATOM     13  C   UNL d   1      -2.163  -3.595   0.845  0.00  0.00     0.149 C 
ATOM     14  C   UNL d   1      -1.587  -4.903   1.412  0.00  0.00     0.187 C 
ATOM     15  O   UNL d   1      -1.051  -5.739   0.368  0.00  0.00    -0.388 OA
ATOM     16  C   UNL d   1      -0.023  -5.044  -0.363  0.00  0.00     0.187 C 
ATOM     17  C   UNL d   1      -0.557  -3.737  -0.985  0.00  0.00     0.149 C 
ENDBRANCH   1  12
BRANCH   5  18
ATOM     18  C   UNL d   1      -3.588   1.363  -0.105  0.00  0.00     0.031 A 
ATOM     19  S   UNL d   1      -5.048   0.781   0.599  0.00  0.00    -0.100 SA
ATOM     20  C   UNL d   1      -5.900   2.210   0.212  0.00  0.00     0.050 A 
ATOM     21  C   UNL d   1      -5.101   3.129  -0.427  0.00  0.00     0.008 A 
ATOM     22  C   UNL d   1      -3.771   2.646  -0.597  0.00  0.00     0.021 A 
ENDBRANCH   5  18
TORSDOF 2
