REMARK  8 active torsions:
REMARK  status: ('A' for Active; 'I' for Inactive)
REMARK    1  A    between atoms: C_6  and  N_1 
REMARK    2  A    between atoms: C_7  and  C_6 
REMARK    3  A    between atoms: C_8  and  C_7 
REMARK    4  A    between atoms: O_10  and  C_7 
REMARK    5  A    between atoms: N_9  and  C_8 
REMARK    6  A    between atoms: C_15  and  N_9 
REMARK    7  A    between atoms: C_17  and  C_15 
REMARK    8  A    between atoms: C_18  and  C_17 
ROOT
ATOM      1  N   UNL d   1      -1.872  -2.973   0.207  0.00  0.00    -0.343 N 
ATOM      2  C   UNL d   1      -2.857  -3.927   0.419  0.00  0.00     0.046 A 
ATOM      3  C   UNL d   1      -2.339  -1.990  -0.659  0.00  0.00     0.046 A 
ATOM      4  C   UNL d   1      -3.991  -3.527  -0.287  0.00  0.00     0.003 A 
ATOM      5  C   UNL d   1      -3.683  -2.291  -0.923  0.00  0.00     0.003 A 
ATOM      6  C   UNL d   1      -2.850  -5.107   1.181  0.00  0.00     0.030 A 
ATOM      7  C   UNL d   1      -1.731  -0.855  -1.225  0.00  0.00     0.030 A 
ATOM      8  C   UNL d   1      -4.448  -1.409  -1.717  0.00  0.00     0.014 A 
ATOM      9  C   UNL d   1      -5.143  -4.341  -0.249  0.00  0.00     0.014 A 
ATOM     10  C   UNL d   1      -2.505  -0.007  -2.027  0.00  0.00     0.002 A 
ATOM     11  C   UNL d   1      -5.127  -5.536   0.475  0.00  0.00     0.001 A 
ATOM     12  C   UNL d   1      -3.851  -0.267  -2.258  0.00  0.00     0.001 A 
ATOM     13  C   UNL d   1      -3.991  -5.911   1.183  0.00  0.00     0.002 A 
ENDROOT
BRANCH   1  14
ATOM     14  C   UNL d   1      -0.617  -2.932   0.963  0.00  0.00     0.163 C 
BRANCH  14  15
ATOM     15  C   UNL d   1       0.509  -3.858   0.460  0.00  0.00     0.164 C 
BRANCH  15  16
ATOM     16  C   UNL d   1       1.774  -3.808   1.371  0.00  0.00     0.305 C 
BRANCH  16  17
ATOM     17  N   UNL d   1       1.672  -4.172   2.796  0.00  0.00     0.086 N 
ATOM     18  C   UNL d   1       2.927  -3.911   3.500  0.00  0.00     0.310 C 
BRANCH  17  19
ATOM     19  C   UNL d   1       1.091  -5.470   3.162  0.00  0.00     0.272 C 
BRANCH  19  20
ATOM     20  C   UNL d   1       1.956  -6.749   3.245  0.00  0.00     0.030 C 
BRANCH  20  21
ATOM     21  C   UNL d   1       2.102  -7.580   1.969  0.00  0.00    -0.003 C 
ATOM     22  C   UNL d   1       3.328  -7.252   1.135  0.00  0.00     0.005 C 
ENDBRANCH  20  21
ENDBRANCH  19  20
ENDBRANCH  17  19
ENDBRANCH  16  17
ENDBRANCH  15  16
BRANCH  15  23
ATOM     23  O   UNL d   1       0.086  -5.212   0.297  0.00  0.00    -0.392 OA
ATOM     24  H   UNL d   1       0.862  -5.739   0.045  0.00  0.00     0.210 HD
ENDBRANCH  15  23
ENDBRANCH  14  15
ENDBRANCH   1  14
TORSDOF 8
