REMARK  8 active torsions:
REMARK  status: ('A' for Active; 'I' for Inactive)
REMARK    1  A    between atoms: C_5  and  N_1 
REMARK    2  A    between atoms: C_3  and  C_2 
REMARK    3  A    between atoms: O_19  and  C_3 
REMARK    4  A    between atoms: C_4  and  C_12 
REMARK    5  A    between atoms: C_13  and  C_4 
REMARK    6  A    between atoms: S_6  and  C_13 
REMARK    7  A    between atoms: C_8  and  S_6 
REMARK    8  A    between atoms: O_20  and  N_10 
ROOT
ATOM      1  C   UNL d   1      -1.741  -3.573  -3.665  0.00  0.00     0.051 C 
ATOM      2  N   UNL d   1      -2.842  -3.546  -4.369  0.00  0.00    -0.272 N 
ATOM      3  HN  UNL d   1      -3.068  -4.268  -5.053  1.00  0.00     0.194 HD
ENDROOT
BRANCH   1   4
ATOM      4  C   UNL d   1      -0.829  -4.736  -4.006  0.00  0.00    -0.011 A 
ATOM      5  C   UNL d   1      -0.890  -5.255  -5.315  0.00  0.00     0.016 A 
ATOM      6  C   UNL d   1      -0.131  -6.365  -5.690  0.00  0.00     0.037 A 
ATOM      7  C   UNL d   1       0.704  -6.974  -4.750  0.00  0.00     0.102 A 
ATOM      8  C   UNL d   1       0.788  -6.466  -3.445  0.00  0.00     0.037 A 
ATOM      9  C   UNL d   1       0.023  -5.346  -3.075  0.00  0.00     0.016 A 
BRANCH   7  10
ATOM     10  N   UNL d   1       1.485  -8.155  -5.136  0.00  0.00    -0.116 N 
ATOM     11  O   UNL d   1       2.193  -8.683  -4.266  0.00  0.00    -0.532 OA
ATOM     12  O   UNL d   1       1.395  -8.553  -6.304  0.00  0.00    -0.532 OA
ENDBRANCH   7  10
ENDBRANCH   1   4
BRANCH   1  13
ATOM     13  C   UNL d   1      -1.232  -2.608  -2.586  0.00  0.00     0.139 C 
BRANCH  13  14
ATOM     14  S   UNL d   1      -2.302  -1.209  -2.108  0.00  0.00    -0.123 SA
BRANCH  14  15
ATOM     15  C   UNL d   1      -1.226  -0.321  -0.999  0.00  0.00     0.017 A 
ATOM     16  C   UNL d   1      -0.872  -0.754   0.289  0.00  0.00     0.054 A 
ATOM     17  C   UNL d   1       0.035   0.004   1.048  0.00  0.00     0.020 A 
ATOM     18  C   UNL d   1       0.552   1.202   0.554  0.00  0.00     0.001 A 
ATOM     19  C   UNL d   1       0.156   1.662  -0.698  0.00  0.00     0.001 A 
ATOM     20  C   UNL d   1      -0.729   0.906  -1.467  0.00  0.00     0.019 A 
BRANCH  16  21
ATOM     21  C   UNL d   1      -1.380  -1.995   0.930  0.00  0.00     0.177 C 
ATOM     22  O   UNL d   1      -0.702  -2.655   1.700  0.00  0.00    -0.646 OA
BRANCH  21  23
ATOM     23  O   UNL d   1      -2.665  -2.303   0.649  0.00  0.00    -0.773 OA
ATOM     24  H   UNL d   1      -3.082  -1.728  -0.029  0.00  0.00     0.167 HD
ENDBRANCH  21  23
ENDBRANCH  16  21
ENDBRANCH  14  15
ENDBRANCH  13  14
ENDBRANCH   1  13
BRANCH   2  25
ATOM     25  O   UNL d   1      -3.680  -2.471  -4.126  0.00  0.00    -0.290 OA
ATOM     26  H   UNL d   1      -4.487  -2.707  -4.618  0.00  0.00     0.244 HD
ENDBRANCH   2  25
TORSDOF 8
