REMARK  4 active torsions:
REMARK  status: ('A' for Active; 'I' for Inactive)
REMARK    1  A    between atoms: C_5  and  C_1 
REMARK    2  A    between atoms: C_7  and  C_2 
REMARK    3  A    between atoms: O_9  and  C_7 
REMARK    4  A    between atoms: N_13  and  O_9 
REMARK       I    between atoms: C_12  and  N_13 
ROOT
ATOM      1  C   UNL d   1      -1.372  -0.663   0.345  0.00  0.00     0.087 A 
ATOM      2  C   UNL d   1      -0.086  -1.197   0.002  0.00  0.00     0.102 A 
ATOM      3  N   UNL d   1      -1.251   0.618   0.735  0.00  0.00    -0.259 N 
ATOM      4  HN  UNL d   1      -2.002   1.228   1.058  1.00  0.00     0.195 HD
ATOM      5  O   UNL d   1       0.074   0.947   0.616  0.00  0.00    -0.241 OA
ATOM      6  C   UNL d   1       0.775  -0.131   0.193  0.00  0.00     0.091 A 
ATOM      7  C   UNL d   1       2.225   0.095   0.021  0.00  0.00     0.080 C 
ENDROOT
BRANCH   1   8
ATOM      8  C   UNL d   1      -2.703  -1.276   0.379  0.00  0.00     0.037 A 
ATOM      9  C   UNL d   1      -2.992  -2.356   1.234  0.00  0.00     0.048 A 
ATOM     10 CL   UNL d   1      -1.794  -3.092   2.249  0.00  0.00    -0.083 Cl
ATOM     11  C   UNL d   1      -4.295  -2.863   1.341  0.00  0.00     0.025 A 
ATOM     12  C   UNL d   1      -5.339  -2.286   0.623  0.00  0.00     0.003 A 
ATOM     13  C   UNL d   1      -5.077  -1.214  -0.224  0.00  0.00     0.025 A 
ATOM     14  C   UNL d   1      -3.771  -0.721  -0.358  0.00  0.00     0.048 A 
ATOM     15 CL   UNL d   1      -3.561   0.587  -1.479  0.00  0.00    -0.083 Cl
ENDBRANCH   1   8
BRANCH   2  16
ATOM     16  C   UNL d   1       0.334  -2.498  -0.465  0.00  0.00     0.320 C 
ATOM     17  O   UNL d   1       1.512  -2.849  -0.547  0.00  0.00    -0.257 OA
BRANCH  16  18
ATOM     18  O   UNL d   1      -0.685  -3.318  -0.873  0.00  0.00    -0.192 OA
BRANCH  18  19
ATOM     19  N   UNL d   1      -0.165  -4.476  -1.524  0.00  0.00    -0.226 N 
ATOM     20  C   UNL d   1      -0.808  -4.731  -2.718  0.00  0.00     0.237 C 
ATOM     21  O   UNL d   1      -1.883  -4.244  -3.044  0.00  0.00    -0.272 OA
ATOM     22  C   UNL d   1      -0.066  -5.699  -3.601  0.00  0.00     0.119 C 
ATOM     23  H   UNL d   1       0.848  -4.574  -1.459  0.00  0.00     0.198 HD
ENDBRANCH  18  19
ENDBRANCH  16  18
ENDBRANCH   2  16
TORSDOF 4
