REMARK  4 active torsions:
REMARK  status: ('A' for Active; 'I' for Inactive)
REMARK    1  A    between atoms: N_2  and  C_1 
REMARK    2  A    between atoms: C_3  and  C_6 
REMARK    3  A    between atoms: O_8  and  C_5 
REMARK    4  A    between atoms: C_15  and  O_8 
ROOT
ATOM      1  C   UNL d   1       1.359  -0.224   0.219  0.00  0.00     0.137 A 
ATOM      2  C   UNL d   1       0.504  -1.337   0.257  0.00  0.00     0.055 A 
ATOM      3  C   UNL d   1       0.859   1.075   0.102  0.00  0.00     0.109 A 
ATOM      4  C   UNL d   1      -0.887  -1.151   0.213  0.00  0.00     0.050 A 
ATOM      5  C   UNL d   1      -0.529   1.259   0.154  0.00  0.00     0.040 A 
ATOM      6  C   UNL d   1      -1.390   0.160   0.189  0.00  0.00     0.019 A 
ENDROOT
BRANCH   3   7
ATOM      7  O   UNL d   1       1.733   2.127  -0.064  0.00  0.00    -0.308 OA
BRANCH   7   8
ATOM      8  C   UNL d   1       1.344   3.160  -0.890  0.00  0.00     0.076 A 
ATOM      9  C   UNL d   1       1.606   4.455  -0.443  0.00  0.00     0.037 A 
ATOM     10  C   UNL d   1       1.172   5.548  -1.193  0.00  0.00     0.003 A 
ATOM     11  C   UNL d   1       0.490   5.347  -2.394  0.00  0.00     0.000 A 
ATOM     12  C   UNL d   1       0.276   4.053  -2.868  0.00  0.00     0.003 A 
ATOM     13  C   UNL d   1       0.725   2.958  -2.129  0.00  0.00     0.037 A 
ENDBRANCH   7   8
ENDBRANCH   3   7
BRANCH   1  14
ATOM     14  N   UNL d   1       2.791  -0.449   0.299  0.00  0.00    -0.113 N 
ATOM     15  O   UNL d   1       3.268  -1.290  -0.476  0.00  0.00    -0.532 OA
ATOM     16  O   UNL d   1       3.419   0.163   1.170  0.00  0.00    -0.532 OA
ENDBRANCH   1  14
BRANCH   4  17
ATOM     17  C   UNL d   1      -1.842  -2.318   0.165  0.00  0.00     0.417 C 
ATOM     18  F   UNL d   1      -1.229  -3.526   0.294  0.00  0.00    -0.166 F 
ATOM     19  F   UNL d   1      -2.780  -2.263   1.149  0.00  0.00    -0.166 F 
ATOM     20  F   UNL d   1      -2.529  -2.368  -1.008  0.00  0.00    -0.166 F 
ENDBRANCH   4  17
TORSDOF 4
