REMARK  3 active torsions:
REMARK  status: ('A' for Active; 'I' for Inactive)
REMARK    1  A    between atoms: C_2  and  C_1 
REMARK       I    between atoms: N_5  and  C_2 
REMARK    2  A    between atoms: C_16  and  C_3 
REMARK    3  A    between atoms: C_6  and  N_5 
ROOT
ATOM      1  C   UNL d   1       1.026   0.005  -0.137  0.00  0.00     0.113 C 
ATOM      2  C   UNL d   1       0.296   0.761   0.706  0.00  0.00     0.039 C 
ATOM      3  C   UNL d   1       0.432  -0.841  -1.108  0.00  0.00     0.105 C 
ATOM      4  N   UNL d   1      -0.005  -1.544  -1.923  0.00  0.00    -0.191 NA
ENDROOT
BRANCH   1   5
ATOM      5  C   UNL d   1       2.522   0.085   0.006  0.00  0.00     0.266 C 
ATOM      6  N   UNL d   1       3.250  -0.864  -0.698  0.00  0.00    -0.322 N 
ATOM      7  H   UNL d   1       2.746  -1.555  -1.246  0.00  0.00     0.169 HD
ATOM      8  O   UNL d   1       3.012   0.947   0.728  0.00  0.00    -0.267 OA
BRANCH   6   9
ATOM      9  C   UNL d   1       4.664  -0.960  -0.777  0.00  0.00     0.038 A 
ATOM     10  C   UNL d   1       5.548  -0.108  -0.109  0.00  0.00     0.053 A 
ATOM     11  C   UNL d   1       6.929  -0.233  -0.295  0.00  0.00     0.037 A 
ATOM     12 CL   UNL d   1       7.999   0.845   0.516  0.00  0.00    -0.084 Cl
ATOM     13  C   UNL d   1       7.450  -1.209  -1.138  0.00  0.00     0.048 A 
ATOM     14  C   UNL d   1       6.575  -2.074  -1.782  0.00  0.00     0.037 A 
ATOM     15  C   UNL d   1       5.193  -1.960  -1.604  0.00  0.00     0.053 A 
ATOM     16 CL   UNL d   1       7.202  -3.290  -2.826  0.00  0.00    -0.084 Cl
ENDBRANCH   6   9
ENDBRANCH   1   5
BRANCH   2  17
ATOM     17  C   UNL d   1      -1.166   0.755   0.806  0.00  0.00    -0.035 A 
ATOM     18  C   UNL d   1      -1.749   0.129   1.913  0.00  0.00     0.013 A 
ATOM     19  C   UNL d   1      -3.138   0.098   2.058  0.00  0.00     0.023 A 
ATOM     20  C   UNL d   1      -3.954   0.699   1.096  0.00  0.00     0.044 A 
ATOM     21  C   UNL d   1      -5.379   0.674   1.251  0.00  0.00     0.099 C 
ATOM     22  C   UNL d   1      -3.374   1.329  -0.011  0.00  0.00     0.023 A 
ATOM     23  N   UNL d   1      -6.531   0.653   1.387  0.00  0.00    -0.191 NA
ATOM     24  C   UNL d   1      -1.982   1.358  -0.157  0.00  0.00     0.013 A 
ENDBRANCH   2  17
TORSDOF 3
