REMARK  7 active torsions:
REMARK  status: ('A' for Active; 'I' for Inactive)
REMARK    1  A    between atoms: O_6  and  C_1 
REMARK    2  A    between atoms: C_10  and  C_1 
REMARK    3  A    between atoms: C_2  and  O_6 
REMARK    4  A    between atoms: C_3  and  C_11 
REMARK    5  A    between atoms: C_18  and  N_7 
REMARK    6  A    between atoms: O_28  and  C_9 
REMARK    7  A    between atoms: C_14  and  C_23 
ROOT
ATOM      1  C   UNL d   1      -1.018   1.069  -0.580  0.00  0.00     0.112 A 
ATOM      2  C   UNL d   1      -1.729   1.239   0.615  0.00  0.00     0.102 A 
ATOM      3  C   UNL d   1      -3.122   1.344   0.557  0.00  0.00     0.052 A 
ATOM      4  C   UNL d   1      -1.674   1.034  -1.816  0.00  0.00     0.041 A 
ATOM      5  C   UNL d   1      -3.787   1.281  -0.675  0.00  0.00    -0.018 A 
ATOM      6  C   UNL d   1      -3.066   1.135  -1.863  0.00  0.00     0.016 A 
ENDROOT
BRANCH   5   7
ATOM      7  C   UNL d   1      -5.264   1.353  -0.727  0.00  0.00     0.100 C 
ATOM      8  N   UNL d   1      -5.979   1.292   0.352  0.00  0.00    -0.365 N 
ATOM      9  HN  UNL d   1      -5.523   1.227   1.262  1.00  0.00     0.165 HD
BRANCH   8  10
ATOM     10  C   UNL d   1      -7.380   1.315   0.270  0.00  0.00     0.033 A 
ATOM     11  C   UNL d   1      -8.105   0.602  -0.695  0.00  0.00     0.056 A 
ATOM     12  C   UNL d   1      -9.502   0.616  -0.679  0.00  0.00     0.074 A 
ATOM     13 CL   UNL d   1     -10.366  -0.254  -1.889  0.00  0.00    -0.081 Cl
ATOM     14  C   UNL d   1     -10.181   1.319   0.312  0.00  0.00     0.138 A 
ATOM     15  C   UNL d   1      -9.479   2.012   1.289  0.00  0.00     0.046 A 
ATOM     16  F   UNL d   1     -11.522   1.332   0.347  0.00  0.00    -0.204 F 
ATOM     17  C   UNL d   1      -8.082   2.006   1.265  0.00  0.00     0.032 A 
ENDBRANCH   8  10
ENDBRANCH   5   7
BRANCH   2  18
ATOM     18  O   UNL d   1      -1.002   1.330   1.774  0.00  0.00    -0.353 OA
ATOM     19  C   UNL d   1      -1.702   0.979   2.965  0.00  0.00     0.210 C 
ENDBRANCH   2  18
BRANCH   1  20
ATOM     20  O   UNL d   1       0.387   0.986  -0.612  0.00  0.00    -0.273 OA
BRANCH  20  21
ATOM     21  C   UNL d   1       0.925  -0.134  -0.005  0.00  0.00     0.288 C 
ATOM     22  O   UNL d   1       0.329  -1.024   0.588  0.00  0.00    -0.260 OA
BRANCH  21  23
ATOM     23  C   UNL d   1       2.389  -0.231  -0.233  0.00  0.00     0.084 C 
ATOM     24  C   UNL d   1       3.124   0.604  -0.982  0.00  0.00     0.025 C 
BRANCH  24  25
ATOM     25  C   UNL d   1       4.501   0.345  -1.270  0.00  0.00     0.005 A 
ATOM     26  S   UNL d   1       5.414   1.540  -2.122  0.00  0.00    -0.102 SA
ATOM     27  C   UNL d   1       6.811   0.557  -2.175  0.00  0.00     0.050 A 
ATOM     28  C   UNL d   1       6.615  -0.649  -1.549  0.00  0.00     0.008 A 
ATOM     29  C   UNL d   1       5.295  -0.765  -1.020  0.00  0.00     0.019 A 
ENDBRANCH  24  25
ENDBRANCH  21  23
ENDBRANCH  20  21
ENDBRANCH   1  20
TORSDOF 7
