REMARK  1 active torsions:
REMARK  status: ('A' for Active; 'I' for Inactive)
REMARK    1  A    between atoms: C_11  and  C_6 
ROOT
ATOM      1  N   UNL d   1      -2.375   0.636  -0.015  0.00  0.00    -0.345 N 
ATOM      2  HN  UNL d   1      -3.103   1.350  -0.018  1.00  0.00     0.167 HD
ATOM      3  N   UNL d   1      -1.737  -1.658  -0.026  0.00  0.00    -0.345 N 
ATOM      4  C   UNL d   1      -1.002   0.977  -0.015  0.00  0.00     0.046 A 
ATOM      5  C   UNL d   1      -0.369  -1.353  -0.012  0.00  0.00     0.046 A 
ATOM      6  C   UNL d   1      -2.662  -0.635  -0.011  0.00  0.00     0.081 A 
ATOM      7  C   UNL d   1       0.007  -0.002  -0.011  0.00  0.00     0.028 A 
ATOM      8  C   UNL d   1       1.371   0.364  -0.003  0.00  0.00    -0.021 A 
ATOM      9  C   UNL d   1      -0.641   2.325  -0.009  0.00  0.00     0.030 A 
ATOM     10  C   UNL d   1       0.612  -2.347  -0.007  0.00  0.00     0.030 A 
ATOM     11  C   UNL d   1       0.703   2.702  -0.001  0.00  0.00     0.003 A 
ATOM     12  C   UNL d   1       1.963  -1.995   0.001  0.00  0.00     0.003 A 
ATOM     13  C   UNL d   1       2.342  -0.649   0.003  0.00  0.00     0.012 A 
ATOM     14  C   UNL d   1       1.704   1.728   0.001  0.00  0.00     0.012 A 
ATOM     15  H   UNL d   1      -2.023  -2.624  -0.006  0.00  0.00     0.167 HD
ENDROOT
BRANCH   6  16
ATOM     16  C   UNL d   1      -4.131  -1.021   0.007  0.00  0.00     0.072 C 
ATOM     17  C   UNL d   1      -4.678  -1.164  -1.402  0.00  0.00     0.013 C 
ENDBRANCH   6  16
TORSDOF 1
