REMARK  2 active torsions:
REMARK  status: ('A' for Active; 'I' for Inactive)
REMARK    1  A    between atoms: N_2  and  C_1 
REMARK    2  A    between atoms: C_4  and  C_1 
ROOT
ATOM      1  C   UNL d   1       0.970  -0.125   0.047  0.00  0.00     0.109 C 
ATOM      2  S   UNL d   1       0.500   0.764   1.398  0.00  0.00    -0.060 SA
ENDROOT
BRANCH   1   3
ATOM      3  N   UNL d   1       0.434  -1.384  -0.250  0.00  0.00    -0.367 N 
ATOM      4  C   UNL d   1       0.336  -2.422   0.784  0.00  0.00     0.150 C 
ATOM      5  C   UNL d   1       0.229  -3.796   0.118  0.00  0.00     0.187 C 
ATOM      6  O   UNL d   1      -0.897  -3.850  -0.775  0.00  0.00    -0.388 OA
ATOM      7  C   UNL d   1      -0.780  -2.856  -1.807  0.00  0.00     0.187 C 
ATOM      8  C   UNL d   1      -0.663  -1.447  -1.218  0.00  0.00     0.150 C 
ENDBRANCH   1   3
BRANCH   1   9
ATOM      9  C   UNL d   1       2.041   0.316  -0.911  0.00  0.00     0.002 A 
ATOM     10  C   UNL d   1       2.308   1.669  -1.156  0.00  0.00     0.014 A 
ATOM     11  C   UNL d   1       3.355   2.038  -2.007  0.00  0.00     0.001 A 
ATOM     12  C   UNL d   1       4.141   1.064  -2.618  0.00  0.00     0.000 A 
ATOM     13  C   UNL d   1       3.882  -0.285  -2.388  0.00  0.00     0.001 A 
ATOM     14  C   UNL d   1       2.836  -0.657  -1.539  0.00  0.00     0.014 A 
ENDBRANCH   1   9
TORSDOF 2
