REMARK  9 active torsions:
REMARK  status: ('A' for Active; 'I' for Inactive)
REMARK    1  A    between atoms: C_6  and  S_1 
REMARK    2  A    between atoms: N_12  and  S_1 
REMARK    3  A    between atoms: C_4  and  C_2 
REMARK    4  A    between atoms: C_3  and  N_5 
REMARK    5  A    between atoms: N_7  and  C_27 
REMARK    6  A    between atoms: C_29  and  N_12 
REMARK    7  A    between atoms: C_27  and  C_30 
REMARK    8  A    between atoms: C_32  and  C_29 
REMARK    9  A    between atoms: C_30  and  C_32 
ROOT
ATOM      1  N   UNL d   1       8.968   4.928  -2.096  0.00  0.00    -0.363 N 
ATOM      2  N   UNL d   1       7.319   2.709  -3.052  0.00  0.00     0.091 N 
ATOM      3  C   UNL d   1       7.541   4.909  -1.755  0.00  0.00     0.154 C 
ATOM      4  C   UNL d   1       9.551   3.578  -2.090  0.00  0.00     0.154 C 
ATOM      5  C   UNL d   1       6.813   4.094  -2.857  0.00  0.00     0.292 C 
ATOM      6  C   UNL d   1       8.805   2.744  -3.169  0.00  0.00     0.292 C 
ENDROOT
BRANCH   2   7
ATOM      7  C   UNL d   1       6.873   1.799  -1.995  0.00  0.00     0.272 C 
BRANCH   7   8
ATOM      8  C   UNL d   1       5.351   1.554  -2.032  0.00  0.00     0.032 C 
BRANCH   8   9
ATOM      9  C   UNL d   1       4.813   1.058  -3.388  0.00  0.00     0.022 C 
BRANCH   9  10
ATOM     10  C   UNL d   1       5.495  -0.245  -3.785  0.00  0.00     0.132 C 
BRANCH  10  11
ATOM     11  N   UNL d   1       4.910  -0.823  -4.991  0.00  0.00    -0.315 N 
ATOM     12  H   UNL d   1       3.896  -0.815  -5.102  0.00  0.00     0.172 HD
BRANCH  11  13
ATOM     13  S   UNL d   1       5.577  -2.289  -5.508  0.00  0.00     0.258 S 
ATOM     14  O   UNL d   1       6.060  -3.009  -4.350  0.00  0.00    -0.201 OA
ATOM     15  O   UNL d   1       4.616  -2.868  -6.413  0.00  0.00    -0.201 OA
BRANCH  13  16
ATOM     16  C   UNL d   1       6.983  -1.767  -6.465  0.00  0.00     0.079 A 
ATOM     17  C   UNL d   1       8.227  -1.599  -5.841  0.00  0.00     0.027 A 
ATOM     18  C   UNL d   1       9.348  -1.272  -6.607  0.00  0.00     0.025 A 
ATOM     19  C   UNL d   1       9.223  -1.134  -7.991  0.00  0.00     0.034 A 
ATOM     20  C   UNL d   1       7.987  -1.310  -8.615  0.00  0.00     0.025 A 
ATOM     21 CL   UNL d   1      10.611  -0.763  -8.938  0.00  0.00    -0.084 Cl
ATOM     22  C   UNL d   1       6.862  -1.630  -7.851  0.00  0.00     0.027 A 
ENDBRANCH  13  16
ENDBRANCH  11  13
ENDBRANCH  10  11
ENDBRANCH   9  10
ENDBRANCH   8   9
ENDBRANCH   7   8
ENDBRANCH   2   7
BRANCH   1  23
ATOM     23  C   UNL d   1       9.759   6.000  -1.752  0.00  0.00     0.118 A 
ATOM     24  C   UNL d   1       9.552   7.284  -2.262  0.00  0.00     0.091 A 
ATOM     25  C   UNL d   1      10.455   8.307  -1.903  0.00  0.00     0.021 A 
ATOM     26  C   UNL d   1      11.540   8.037  -1.089  0.00  0.00     0.018 A 
ATOM     27  C   UNL d   1      11.684   6.743  -0.646  0.00  0.00     0.089 A 
ATOM     28  N   UNL d   1      10.829   5.742  -0.958  0.00  0.00    -0.352 N 
ATOM     29  HN  UNL d   1      10.988   4.800  -0.599  1.00  0.00     0.166 HD
BRANCH  24  30
ATOM     30  C   UNL d   1       8.464   7.674  -3.221  0.00  0.00     0.421 C 
ATOM     31  F   UNL d   1       7.739   6.678  -3.791  0.00  0.00    -0.166 F 
ATOM     32  F   UNL d   1       7.544   8.492  -2.627  0.00  0.00    -0.166 F 
ATOM     33  F   UNL d   1       8.946   8.394  -4.278  0.00  0.00    -0.166 F 
ENDBRANCH  24  30
ENDBRANCH   1  23
TORSDOF 9
