REMARK  2 active torsions:
REMARK  status: ('A' for Active; 'I' for Inactive)
REMARK    1  A    between atoms: C_2  and  N_1 
REMARK    2  A    between atoms: N_5  and  C_3 
ROOT
ATOM      1  C   UNL d   1       0.611  -0.029  -1.606  0.00  0.00     0.104 A 
ATOM      2  C   UNL d   1      -1.169   0.171  -3.814  0.00  0.00     0.052 A 
ATOM      3  C   UNL d   1      -1.063   1.202  -2.843  0.00  0.00     0.062 A 
ATOM      4  C   UNL d   1      -0.176   1.112  -1.762  0.00  0.00     0.062 A 
ATOM      5  C   UNL d   1      -0.347  -0.957  -3.619  0.00  0.00     0.033 A 
ATOM      6  C   UNL d   1       0.529  -1.069  -2.531  0.00  0.00     0.038 A 
ATOM      7 CL   UNL d   1      -2.100   2.595  -2.826  0.00  0.00    -0.082 Cl
ENDROOT
BRANCH   2   8
ATOM      8  N   UNL d   1      -2.064   0.206  -4.875  0.00  0.00    -0.380 N 
ATOM      9  C   UNL d   1      -2.668  -1.014  -5.418  0.00  0.00     0.123 C 
ATOM     10  C   UNL d   1      -4.147  -0.737  -5.697  0.00  0.00     0.020 C 
ATOM     11  C   UNL d   1      -4.349   0.502  -6.570  0.00  0.00     0.003 C 
ATOM     12  C   UNL d   1      -3.578   1.708  -6.029  0.00  0.00     0.020 C 
ATOM     13  C   UNL d   1      -2.110   1.354  -5.787  0.00  0.00     0.123 C 
ENDBRANCH   2   8
BRANCH   1  14
ATOM     14  N   UNL d   1       1.509  -0.143  -0.453  0.00  0.00    -0.116 N 
ATOM     15  O   UNL d   1       1.610   0.839   0.299  0.00  0.00    -0.532 OA
ATOM     16  O   UNL d   1       2.113  -1.211  -0.298  0.00  0.00    -0.532 OA
ENDBRANCH   1  14
TORSDOF 2
