REMARK  7 active torsions:
REMARK  status: ('A' for Active; 'I' for Inactive)
REMARK    1  A    between atoms: C_2  and  C_1 
REMARK    2  A    between atoms: N_3  and  C_1 
REMARK    3  A    between atoms: C_4  and  C_1 
REMARK    4  A    between atoms: N_5  and  C_1 
REMARK       I    between atoms: C_6  and  N_3 
REMARK    5  A    between atoms: O_12  and  C_4 
REMARK    6  A    between atoms: C_13  and  N_5 
REMARK    7  A    between atoms: C_15  and  O_12 
ROOT
ATOM      1  C   UNL d   1       0.835  -0.155  -0.063  0.00  0.00     0.416 C 
ENDROOT
BRANCH   1   2
ATOM      2  C   UNL d   1       0.083   0.520  -1.292  0.00  0.00     0.453 C 
ATOM      3  F   UNL d   1      -0.883  -0.275  -1.821  0.00  0.00    -0.166 F 
ATOM      4  F   UNL d   1      -0.561   1.669  -0.964  0.00  0.00    -0.166 F 
ATOM      5  F   UNL d   1       0.940   0.837  -2.293  0.00  0.00    -0.166 F 
ENDBRANCH   1   2
BRANCH   1   6
ATOM      6  N   UNL d   1       0.295  -1.475   0.287  0.00  0.00    -0.311 N 
ATOM      7  C   UNL d   1       0.284  -2.528  -0.600  0.00  0.00     0.216 C 
ATOM      8  O   UNL d   1       0.620  -2.444  -1.774  0.00  0.00    -0.274 OA
ATOM      9  C   UNL d   1      -0.108  -3.840   0.024  0.00  0.00     0.117 C 
ATOM     10  H   UNL d   1       0.022  -1.617   1.250  0.00  0.00     0.165 HD
ENDBRANCH   1   6
BRANCH   1  11
ATOM     11  C   UNL d   1       0.629   0.865   1.099  0.00  0.00     0.329 C 
ATOM     12  O   UNL d   1       0.979   2.038   1.070  0.00  0.00    -0.260 OA
BRANCH  11  13
ATOM     13  O   UNL d   1       0.132   0.240   2.208  0.00  0.00    -0.318 OA
BRANCH  13  14
ATOM     14  C   UNL d   1      -0.010   1.048   3.392  0.00  0.00     0.174 C 
ATOM     15  C   UNL d   1      -1.479   1.356   3.575  0.00  0.00     0.034 C 
ENDBRANCH  13  14
ENDBRANCH  11  13
ENDBRANCH   1  11
BRANCH   1  16
ATOM     16  N   UNL d   1       2.322  -0.338  -0.220  0.00  0.00     0.136 N 
ATOM     17  H   UNL d   1       2.681   0.548  -0.590  0.00  0.00     0.320 HD
BRANCH  16  18
ATOM     18  C   UNL d   1       3.113  -0.748   0.947  0.00  0.00     0.216 C 
ATOM     19  C   UNL d   1       2.973  -2.232   1.300  0.00  0.00     0.042 C 
ATOM     20  C   UNL d   1       4.589  -0.479   0.624  0.00  0.00     0.042 C 
ENDBRANCH  16  18
ENDBRANCH   1  16
TORSDOF 7
