REMARK  3 active torsions:
REMARK  status: ('A' for Active; 'I' for Inactive)
REMARK    1  A    between atoms: N_2  and  C_1 
REMARK    2  A    between atoms: N_4  and  C_1 
REMARK    3  A    between atoms: C_3  and  N_2 
ROOT
ATOM      1  N   UNL d   1       0.508   0.744  -0.771  0.00  0.00    -0.328 N 
ATOM      2  H   UNL d   1      -0.207   1.378  -0.430  0.00  0.00     0.168 HD
ENDROOT
BRANCH   1   3
ATOM      3  C   UNL d   1       1.128   0.023   0.242  0.00  0.00     0.174 C 
ATOM      4  S   UNL d   1       2.784   0.132   0.547  0.00  0.00    -0.041 SA
BRANCH   3   5
ATOM      5  N   UNL d   1       0.225  -0.693   1.041  0.00  0.00    -0.354 N 
ATOM      6  C   UNL d   1       0.647  -1.558   2.162  0.00  0.00     0.151 C 
ATOM      7  C   UNL d   1       0.454  -3.032   1.784  0.00  0.00     0.187 C 
ATOM      8  O   UNL d   1      -0.921  -3.289   1.450  0.00  0.00    -0.388 OA
ATOM      9  C   UNL d   1      -1.333  -2.481   0.335  0.00  0.00     0.187 C 
ATOM     10  C   UNL d   1      -1.164  -0.984   0.635  0.00  0.00     0.151 C 
ENDBRANCH   3   5
ENDBRANCH   1   3
BRANCH   1  11
ATOM     11  C   UNL d   1       1.076   1.089  -2.021  0.00  0.00     0.112 A 
ATOM     12  C   UNL d   1       1.925   0.237  -2.737  0.00  0.00     0.149 A 
ATOM     13  C   UNL d   1       2.488   0.629  -3.946  0.00  0.00     0.087 A 
ATOM     14  F   UNL d   1       2.163  -1.012  -2.310  0.00  0.00    -0.203 F 
ATOM     15  C   UNL d   1       2.172   1.879  -4.464  0.00  0.00     0.122 A 
ATOM     16  C   UNL d   1       1.282   2.722  -3.812  0.00  0.00     0.087 A 
ATOM     17  F   UNL d   1       2.719   2.267  -5.623  0.00  0.00    -0.206 F 
ATOM     18  C   UNL d   1       0.731   2.313  -2.602  0.00  0.00     0.149 A 
ATOM     19  F   UNL d   1      -0.132   3.127  -1.972  0.00  0.00    -0.203 F 
ENDBRANCH   1  11
TORSDOF 3
