REMARK  6 active torsions:
REMARK  status: ('A' for Active; 'I' for Inactive)
REMARK    1  A    between atoms: C_7  and  O_14 
REMARK    2  A    between atoms: C_8  and  O_13 
REMARK    3  A    between atoms: C_16  and  C_9 
REMARK    4  A    between atoms: C_15  and  C_10 
REMARK    5  A    between atoms: O_13  and  C_23 
REMARK    6  A    between atoms: O_14  and  C_24 
ROOT
ATOM      1  CA  UNL d   1      -1.237  -0.707  -0.300  0.00  0.00     0.104 A 
ATOM      2  CA  UNL d   1       1.043   0.987  -0.188  0.00  0.00     0.104 A 
ATOM      3  N   UNL d   1       1.178  -0.379  -0.235  0.00  0.00    -0.317 N 
ATOM      4  N   UNL d   1      -1.369   0.658  -0.333  0.00  0.00    -0.317 N 
ATOM      5  C   UNL d   1      -0.349   1.568  -0.278  0.00  0.00     0.273 A 
ATOM      6  C   UNL d   1       0.161  -1.292  -0.285  0.00  0.00     0.273 A 
ATOM      7  C   UNL d   1       2.149   1.741  -0.047  0.00  0.00     0.046 C 
ATOM      8  C   UNL d   1      -2.353  -1.458  -0.263  0.00  0.00     0.046 C 
ATOM      9  O   UNL d   1       0.424  -2.480  -0.310  0.00  0.00    -0.266 OA
ATOM     10  O   UNL d   1      -0.615   2.764  -0.304  0.00  0.00    -0.266 OA
ATOM     11  H   UNL d   1       2.099  -0.799  -0.200  0.00  0.00     0.169 HD
ATOM     12  H   UNL d   1      -2.289   1.079  -0.364  0.00  0.00     0.169 HD
ENDROOT
BRANCH   8  13
ATOM     13  C   UNL d   1      -2.392  -2.912  -0.140  0.00  0.00    -0.034 A 
ATOM     14  C   UNL d   1      -2.377  -3.502   1.128  0.00  0.00     0.014 A 
ATOM     15  C   UNL d   1      -2.344  -4.893   1.262  0.00  0.00     0.038 A 
ATOM     16  C   UNL d   1      -2.362  -5.702   0.127  0.00  0.00     0.078 A 
ATOM     17  C   UNL d   1      -2.358  -5.106  -1.139  0.00  0.00     0.038 A 
ATOM     18  C   UNL d   1      -2.380  -3.718  -1.277  0.00  0.00     0.014 A 
BRANCH  16  19
ATOM     19  O   UNL d   1      -2.355  -7.062   0.099  0.00  0.00    -0.255 OA
BRANCH  19  20
ATOM     20  C   UNL d   1      -2.815  -7.790   1.225  0.00  0.00     0.530 C 
ATOM     21  F   UNL d   1      -3.634  -7.085   2.034  0.00  0.00    -0.144 F 
ATOM     22  F   UNL d   1      -3.511  -8.861   0.777  0.00  0.00    -0.144 F 
ATOM     23  F   UNL d   1      -1.764  -8.242   1.941  0.00  0.00    -0.144 F 
ENDBRANCH  19  20
ENDBRANCH  16  19
ENDBRANCH   8  13
BRANCH   7  24
ATOM     24  C   UNL d   1       2.161   3.195   0.102  0.00  0.00    -0.034 A 
ATOM     25  C   UNL d   1       2.049   3.760   1.376  0.00  0.00     0.014 A 
ATOM     26  C   UNL d   1       1.965   5.148   1.528  0.00  0.00     0.038 A 
ATOM     27  C   UNL d   1       2.031   5.978   0.409  0.00  0.00     0.078 A 
ATOM     28  C   UNL d   1       2.129   5.403  -0.863  0.00  0.00     0.038 A 
ATOM     29  C   UNL d   1       2.202   4.020  -1.021  0.00  0.00     0.014 A 
BRANCH  27  30
ATOM     30  O   UNL d   1       1.979   7.338   0.400  0.00  0.00    -0.255 OA
BRANCH  30  31
ATOM     31  C   UNL d   1       2.306   8.061   1.574  0.00  0.00     0.530 C 
ATOM     32  F   UNL d   1       3.102   7.383   2.427  0.00  0.00    -0.144 F 
ATOM     33  F   UNL d   1       2.968   9.182   1.205  0.00  0.00    -0.144 F 
ATOM     34  F   UNL d   1       1.178   8.431   2.216  0.00  0.00    -0.144 F 
ENDBRANCH  30  31
ENDBRANCH  27  30
ENDBRANCH   7  24
TORSDOF 6
