REMARK  5 active torsions:
REMARK  status: ('A' for Active; 'I' for Inactive)
REMARK    1  A    between atoms: C_4  and  C_1 
REMARK    2  A    between atoms: O_9  and  N_2 
REMARK    3  A    between atoms: O_7  and  C_8 
REMARK    4  A    between atoms: C_10  and  O_7 
REMARK    5  A    between atoms: C_13  and  C_10 
ROOT
ATOM      1  C   UNL d   1       2.401  -0.008  -0.135  0.00  0.00    -0.012 A 
ATOM      2  C   UNL d   1       3.021  -1.168  -0.609  0.00  0.00     0.016 A 
ATOM      3  C   UNL d   1       3.202   1.104   0.161  0.00  0.00     0.016 A 
ATOM      4  C   UNL d   1       5.209  -0.137  -0.419  0.00  0.00     0.069 A 
ATOM      5  C   UNL d   1       4.592   1.041   0.006  0.00  0.00     0.037 A 
ATOM      6  C   UNL d   1       4.416  -1.239  -0.738  0.00  0.00     0.037 A 
ENDROOT
BRANCH   4   7
ATOM      7  O   UNL d   1       6.570  -0.083  -0.540  0.00  0.00    -0.347 OA
BRANCH   7   8
ATOM      8  C   UNL d   1       7.249  -1.324  -0.346  0.00  0.00     0.214 C 
BRANCH   8   9
ATOM      9  C   UNL d   1       8.739  -1.124  -0.510  0.00  0.00    -0.034 A 
ATOM     10  C   UNL d   1       9.623  -1.384   0.545  0.00  0.00     0.009 A 
ATOM     11  C   UNL d   1      11.002  -1.271   0.358  0.00  0.00     0.001 A 
ATOM     12  C   UNL d   1      11.512  -0.893  -0.883  0.00  0.00     0.000 A 
ATOM     13  C   UNL d   1      10.643  -0.620  -1.936  0.00  0.00     0.001 A 
ATOM     14  C   UNL d   1       9.263  -0.730  -1.750  0.00  0.00     0.009 A 
ENDBRANCH   8   9
ENDBRANCH   7   8
ENDBRANCH   4   7
BRANCH   1  15
ATOM     15  C   UNL d   1       0.910   0.076  -0.004  0.00  0.00     0.038 C 
ATOM     16  N   UNL d   1       0.084  -0.875   0.333  0.00  0.00    -0.273 N 
ATOM     17  HN  UNL d   1      -0.929  -0.752   0.339  1.00  0.00     0.193 HD
ATOM     18  C   UNL d   1       0.271   1.419  -0.302  0.00  0.00     0.071 C 
BRANCH  16  19
ATOM     19  O   UNL d   1       0.704  -2.072   0.685  0.00  0.00    -0.290 OA
ATOM     20  H   UNL d   1      -0.058  -2.658   0.852  0.00  0.00     0.244 HD
ENDBRANCH  16  19
ENDBRANCH   1  15
TORSDOF 5
