REMARK  5 active torsions:
REMARK  status: ('A' for Active; 'I' for Inactive)
REMARK    1  A    between atoms: N_2  and  C_1 
REMARK    2  A    between atoms: N_3  and  C_1 
REMARK    3  A    between atoms: C_5  and  N_2 
REMARK    4  A    between atoms: C_6  and  N_3 
REMARK    5  A    between atoms: C_8  and  C_5 
ROOT
ATOM      1  C   UNL d   1       0.785   0.320  -0.376  0.00  0.00     0.174 C 
ATOM      2  S   UNL d   1       0.132   0.572   1.155  0.00  0.00    -0.041 SA
ENDROOT
BRANCH   1   3
ATOM      3  N   UNL d   1       0.113  -0.235  -1.462  0.00  0.00    -0.358 N 
ATOM      4  C   UNL d   1       0.817  -1.048  -2.455  0.00  0.00     0.152 C 
BRANCH   3   5
ATOM      5  C   UNL d   1      -1.336  -0.519  -1.411  0.00  0.00     0.163 C 
BRANCH   5   6
ATOM      6  C   UNL d   1      -2.249   0.669  -1.607  0.00  0.00    -0.040 A 
ATOM      7  C   UNL d   1      -2.074   1.565  -2.670  0.00  0.00     0.009 A 
ATOM      8  C   UNL d   1      -3.008   2.578  -2.906  0.00  0.00     0.001 A 
ATOM      9  C   UNL d   1      -4.131   2.702  -2.089  0.00  0.00     0.000 A 
ATOM     10  C   UNL d   1      -4.317   1.820  -1.028  0.00  0.00     0.001 A 
ATOM     11  C   UNL d   1      -3.383   0.810  -0.789  0.00  0.00     0.009 A 
ENDBRANCH   5   6
ENDBRANCH   3   5
ENDBRANCH   1   3
BRANCH   1  12
ATOM     12  N   UNL d   1       2.123   0.593  -0.477  0.00  0.00    -0.333 N 
ATOM     13  H   UNL d   1       2.582   0.619   0.427  0.00  0.00     0.168 HD
BRANCH  12  14
ATOM     14  C   UNL d   1       2.864   1.192  -1.516  0.00  0.00     0.034 A 
ATOM     15  C   UNL d   1       2.278   1.818  -2.618  0.00  0.00     0.031 A 
ATOM     16  C   UNL d   1       3.079   2.416  -3.598  0.00  0.00     0.026 A 
ATOM     17  C   UNL d   1       4.467   2.390  -3.473  0.00  0.00     0.034 A 
ATOM     18  C   UNL d   1       5.062   1.782  -2.372  0.00  0.00     0.026 A 
ATOM     19 CL   UNL d   1       5.448   3.119  -4.682  0.00  0.00    -0.084 Cl
ATOM     20  C   UNL d   1       4.261   1.196  -1.389  0.00  0.00     0.031 A 
ENDBRANCH  12  14
ENDBRANCH   1  12
TORSDOF 5
