REMARK  4 active torsions:
REMARK  status: ('A' for Active; 'I' for Inactive)
REMARK    1  A    between atoms: C_6  and  C_3 
REMARK    2  A    between atoms: C_7  and  C_6 
REMARK    3  A    between atoms: O_13  and  C_8 
REMARK    4  A    between atoms: O_14  and  C_11 
ROOT
ATOM      1  C   UNL d   1       1.244   3.128  -1.206  0.00  0.00     0.001 A 
ATOM      2  C   UNL d   1       2.027   2.617  -2.265  0.00  0.00     0.109 A 
ATOM      3  C   UNL d   1       3.215   3.263  -2.640  0.00  0.00     0.102 A 
ATOM      4  C   UNL d   1       1.648   4.297  -0.545  0.00  0.00     0.014 A 
ATOM      5  C   UNL d   1       2.822   4.943  -0.919  0.00  0.00     0.004 A 
ATOM      6  C   UNL d   1       3.598   4.425  -1.954  0.00  0.00     0.039 A 
ENDROOT
BRANCH   1   7
ATOM      7  C   UNL d   1       0.022   2.454  -0.751  0.00  0.00     0.039 C 
BRANCH   7   8
ATOM      8  C   UNL d   1      -0.041   1.621   0.298  0.00  0.00     0.076 A 
ATOM      9  C   UNL d   1       1.065   1.240   1.223  0.00  0.00     0.266 A 
ATOM     10  N   UNL d   1       0.576   0.463   2.259  0.00  0.00    -0.303 N 
ATOM     11  O   UNL d   1       2.237   1.557   1.079  0.00  0.00    -0.266 OA
ATOM     12  C   UNL d   1      -0.742   0.076   2.178  0.00  0.00     0.148 A 
ATOM     13  C   UNL d   1       1.505   0.084   3.311  0.00  0.00     0.161 C 
ATOM     14  S   UNL d   1      -1.495   0.827   0.774  0.00  0.00    -0.055 SA
ATOM     15  S   UNL d   1      -1.585  -0.940   3.196  0.00  0.00    -0.052 SA
ENDBRANCH   7   8
ENDBRANCH   1   7
BRANCH   2  16
ATOM     16  O   UNL d   1       1.623   1.486  -2.930  0.00  0.00    -0.357 OA
ATOM     17  H   UNL d   1       0.849   1.108  -2.489  0.00  0.00     0.217 HD
ENDBRANCH   2  16
BRANCH   3  18
ATOM     18  O   UNL d   1       4.106   2.912  -3.619  0.00  0.00    -0.353 OA
ATOM     19  C   UNL d   1       3.881   1.707  -4.337  0.00  0.00     0.210 C 
ENDBRANCH   3  18
TORSDOF 4
