REMARK  7 active torsions:
REMARK  status: ('A' for Active; 'I' for Inactive)
REMARK    1  A    between atoms: C_6  and  N_1 
REMARK    2  A    between atoms: C_12  and  C_6 
REMARK    3  A    between atoms: N_11  and  C_18 
REMARK    4  A    between atoms: C_20  and  N_11 
REMARK    5  A    between atoms: O_17  and  C_12 
REMARK    6  A    between atoms: C_18  and  C_12 
REMARK    7  A    between atoms: C_14  and  C_20 
ROOT
ATOM      1  C   UNL d   1      -0.958  -3.516   0.157  0.00  0.00     0.164 C 
ENDROOT
BRANCH   1   2
ATOM      2  C   UNL d   1      -2.068  -2.456   0.109  0.00  0.00     0.162 C 
BRANCH   2   3
ATOM      3  N   UNL d   1      -1.546  -1.095   0.082  0.00  0.00    -0.354 N 
ATOM      4  C   UNL d   1      -1.190  -0.438  -1.069  0.00  0.00     0.092 A 
ATOM      5  C   UNL d   1      -0.779   0.829  -0.727  0.00  0.00     0.031 A 
ATOM      6  C   UNL d   1      -0.894   0.955   0.684  0.00  0.00    -0.008 A 
ATOM      7  C   UNL d   1      -1.380  -0.263   1.174  0.00  0.00     0.044 A 
ATOM      8  C   UNL d   1      -0.627   2.002   1.588  0.00  0.00     0.014 A 
ATOM      9  C   UNL d   1      -1.604  -0.465   2.546  0.00  0.00     0.030 A 
ATOM     10  C   UNL d   1      -1.323   0.586   3.426  0.00  0.00     0.002 A 
ATOM     11  C   UNL d   1      -0.843   1.805   2.956  0.00  0.00     0.001 A 
ENDBRANCH   2   3
ENDBRANCH   1   2
BRANCH   1  12
ATOM     12  O   UNL d   1      -0.237  -3.484   1.401  0.00  0.00    -0.392 OA
ATOM     13  H   UNL d   1      -0.859  -3.297   2.123  0.00  0.00     0.210 HD
ENDBRANCH   1  12
BRANCH   1  14
ATOM     14  C   UNL d   1      -1.540  -4.938  -0.019  0.00  0.00     0.303 C 
BRANCH  14  15
ATOM     15  N   UNL d   1      -0.436  -5.899   0.021  0.00  0.00     0.090 N 
ATOM     16  H   UNL d   1       0.108  -5.722   0.871  0.00  0.00     0.316 HD
BRANCH  15  17
ATOM     17  C   UNL d   1      -0.865  -7.291  -0.021  0.00  0.00     0.308 C 
BRANCH  17  18
ATOM     18  C   UNL d   1       0.311  -8.246   0.068  0.00  0.00    -0.029 A 
ATOM     19  C   UNL d   1       0.134  -9.525   0.619  0.00  0.00     0.034 A 
ATOM     20  C   UNL d   1       1.198 -10.434   0.682  0.00  0.00     0.056 A 
ATOM     21 CL   UNL d   1       0.888 -11.986   1.379  0.00  0.00    -0.083 Cl
ATOM     22  C   UNL d   1       2.456 -10.075   0.188  0.00  0.00     0.055 A 
ATOM     23  C   UNL d   1       2.642  -8.812  -0.374  0.00  0.00     0.026 A 
ATOM     24 CL   UNL d   1       3.813 -11.144   0.232  0.00  0.00    -0.083 Cl
ATOM     25  C   UNL d   1       1.576  -7.911  -0.443  0.00  0.00     0.011 A 
ENDBRANCH  17  18
ENDBRANCH  15  17
ENDBRANCH  14  15
ENDBRANCH   1  14
TORSDOF 7
