REMARK  5 active torsions:
REMARK  status: ('A' for Active; 'I' for Inactive)
REMARK    1  A    between atoms: C_2  and  S_1 
REMARK    2  A    between atoms: C_5  and  S_1 
REMARK    3  A    between atoms: N_3  and  C_6 
REMARK    4  A    between atoms: O_19  and  C_9 
REMARK    5  A    between atoms: O_20  and  C_17 
ROOT
ATOM      1  S   UNL d   1       1.029   0.261  -0.080  0.00  0.00     0.209 S 
ATOM      2  O   UNL d   1       2.369   0.601  -0.517  0.00  0.00    -0.217 OA
ATOM      3  O   UNL d   1      -0.082   0.268  -1.018  0.00  0.00    -0.217 OA
ENDROOT
BRANCH   1   4
ATOM      4  C   UNL d   1       0.589   1.394   1.206  0.00  0.00     0.100 A 
ATOM      5  C   UNL d   1       0.195   0.931   2.470  0.00  0.00     0.063 A 
ATOM      6  C   UNL d   1      -0.090   1.847   3.486  0.00  0.00     0.069 A 
ATOM      7  C   UNL d   1       0.017   3.218   3.234  0.00  0.00     0.039 A 
ATOM      8  C   UNL d   1       0.398   3.680   1.974  0.00  0.00     0.041 A 
ATOM      9  C   UNL d   1       0.669   2.772   0.951  0.00  0.00     0.090 A 
BRANCH   6  10
ATOM     10  O   UNL d   1      -0.462   1.552   4.768  0.00  0.00    -0.356 OA
ATOM     11  C   UNL d   1      -0.671   0.185   5.094  0.00  0.00     0.210 C 
ENDBRANCH   6  10
BRANCH   9  12
ATOM     12  O   UNL d   1       1.119   3.330  -0.214  0.00  0.00    -0.354 OA
ATOM     13  C   UNL d   1       0.209   3.204  -1.308  0.00  0.00     0.210 C 
ENDBRANCH   9  12
ENDBRANCH   1   4
BRANCH   1  14
ATOM     14  C   UNL d   1       1.145  -1.437   0.481  0.00  0.00     0.064 A 
ATOM     15  C   UNL d   1       0.088  -2.314   0.199  0.00  0.00     0.026 A 
ATOM     16  C   UNL d   1       0.287  -3.695   0.283  0.00  0.00     0.037 A 
ATOM     17  C   UNL d   1       1.547  -4.191   0.646  0.00  0.00     0.102 A 
ATOM     18  C   UNL d   1       2.588  -3.315   0.989  0.00  0.00     0.037 A 
ATOM     19  C   UNL d   1       2.387  -1.932   0.901  0.00  0.00     0.026 A 
BRANCH  17  20
ATOM     20  N   UNL d   1       1.800  -5.638   0.588  0.00  0.00    -0.116 N 
ATOM     21  O   UNL d   1       2.940  -6.034   0.866  0.00  0.00    -0.532 OA
ATOM     22  O   UNL d   1       0.861  -6.373   0.254  0.00  0.00    -0.532 OA
ENDBRANCH  17  20
ENDBRANCH   1  14
TORSDOF 5
