REMARK  11 active torsions:
REMARK  status: ('A' for Active; 'I' for Inactive)
REMARK    1  A    between atoms: N_3  and  C_2 
REMARK    2  A    between atoms: O_22  and  C_9 
REMARK    3  A    between atoms: C_10  and  C_17 
REMARK    4  A    between atoms: O_21  and  C_10 
REMARK    5  A    between atoms: O_23  and  C_11 
REMARK    6  A    between atoms: C_26  and  O_22 
REMARK    7  A    between atoms: C_27  and  O_23 
REMARK    8  A    between atoms: O_24  and  C_29 
REMARK    9  A    between atoms: O_25  and  C_28 
REMARK   10  A    between atoms: C_28  and  C_26 
REMARK   11  A    between atoms: C_29  and  C_27 
ROOT
ATOM      1  C   UNL d   1       0.005   0.831   0.087  0.00  0.00     0.032 A 
ATOM      2  C   UNL d   1      -1.235   1.502   0.018  0.00  0.00     0.096 A 
ATOM      3  C   UNL d   1      -0.070  -0.539   0.296  0.00  0.00     0.049 A 
ATOM      4  C   UNL d   1       1.283   1.416  -0.089  0.00  0.00     0.056 C 
ATOM      5  N   UNL d   1      -2.405   0.844   0.142  0.00  0.00    -0.342 N 
ATOM      6  HN  UNL d   1      -3.300   1.328   0.071  1.00  0.00     0.167 HD
ATOM      7  C   UNL d   1       1.105  -1.272   0.260  0.00  0.00     0.070 C 
ATOM      8  C   UNL d   1       2.466   0.664  -0.135  0.00  0.00     0.103 C 
ATOM      9  C   UNL d   1       2.370  -0.722  -0.061  0.00  0.00     0.104 C 
ATOM     10  N   UNL d   1      -1.220  -1.197   0.462  0.00  0.00    -0.351 N 
ATOM     11  HN  UNL d   1      -1.244  -2.198   0.653  1.00  0.00     0.166 HD
ATOM     12  C   UNL d   1      -2.336  -0.471   0.362  0.00  0.00     0.182 A 
ENDROOT
BRANCH   2  13
ATOM     13  N   UNL d   1      -1.270   2.868  -0.323  0.00  0.00    -0.269 NA
ATOM     14  C   UNL d   1      -2.523   3.287  -0.952  0.00  0.00     0.098 C 
ATOM     15  C   UNL d   1      -2.262   4.621  -1.654  0.00  0.00     0.030 C 
ATOM     16  C   UNL d   1      -1.675   5.676  -0.700  0.00  0.00     0.086 C 
ATOM     17  C   UNL d   1      -0.493   5.106   0.106  0.00  0.00     0.030 C 
ATOM     18  C   UNL d   1      -0.847   3.765   0.759  0.00  0.00     0.098 C 
BRANCH  16  19
ATOM     19  C   UNL d   1      -2.732   6.240   0.231  0.00  0.00     0.143 C 
ATOM     20  O   UNL d   1      -2.731   6.156   1.448  0.00  0.00    -0.650 OA
BRANCH  19  21
ATOM     21  O   UNL d   1      -3.712   6.909  -0.429  0.00  0.00    -0.776 OA
ATOM     22  H   UNL d   1      -3.594   6.961  -1.395  0.00  0.00     0.167 HD
ENDBRANCH  19  21
ENDBRANCH  16  19
ENDBRANCH   2  13
BRANCH   8  23
ATOM     23  O   UNL d   1       3.537   1.496  -0.259  0.00  0.00    -0.346 OA
BRANCH  23  24
ATOM     24  C   UNL d   1       4.855   1.030  -0.474  0.00  0.00     0.201 C 
BRANCH  24  25
ATOM     25  C   UNL d   1       5.114   0.938  -1.968  0.00  0.00     0.193 C 
BRANCH  25  26
ATOM     26  O   UNL d   1       6.513   0.800  -2.208  0.00  0.00    -0.394 OA
ATOM     27  C   UNL d   1       6.786   0.695  -3.598  0.00  0.00     0.201 C 
ENDBRANCH  25  26
ENDBRANCH  24  25
ENDBRANCH  23  24
ENDBRANCH   8  23
BRANCH   9  28
ATOM     28  O   UNL d   1       3.449  -1.543  -0.362  0.00  0.00    -0.346 OA
BRANCH  28  29
ATOM     29  C   UNL d   1       3.028  -2.871  -0.720  0.00  0.00     0.201 C 
BRANCH  29  30
ATOM     30  C   UNL d   1       4.032  -3.761  -1.441  0.00  0.00     0.193 C 
BRANCH  30  31
ATOM     31  O   UNL d   1       3.259  -4.910  -1.823  0.00  0.00    -0.394 OA
ATOM     32  C   UNL d   1       3.960  -5.866  -2.591  0.00  0.00     0.201 C 
ENDBRANCH  30  31
ENDBRANCH  29  30
ENDBRANCH  28  29
ENDBRANCH   9  28
TORSDOF 11
