REMARK  7 active torsions:
REMARK  status: ('A' for Active; 'I' for Inactive)
REMARK    1  A    between atoms: C_4  and  C_1 
REMARK    2  A    between atoms: N_6  and  C_2 
REMARK       I    between atoms: C_3  and  N_7 
REMARK       I    between atoms: N_9  and  C_3 
REMARK    3  A    between atoms: O_22  and  C_4 
REMARK    4  A    between atoms: C_5  and  O_11 
REMARK    5  A    between atoms: N_7  and  C_12 
REMARK    6  A    between atoms: C_19  and  N_9 
REMARK    7  A    between atoms: O_11  and  C_21 
ROOT
ATOM      1  C   UNL d   1      -0.465   3.500   0.997  0.00  0.00     0.325 C 
ATOM      2  N   UNL d   1      -0.903   2.487   0.153  0.00  0.00    -0.309 N 
ATOM      3  N   UNL d   1      -1.484   4.382   1.317  0.00  0.00    -0.309 N 
ATOM      4  O   UNL d   1       0.673   3.577   1.447  0.00  0.00    -0.247 OA
ATOM      5  H   UNL d   1      -1.876   2.490  -0.110  0.00  0.00     0.170 HD
ATOM      6  H   UNL d   1      -2.380   4.233   0.884  0.00  0.00     0.170 HD
ENDROOT
BRANCH   2   7
ATOM      7  C   UNL d   1      -0.166   1.320  -0.170  0.00  0.00     0.037 C 
ATOM      8  C   UNL d   1       1.187   1.157   0.105  0.00  0.00     0.049 C 
ATOM      9  C   UNL d   1       1.836  -0.082  -0.078  0.00  0.00     0.068 C 
ATOM     10  C   UNL d   1       1.129  -1.230  -0.509  0.00  0.00     0.046 C 
ATOM     11  C   UNL d   1      -0.199  -0.987  -0.921  0.00  0.00     0.032 C 
ATOM     12  C   UNL d   1      -0.834   0.259  -0.767  0.00  0.00     0.032 C 
BRANCH   9  13
ATOM     13  C   UNL d   1       3.315  -0.056   0.104  0.00  0.00     0.295 C 
ATOM     14  O   UNL d   1       4.122  -0.594  -0.642  0.00  0.00    -0.259 OA
BRANCH  13  15
ATOM     15  O   UNL d   1       3.609   0.633   1.232  0.00  0.00    -0.322 OA
ATOM     16  C   UNL d   1       4.998   0.818   1.523  0.00  0.00     0.213 C 
ENDBRANCH  13  15
ENDBRANCH   9  13
BRANCH  10  17
ATOM     17  N   UNL d   1       1.681  -2.518  -0.560  0.00  0.00    -0.376 N 
ATOM     18  C   UNL d   1       2.473  -2.977   0.615  0.00  0.00     0.149 C 
ATOM     19  C   UNL d   1       3.393  -4.127   0.181  0.00  0.00     0.187 C 
ATOM     20  O   UNL d   1       2.618  -5.238  -0.300  0.00  0.00    -0.388 OA
ATOM     21  C   UNL d   1       1.842  -4.833  -1.439  0.00  0.00     0.187 C 
ATOM     22  C   UNL d   1       0.905  -3.652  -1.121  0.00  0.00     0.149 C 
ENDBRANCH  10  17
ENDBRANCH   2   7
BRANCH   3  23
ATOM     23  C   UNL d   1      -1.412   5.437   2.262  0.00  0.00     0.036 A 
ATOM     24  C   UNL d   1      -0.250   5.804   2.948  0.00  0.00     0.032 A 
ATOM     25  C   UNL d   1      -0.257   6.837   3.900  0.00  0.00     0.039 A 
ATOM     26  C   UNL d   1      -1.425   7.543   4.156  0.00  0.00     0.078 A 
ATOM     27  C   UNL d   1      -2.594   7.169   3.486  0.00  0.00     0.039 A 
ATOM     28  C   UNL d   1      -2.590   6.133   2.544  0.00  0.00     0.032 A 
BRANCH  26  29
ATOM     29  O   UNL d   1      -1.578   8.594   5.007  0.00  0.00    -0.255 OA
BRANCH  29  30
ATOM     30  C   UNL d   1      -0.433   9.257   5.521  0.00  0.00     0.530 C 
ATOM     31  F   UNL d   1       0.602   9.281   4.655  0.00  0.00    -0.144 F 
ATOM     32  F   UNL d   1      -0.773  10.540   5.784  0.00  0.00    -0.144 F 
ATOM     33  F   UNL d   1      -0.040   8.681   6.676  0.00  0.00    -0.144 F 
ENDBRANCH  29  30
ENDBRANCH  26  29
ENDBRANCH   3  23
TORSDOF 7
