REMARK  7 active torsions:
REMARK  status: ('A' for Active; 'I' for Inactive)
REMARK    1  A    between atoms: C_7  and  C_1 
REMARK    2  A    between atoms: C_3  and  C_2 
REMARK    3  A    between atoms: N_14  and  C_6 
REMARK    4  A    between atoms: O_21  and  C_7 
REMARK       I    between atoms: C_8  and  N_12 
REMARK    5  A    between atoms: C_13  and  C_8 
REMARK    6  A    between atoms: N_12  and  N_14 
REMARK    7  A    between atoms: C_25  and  O_21 
ROOT
ATOM      1  C   UNL d   1      -0.059  -1.418   0.060  0.00  0.00     0.086 A 
ATOM      2  C   UNL d   1       1.129  -0.715   0.127  0.00  0.00     0.136 A 
ATOM      3  N   UNL d   1       1.128   0.650   0.311  0.00  0.00    -0.327 N 
ATOM      4  HN  UNL d   1       2.011   1.155   0.386  1.00  0.00     0.168 HD
ATOM      5  C   UNL d   1      -0.036   1.315   0.392  0.00  0.00     0.176 A 
ATOM      6  N   UNL d   1      -1.222   0.702   0.278  0.00  0.00    -0.340 N 
ATOM      7  HN  UNL d   1      -2.098   1.224   0.315  1.00  0.00     0.167 HD
ATOM      8  C   UNL d   1      -1.205  -0.642   0.113  0.00  0.00     0.110 A 
ENDROOT
BRANCH   5   9
ATOM      9  N   UNL d   1       0.029   2.693   0.663  0.00  0.00    -0.172 NA
ATOM     10  H   UNL d   1       0.951   3.039   0.385  0.00  0.00     0.156 HD
BRANCH   9  11
ATOM     11  N   UNL d   1      -1.030   3.459   0.126  0.00  0.00    -0.280 N 
ATOM     12  C   UNL d   1      -0.721   4.726  -0.352  0.00  0.00     0.266 C 
ATOM     13  O   UNL d   1       0.434   5.141  -0.398  0.00  0.00    -0.266 OA
ATOM     14  H   UNL d   1      -1.969   3.148   0.362  0.00  0.00     0.184 HD
BRANCH  12  15
ATOM     15  C   UNL d   1      -1.873   5.549  -0.851  0.00  0.00     0.039 A 
ATOM     16  C   UNL d   1      -1.935   6.956  -0.723  0.00  0.00    -0.046 A 
ATOM     17  C   UNL d   1      -0.914   7.797  -0.005  0.00  0.00     0.049 C 
ATOM     18  C   UNL d   1      -3.054   7.633  -1.245  0.00  0.00     0.007 A 
ATOM     19  C   UNL d   1      -4.069   6.957  -1.920  0.00  0.00     0.001 A 
ATOM     20  C   UNL d   1      -3.985   5.578  -2.079  0.00  0.00     0.001 A 
ATOM     21  C   UNL d   1      -2.900   4.881  -1.545  0.00  0.00     0.017 A 
ENDBRANCH  12  15
ENDBRANCH   9  11
ENDBRANCH   5   9
BRANCH   2  22
ATOM     22  C   UNL d   1       2.494  -1.353  -0.040  0.00  0.00     0.433 C 
ATOM     23  F   UNL d   1       2.509  -2.660  -0.413  0.00  0.00    -0.165 F 
ATOM     24  F   UNL d   1       3.229  -0.724  -1.007  0.00  0.00    -0.165 F 
ATOM     25  F   UNL d   1       3.247  -1.282   1.096  0.00  0.00    -0.165 F 
ENDBRANCH   2  22
BRANCH   1  26
ATOM     26  C   UNL d   1      -0.251  -2.869  -0.102  0.00  0.00     0.296 C 
ATOM     27  O   UNL d   1      -1.153  -3.325  -0.785  0.00  0.00    -0.259 OA
BRANCH  26  28
ATOM     28  O   UNL d   1       0.588  -3.569   0.686  0.00  0.00    -0.318 OA
BRANCH  28  29
ATOM     29  C   UNL d   1       0.436  -5.005   0.643  0.00  0.00     0.174 C 
ATOM     30  C   UNL d   1       0.985  -5.606  -0.644  0.00  0.00     0.034 C 
ENDBRANCH  28  29
ENDBRANCH  26  28
ENDBRANCH   1  26
TORSDOF 7
