REMARK  0 active torsions:
REMARK  status: ('A' for Active; 'I' for Inactive)
ROOT
ATOM      1  C   UNL d   1      -0.064   1.139   0.006  0.00  0.00     0.112 A 
ATOM      2  C   UNL d   1      -0.358  -0.214   0.004  0.00  0.00     0.075 A 
ATOM      3  N   UNL d   1       1.178   1.653   0.004  0.00  0.00    -0.349 N 
ATOM      4  HN  UNL d   1       1.368   2.655   0.004  1.00  0.00     0.166 HD
ATOM      5  N   UNL d   1       0.588  -1.166  -0.001  0.00  0.00    -0.352 N 
ATOM      6  HN  UNL d   1       0.370  -2.163  -0.007  1.00  0.00     0.166 HD
ATOM      7  C   UNL d   1      -1.348   1.880   0.004  0.00  0.00     0.211 A 
ATOM      8  C   UNL d   1      -1.785  -0.416   0.002  0.00  0.00     0.007 A 
ATOM      9  C   UNL d   1      -2.413   0.842   0.002  0.00  0.00     0.029 A 
ATOM     10  C   UNL d   1       2.153   0.713   0.002  0.00  0.00     0.060 A 
ATOM     11  C   UNL d   1       1.861  -0.688   0.002  0.00  0.00     0.060 A 
ATOM     12  C   UNL d   1       2.924  -1.585   0.000  0.00  0.00     0.039 A 
ATOM     13  C   UNL d   1       3.486   1.110   0.002  0.00  0.00     0.039 A 
ATOM     14  C   UNL d   1       4.276  -1.177  -0.000  0.00  0.00    -0.054 A 
ATOM     15  C   UNL d   1       4.561   0.195   0.000  0.00  0.00    -0.054 A 
ATOM     16  O   UNL d   1      -1.535   3.080   0.002  0.00  0.00    -0.285 OA
ATOM     17  C   UNL d   1      -2.547  -1.571  -0.000  0.00  0.00     0.015 A 
ATOM     18  C   UNL d   1      -3.788   0.992   0.002  0.00  0.00     0.016 A 
ATOM     19  C   UNL d   1       5.320  -2.262  -0.001  0.00  0.00     0.049 C 
ATOM     20  C   UNL d   1       5.953   0.771  -0.002  0.00  0.00     0.049 C 
ATOM     21  C   UNL d   1      -3.942  -1.443  -0.000  0.00  0.00     0.001 A 
ATOM     22  C   UNL d   1      -4.556  -0.175   0.000  0.00  0.00     0.001 A 
ENDROOT
TORSDOF 0
