REMARK  3 active torsions:
REMARK  status: ('A' for Active; 'I' for Inactive)
REMARK    1  A    between atoms: C_9  and  C_1 
REMARK    2  A    between atoms: C_10  and  N_6 
REMARK    3  A    between atoms: C_8  and  C_10 
ROOT
ATOM      1  C   UNL d   1      -0.120  -1.293   0.092  0.00  0.00     0.144 A 
ATOM      2  N   UNL d   1       1.106  -0.803   0.339  0.00  0.00    -0.268 N 
ATOM      3  HN  UNL d   1       1.953  -1.286   0.642  1.00  0.00     0.190 HD
ATOM      4  N   UNL d   1      -1.009  -0.317  -0.292  0.00  0.00    -0.266 N 
ATOM      5  HN  UNL d   1      -1.994  -0.448  -0.519  1.00  0.00     0.186 HD
ATOM      6  N   UNL d   1       0.907   0.504   0.076  0.00  0.00    -0.212 N 
ATOM      7  N   UNL d   1      -0.340   0.828  -0.310  0.00  0.00    -0.002 NA
ENDROOT
BRANCH   6   8
ATOM      8  C   UNL d   1       2.010   1.448  -0.018  0.00  0.00     0.209 C 
BRANCH   8   9
ATOM      9  C   UNL d   1       2.289   2.126   1.302  0.00  0.00     0.006 A 
ATOM     10  C   UNL d   1       3.200   1.583   2.228  0.00  0.00     0.043 A 
ATOM     11 CL   UNL d   1       4.107   0.147   1.898  0.00  0.00    -0.084 Cl
ATOM     12  C   UNL d   1       3.432   2.199   3.464  0.00  0.00     0.024 A 
ATOM     13  C   UNL d   1       2.760   3.368   3.805  0.00  0.00     0.003 A 
ATOM     14  C   UNL d   1       1.861   3.927   2.903  0.00  0.00     0.024 A 
ATOM     15  C   UNL d   1       1.627   3.314   1.666  0.00  0.00     0.043 A 
ATOM     16 CL   UNL d   1       0.509   4.106   0.611  0.00  0.00    -0.084 Cl
ENDBRANCH   8   9
ENDBRANCH   6   8
BRANCH   1  17
ATOM     17  C   UNL d   1      -0.466  -2.705   0.160  0.00  0.00     0.014 A 
ATOM     18  C   UNL d   1       0.485  -3.652   0.571  0.00  0.00     0.039 A 
ATOM     19  C   UNL d   1       0.161  -5.008   0.603  0.00  0.00     0.036 A 
ATOM     20 CL   UNL d   1       1.345  -6.155   1.098  0.00  0.00    -0.084 Cl
ATOM     21  C   UNL d   1      -1.108  -5.444   0.232  0.00  0.00     0.047 A 
ATOM     22  C   UNL d   1      -2.055  -4.508  -0.172  0.00  0.00     0.036 A 
ATOM     23  C   UNL d   1      -1.746  -3.147  -0.208  0.00  0.00     0.039 A 
ATOM     24 CL   UNL d   1      -3.625  -5.037  -0.640  0.00  0.00    -0.084 Cl
ENDBRANCH   1  17
TORSDOF 3
