REMARK  11 active torsions:
REMARK  status: ('A' for Active; 'I' for Inactive)
REMARK    1  A    between atoms: C_6  and  C_1 
REMARK    2  A    between atoms: N_9  and  C_3 
REMARK       I    between atoms: C_10  and  N_9 
REMARK    3  A    between atoms: C_18  and  C_10 
REMARK    4  A    between atoms: C_11  and  C_19 
REMARK    5  A    between atoms: O_17  and  C_11 
REMARK    6  A    between atoms: C_22  and  C_18 
REMARK    7  A    between atoms: C_19  and  C_21 
REMARK    8  A    between atoms: C_21  and  C_25 
REMARK    9  A    between atoms: C_23  and  C_22 
REMARK   10  A    between atoms: C_24  and  C_23 
REMARK   11  A    between atoms: C_25  and  C_24 
ROOT
ATOM      1  N   UNL d   1       1.630  -2.417  -1.212  0.00  0.00    -0.306 N 
ATOM      2  C   UNL d   1       1.611  -3.040   0.016  0.00  0.00     0.223 C 
ATOM      3  O   UNL d   1       1.499  -2.501   1.111  0.00  0.00    -0.273 OA
ATOM      4  H   UNL d   1       1.866  -2.944  -2.042  0.00  0.00     0.171 HD
ENDROOT
BRANCH   1   5
ATOM      5  C   UNL d   1       1.482  -1.068  -1.434  0.00  0.00     0.168 A 
ATOM      6  S   UNL d   1       0.963   0.019  -0.232  0.00  0.00    -0.029 SA
ATOM      7  C   UNL d   1       1.103   1.279  -1.391  0.00  0.00     0.177 A 
ATOM      8  N   UNL d   1       1.493   0.855  -2.580  0.00  0.00    -0.288 N 
ATOM      9  N   UNL d   1       1.691  -0.514  -2.606  0.00  0.00    -0.279 N 
ATOM     10  HN  UNL d   1       1.632   1.466  -3.385  1.00  0.00     0.187 HD
ATOM     11  HN  UNL d   1       1.967  -1.033  -3.440  1.00  0.00     0.189 HD
BRANCH   7  12
ATOM     12  C   UNL d   1       0.795   2.693  -1.022  0.00  0.00     0.440 C 
ATOM     13  F   UNL d   1       0.327   2.830   0.250  0.00  0.00    -0.164 F 
ATOM     14  F   UNL d   1       1.891   3.494  -1.110  0.00  0.00    -0.164 F 
ATOM     15  F   UNL d   1      -0.151   3.236  -1.832  0.00  0.00    -0.164 F 
ENDBRANCH   7  12
ENDBRANCH   1   5
BRANCH   2  16
ATOM     16  C   UNL d   1       1.825  -4.539  -0.074  0.00  0.00     0.103 C 
BRANCH  16  17
ATOM     17  C   UNL d   1       3.317  -4.852  -0.072  0.00  0.00     0.009 C 
BRANCH  17  18
ATOM     18  C   UNL d   1       3.591  -6.357  -0.073  0.00  0.00     0.000 C 
BRANCH  18  19
ATOM     19  C   UNL d   1       5.097  -6.625  -0.071  0.00  0.00     0.000 C 
BRANCH  19  20
ATOM     20  C   UNL d   1       5.420  -8.120  -0.083  0.00  0.00     0.000 C 
BRANCH  20  21
ATOM     21  C   UNL d   1       6.933  -8.338  -0.088  0.00  0.00     0.010 C 
BRANCH  21  22
ATOM     22  C   UNL d   1       7.307  -9.819  -0.104  0.00  0.00     0.111 C 
BRANCH  22  23
ATOM     23  C   UNL d   1       8.808 -10.001  -0.107  0.00  0.00     0.258 C 
ATOM     24  O   UNL d   1       9.632  -9.096  -0.101  0.00  0.00    -0.265 OA
BRANCH  23  25
ATOM     25  O   UNL d   1       9.111 -11.330  -0.120  0.00  0.00    -0.326 OA
ATOM     26  C   UNL d   1      10.515 -11.597  -0.124  0.00  0.00     0.213 C 
ENDBRANCH  23  25
ENDBRANCH  22  23
ENDBRANCH  21  22
ENDBRANCH  20  21
ENDBRANCH  19  20
ENDBRANCH  18  19
ENDBRANCH  17  18
ENDBRANCH  16  17
ENDBRANCH   2  16
TORSDOF 11
