REMARK  5 active torsions:
REMARK  status: ('A' for Active; 'I' for Inactive)
REMARK    1  A    between atoms: C_10  and  C_2 
REMARK    2  A    between atoms: C_4  and  C_7 
REMARK    3  A    between atoms: O_15  and  C_4 
REMARK    4  A    between atoms: O_12  and  N_5 
REMARK    5  A    between atoms: C_7  and  O_12 
ROOT
ATOM      1  N   UNL d   1      -3.734  -1.459  -0.139  0.00  0.00    -0.277 N 
ATOM      2  HN  UNL d   1      -3.876  -0.452  -0.223  1.00  0.00     0.193 HD
ATOM      3  C   UNL d   1      -2.592  -2.051   0.001  0.00  0.00     0.127 C 
ENDROOT
BRANCH   3   4
ATOM      4  C   UNL d   1      -1.314  -1.318   0.022  0.00  0.00     0.003 A 
ATOM      5  C   UNL d   1      -1.144  -0.041   0.576  0.00  0.00     0.047 A 
ATOM      6  C   UNL d   1       0.109   0.578   0.516  0.00  0.00     0.048 A 
ATOM      7 CL   UNL d   1      -2.395   0.812   1.407  0.00  0.00    -0.083 Cl
ATOM      8  C   UNL d   1       1.181  -0.073  -0.092  0.00  0.00     0.035 A 
ATOM      9  C   UNL d   1       1.020  -1.345  -0.635  0.00  0.00     0.025 A 
ATOM     10 CL   UNL d   1       2.717   0.698  -0.167  0.00  0.00    -0.084 Cl
ATOM     11  C   UNL d   1      -0.225  -1.972  -0.573  0.00  0.00     0.016 A 
ENDBRANCH   3   4
BRANCH   1  12
ATOM     12  O   UNL d   1      -4.744  -2.432  -0.155  0.00  0.00    -0.271 OA
BRANCH  12  13
ATOM     13  C   UNL d   1      -5.924  -1.843  -0.691  0.00  0.00     0.312 C 
BRANCH  13  14
ATOM     14  C   UNL d   1      -7.063  -2.841  -0.694  0.00  0.00     0.284 C 
ATOM     15  O   UNL d   1      -7.034  -3.973  -0.228  0.00  0.00    -0.263 OA
BRANCH  14  16
ATOM     16  O   UNL d   1      -8.149  -2.284  -1.311  0.00  0.00    -0.325 OA
ATOM     17  C   UNL d   1      -9.281  -3.152  -1.384  0.00  0.00     0.213 C 
ENDBRANCH  14  16
ENDBRANCH  13  14
ENDBRANCH  12  13
ENDBRANCH   1  12
TORSDOF 5
