REMARK  4 active torsions:
REMARK  status: ('A' for Active; 'I' for Inactive)
REMARK    1  A    between atoms: N_8  and  C_4 
REMARK    2  A    between atoms: C_12  and  N_8 
REMARK    3  A    between atoms: C_9  and  C_11 
REMARK    4  A    between atoms: C_11  and  C_12 
ROOT
ATOM      1  C   UNL d   1       1.685   1.153   0.132  0.00  0.00     0.109 A 
ATOM      2  C   UNL d   1       2.689   2.166   0.270  0.00  0.00     0.105 C 
ATOM      3  N   UNL d   1       3.486   3.004   0.361  0.00  0.00    -0.191 NA
ATOM      4  C   UNL d   1       0.311   1.476   0.068  0.00  0.00     0.052 A 
ATOM      5  C   UNL d   1       2.099  -0.182   0.057  0.00  0.00     0.139 A 
ATOM      6  F   UNL d   1       3.404  -0.493   0.105  0.00  0.00    -0.204 F 
ATOM      7  C   UNL d   1      -0.171  -0.931  -0.094  0.00  0.00     0.005 A 
ATOM      8  C   UNL d   1      -0.597   0.399  -0.011  0.00  0.00     0.031 A 
ATOM      9  C   UNL d   1       1.184  -1.222  -0.063  0.00  0.00     0.044 A 
ENDROOT
BRANCH   4  10
ATOM     10  N   UNL d   1      -0.133   2.808   0.211  0.00  0.00    -0.388 N 
ATOM     11  H   UNL d   1       0.492   3.483  -0.233  0.00  0.00     0.159 HD
BRANCH  10  12
ATOM     12  C   UNL d   1      -1.555   3.099  -0.010  0.00  0.00     0.126 C 
BRANCH  12  13
ATOM     13  C   UNL d   1      -1.860   4.596   0.046  0.00  0.00     0.076 C 
BRANCH  13  14
ATOM     14  C   UNL d   1      -3.353   4.801  -0.050  0.00  0.00     0.010 A 
ATOM     15  N   UNL d   1      -3.969   4.290  -1.145  0.00  0.00    -0.369 N 
ATOM     16  C   UNL d   1      -5.312   4.413  -1.224  0.00  0.00     0.088 A 
ATOM     17  HN  UNL d   1      -3.437   3.829  -1.884  1.00  0.00     0.165 HD
ATOM     18  C   UNL d   1      -6.084   5.032  -0.257  0.00  0.00     0.017 A 
ATOM     19  C   UNL d   1      -5.439   5.562   0.854  0.00  0.00     0.003 A 
ATOM     20  C   UNL d   1      -4.054   5.449   0.962  0.00  0.00     0.025 A 
ENDBRANCH  13  14
ENDBRANCH  12  13
ENDBRANCH  10  12
ENDBRANCH   4  10
TORSDOF 4
