REMARK  5 active torsions:
REMARK  status: ('A' for Active; 'I' for Inactive)
REMARK    1  A    between atoms: N_4  and  C_1 
REMARK    2  A    between atoms: N_5  and  C_2 
REMARK    3  A    between atoms: O_10  and  C_3 
REMARK    4  A    between atoms: C_6  and  C_7 
REMARK    5  A    between atoms: C_17  and  O_10 
ROOT
ATOM      1  C   UNL d   1       1.416  -0.004  -0.013  0.00  0.00     0.140 A 
ATOM      2  C   UNL d   1      -0.721  -1.050   0.002  0.00  0.00     0.140 A 
ATOM      3  C   UNL d   1       0.674  -1.190  -0.051  0.00  0.00     0.142 A 
ATOM      4  C   UNL d   1      -0.598   1.374   0.122  0.00  0.00     0.052 A 
ATOM      5  C   UNL d   1      -1.362   0.200   0.092  0.00  0.00     0.055 A 
ATOM      6  C   UNL d   1       0.799   1.264   0.049  0.00  0.00     0.055 A 
ENDROOT
BRANCH   3   7
ATOM      7  O   UNL d   1       1.167  -2.465   0.055  0.00  0.00    -0.306 OA
BRANCH   7   8
ATOM      8  C   UNL d   1       2.205  -2.928  -0.713  0.00  0.00     0.078 A 
ATOM      9  C   UNL d   1       2.581  -2.442  -1.964  0.00  0.00     0.062 A 
ATOM     10  C   UNL d   1       3.702  -2.983  -2.611  0.00  0.00     0.058 A 
ATOM     11 CL   UNL d   1       4.170  -2.280  -4.120  0.00  0.00    -0.082 Cl
ATOM     12  C   UNL d   1       4.409  -4.046  -2.034  0.00  0.00     0.056 A 
ATOM     13  C   UNL d   1       3.989  -4.572  -0.812  0.00  0.00     0.028 A 
ATOM     14 CL   UNL d   1       5.799  -4.753  -2.776  0.00  0.00    -0.083 Cl
ATOM     15  C   UNL d   1       2.891  -4.013  -0.157  0.00  0.00     0.039 A 
ENDBRANCH   7   8
ENDBRANCH   3   7
BRANCH   2  16
ATOM     16  N   UNL d   1      -1.565  -2.233  -0.008  0.00  0.00    -0.113 N 
ATOM     17  O   UNL d   1      -1.464  -2.989  -0.982  0.00  0.00    -0.532 OA
ATOM     18  O   UNL d   1      -2.353  -2.364   0.938  0.00  0.00    -0.532 OA
ENDBRANCH   2  16
BRANCH   1  19
ATOM     19  N   UNL d   1       2.864  -0.007   0.042  0.00  0.00    -0.113 N 
ATOM     20  O   UNL d   1       3.392  -0.560   1.011  0.00  0.00    -0.532 OA
ATOM     21  O   UNL d   1       3.452   0.586  -0.868  0.00  0.00    -0.532 OA
ENDBRANCH   1  19
BRANCH   4  22
ATOM     22  C   UNL d   1      -1.245   2.734   0.270  0.00  0.00     0.417 C 
ATOM     23  F   UNL d   1      -2.599   2.677   0.376  0.00  0.00    -0.166 F 
ATOM     24  F   UNL d   1      -0.804   3.387   1.378  0.00  0.00    -0.166 F 
ATOM     25  F   UNL d   1      -0.977   3.547  -0.784  0.00  0.00    -0.166 F 
ENDBRANCH   4  22
TORSDOF 5
