REMARK  9 active torsions:
REMARK  status: ('A' for Active; 'I' for Inactive)
REMARK    1  A    between atoms: C_4  and  C_1 
REMARK    2  A    between atoms: C_9  and  N_5 
REMARK    3  A    between atoms: C_7  and  O_16 
REMARK    4  A    between atoms: C_8  and  C_9 
REMARK    5  A    between atoms: N_24  and  C_8 
REMARK    6  A    between atoms: C_10  and  O_15 
REMARK       I    between atoms: N_14  and  C_10 
REMARK    7  A    between atoms: O_15  and  N_12 
REMARK    8  A    between atoms: C_25  and  N_14 
REMARK    9  A    between atoms: O_16  and  C_26 
ROOT
ATOM      1  C   UNL d   1       3.089   0.360   0.543  0.00  0.00     0.095 C 
ATOM      2  N   UNL d   1       3.056  -0.628  -0.295  0.00  0.00    -0.248 N 
ATOM      3  HN  UNL d   1       3.846  -0.925  -0.868  1.00  0.00     0.196 HD
ENDROOT
BRANCH   2   4
ATOM      4  O   UNL d   1       1.783  -1.239  -0.311  0.00  0.00    -0.180 OA
BRANCH   4   5
ATOM      5  C   UNL d   1       1.923  -2.595  -0.418  0.00  0.00     0.387 C 
ATOM      6  N   UNL d   1       1.135  -3.209  -1.363  0.00  0.00    -0.301 N 
ATOM      7  H   UNL d   1       1.193  -4.216  -1.283  0.00  0.00     0.171 HD
ATOM      8  O   UNL d   1       2.645  -3.271   0.314  0.00  0.00    -0.236 OA
BRANCH   6   9
ATOM      9  C   UNL d   1       0.498  -2.696  -2.511  0.00  0.00     0.037 A 
ATOM     10  C   UNL d   1       0.534  -1.362  -2.910  0.00  0.00     0.032 A 
ATOM     11  C   UNL d   1      -0.018  -0.975  -4.137  0.00  0.00     0.039 A 
ATOM     12  C   UNL d   1      -0.602  -1.909  -4.994  0.00  0.00     0.078 A 
ATOM     13  C   UNL d   1      -0.701  -3.232  -4.575  0.00  0.00     0.039 A 
ATOM     14  C   UNL d   1      -0.146  -3.621  -3.346  0.00  0.00     0.032 A 
BRANCH  12  15
ATOM     15  O   UNL d   1      -1.013  -1.395  -6.186  0.00  0.00    -0.255 OA
BRANCH  15  16
ATOM     16  C   UNL d   1      -1.220  -2.285  -7.270  0.00  0.00     0.530 C 
ATOM     17  F   UNL d   1      -0.319  -3.291  -7.297  0.00  0.00    -0.144 F 
ATOM     18  F   UNL d   1      -2.466  -2.801  -7.219  0.00  0.00    -0.144 F 
ATOM     19  F   UNL d   1      -1.095  -1.590  -8.423  0.00  0.00    -0.144 F 
ENDBRANCH  15  16
ENDBRANCH  12  15
ENDBRANCH   6   9
ENDBRANCH   4   5
ENDBRANCH   2   4
BRANCH   1  20
ATOM     20  C   UNL d   1       4.322   1.263   0.511  0.00  0.00     0.219 C 
BRANCH  20  21
ATOM     21  N   UNL d   1       3.964   2.574  -0.016  0.00  0.00    -0.296 N 
ATOM     22  N   UNL d   1       2.894   3.227   0.494  0.00  0.00    -0.294 N 
ATOM     23  C   UNL d   1       2.716   4.278  -0.333  0.00  0.00     0.133 A 
ATOM     24  HN  UNL d   1       2.345   2.980   1.318  1.00  0.00     0.187 HD
ATOM     25  C   UNL d   1       3.764   4.341  -1.290  0.00  0.00     0.054 A 
ATOM     26  C   UNL d   1       4.553   3.240  -1.050  0.00  0.00     0.113 A 
BRANCH  23  27
ATOM     27  C   UNL d   1       1.526   5.196  -0.235  0.00  0.00     0.433 C 
ATOM     28  F   UNL d   1       0.938   5.184   0.992  0.00  0.00    -0.165 F 
ATOM     29  F   UNL d   1       1.855   6.488  -0.499  0.00  0.00    -0.165 F 
ATOM     30  F   UNL d   1       0.561   4.851  -1.131  0.00  0.00    -0.165 F 
ENDBRANCH  23  27
ENDBRANCH  20  21
ENDBRANCH   1  20
BRANCH   1  31
ATOM     31  N   UNL d   1       2.078   0.682   1.427  0.00  0.00    -0.289 NA
ATOM     32  H   UNL d   1       1.998   1.691   1.586  0.00  0.00     0.125 HD
ATOM     33  H   UNL d   1       1.186   0.265   1.187  0.00  0.00     0.125 HD
ENDBRANCH   1  31
TORSDOF 9
