REMARK  3 active torsions:
REMARK  status: ('A' for Active; 'I' for Inactive)
REMARK    1  A    between atoms: C_10  and  N_2 
REMARK    2  A    between atoms: C_15  and  C_10 
REMARK    3  A    between atoms: N_11  and  C_15 
ROOT
ATOM      1  C   UNL d   1      -0.581   0.906   1.076  0.00  0.00     0.100 A 
ATOM      2  N   UNL d   1      -2.106  -0.537  -0.052  0.00  0.00    -0.263 N 
ATOM      3  C   UNL d   1      -1.815   0.168   1.127  0.00  0.00     0.271 A 
ATOM      4  C   UNL d   1       0.277   0.861   0.012  0.00  0.00     0.065 A 
ATOM      5  C   UNL d   1      -1.239  -0.624  -1.141  0.00  0.00     0.330 A 
ATOM      6  N   UNL d   1      -0.064   0.086  -1.072  0.00  0.00    -0.306 N 
ATOM      7  S   UNL d   1      -0.028   1.911   2.322  0.00  0.00    -0.094 SA
ATOM      8  C   UNL d   1       1.455   1.644   0.213  0.00  0.00    -0.027 A 
ATOM      9  C   UNL d   1       1.396   2.280   1.444  0.00  0.00     0.059 A 
ATOM     10  O   UNL d   1      -1.456  -1.307  -2.142  0.00  0.00    -0.246 OA
ATOM     11  O   UNL d   1      -2.546   0.134   2.116  0.00  0.00    -0.266 OA
ATOM     12  C   UNL d   1       2.602   1.785  -0.730  0.00  0.00     0.051 C 
ATOM     13  H   UNL d   1       0.559   0.008  -1.865  0.00  0.00     0.170 HD
ENDROOT
BRANCH   2  14
ATOM     14  C   UNL d   1      -3.336  -1.336  -0.070  0.00  0.00     0.167 C 
BRANCH  14  15
ATOM     15  C   UNL d   1      -4.620  -0.476   0.012  0.00  0.00     0.293 C 
BRANCH  15  16
ATOM     16  N   UNL d   1      -5.910  -1.207  -0.057  0.00  0.00     0.091 N 
ATOM     17  C   UNL d   1      -7.010  -0.215   0.071  0.00  0.00     0.282 C 
ATOM     18  C   UNL d   1      -8.420  -0.793  -0.098  0.00  0.00     0.104 C 
ATOM     19  S   UNL d   1      -8.806  -2.037   1.167  0.00  0.00    -0.166 SA
ATOM     20  C   UNL d   1      -7.322  -3.057   0.933  0.00  0.00     0.104 C 
ATOM     21  C   UNL d   1      -6.028  -2.232   1.004  0.00  0.00     0.282 C 
ENDBRANCH  15  16
ENDBRANCH  14  15
ENDBRANCH   2  14
TORSDOF 3
