REMARK  7 active torsions:
REMARK  status: ('A' for Active; 'I' for Inactive)
REMARK    1  A    between atoms: C_2  and  N_1 
REMARK    2  A    between atoms: C_3  and  C_4 
REMARK    3  A    between atoms: C_5  and  C_8 
REMARK    4  A    between atoms: C_10  and  N_20 
REMARK    5  A    between atoms: C_18  and  C_11 
REMARK    6  A    between atoms: N_13  and  C_18 
REMARK    7  A    between atoms: N_20  and  N_13 
ROOT
ATOM      1  C   UNL d   1       1.976   2.683   0.301  0.00  0.00     0.088 A 
ATOM      2  O   UNL d   1       3.029   3.193   1.008  0.00  0.00    -0.308 OA
ATOM      3  C   UNL d   1       2.268   2.697  -1.048  0.00  0.00     0.041 A 
ATOM      4  C   UNL d   1       3.992   3.542   0.104  0.00  0.00     0.093 A 
ATOM      5  C   UNL d   1       3.560   3.250  -1.174  0.00  0.00     0.041 A 
ENDROOT
BRANCH   1   6
ATOM      6  C   UNL d   1       0.849   2.180   1.075  0.00  0.00     0.031 A 
ATOM      7  C   UNL d   1       0.369   2.763   2.256  0.00  0.00     0.116 A 
ATOM      8  C   UNL d   1      -0.687   2.197   2.995  0.00  0.00     0.053 A 
ATOM      9  C   UNL d   1      -1.300   1.019   2.546  0.00  0.00     0.050 A 
ATOM     10  C   UNL d   1      -0.849   0.440   1.352  0.00  0.00     0.017 A 
ATOM     11  C   UNL d   1       0.207   1.011   0.631  0.00  0.00     0.017 A 
BRANCH   7  12
ATOM     12  N   UNL d   1       0.917   4.015   2.744  0.00  0.00    -0.115 N 
ATOM     13  O   UNL d   1       0.772   5.015   2.028  0.00  0.00    -0.532 OA
ATOM     14  O   UNL d   1       1.425   4.001   3.874  0.00  0.00    -0.532 OA
ENDBRANCH   7  12
BRANCH   9  15
ATOM     15  C   UNL d   1      -2.422   0.365   3.320  0.00  0.00     0.417 C 
ATOM     16  F   UNL d   1      -2.769   1.042   4.447  0.00  0.00    -0.166 F 
ATOM     17  F   UNL d   1      -3.559   0.250   2.582  0.00  0.00    -0.166 F 
ATOM     18  F   UNL d   1      -2.102  -0.896   3.720  0.00  0.00    -0.166 F 
ENDBRANCH   9  15
ENDBRANCH   1   6
BRANCH   4  19
ATOM     19  C   UNL d   1       5.227   4.102   0.573  0.00  0.00     0.144 C 
BRANCH  19  20
ATOM     20  N   UNL d   1       6.161   4.356  -0.288  0.00  0.00    -0.307 N 
ATOM     21  HN  UNL d   1       6.035   4.173  -1.284  1.00  0.00     0.186 HD
BRANCH  20  22
ATOM     22  N   UNL d   1       7.322   4.879   0.203  0.00  0.00    -0.277 N 
ATOM     23  H   UNL d   1       7.433   5.074   1.196  0.00  0.00     0.189 HD
BRANCH  22  24
ATOM     24  C   UNL d   1       8.365   5.149  -0.643  0.00  0.00     0.184 C 
ATOM     25  S   UNL d   1       9.803   5.783  -0.116  0.00  0.00    -0.040 SA
ATOM     26  N   UNL d   1       8.141   4.858  -1.947  0.00  0.00    -0.375 N 
ATOM     27  H   UNL d   1       7.224   4.499  -2.186  0.00  0.00     0.158 HD
ATOM     28  H   UNL d   1       8.832   5.034  -2.661  0.00  0.00     0.158 HD
ENDBRANCH  22  24
ENDBRANCH  20  22
ENDBRANCH  19  20
ENDBRANCH   4  19
TORSDOF 7
