REMARK  3 active torsions:
REMARK  status: ('A' for Active; 'I' for Inactive)
REMARK    1  A    between atoms: N_3  and  S_1 
REMARK    2  A    between atoms: C_8  and  S_1 
REMARK    3  A    between atoms: C_2  and  N_3 
ROOT
ATOM      1  S   UNL d   1       0.992   0.062   0.012  0.00  0.00     0.247 S 
ATOM      2  O   UNL d   1       0.235  -0.043  -1.215  0.00  0.00    -0.205 OA
ATOM      3  O   UNL d   1       2.436   0.162   0.028  0.00  0.00    -0.205 OA
ENDROOT
BRANCH   1   4
ATOM      4  N   UNL d   1       0.491  -1.254   1.004  0.00  0.00    -0.165 NA
ATOM      5  H   UNL d   1      -0.457  -1.458   0.673  0.00  0.00     0.147 HD
BRANCH   4   6
ATOM      6  C   UNL d   1       1.324  -2.413   0.792  0.00  0.00     0.111 A 
ATOM      7  N   UNL d   1       2.503  -2.747   1.407  0.00  0.00    -0.285 N 
ATOM      8  N   UNL d   1       3.019  -3.911   0.957  0.00  0.00    -0.309 N 
ATOM      9  C   UNL d   1       3.155  -2.069   2.500  0.00  0.00     0.179 C 
ATOM     10  C   UNL d   1       2.144  -4.309   0.031  0.00  0.00     0.110 A 
ATOM     11  HN  UNL d   1       3.876  -4.377   1.256  1.00  0.00     0.186 HD
ATOM     12  C   UNL d   1       1.054  -3.427  -0.097  0.00  0.00     0.063 A 
ENDBRANCH   4   6
ENDBRANCH   1   4
BRANCH   1  13
ATOM     13  C   UNL d   1       0.353   1.453   0.923  0.00  0.00     0.075 A 
ATOM     14  C   UNL d   1       1.190   2.131   1.817  0.00  0.00     0.028 A 
ATOM     15  C   UNL d   1       0.717   3.269   2.472  0.00  0.00     0.044 A 
ATOM     16  C   UNL d   1      -0.577   3.718   2.224  0.00  0.00     0.116 A 
ATOM     17  C   UNL d   1      -1.409   3.054   1.327  0.00  0.00     0.044 A 
ATOM     18  F   UNL d   1      -1.024   4.815   2.849  0.00  0.00    -0.206 F 
ATOM     19  C   UNL d   1      -0.944   1.917   0.663  0.00  0.00     0.028 A 
ENDBRANCH   1  13
TORSDOF 3
