REMARK  1 active torsions:
REMARK  status: ('A' for Active; 'I' for Inactive)
REMARK    1  A    between atoms: C_4  and  N_1 
ROOT
ATOM      1  N   UNL d   1       0.671   1.099  -0.569  0.00  0.00    -0.251 N 
ATOM      2  C   UNL d   1       1.410  -0.019  -0.213  0.00  0.00     0.232 C 
ATOM      3  C   UNL d   1      -0.615   1.287  -0.087  0.00  0.00     0.232 C 
ATOM      4  C   UNL d   1       0.648  -1.322  -0.171  0.00  0.00     0.113 C 
ATOM      5  C   UNL d   1      -1.469   0.040  -0.141  0.00  0.00     0.113 C 
ATOM      6  C   UNL d   1      -0.776  -1.221   0.380  0.00  0.00    -0.031 C 
ATOM      7  O   UNL d   1      -1.109   2.365   0.247  0.00  0.00    -0.273 OA
ATOM      8  O   UNL d   1       2.627  -0.007  -0.003  0.00  0.00    -0.273 OA
ATOM      9  C   UNL d   1      -1.565  -2.452  -0.108  0.00  0.00     0.016 C 
ATOM     10  C   UNL d   1      -0.762  -1.223   1.917  0.00  0.00     0.016 C 
ENDROOT
BRANCH   1  11
ATOM     11  C   UNL d   1       1.378   2.180  -1.172  0.00  0.00     0.067 A 
ATOM     12  C   UNL d   1       1.920   1.996  -2.466  0.00  0.00     0.063 A 
ATOM     13  C   UNL d   1       2.566   3.041  -3.124  0.00  0.00     0.050 A 
ATOM     14 CL   UNL d   1       1.688   0.527  -3.359  0.00  0.00    -0.082 Cl
ATOM     15  C   UNL d   1       2.687   4.274  -2.493  0.00  0.00     0.035 A 
ATOM     16  C   UNL d   1       2.163   4.473  -1.215  0.00  0.00     0.026 A 
ATOM     17 CL   UNL d   1       3.467   5.569  -3.312  0.00  0.00    -0.084 Cl
ATOM     18  C   UNL d   1       1.498   3.431  -0.559  0.00  0.00     0.034 A 
ENDBRANCH   1  11
TORSDOF 1
