REMARK  2 active torsions:
REMARK  status: ('A' for Active; 'I' for Inactive)
REMARK       I    between atoms: C_3  and  N_1 
REMARK    1  A    between atoms: C_4  and  C_2 
REMARK       I    between atoms: N_7  and  C_3 
REMARK    2  A    between atoms: C_9  and  N_7 
ROOT
ATOM      1  N   UNL d   1       0.846  -0.855  -0.279  0.00  0.00    -0.204 N 
ATOM      2  C   UNL d   1      -0.489  -1.187  -0.068  0.00  0.00     0.091 C 
ATOM      3  C   UNL d   1       2.006  -1.662  -0.142  0.00  0.00     0.346 C 
ATOM      4  N   UNL d   1       0.984   0.456  -0.680  0.00  0.00    -0.301 N 
ATOM      5  HN  UNL d   1       1.819   0.920  -1.037  1.00  0.00     0.186 HD
ATOM      6  N   UNL d   1       2.989  -1.205  -0.998  0.00  0.00    -0.307 N 
ATOM      7  C   UNL d   1      -1.181   0.009  -0.129  0.00  0.00     0.053 C 
ATOM      8  C   UNL d   1      -0.230   0.975  -0.494  0.00  0.00     0.110 C 
ATOM      9  O   UNL d   1       2.009  -2.616   0.624  0.00  0.00    -0.245 OA
ATOM     10  H   UNL d   1       2.714  -0.408  -1.571  0.00  0.00     0.170 HD
ENDROOT
BRANCH   2  11
ATOM     11  C   UNL d   1      -0.945  -2.570  -0.006  0.00  0.00     0.083 A 
ATOM     12  N   UNL d   1      -0.314  -3.345  -0.928  0.00  0.00    -0.361 N 
ATOM     13  C   UNL d   1      -0.644  -4.652  -0.944  0.00  0.00     0.105 A 
ATOM     14  HN  UNL d   1       0.374  -2.957  -1.574  1.00  0.00     0.165 HD
ATOM     15  C   UNL d   1      -1.613  -5.172  -0.114  0.00  0.00     0.105 A 
ATOM     16  N   UNL d   1      -2.290  -4.407   0.770  0.00  0.00    -0.366 N 
ATOM     17  C   UNL d   1      -1.941  -3.088   0.829  0.00  0.00     0.034 A 
ATOM     18  HN  UNL d   1      -3.025  -4.794   1.362  1.00  0.00     0.165 HD
ATOM     19  C   UNL d   1      -2.726  -2.280   1.811  0.00  0.00     0.070 C 
ENDBRANCH   2  11
BRANCH   6  20
ATOM     20  C   UNL d   1       4.218  -1.833  -1.268  0.00  0.00     0.039 A 
ATOM     21  C   UNL d   1       4.765  -2.830  -0.457  0.00  0.00     0.053 A 
ATOM     22  C   UNL d   1       5.985  -3.419  -0.799  0.00  0.00     0.037 A 
ATOM     23 CL   UNL d   1       6.666  -4.627   0.222  0.00  0.00    -0.084 Cl
ATOM     24  C   UNL d   1       6.661  -3.040  -1.955  0.00  0.00     0.048 A 
ATOM     25  C   UNL d   1       6.111  -2.052  -2.764  0.00  0.00     0.037 A 
ATOM     26  C   UNL d   1       4.905  -1.437  -2.421  0.00  0.00     0.053 A 
ATOM     27 CL   UNL d   1       6.920  -1.590  -4.212  0.00  0.00    -0.084 Cl
ENDBRANCH   6  20
TORSDOF 2
