REMARK  1 active torsions:
REMARK  status: ('A' for Active; 'I' for Inactive)
REMARK    1  A    between atoms: N_3  and  C_2 
ROOT
ATOM      1  C   UNL d   1       0.074   0.854   0.176  0.00  0.00     0.092 A 
ATOM      2  C   UNL d   1       1.305   1.537  -0.005  0.00  0.00     0.053 A 
ATOM      3  C   UNL d   1      -1.167   1.573   0.201  0.00  0.00     0.103 C 
ATOM      4  N   UNL d   1      -2.169   2.164   0.249  0.00  0.00    -0.191 NA
ATOM      5  C   UNL d   1       0.043  -0.552   0.255  0.00  0.00     0.057 A 
ATOM      6 CL   UNL d   1      -1.436  -1.437   0.436  0.00  0.00    -0.083 Cl
ATOM      7  C   UNL d   1       2.472   0.746  -0.060  0.00  0.00     0.031 A 
ATOM      8  C   UNL d   1       2.433  -0.648   0.007  0.00  0.00     0.004 A 
ATOM      9  C   UNL d   1       1.217  -1.299   0.155  0.00  0.00     0.025 A 
ENDROOT
BRANCH   2  10
ATOM     10  N   UNL d   1       1.375   2.909  -0.237  0.00  0.00    -0.376 N 
ATOM     11  C   UNL d   1       2.478   3.470  -1.044  0.00  0.00     0.149 C 
ATOM     12  C   UNL d   1       1.980   4.751  -1.732  0.00  0.00     0.187 C 
ATOM     13  O   UNL d   1       1.516   5.712  -0.770  0.00  0.00    -0.388 OA
ATOM     14  C   UNL d   1       0.434   5.163   0.007  0.00  0.00     0.187 C 
ATOM     15  C   UNL d   1       0.869   3.886   0.754  0.00  0.00     0.149 C 
ENDBRANCH   2  10
TORSDOF 1
