REMARK  4 active torsions:
REMARK  status: ('A' for Active; 'I' for Inactive)
REMARK    1  A    between atoms: O_7  and  C_1 
REMARK    2  A    between atoms: O_8  and  C_2 
REMARK    3  A    between atoms: C_13  and  O_7 
REMARK    4  A    between atoms: C_14  and  O_8 
ROOT
ATOM      1  C   UNL d   1       0.145   1.411  -0.009  0.00  0.00     0.159 A 
ATOM      2  C   UNL d   1      -0.143  -1.396  -0.003  0.00  0.00     0.159 A 
ATOM      3  C   UNL d   1      -1.118   0.818  -0.032  0.00  0.00     0.194 A 
ATOM      4  C   UNL d   1       1.119  -0.802  -0.031  0.00  0.00     0.194 A 
ATOM      5  C   UNL d   1      -1.264  -0.568  -0.055  0.00  0.00     0.194 A 
ATOM      6  C   UNL d   1       1.264   0.583  -0.061  0.00  0.00     0.194 A 
ATOM      7  F   UNL d   1       2.501   1.095  -0.153  0.00  0.00    -0.200 F 
ATOM      8  F   UNL d   1       2.218  -1.573  -0.041  0.00  0.00    -0.200 F 
ATOM      9  F   UNL d   1      -2.500  -1.081  -0.142  0.00  0.00    -0.200 F 
ATOM     10  F   UNL d   1      -2.217   1.588  -0.044  0.00  0.00    -0.200 F 
ENDROOT
BRANCH   1  11
ATOM     11  O   UNL d   1       0.164   2.783  -0.046  0.00  0.00    -0.304 OA
BRANCH  11  12
ATOM     12  C   UNL d   1       1.139   3.498   0.609  0.00  0.00     0.076 A 
ATOM     13  C   UNL d   1       1.411   4.758   0.071  0.00  0.00     0.038 A 
ATOM     14  C   UNL d   1       2.368   5.586   0.660  0.00  0.00     0.009 A 
ATOM     15  C   UNL d   1       3.065   5.162   1.796  0.00  0.00    -0.062 A 
ATOM     16  C   UNL d   1       2.769   3.911   2.349  0.00  0.00     0.009 A 
ATOM     17  C   UNL d   1       4.106   6.050   2.410  0.00  0.00     0.048 C 
ATOM     18  C   UNL d   1       1.792   3.092   1.773  0.00  0.00     0.038 A 
ENDBRANCH  11  12
ENDBRANCH   1  11
BRANCH   2  19
ATOM     19  O   UNL d   1      -0.164  -2.767  -0.037  0.00  0.00    -0.304 OA
BRANCH  19  20
ATOM     20  C   UNL d   1      -1.136  -3.482   0.622  0.00  0.00     0.076 A 
ATOM     21  C   UNL d   1      -1.412  -4.740   0.087  0.00  0.00     0.038 A 
ATOM     22  C   UNL d   1      -2.363  -5.569   0.682  0.00  0.00     0.009 A 
ATOM     23  C   UNL d   1      -3.052  -5.147   1.825  0.00  0.00    -0.062 A 
ATOM     24  C   UNL d   1      -2.754  -3.894   2.373  0.00  0.00     0.009 A 
ATOM     25  C   UNL d   1      -4.085  -6.037   2.449  0.00  0.00     0.048 C 
ATOM     26  C   UNL d   1      -1.782  -3.074   1.791  0.00  0.00     0.038 A 
ENDBRANCH  19  20
ENDBRANCH   2  19
TORSDOF 4
