REMARK  8 active torsions:
REMARK  status: ('A' for Active; 'I' for Inactive)
REMARK    1  A    between atoms: O_2  and  C_1 
REMARK    2  A    between atoms: C_7  and  C_1 
REMARK    3  A    between atoms: C_4  and  O_2 
REMARK    4  A    between atoms: C_3  and  S_9 
REMARK    5  A    between atoms: O_16  and  C_3 
REMARK    6  A    between atoms: S_9  and  C_17 
REMARK    7  A    between atoms: C_23  and  O_16 
REMARK    8  A    between atoms: C_17  and  C_18 
ROOT
ATOM      1  C   UNL d   1       0.307   0.095  -1.376  0.00  0.00     0.040 A 
ATOM      2  C   UNL d   1       0.742  -0.836  -2.329  0.00  0.00     0.018 A 
ATOM      3  C   UNL d   1      -0.786   0.919  -1.670  0.00  0.00     0.018 A 
ATOM      4  C   UNL d   1      -1.049  -0.163  -3.832  0.00  0.00    -0.048 A 
ATOM      5  C   UNL d   1      -1.461   0.785  -2.885  0.00  0.00     0.009 A 
ATOM      6  C   UNL d   1       0.072  -0.963  -3.550  0.00  0.00     0.009 A 
ENDROOT
BRANCH   1   7
ATOM      7  C   UNL d   1       0.958   0.088  -0.033  0.00  0.00     0.298 C 
ATOM      8  O   UNL d   1       1.832  -0.695   0.305  0.00  0.00    -0.259 OA
BRANCH   7   9
ATOM      9  O   UNL d   1       0.329   1.014   0.775  0.00  0.00    -0.273 OA
BRANCH   9  10
ATOM     10  C   UNL d   1      -0.068   0.675   2.090  0.00  0.00     0.101 A 
ATOM     11  C   UNL d   1      -0.449   1.728   2.933  0.00  0.00     0.070 A 
ATOM     12  C   UNL d   1      -1.049   1.453   4.160  0.00  0.00     0.069 A 
ATOM     13 CL   UNL d   1      -0.239   3.376   2.466  0.00  0.00    -0.081 Cl
ATOM     14  C   UNL d   1      -1.261   0.131   4.532  0.00  0.00     0.118 A 
ATOM     15  C   UNL d   1      -0.863  -0.921   3.713  0.00  0.00     0.045 A 
ATOM     16  F   UNL d   1      -1.876  -0.136   5.691  0.00  0.00    -0.206 F 
ATOM     17  C   UNL d   1      -0.265  -0.653   2.483  0.00  0.00     0.042 A 
ENDBRANCH   9  10
ENDBRANCH   7   9
ENDBRANCH   1   7
BRANCH   4  18
ATOM     18  C   UNL d   1      -1.825  -0.352  -5.118  0.00  0.00     0.120 C 
BRANCH  18  19
ATOM     19  S   UNL d   1      -1.667   1.072  -6.218  0.00  0.00    -0.089 SA
BRANCH  19  20
ATOM     20  C   UNL d   1      -2.850   0.757  -7.487  0.00  0.00     0.175 C 
ATOM     21  S   UNL d   1      -3.550  -0.720  -7.844  0.00  0.00    -0.045 SA
BRANCH  20  22
ATOM     22  O   UNL d   1      -3.121   1.870  -8.229  0.00  0.00    -0.336 OA
BRANCH  22  23
ATOM     23  C   UNL d   1      -4.193   1.965  -9.193  0.00  0.00     0.172 C 
ATOM     24  C   UNL d   1      -4.369   3.438  -9.510  0.00  0.00     0.034 C 
ENDBRANCH  22  23
ENDBRANCH  20  22
ENDBRANCH  19  20
ENDBRANCH  18  19
ENDBRANCH   4  18
TORSDOF 8
