REMARK  4 active torsions:
REMARK  status: ('A' for Active; 'I' for Inactive)
REMARK    1  A    between atoms: C_10  and  C_3 
REMARK    2  A    between atoms: N_7  and  C_9 
REMARK    3  A    between atoms: C_14  and  C_8 
REMARK    4  A    between atoms: O_25  and  C_17 
ROOT
ATOM      1  N   UNL d   1       1.584  -0.053  -0.023  0.00  0.00    -0.331 N 
ATOM      2  HN  UNL d   1       2.528  -0.434  -0.077  1.00  0.00     0.168 HD
ATOM      3  C   UNL d   1       1.214   1.185   0.038  0.00  0.00     0.162 A 
ATOM      4  C   UNL d   1       0.388  -0.727   0.003  0.00  0.00     0.111 A 
ATOM      5  O   UNL d   1      -0.110   1.446   0.095  0.00  0.00    -0.256 OA
ATOM      6  C   UNL d   1      -0.745   0.241   0.076  0.00  0.00     0.316 A 
ATOM      7  C   UNL d   1       0.296  -2.063  -0.023  0.00  0.00     0.047 C 
ATOM      8  O   UNL d   1      -1.943   0.057   0.117  0.00  0.00    -0.257 OA
ENDROOT
BRANCH   7   9
ATOM      9  C   UNL d   1      -0.944  -2.833   0.009  0.00  0.00    -0.032 A 
ATOM     10  C   UNL d   1      -1.522  -3.197   1.229  0.00  0.00     0.033 A 
ATOM     11  C   UNL d   1      -2.676  -3.998   1.271  0.00  0.00     0.045 A 
ATOM     12 BR   UNL d   1      -3.232  -4.521   3.011  0.00  0.00    -0.048 Br
ATOM     13  C   UNL d   1      -3.275  -4.420   0.077  0.00  0.00     0.085 A 
ATOM     14  C   UNL d   1      -2.691  -4.039  -1.141  0.00  0.00     0.039 A 
ATOM     15  C   UNL d   1      -1.538  -3.252  -1.180  0.00  0.00     0.014 A 
BRANCH  13  16
ATOM     16  O   UNL d   1      -4.332  -5.273  -0.090  0.00  0.00    -0.355 OA
ATOM     17  C   UNL d   1      -5.456  -5.106   0.762  0.00  0.00     0.210 C 
ENDBRANCH  13  16
ENDBRANCH   7   9
BRANCH   3  18
ATOM     18  C   UNL d   1       2.092   2.366   0.062  0.00  0.00     0.015 A 
ATOM     19  C   UNL d   1       3.478   2.183  -0.052  0.00  0.00     0.018 A 
ATOM     20  C   UNL d   1       4.342   3.280   0.008  0.00  0.00     0.037 A 
ATOM     21  C   UNL d   1       3.814   4.567   0.185  0.00  0.00     0.102 A 
ATOM     22  C   UNL d   1       2.430   4.760   0.285  0.00  0.00     0.037 A 
ATOM     23  C   UNL d   1       1.571   3.658   0.223  0.00  0.00     0.018 A 
BRANCH  21  24
ATOM     24  N   UNL d   1       4.719   5.720   0.279  0.00  0.00    -0.116 N 
ATOM     25  O   UNL d   1       5.936   5.506   0.187  0.00  0.00    -0.532 OA
ATOM     26  O   UNL d   1       4.211   6.837   0.448  0.00  0.00    -0.532 OA
ENDBRANCH  21  24
ENDBRANCH   3  18
TORSDOF 4
