REMARK  11 active torsions:
REMARK  status: ('A' for Active; 'I' for Inactive)
REMARK    1  A    between atoms: C_2  and  C_1 
REMARK       I    between atoms: N_3  and  C_1 
REMARK    2  A    between atoms: C_6  and  N_3 
REMARK    3  A    between atoms: S_15  and  C_4 
REMARK    4  A    between atoms: C_5  and  C_6 
REMARK       I    between atoms: N_7  and  C_5 
REMARK    5  A    between atoms: C_16  and  C_6 
REMARK    6  A    between atoms: C_14  and  N_7 
REMARK    7  A    between atoms: C_10  and  C_14 
REMARK    8  A    between atoms: O_17  and  C_10 
REMARK    9  A    between atoms: C_21  and  C_16 
REMARK   10  A    between atoms: C_24  and  O_17 
REMARK   11  A    between atoms: S_18  and  C_21 
ROOT
ATOM      1  C   UNL d   1      -1.206  -0.494  -1.323  0.00  0.00     0.177 C 
ENDROOT
BRANCH   1   2
ATOM      2  C   UNL d   1      -1.866   0.820  -1.796  0.00  0.00     0.240 C 
ATOM      3  N   UNL d   1      -1.452   1.943  -1.105  0.00  0.00    -0.350 N 
ATOM      4  H   UNL d   1      -0.914   1.819  -0.251  0.00  0.00     0.163 HD
ATOM      5  O   UNL d   1      -2.735   0.880  -2.659  0.00  0.00    -0.271 OA
BRANCH   3   6
ATOM      6  C   UNL d   1      -2.132   3.216  -1.300  0.00  0.00     0.233 C 
BRANCH   6   7
ATOM      7  C   UNL d   1      -1.369   4.363  -0.661  0.00  0.00     0.276 C 
ATOM      8  O   UNL d   1      -0.371   4.235   0.030  0.00  0.00    -0.263 OA
BRANCH   7   9
ATOM      9  O   UNL d   1      -2.037   5.530  -0.891  0.00  0.00    -0.321 OA
BRANCH   9  10
ATOM     10  C   UNL d   1      -1.715   6.615  -0.009  0.00  0.00     0.174 C 
ATOM     11  C   UNL d   1      -2.586   6.485   1.228  0.00  0.00     0.034 C 
ENDBRANCH   9  10
ENDBRANCH   7   9
ENDBRANCH   6   7
ENDBRANCH   3   6
ENDBRANCH   1   2
BRANCH   1  12
ATOM     12  N   UNL d   1       0.256  -0.370  -1.345  0.00  0.00    -0.344 N 
ATOM     13  C   UNL d   1       1.054  -1.107  -0.482  0.00  0.00     0.255 C 
ATOM     14  O   UNL d   1       0.586  -1.886   0.332  0.00  0.00    -0.268 OA
ATOM     15  H   UNL d   1       0.675   0.186  -2.078  0.00  0.00     0.163 HD
BRANCH  13  16
ATOM     16  C   UNL d   1       2.516  -0.817  -0.521  0.00  0.00     0.065 A 
ATOM     17  C   UNL d   1       3.509  -1.780  -0.288  0.00  0.00     0.085 A 
ATOM     18  N   UNL d   1       4.825  -1.437  -0.187  0.00  0.00    -0.360 N 
ATOM     19  C   UNL d   1       5.168  -0.140  -0.318  0.00  0.00     0.089 A 
ATOM     20  HN  UNL d   1       5.536  -2.148  -0.016  1.00  0.00     0.166 HD
ATOM     21  C   UNL d   1       4.261   0.863  -0.586  0.00  0.00     0.018 A 
ATOM     22  C   UNL d   1       2.917   0.519  -0.683  0.00  0.00     0.021 A 
BRANCH  17  23
ATOM     23  S   UNL d   1       3.188  -3.540  -0.199  0.00  0.00    -0.116 SA
ATOM     24  C   UNL d   1       4.860  -4.193   0.088  0.00  0.00     0.097 C 
ENDBRANCH  17  23
ENDBRANCH  13  16
ENDBRANCH   1  12
BRANCH   1  25
ATOM     25  C   UNL d   1      -1.722  -1.736  -2.061  0.00  0.00     0.045 C 
BRANCH  25  26
ATOM     26  C   UNL d   1      -1.398  -1.771  -3.554  0.00  0.00     0.076 C 
BRANCH  26  27
ATOM     27  S   UNL d   1      -1.947  -3.369  -4.248  0.00  0.00    -0.173 SA
ATOM     28  C   UNL d   1      -1.526  -3.083  -5.981  0.00  0.00     0.089 C 
ENDBRANCH  26  27
ENDBRANCH  25  26
ENDBRANCH   1  25
TORSDOF 11
