REMARK  1 active torsions:
REMARK  status: ('A' for Active; 'I' for Inactive)
REMARK    1  A    between atoms: N_6  and  C_4 
ROOT
ATOM      1  C   UNL d   1       1.696  -1.617  -0.029  0.00  0.00     0.186 A 
ATOM      2  N   UNL d   1       0.450  -1.953  -0.081  0.00  0.00    -0.333 N 
ATOM      3  HN  UNL d   1       0.162  -2.930  -0.128  1.00  0.00     0.168 HD
ATOM      4  C   UNL d   1       4.798  -3.357   0.108  0.00  0.00     0.215 A 
ATOM      5  O   UNL d   1       2.198  -0.362   0.013  0.00  0.00    -0.254 OA
ATOM      6  C   UNL d   1       1.353   0.691  -0.008  0.00  0.00     0.302 A 
ATOM      7  C   UNL d   1       2.740  -2.612  -0.005  0.00  0.00     0.129 A 
ATOM      8  O   UNL d   1       4.053  -2.220   0.095  0.00  0.00    -0.284 OA
ATOM      9  C   UNL d   1      -0.088   0.409  -0.033  0.00  0.00     0.066 A 
ATOM     10  C   UNL d   1      -0.482  -0.919  -0.068  0.00  0.00     0.050 A 
ATOM     11  C   UNL d   1       4.011  -4.479   0.015  0.00  0.00     0.066 A 
ATOM     12  C   UNL d   1       2.679  -3.997  -0.054  0.00  0.00     0.046 A 
ATOM     13  O   UNL d   1       1.758   1.847   0.003  0.00  0.00    -0.259 OA
ATOM     14  C   UNL d   1      -1.031   1.444  -0.003  0.00  0.00     0.020 A 
ATOM     15  C   UNL d   1      -1.845  -1.221  -0.069  0.00  0.00     0.030 A 
ATOM     16  C   UNL d   1      -2.391   1.134   0.001  0.00  0.00     0.001 A 
ATOM     17  C   UNL d   1      -2.798  -0.199  -0.030  0.00  0.00     0.002 A 
ENDROOT
BRANCH   4  18
ATOM     18  N   UNL d   1       6.214  -3.196   0.217  0.00  0.00    -0.090 N 
ATOM     19  O   UNL d   1       6.881  -4.239   0.229  0.00  0.00    -0.530 OA
ATOM     20  O   UNL d   1       6.662  -2.046   0.292  0.00  0.00    -0.530 OA
ENDBRANCH   4  18
TORSDOF 1
