REMARK  5 active torsions:
REMARK  status: ('A' for Active; 'I' for Inactive)
REMARK    1  A    between atoms: N_4  and  S_1 
REMARK    2  A    between atoms: C_12  and  S_1 
REMARK    3  A    between atoms: N_2  and  C_13 
REMARK    4  A    between atoms: C_3  and  N_8 
REMARK    5  A    between atoms: C_7  and  C_11 
ROOT
ATOM      1  N   UNL d   1       0.353   0.371  -1.384  0.00  0.00    -0.203 NA
ATOM      2  N   UNL d   1      -1.912   2.089  -1.032  0.00  0.00    -0.215 N 
ATOM      3  C   UNL d   1       0.460   1.841  -1.680  0.00  0.00     0.128 C 
ATOM      4  C   UNL d   1      -1.050  -0.104  -1.627  0.00  0.00     0.128 C 
ATOM      5  C   UNL d   1      -0.576   2.671  -0.883  0.00  0.00     0.157 C 
ATOM      6  C   UNL d   1      -2.057   0.660  -0.753  0.00  0.00     0.157 C 
ENDROOT
BRANCH   1   7
ATOM      7  S   UNL d   1       1.051  -0.139   0.084  0.00  0.00     0.243 S 
ATOM      8  O   UNL d   1       0.459  -1.408   0.460  0.00  0.00    -0.206 OA
ATOM      9  O   UNL d   1       1.086   0.979   0.999  0.00  0.00    -0.206 OA
BRANCH   7  10
ATOM     10  C   UNL d   1       2.720  -0.493  -0.403  0.00  0.00     0.074 A 
ATOM     11  C   UNL d   1       3.787   0.209   0.154  0.00  0.00     0.027 A 
ATOM     12  C   UNL d   1       5.099  -0.159  -0.171  0.00  0.00     0.032 A 
ATOM     13  C   UNL d   1       5.369  -1.214  -1.061  0.00  0.00     0.045 A 
ATOM     14  C   UNL d   1       4.269  -1.895  -1.610  0.00  0.00     0.032 A 
ATOM     15  C   UNL d   1       2.955  -1.548  -1.280  0.00  0.00     0.027 A 
BRANCH  13  16
ATOM     16  N   UNL d   1       6.709  -1.579  -1.398  0.00  0.00    -0.252 N 
ATOM     17  C   UNL d   1       7.814  -1.277  -0.633  0.00  0.00     0.231 A 
ATOM     18  C   UNL d   1       9.043  -1.817  -1.298  0.00  0.00     0.113 A 
ATOM     19  O   UNL d   1       7.874  -0.713   0.452  0.00  0.00    -0.273 OA
ATOM     20  C   UNL d   1       8.549  -2.425  -2.585  0.00  0.00     0.113 A 
ATOM     21  C   UNL d   1       7.060  -2.279  -2.533  0.00  0.00     0.231 A 
ATOM     22  O   UNL d   1       6.348  -2.700  -3.435  0.00  0.00    -0.273 OA
ENDBRANCH  13  16
ENDBRANCH   7  10
ENDBRANCH   1   7
BRANCH   2  23
ATOM     23  C   UNL d   1      -3.014   2.895  -1.117  0.00  0.00     0.680 A 
ATOM     24  N   UNL d   1      -2.827   4.196  -1.375  0.00  0.00    -0.186 N 
ATOM     25  C   UNL d   1      -3.907   4.989  -1.573  0.00  0.00     0.133 A 
ATOM     26  HN  UNL d   1      -1.885   4.583  -1.423  1.00  0.00     0.184 HD
ATOM     27  C   UNL d   1      -5.193   4.494  -1.494  0.00  0.00     0.052 A 
ATOM     28  C   UNL d   1      -5.297   3.157  -1.216  0.00  0.00     0.108 A 
ATOM     29  N   UNL d   1      -4.235   2.353  -1.034  0.00  0.00    -0.202 N 
ATOM     30  HN  UNL d   1      -4.356   1.360  -0.837  1.00  0.00     0.183 HD
BRANCH  25  31
ATOM     31  C   UNL d   1      -3.686   6.446  -1.925  0.00  0.00     0.433 C 
ATOM     32  F   UNL d   1      -2.377   6.817  -1.994  0.00  0.00    -0.165 F 
ATOM     33  F   UNL d   1      -4.226   6.772  -3.136  0.00  0.00    -0.165 F 
ATOM     34  F   UNL d   1      -4.266   7.295  -1.026  0.00  0.00    -0.165 F 
ENDBRANCH  25  31
ENDBRANCH   2  23
TORSDOF 5
