REMARK  4 active torsions:
REMARK  status: ('A' for Active; 'I' for Inactive)
REMARK    1  A    between atoms: N_7  and  C_3 
REMARK    2  A    between atoms: C_8  and  C_13 
REMARK    3  A    between atoms: O_19  and  C_8 
REMARK    4  A    between atoms: C_20  and  O_19 
ROOT
ATOM      1  N   UNL d   1      -1.226   3.064   0.233  0.00  0.00    -0.367 N 
ATOM      2  C   UNL d   1      -1.575   3.962  -0.886  0.00  0.00     0.125 C 
ATOM      3  C   UNL d   1      -2.095   3.283   1.410  0.00  0.00     0.125 C 
ATOM      4  C   UNL d   1      -2.242   5.746   0.785  0.00  0.00     0.088 C 
ATOM      5  C   UNL d   1      -1.386   5.415  -0.447  0.00  0.00     0.034 C 
ATOM      6  C   UNL d   1      -1.951   4.727   1.898  0.00  0.00     0.034 C 
ENDROOT
BRANCH   1   7
ATOM      7  C   UNL d   1      -0.722   1.781  -0.054  0.00  0.00     0.114 A 
ATOM      8  N   UNL d   1       0.562   1.598  -0.565  0.00  0.00    -0.289 N 
ATOM      9  C   UNL d   1       1.085   0.351  -0.918  0.00  0.00     0.332 A 
ATOM     10  C   UNL d   1       1.452   2.748  -0.688  0.00  0.00     0.163 C 
ATOM     11  N   UNL d   1       0.271  -0.745  -0.685  0.00  0.00    -0.271 N 
ATOM     12  O   UNL d   1       2.213   0.229  -1.402  0.00  0.00    -0.246 OA
ATOM     13  C   UNL d   1       0.758  -2.074  -1.002  0.00  0.00     0.164 C 
ATOM     14  C   UNL d   1      -0.974  -0.660  -0.111  0.00  0.00     0.254 A 
ATOM     15  C   UNL d   1      -1.465   0.688   0.177  0.00  0.00     0.123 A 
ATOM     16  O   UNL d   1      -1.686  -1.626   0.164  0.00  0.00    -0.268 OA
ENDBRANCH   1   7
BRANCH   4  17
ATOM     17  C   UNL d   1      -3.727   5.775   0.441  0.00  0.00     0.263 C 
ATOM     18  O   UNL d   1      -4.596   5.171   1.054  0.00  0.00    -0.265 OA
BRANCH  17  19
ATOM     19  O   UNL d   1      -3.946   6.550  -0.657  0.00  0.00    -0.322 OA
BRANCH  19  20
ATOM     20  C   UNL d   1      -5.230   6.416  -1.284  0.00  0.00     0.174 C 
ATOM     21  C   UNL d   1      -6.125   7.593  -0.956  0.00  0.00     0.034 C 
ENDBRANCH  19  20
ENDBRANCH  17  19
ENDBRANCH   4  17
TORSDOF 4
