REMARK  3 active torsions:
REMARK  status: ('A' for Active; 'I' for Inactive)
REMARK    1  A    between atoms: C_2  and  C_1 
REMARK       I    between atoms: N_8  and  C_2 
REMARK    2  A    between atoms: C_3  and  C_4 
REMARK    3  A    between atoms: C_13  and  N_8 
ROOT
ATOM      1  C   UNL d   1       1.007   0.080  -0.093  0.00  0.00     0.113 C 
ATOM      2  C   UNL d   1       0.466   0.693   0.981  0.00  0.00     0.047 C 
ATOM      3  C   UNL d   1       0.261  -0.477  -1.165  0.00  0.00     0.105 C 
ATOM      4  N   UNL d   1      -0.270  -0.947  -2.085  0.00  0.00    -0.191 NA
ENDROOT
BRANCH   1   5
ATOM      5  C   UNL d   1       2.514  -0.005  -0.106  0.00  0.00     0.266 C 
ATOM      6  N   UNL d   1       3.080  -0.726  -1.149  0.00  0.00    -0.322 N 
ATOM      7  H   UNL d   1       2.492  -1.026  -1.919  0.00  0.00     0.169 HD
ATOM      8  O   UNL d   1       3.157   0.550   0.782  0.00  0.00    -0.267 OA
BRANCH   6   9
ATOM      9  C   UNL d   1       4.438  -1.122  -1.250  0.00  0.00     0.035 A 
ATOM     10  C   UNL d   1       5.362  -0.995  -0.206  0.00  0.00     0.032 A 
ATOM     11  C   UNL d   1       6.670  -1.470  -0.345  0.00  0.00     0.044 A 
ATOM     12  C   UNL d   1       7.060  -2.066  -1.535  0.00  0.00     0.116 A 
ATOM     13  C   UNL d   1       6.168  -2.189  -2.591  0.00  0.00     0.044 A 
ATOM     14  F   UNL d   1       8.308  -2.535  -1.661  0.00  0.00    -0.206 F 
ATOM     15  C   UNL d   1       4.856  -1.722  -2.448  0.00  0.00     0.032 A 
ENDBRANCH   6   9
ENDBRANCH   1   5
BRANCH   2  16
ATOM     16  C   UNL d   1      -0.923   0.841   1.281  0.00  0.00     0.007 A 
ATOM     17  C   UNL d   1      -1.545   1.960   1.816  0.00  0.00     0.038 A 
ATOM     18  C   UNL d   1      -2.916   1.737   2.099  0.00  0.00     0.018 A 
ATOM     19 BR   UNL d   1      -4.018   3.078   2.836  0.00  0.00    -0.051 Br
ATOM     20  C   UNL d   1      -3.328   0.465   1.802  0.00  0.00     0.069 A 
ATOM     21  S   UNL d   1      -2.040  -0.472   1.184  0.00  0.00    -0.101 SA
ENDBRANCH   2  16
TORSDOF 3
