REMARK  8 active torsions:
REMARK  status: ('A' for Active; 'I' for Inactive)
REMARK    1  A    between atoms: C_5  and  C_1 
REMARK    2  A    between atoms: C_2  and  N_11 
REMARK    3  A    between atoms: S_15  and  C_2 
REMARK    4  A    between atoms: N_3  and  N_6 
REMARK    5  A    between atoms: O_19  and  C_5 
REMARK    6  A    between atoms: N_11  and  C_8 
REMARK    7  A    between atoms: C_13  and  C_12 
REMARK    8  A    between atoms: C_25  and  O_19 
ROOT
ATOM      1  C   UNL d   1      -3.401   0.420  -0.502  0.00  0.00     0.135 C 
ATOM      2  C   UNL d   1      -2.057   0.451  -0.496  0.00  0.00     0.119 C 
ATOM      3  C   UNL d   1      -4.155  -0.094  -1.591  0.00  0.00     0.107 C 
ATOM      4  N   UNL d   1      -4.735  -0.528  -2.495  0.00  0.00    -0.191 NA
ENDROOT
BRANCH   1   5
ATOM      5  C   UNL d   1      -4.061   0.872   0.747  0.00  0.00     0.305 C 
ATOM      6  O   UNL d   1      -3.467   1.365   1.697  0.00  0.00    -0.258 OA
BRANCH   5   7
ATOM      7  O   UNL d   1      -5.384   0.579   0.727  0.00  0.00    -0.317 OA
BRANCH   7   8
ATOM      8  C   UNL d   1      -6.031   0.602   2.010  0.00  0.00     0.174 C 
ATOM      9  C   UNL d   1      -5.914  -0.786   2.615  0.00  0.00     0.034 C 
ENDBRANCH   7   8
ENDBRANCH   5   7
ENDBRANCH   1   5
BRANCH   2  10
ATOM     10  N   UNL d   1      -1.129   0.088  -1.444  0.00  0.00    -0.344 N 
ATOM     11  H   UNL d   1      -1.456  -0.091  -2.392  0.00  0.00     0.167 HD
BRANCH  10  12
ATOM     12  C   UNL d   1       0.251   0.076  -1.395  0.00  0.00     0.158 C 
ATOM     13  N   UNL d   1       1.014   0.034  -2.450  0.00  0.00    -0.280 N 
ATOM     14  HN  UNL d   1       2.032   0.009  -2.411  1.00  0.00     0.189 HD
BRANCH  13  15
ATOM     15  N   UNL d   1       0.283   0.027  -3.644  0.00  0.00    -0.302 N 
ATOM     16  C   UNL d   1       0.989   0.220  -4.724  0.00  0.00     0.032 C 
ATOM     17  C   UNL d   1       2.489   0.462  -4.730  0.00  0.00     0.070 C 
ATOM     18  HN  UNL d   1      -0.726  -0.119  -3.668  1.00  0.00     0.186 HD
BRANCH  16  19
ATOM     19  C   UNL d   1       0.279   0.201  -6.052  0.00  0.00    -0.012 A 
ATOM     20  C   UNL d   1      -1.113   0.017  -6.082  0.00  0.00     0.016 A 
ATOM     21  C   UNL d   1      -1.800  -0.031  -7.298  0.00  0.00     0.043 A 
ATOM     22  C   UNL d   1      -1.098   0.105  -8.487  0.00  0.00     0.116 A 
ATOM     23  C   UNL d   1       0.279   0.293  -8.483  0.00  0.00     0.043 A 
ATOM     24  F   UNL d   1      -1.754   0.051  -9.653  0.00  0.00    -0.206 F 
ATOM     25  C   UNL d   1       0.971   0.342  -7.268  0.00  0.00     0.016 A 
ENDBRANCH  16  19
ENDBRANCH  13  15
BRANCH  12  26
ATOM     26  S   UNL d   1       1.005   0.078   0.204  0.00  0.00    -0.097 SA
ATOM     27  C   UNL d   1       2.752   0.181  -0.199  0.00  0.00     0.099 C 
ENDBRANCH  12  26
ENDBRANCH  10  12
ENDBRANCH   2  10
TORSDOF 8
