REMARK  4 active torsions:
REMARK  status: ('A' for Active; 'I' for Inactive)
REMARK    1  A    between atoms: C_8  and  C_1 
REMARK       I    between atoms: C_4  and  N_6 
REMARK    2  A    between atoms: C_9  and  C_4 
REMARK    3  A    between atoms: N_6  and  C_8 
REMARK    4  A    between atoms: O_16  and  C_13 
ROOT
ATOM      1  C   UNL d   1      -0.416  -5.141   0.006  0.00  0.00     0.251 C 
ATOM      2  N   UNL d   1      -0.242  -3.788   0.204  0.00  0.00    -0.353 N 
ATOM      3  O   UNL d   1       0.466  -5.886  -0.410  0.00  0.00    -0.268 OA
ATOM      4  H   UNL d   1      -1.030  -3.204   0.442  0.00  0.00     0.163 HD
ENDROOT
BRANCH   2   5
ATOM      5  C   UNL d   1       1.021  -3.121  -0.047  0.00  0.00     0.162 C 
BRANCH   5   6
ATOM      6  C   UNL d   1       1.479  -2.470   1.225  0.00  0.00    -0.022 A 
ATOM      7  C   UNL d   1       1.799  -3.194   2.360  0.00  0.00     0.060 A 
ATOM      8  S   UNL d   1       2.275  -2.220   3.666  0.00  0.00    -0.101 SA
ATOM      9  C   UNL d   1       2.105  -0.778   2.747  0.00  0.00     0.015 A 
ATOM     10  C   UNL d   1       1.684  -1.046   1.438  0.00  0.00    -0.011 A 
ATOM     11  C   UNL d   1       2.349   0.534   3.202  0.00  0.00     0.019 A 
ATOM     12  C   UNL d   1       1.534   0.067   0.567  0.00  0.00     0.013 A 
ATOM     13  C   UNL d   1       1.781   1.372   1.015  0.00  0.00     0.001 A 
ATOM     14  C   UNL d   1       2.179   1.602   2.322  0.00  0.00     0.001 A 
ENDBRANCH   5   6
ENDBRANCH   2   5
BRANCH   1  15
ATOM     15  C   UNL d   1      -1.781  -5.681   0.277  0.00  0.00     0.032 A 
ATOM     16  C   UNL d   1      -2.217  -6.801  -0.446  0.00  0.00     0.020 A 
ATOM     17  C   UNL d   1      -3.502  -7.322  -0.246  0.00  0.00     0.038 A 
ATOM     18  C   UNL d   1      -4.356  -6.734   0.686  0.00  0.00     0.068 A 
ATOM     19  C   UNL d   1      -3.903  -5.653   1.446  0.00  0.00     0.038 A 
ATOM     20  C   UNL d   1      -2.625  -5.121   1.243  0.00  0.00     0.020 A 
BRANCH  18  21
ATOM     21  O   UNL d   1      -5.623  -7.162   0.975  0.00  0.00    -0.356 OA
ATOM     22  C   UNL d   1      -6.332  -7.762  -0.105  0.00  0.00     0.210 C 
ENDBRANCH  18  21
ENDBRANCH   1  15
TORSDOF 4
