REMARK  3 active torsions:
REMARK  status: ('A' for Active; 'I' for Inactive)
REMARK    1  A    between atoms: N_2  and  C_1 
REMARK       I    between atoms: C_3  and  N_2 
REMARK    2  A    between atoms: C_4  and  N_2 
REMARK       I    between atoms: N_8  and  C_3 
REMARK    3  A    between atoms: C_14  and  N_8 
ROOT
ATOM      1  N   UNL d   1       2.139   1.449  -0.178  0.00  0.00    -0.228 N 
ATOM      2  C   UNL d   1       3.408   0.907  -0.475  0.00  0.00     0.335 C 
ATOM      3  N   UNL d   1       4.375   1.764  -0.964  0.00  0.00    -0.308 N 
ATOM      4  O   UNL d   1       3.684  -0.281  -0.291  0.00  0.00    -0.246 OA
ATOM      5  H   UNL d   1       4.131   2.752  -0.960  0.00  0.00     0.170 HD
ENDROOT
BRANCH   1   6
ATOM      6  C   UNL d   1       1.029   0.601   0.002  0.00  0.00     0.152 C 
ATOM      7  N   UNL d   1      -0.192   0.960  -0.251  0.00  0.00    -0.369 N 
ATOM      8  C   UNL d   1      -1.138  -0.150  -0.025  0.00  0.00     0.137 C 
ATOM      9  HN  UNL d   1      -0.464   1.891  -0.566  1.00  0.00     0.161 HD
ATOM     10  C   UNL d   1      -0.568  -1.124   0.993  0.00  0.00     0.069 C 
ATOM     11  S   UNL d   1       1.191  -1.029   0.638  0.00  0.00    -0.087 SA
ATOM     12  C   UNL d   1      -0.822  -0.702   2.434  0.00  0.00     0.023 C 
ENDBRANCH   1   6
BRANCH   1  13
ATOM     13  C   UNL d   1       1.886   2.879  -0.219  0.00  0.00     0.118 A 
ATOM     14  N   UNL d   1       2.735   3.697  -0.898  0.00  0.00    -0.352 N 
ATOM     15  C   UNL d   1       2.456   5.024  -0.951  0.00  0.00     0.090 A 
ATOM     16  HN  UNL d   1       3.563   3.320  -1.358  1.00  0.00     0.166 HD
ATOM     17  C   UNL d   1       1.385   5.621  -0.315  0.00  0.00     0.024 A 
ATOM     18  C   UNL d   1       0.542   4.812   0.435  0.00  0.00    -0.057 A 
ATOM     19  C   UNL d   1       0.815   3.439   0.493  0.00  0.00     0.056 A 
ATOM     20  C   UNL d   1      -0.617   5.399   1.185  0.00  0.00     0.048 C 
ENDBRANCH   1  13
BRANCH   3  21
ATOM     21  C   UNL d   1       5.630   1.412  -1.514  0.00  0.00     0.036 A 
ATOM     22  C   UNL d   1       6.008   0.095  -1.806  0.00  0.00     0.031 A 
ATOM     23  C   UNL d   1       7.237  -0.187  -2.412  0.00  0.00     0.026 A 
ATOM     24  C   UNL d   1       8.104   0.852  -2.727  0.00  0.00     0.034 A 
ATOM     25  C   UNL d   1       7.754   2.166  -2.431  0.00  0.00     0.026 A 
ATOM     26 CL   UNL d   1       9.601   0.509  -3.501  0.00  0.00    -0.084 Cl
ATOM     27  C   UNL d   1       6.519   2.446  -1.831  0.00  0.00     0.031 A 
ENDBRANCH   3  21
TORSDOF 3
