REMARK  9 active torsions:
REMARK  status: ('A' for Active; 'I' for Inactive)
REMARK    1  A    between atoms: S_2  and  C_1 
REMARK    2  A    between atoms: N_7  and  S_2 
REMARK    3  A    between atoms: C_8  and  C_3 
REMARK    4  A    between atoms: C_12  and  C_4 
REMARK    5  A    between atoms: C_15  and  N_7 
REMARK    6  A    between atoms: O_22  and  C_8 
REMARK    7  A    between atoms: C_9  and  O_13 
REMARK    8  A    between atoms: O_13  and  C_21 
REMARK    9  A    between atoms: C_31  and  O_22 
ROOT
ATOM      1  C   UNL d   1      -1.627  -0.860  -0.143  0.00  0.00     0.128 A 
ATOM      2  C   UNL d   1      -0.286  -1.379  -0.185  0.00  0.00     0.094 A 
ATOM      3  C   UNL d   1      -1.526   0.526  -0.075  0.00  0.00     0.110 A 
ATOM      4  O   UNL d   1      -0.200   0.867  -0.085  0.00  0.00    -0.312 OA
ATOM      5  C   UNL d   1       0.540  -0.269  -0.116  0.00  0.00     0.068 A 
ATOM      6  C   UNL d   1       2.006  -0.057  -0.076  0.00  0.00     0.078 C 
ENDROOT
BRANCH   1   7
ATOM      7  S   UNL d   1      -3.095  -1.772  -0.112  0.00  0.00     0.249 S 
ATOM      8  O   UNL d   1      -2.764  -3.145  -0.372  0.00  0.00    -0.205 OA
ATOM      9  O   UNL d   1      -3.688  -1.414   1.164  0.00  0.00    -0.205 OA
BRANCH   7  10
ATOM     10  N   UNL d   1      -4.111  -1.185  -1.332  0.00  0.00    -0.181 NA
ATOM     11  H   UNL d   1      -4.380  -0.216  -1.169  0.00  0.00     0.146 HD
BRANCH  10  12
ATOM     12  C   UNL d   1      -3.761  -1.503  -2.677  0.00  0.00     0.023 A 
ATOM     13  C   UNL d   1      -4.067  -2.763  -3.190  0.00  0.00     0.027 A 
ATOM     14  C   UNL d   1      -3.775  -3.079  -4.523  0.00  0.00     0.039 A 
ATOM     15  C   UNL d   1      -3.120  -2.154  -5.332  0.00  0.00     0.078 A 
ATOM     16  C   UNL d   1      -2.805  -0.895  -4.806  0.00  0.00     0.039 A 
ATOM     17  C   UNL d   1      -3.116  -0.568  -3.481  0.00  0.00     0.027 A 
BRANCH  15  18
ATOM     18  O   UNL d   1      -2.783  -2.319  -6.639  0.00  0.00    -0.255 OA
BRANCH  18  19
ATOM     19  C   UNL d   1      -2.515  -3.617  -7.151  0.00  0.00     0.530 C 
ATOM     20  F   UNL d   1      -2.393  -4.573  -6.209  0.00  0.00    -0.144 F 
ATOM     21  F   UNL d   1      -3.493  -3.973  -8.012  0.00  0.00    -0.144 F 
ATOM     22  F   UNL d   1      -1.351  -3.567  -7.839  0.00  0.00    -0.144 F 
ENDBRANCH  18  19
ENDBRANCH  15  18
ENDBRANCH  10  12
ENDBRANCH   7  10
ENDBRANCH   1   7
BRANCH   2  23
ATOM     23  C   UNL d   1       0.183  -2.751  -0.241  0.00  0.00     0.297 C 
ATOM     24  O   UNL d   1      -0.282  -3.610  -0.974  0.00  0.00    -0.259 OA
BRANCH  23  25
ATOM     25  O   UNL d   1       1.204  -2.960   0.637  0.00  0.00    -0.318 OA
BRANCH  25  26
ATOM     26  C   UNL d   1       1.412  -4.318   1.044  0.00  0.00     0.174 C 
ATOM     27  C   UNL d   1       0.743  -4.464   2.397  0.00  0.00     0.034 C 
ENDBRANCH  25  26
ENDBRANCH  23  25
ENDBRANCH   2  23
BRANCH   3  28
ATOM     28  C   UNL d   1      -2.411   1.693   0.052  0.00  0.00    -0.001 A 
ATOM     29  C   UNL d   1      -3.612   1.649   0.767  0.00  0.00     0.015 A 
ATOM     30  C   UNL d   1      -4.399   2.788   0.956  0.00  0.00     0.007 A 
ATOM     31  C   UNL d   1      -3.985   4.025   0.466  0.00  0.00    -0.062 A 
ATOM     32  C   UNL d   1      -2.800   4.091  -0.269  0.00  0.00     0.007 A 
ATOM     33  C   UNL d   1      -4.797   5.247   0.778  0.00  0.00     0.048 C 
ATOM     34  C   UNL d   1      -2.027   2.938  -0.477  0.00  0.00     0.015 A 
ENDBRANCH   3  28
TORSDOF 9
