REMARK  3 active torsions:
REMARK  status: ('A' for Active; 'I' for Inactive)
REMARK    1  A    between atoms: C_9  and  C_3 
REMARK    2  A    between atoms: C_10  and  C_6 
REMARK    3  A    between atoms: C_8  and  C_12 
REMARK       I    between atoms: N_20  and  C_9 
ROOT
ATOM      1  N   UNL d   1      -0.250   0.690   0.020  0.00  0.00    -0.239 N 
ATOM      2  C   UNL d   1      -0.485  -0.689   0.021  0.00  0.00     0.141 A 
ATOM      3  C   UNL d   1      -1.852  -0.884   0.008  0.00  0.00     0.094 A 
ATOM      4  N   UNL d   1      -1.427   1.376   0.013  0.00  0.00    -0.302 N 
ATOM      5  HN  UNL d   1      -1.560   2.387   0.015  1.00  0.00     0.186 HD
ATOM      6  C   UNL d   1       1.058   1.200   0.025  0.00  0.00     0.066 A 
ATOM      7  C   UNL d   1      -2.365   0.430   0.004  0.00  0.00     0.128 A 
ATOM      8  N   UNL d   1       0.556  -1.568   0.038  0.00  0.00    -0.370 N 
ATOM      9  C   UNL d   1       2.106   0.348   0.020  0.00  0.00     0.025 A 
ATOM     10  C   UNL d   1       1.950  -1.149  -0.000  0.00  0.00     0.151 A 
ATOM     11  H   UNL d   1       0.375  -2.573   0.015  0.00  0.00     0.161 HD
ENDROOT
BRANCH   6  12
ATOM     12  C   UNL d   1       1.320   2.646   0.027  0.00  0.00    -0.007 A 
ATOM     13  C   UNL d   1       1.440   3.341   1.238  0.00  0.00     0.030 A 
ATOM     14  C   UNL d   1       1.737   4.714   1.249  0.00  0.00     0.048 A 
ATOM     15  C   UNL d   1       1.907   5.383   0.026  0.00  0.00     0.016 A 
ATOM     16  C   UNL d   1       1.781   4.696  -1.181  0.00  0.00     0.002 A 
ATOM     17  C   UNL d   1       1.490   3.332  -1.181  0.00  0.00     0.014 A 
BRANCH  14  18
ATOM     18  C   UNL d   1       1.889   5.466   2.547  0.00  0.00     0.417 C 
ATOM     19  F   UNL d   1       1.704   4.694   3.654  0.00  0.00    -0.166 F 
ATOM     20  F   UNL d   1       3.129   6.016   2.683  0.00  0.00    -0.166 F 
ATOM     21  F   UNL d   1       1.010   6.500   2.661  0.00  0.00    -0.166 F 
ENDBRANCH  14  18
ENDBRANCH   6  12
BRANCH   3  22
ATOM     22  C   UNL d   1      -2.540  -2.159   0.001  0.00  0.00     0.254 C 
ATOM     23  O   UNL d   1      -1.971  -3.246   0.003  0.00  0.00    -0.268 OA
ATOM     24  N   UNL d   1      -3.907  -2.107  -0.010  0.00  0.00    -0.366 N 
ATOM     25  H   UNL d   1      -4.446  -1.256  -0.009  0.00  0.00     0.159 HD
ATOM     26  H   UNL d   1      -4.399  -2.990  -0.013  0.00  0.00     0.159 HD
ENDBRANCH   3  22
TORSDOF 3
