REMARK  4 active torsions:
REMARK  status: ('A' for Active; 'I' for Inactive)
REMARK    1  A    between atoms: N_14  and  C_1 
REMARK    2  A    between atoms: C_17  and  N_4 
REMARK    3  A    between atoms: C_18  and  N_5 
REMARK    4  A    between atoms: N_12  and  N_14 
ROOT
ATOM      1  N   UNL d   1      -1.004  -6.681   0.116  0.00  0.00    -0.218 N 
ATOM      2  C   UNL d   1      -0.401  -5.425   0.147  0.00  0.00     0.297 A 
ATOM      3  C   UNL d   1      -1.586  -4.512   0.159  0.00  0.00     0.142 A 
ATOM      4  N   UNL d   1      -2.410  -6.654   0.169  0.00  0.00    -0.293 N 
ATOM      5  HN  UNL d   1      -3.031  -7.463   0.160  1.00  0.00     0.187 HD
ATOM      6  C   UNL d   1      -2.769  -5.406   0.233  0.00  0.00     0.056 A 
ATOM      7  N   UNL d   1      -1.653  -3.219   0.061  0.00  0.00    -0.293 N 
ATOM      8  HN  UNL d   1      -2.540  -2.718   0.118  1.00  0.00     0.187 HD
ATOM      9  O   UNL d   1       0.747  -5.043   0.150  0.00  0.00    -0.264 OA
ATOM     10  C   UNL d   1      -4.150  -4.886   0.369  0.00  0.00     0.072 C 
ENDROOT
BRANCH   7  11
ATOM     11  N   UNL d   1      -0.472  -2.572  -0.121  0.00  0.00    -0.293 N 
ATOM     12  H   UNL d   1       0.424  -3.090  -0.154  0.00  0.00     0.187 HD
BRANCH  11  13
ATOM     13  C   UNL d   1      -0.277  -1.218  -0.035  0.00  0.00     0.142 C 
ATOM     14  C   UNL d   1       1.099  -0.658  -0.265  0.00  0.00     0.297 C 
ATOM     15  N   UNL d   1       0.997   0.719  -0.109  0.00  0.00    -0.217 N 
ATOM     16  O   UNL d   1       2.073  -1.350  -0.524  0.00  0.00    -0.264 OA
ATOM     17  N   UNL d   1      -0.313   1.051   0.301  0.00  0.00    -0.289 N 
ATOM     18  C   UNL d   1      -1.053  -0.138   0.185  0.00  0.00     0.058 C 
ATOM     19  C   UNL d   1      -0.793   2.382  -0.059  0.00  0.00     0.178 C 
ATOM     20  C   UNL d   1      -2.543  -0.204   0.282  0.00  0.00     0.072 C 
BRANCH  15  21
ATOM     21  C   UNL d   1       2.076   1.613  -0.112  0.00  0.00     0.060 A 
ATOM     22  C   UNL d   1       2.902   1.670  -1.240  0.00  0.00     0.031 A 
ATOM     23  C   UNL d   1       3.970   2.568  -1.284  0.00  0.00     0.002 A 
ATOM     24  C   UNL d   1       4.243   3.373  -0.184  0.00  0.00     0.000 A 
ATOM     25  C   UNL d   1       3.442   3.300   0.956  0.00  0.00     0.002 A 
ATOM     26  C   UNL d   1       2.343   2.436   0.984  0.00  0.00     0.031 A 
ENDBRANCH  15  21
ENDBRANCH  11  13
ENDBRANCH   7  11
BRANCH   1  27
ATOM     27  C   UNL d   1      -0.359  -7.940   0.083  0.00  0.00     0.060 A 
ATOM     28  C   UNL d   1       1.012  -8.072   0.342  0.00  0.00     0.031 A 
ATOM     29  C   UNL d   1       1.627  -9.328   0.319  0.00  0.00     0.002 A 
ATOM     30  C   UNL d   1       0.887 -10.466   0.013  0.00  0.00     0.000 A 
ATOM     31  C   UNL d   1      -0.472 -10.353  -0.262  0.00  0.00     0.002 A 
ATOM     32  C   UNL d   1      -1.092  -9.100  -0.216  0.00  0.00     0.031 A 
ENDBRANCH   1  27
TORSDOF 4
