REMARK  2 active torsions:
REMARK  status: ('A' for Active; 'I' for Inactive)
REMARK    1  A    between atoms: C_6  and  N_1 
REMARK    2  A    between atoms: N_2  and  C_7 
ROOT
ATOM      1  N   UNL d   1      -1.601  -1.152  -0.019  0.00  0.00    -0.322 N 
ATOM      2  C   UNL d   1      -2.418  -0.043  -0.139  0.00  0.00     0.098 A 
ATOM      3  C   UNL d   1      -0.274  -0.714   0.026  0.00  0.00     0.049 A 
ATOM      4  C   UNL d   1      -1.648   1.093  -0.079  0.00  0.00     0.031 A 
ATOM      5  C   UNL d   1      -0.295   0.688   0.011  0.00  0.00    -0.008 A 
ATOM      6  C   UNL d   1       0.953  -1.411   0.016  0.00  0.00     0.031 A 
ATOM      7  C   UNL d   1       0.920   1.401   0.059  0.00  0.00     0.014 A 
ATOM      8  C   UNL d   1       2.145  -0.681   0.055  0.00  0.00     0.002 A 
ATOM      9  C   UNL d   1       2.131   0.708   0.085  0.00  0.00     0.001 A 
ENDROOT
BRANCH   1  10
ATOM     10  C   UNL d   1      -2.082  -2.494   0.050  0.00  0.00     0.039 A 
ATOM     11  C   UNL d   1      -3.254  -2.849  -0.638  0.00  0.00     0.032 A 
ATOM     12  C   UNL d   1      -3.744  -4.157  -0.569  0.00  0.00     0.038 A 
ATOM     13  C   UNL d   1      -3.071  -5.107   0.209  0.00  0.00     0.103 A 
ATOM     14  C   UNL d   1      -1.911  -4.759   0.912  0.00  0.00     0.038 A 
ATOM     15  C   UNL d   1      -1.419  -3.451   0.830  0.00  0.00     0.032 A 
BRANCH  13  16
ATOM     16  N   UNL d   1      -3.593  -6.477   0.299  0.00  0.00    -0.116 N 
ATOM     17  O   UNL d   1      -2.988  -7.277   1.026  0.00  0.00    -0.532 OA
ATOM     18  O   UNL d   1      -4.609  -6.751  -0.355  0.00  0.00    -0.532 OA
ENDBRANCH  13  16
ENDBRANCH   1  10
TORSDOF 2
