REMARK  4 active torsions:
REMARK  status: ('A' for Active; 'I' for Inactive)
REMARK    1  A    between atoms: N_3  and  C_1 
REMARK    2  A    between atoms: C_5  and  C_2 
REMARK       I    between atoms: C_4  and  N_3 
REMARK    3  A    between atoms: C_9  and  C_4 
REMARK    4  A    between atoms: O_14  and  C_5 
ROOT
ATOM      1  N   UNL d   1      -0.203   2.719  -0.142  0.00  0.00    -0.316 N 
ATOM      2  C   UNL d   1       0.508   3.816  -0.618  0.00  0.00     0.256 C 
ATOM      3  O   UNL d   1       0.207   4.992  -0.426  0.00  0.00    -0.267 OA
ATOM      4  H   UNL d   1      -0.036   1.800  -0.538  0.00  0.00     0.169 HD
ENDROOT
BRANCH   1   5
ATOM      5  C   UNL d   1      -1.274   2.793   0.756  0.00  0.00     0.093 A 
ATOM      6  C   UNL d   1      -2.196   1.802   1.074  0.00  0.00     0.073 A 
ATOM      7  C   UNL d   1      -3.161   2.290   2.032  0.00  0.00     0.028 A 
ATOM      8  C   UNL d   1      -2.910   3.578   2.437  0.00  0.00     0.053 A 
ATOM      9  S   UNL d   1      -1.521   4.203   1.690  0.00  0.00    -0.083 SA
BRANCH   6  10
ATOM     10  C   UNL d   1      -2.211   0.464   0.495  0.00  0.00     0.295 C 
ATOM     11  O   UNL d   1      -1.374   0.059  -0.303  0.00  0.00    -0.259 OA
BRANCH  10  12
ATOM     12  O   UNL d   1      -3.263  -0.276   0.965  0.00  0.00    -0.322 OA
ATOM     13  C   UNL d   1      -3.364  -1.610   0.471  0.00  0.00     0.213 C 
ENDBRANCH  10  12
ENDBRANCH   6  10
ENDBRANCH   1   5
BRANCH   2  14
ATOM     14  C   UNL d   1       1.728   3.572  -1.457  0.00  0.00     0.032 A 
ATOM     15  C   UNL d   1       2.157   2.319  -1.906  0.00  0.00     0.017 A 
ATOM     16  C   UNL d   1       3.337   2.209  -2.663  0.00  0.00     0.007 A 
ATOM     17  C   UNL d   1       4.105   3.340  -2.976  0.00  0.00    -0.062 A 
ATOM     18  C   UNL d   1       3.668   4.591  -2.543  0.00  0.00     0.007 A 
ATOM     19  C   UNL d   1       5.373   3.210  -3.767  0.00  0.00     0.048 C 
ATOM     20  C   UNL d   1       2.496   4.702  -1.794  0.00  0.00     0.017 A 
ENDBRANCH   2  14
TORSDOF 4
