REMARK  7 active torsions:
REMARK  status: ('A' for Active; 'I' for Inactive)
REMARK    1  A    between atoms: C_8  and  S_1 
REMARK    2  A    between atoms: C_18  and  S_1 
REMARK    3  A    between atoms: N_4  and  C_12 
REMARK    4  A    between atoms: C_5  and  C_8 
REMARK    5  A    between atoms: C_14  and  C_6 
REMARK    6  A    between atoms: C_7  and  C_11 
REMARK    7  A    between atoms: C_20  and  C_18 
ROOT
ATOM      1  N   UNL d   1       0.094  -3.430   1.436  0.00  0.00    -0.352 N 
ATOM      2  HN  UNL d   1      -0.916  -3.341   1.323  1.00  0.00     0.166 HD
ATOM      3  C   UNL d   1       0.946  -2.420   1.429  0.00  0.00     0.065 A 
ATOM      4  C   UNL d   1       0.770  -4.633   1.621  0.00  0.00     0.049 A 
ATOM      5  S   UNL d   1       2.600  -2.872   1.579  0.00  0.00    -0.085 SA
ATOM      6  C   UNL d   1       2.146  -4.518   1.625  0.00  0.00     0.081 A 
ENDROOT
BRANCH   3   7
ATOM      7  C   UNL d   1       0.533  -0.986   1.429  0.00  0.00     0.205 C 
BRANCH   7   8
ATOM      8  S   UNL d   1       1.051  -0.141  -0.053  0.00  0.00     0.154 S 
ATOM      9  O   UNL d   1       2.499  -0.211  -0.148  0.00  0.00    -0.227 OA
ATOM     10  O   UNL d   1       0.395   1.157  -0.027  0.00  0.00    -0.227 OA
BRANCH   8  11
ATOM     11  C   UNL d   1       0.326  -1.096  -1.380  0.00  0.00     0.179 C 
BRANCH  11  12
ATOM     12  C   UNL d   1       0.688  -0.489  -2.715  0.00  0.00    -0.043 A 
ATOM     13  C   UNL d   1      -0.149   0.461  -3.323  0.00  0.00     0.024 A 
ATOM     14  C   UNL d   1       0.136   0.961  -4.607  0.00  0.00     0.048 A 
ATOM     15  C   UNL d   1       1.297   0.526  -5.263  0.00  0.00     0.016 A 
ATOM     16  C   UNL d   1       2.154  -0.388  -4.651  0.00  0.00     0.001 A 
ATOM     17  C   UNL d   1       1.850  -0.894  -3.387  0.00  0.00     0.008 A 
BRANCH  14  18
ATOM     18  C   UNL d   1      -0.802   1.918  -5.302  0.00  0.00     0.417 C 
ATOM     19  F   UNL d   1      -1.889   2.259  -4.553  0.00  0.00    -0.166 F 
ATOM     20  F   UNL d   1      -0.203   3.089  -5.652  0.00  0.00    -0.166 F 
ATOM     21  F   UNL d   1      -1.302   1.396  -6.458  0.00  0.00    -0.166 F 
ENDBRANCH  14  18
ENDBRANCH  11  12
ENDBRANCH   8  11
ENDBRANCH   7   8
ENDBRANCH   3   7
BRANCH   4  22
ATOM     22  C   UNL d   1       0.067  -5.902   1.807  0.00  0.00    -0.009 A 
ATOM     23  C   UNL d   1      -1.212  -6.087   1.264  0.00  0.00     0.016 A 
ATOM     24  C   UNL d   1      -1.906  -7.291   1.455  0.00  0.00     0.037 A 
ATOM     25  C   UNL d   1      -1.318  -8.318   2.207  0.00  0.00     0.102 A 
ATOM     26  C   UNL d   1      -0.047  -8.148   2.764  0.00  0.00     0.037 A 
ATOM     27  C   UNL d   1       0.636  -6.942   2.564  0.00  0.00     0.016 A 
BRANCH  25  28
ATOM     28  N   UNL d   1      -2.041  -9.579   2.422  0.00  0.00    -0.116 N 
ATOM     29  O   UNL d   1      -3.164  -9.691   1.913  0.00  0.00    -0.532 OA
ATOM     30  O   UNL d   1      -1.483 -10.453   3.096  0.00  0.00    -0.532 OA
ENDBRANCH  25  28
ENDBRANCH   4  22
TORSDOF 7
