REMARK  3 active torsions:
REMARK  status: ('A' for Active; 'I' for Inactive)
REMARK    1  A    between atoms: C_11  and  C_9 
REMARK    2  A    between atoms: C_13  and  C_10 
REMARK    3  A    between atoms: O_16  and  C_15 
ROOT
ATOM      1  N   UNL d   1      -0.303  -0.561   0.014  0.00  0.00    -0.203 N 
ATOM      2  C   UNL d   1      -0.262   0.817  -0.018  0.00  0.00     0.133 A 
ATOM      3  N   UNL d   1      -1.573  -1.035   0.027  0.00  0.00    -0.289 N 
ATOM      4  HN  UNL d   1      -1.874  -2.009   0.064  1.00  0.00     0.188 HD
ATOM      5  C   UNL d   1       0.833  -1.392   0.028  0.00  0.00     0.270 A 
ATOM      6  C   UNL d   1      -1.558   1.248  -0.042  0.00  0.00     0.082 A 
ATOM      7  C   UNL d   1       2.123  -0.649   0.011  0.00  0.00     0.106 A 
ATOM      8  N   UNL d   1       0.942   1.434  -0.025  0.00  0.00    -0.340 N 
ATOM      9  C   UNL d   1      -2.350   0.063  -0.020  0.00  0.00     0.062 A 
ATOM     10  C   UNL d   1       2.110   0.695  -0.007  0.00  0.00     0.049 A 
ATOM     11  O   UNL d   1       0.756  -2.612   0.054  0.00  0.00    -0.266 OA
ATOM     12  H   UNL d   1       1.043   2.447  -0.043  0.00  0.00     0.167 HD
ENDROOT
BRANCH   9  13
ATOM     13  C   UNL d   1      -3.815  -0.039  -0.042  0.00  0.00    -0.005 A 
ATOM     14  C   UNL d   1      -4.439  -1.298   0.021  0.00  0.00     0.050 A 
ATOM     15  C   UNL d   1      -5.831  -1.408   0.024  0.00  0.00     0.069 A 
ATOM     16  C   UNL d   1      -6.608  -0.253  -0.076  0.00  0.00     0.037 A 
ATOM     17  C   UNL d   1      -6.007   1.002  -0.153  0.00  0.00     0.004 A 
ATOM     18  C   UNL d   1      -4.617   1.108  -0.125  0.00  0.00     0.014 A 
BRANCH  15  19
ATOM     19  O   UNL d   1      -6.544  -2.571   0.130  0.00  0.00    -0.356 OA
ATOM     20  C   UNL d   1      -5.791  -3.772   0.268  0.00  0.00     0.210 C 
ENDBRANCH  15  19
ENDBRANCH   9  13
BRANCH  10  21
ATOM     21  C   UNL d   1       3.387   1.418   0.008  0.00  0.00    -0.009 A 
ATOM     22  C   UNL d   1       4.024   1.763  -1.190  0.00  0.00     0.013 A 
ATOM     23  C   UNL d   1       5.277   2.377  -1.166  0.00  0.00     0.001 A 
ATOM     24  C   UNL d   1       5.899   2.648   0.053  0.00  0.00     0.000 A 
ATOM     25  C   UNL d   1       5.262   2.324   1.250  0.00  0.00     0.001 A 
ATOM     26  C   UNL d   1       4.006   1.715   1.229  0.00  0.00     0.013 A 
ENDBRANCH  10  21
TORSDOF 3
