REMARK  7 active torsions:
REMARK  status: ('A' for Active; 'I' for Inactive)
REMARK    1  A    between atoms: N_2  and  C_1 
REMARK    2  A    between atoms: C_3  and  N_2 
REMARK    3  A    between atoms: C_7  and  C_16 
REMARK    4  A    between atoms: O_13  and  C_7 
REMARK    5  A    between atoms: C_17  and  N_10 
REMARK    6  A    between atoms: C_16  and  C_18 
REMARK    7  A    between atoms: C_18  and  C_17 
ROOT
ATOM      1  C   UNL d   1       1.012   0.058  -0.078  0.00  0.00     0.172 C 
ATOM      2  S   UNL d   1       0.178  -0.781   1.107  0.00  0.00    -0.041 SA
ATOM      3  N   UNL d   1       2.374   0.019  -0.017  0.00  0.00    -0.367 N 
ATOM      4  H   UNL d   1       2.717  -0.482   0.797  0.00  0.00     0.161 HD
ENDROOT
BRANCH   1   5
ATOM      5  N   UNL d   1       0.474   0.733  -1.154  0.00  0.00    -0.331 N 
ATOM      6  H   UNL d   1       0.864   0.429  -2.038  0.00  0.00     0.168 HD
BRANCH   5   7
ATOM      7  C   UNL d   1      -0.844   1.252  -1.187  0.00  0.00     0.073 A 
ATOM      8  C   UNL d   1      -1.370   1.995  -0.117  0.00  0.00     0.145 A 
ATOM      9  C   UNL d   1      -2.685   2.443  -0.124  0.00  0.00     0.086 A 
ATOM     10  F   UNL d   1      -0.587   2.347   0.915  0.00  0.00    -0.204 F 
ATOM     11  C   UNL d   1      -3.477   2.167  -1.227  0.00  0.00     0.119 A 
ATOM     12  C   UNL d   1      -2.962   1.490  -2.330  0.00  0.00     0.044 A 
ATOM     13  F   UNL d   1      -4.754   2.570  -1.237  0.00  0.00    -0.206 F 
ATOM     14  C   UNL d   1      -1.634   1.047  -2.322  0.00  0.00     0.036 A 
ENDBRANCH   5   7
ENDBRANCH   1   5
BRANCH   3  15
ATOM     15  C   UNL d   1       3.328   0.865  -0.711  0.00  0.00     0.122 C 
BRANCH  15  16
ATOM     16  C   UNL d   1       3.267   2.312  -0.214  0.00  0.00     0.030 C 
BRANCH  16  17
ATOM     17  C   UNL d   1       4.339   3.191  -0.849  0.00  0.00     0.111 C 
BRANCH  17  18
ATOM     18  C   UNL d   1       4.248   3.202  -2.354  0.00  0.00     0.139 C 
ATOM     19  O   UNL d   1       5.100   2.730  -3.086  0.00  0.00    -0.650 OA
BRANCH  18  20
ATOM     20  O   UNL d   1       3.112   3.763  -2.825  0.00  0.00    -0.776 OA
ATOM     21  H   UNL d   1       2.520   4.114  -2.133  0.00  0.00     0.167 HD
ENDBRANCH  18  20
ENDBRANCH  17  18
ENDBRANCH  16  17
ENDBRANCH  15  16
ENDBRANCH   3  15
TORSDOF 7
