REMARK  4 active torsions:
REMARK  status: ('A' for Active; 'I' for Inactive)
REMARK    1  A    between atoms: C_2  and  N_1 
REMARK    2  A    between atoms: N_3  and  C_4 
REMARK    3  A    between atoms: C_7  and  C_11 
REMARK    4  A    between atoms: C_17  and  C_7 
ROOT
ATOM      1  N   UNL d   1      -1.556  -2.469  -4.362  0.00  0.00    -0.367 N 
ATOM      2  C   UNL d   1      -3.853  -2.931  -6.056  0.00  0.00     0.064 C 
ATOM      3  C   UNL d   1      -1.618  -1.796  -5.651  0.00  0.00     0.125 C 
ATOM      4  C   UNL d   1      -2.278  -3.726  -4.208  0.00  0.00     0.125 C 
ATOM      5  C   UNL d   1      -3.069  -1.609  -6.072  0.00  0.00     0.032 C 
ATOM      6  C   UNL d   1      -3.736  -3.546  -4.647  0.00  0.00     0.032 C 
ENDROOT
BRANCH   1   7
ATOM      7  C   UNL d   1      -0.906  -1.868  -3.309  0.00  0.00     0.103 A 
ATOM      8  C   UNL d   1      -0.264  -2.633  -2.332  0.00  0.00     0.051 A 
ATOM      9  C   UNL d   1       0.385  -2.017  -1.261  0.00  0.00     0.041 A 
ATOM     10  C   UNL d   1       0.363  -0.630  -1.185  0.00  0.00     0.118 A 
ATOM     11  C   UNL d   1      -0.282   0.079  -2.181  0.00  0.00     0.125 A 
ATOM     12  N   UNL d   1      -0.896  -0.516  -3.236  0.00  0.00    -0.350 N 
ATOM     13  HN  UNL d   1      -1.343   0.045  -3.961  1.00  0.00     0.166 HD
BRANCH  10  14
ATOM     14  N   UNL d   1       1.012   0.068  -0.088  0.00  0.00    -0.114 N 
ATOM     15  O   UNL d   1       0.949   1.305  -0.075  0.00  0.00    -0.532 OA
ATOM     16  O   UNL d   1       1.588  -0.616   0.771  0.00  0.00    -0.532 OA
ENDBRANCH  10  14
ENDBRANCH   1   7
BRANCH   2  17
ATOM     17  C   UNL d   1      -3.421  -3.958  -7.114  0.00  0.00     0.163 C 
ATOM     18  O   UNL d   1      -3.004  -5.075  -6.791  0.00  0.00    -0.292 OA
BRANCH  17  19
ATOM     19  C   UNL d   1      -3.545  -3.664  -8.575  0.00  0.00     0.010 A 
ATOM     20  C   UNL d   1      -4.163  -2.514  -9.076  0.00  0.00     0.015 A 
ATOM     21  C   UNL d   1      -4.223  -2.292 -10.455  0.00  0.00     0.001 A 
ATOM     22  C   UNL d   1      -3.697  -3.230 -11.341  0.00  0.00     0.000 A 
ATOM     23  C   UNL d   1      -3.107  -4.393 -10.855  0.00  0.00     0.001 A 
ATOM     24  C   UNL d   1      -3.030  -4.607  -9.479  0.00  0.00     0.015 A 
ENDBRANCH  17  19
ENDBRANCH   2  17
TORSDOF 4
