REMARK  6 active torsions:
REMARK  status: ('A' for Active; 'I' for Inactive)
REMARK    1  A    between atoms: N_10  and  C_2 
REMARK    2  A    between atoms: C_11  and  C_6 
REMARK    3  A    between atoms: C_17  and  N_10 
REMARK    4  A    between atoms: C_14  and  C_17 
REMARK    5  A    between atoms: C_18  and  C_14 
REMARK    6  A    between atoms: O_16  and  C_18 
ROOT
ATOM      1  C   UNL d   1      -1.409  -0.350  -0.040  0.00  0.00     0.140 C 
ATOM      2  C   UNL d   1      -0.539  -1.367  -0.239  0.00  0.00     0.074 C 
ATOM      3  S   UNL d   1       1.137  -1.073  -0.663  0.00  0.00    -0.090 SA
ATOM      4  C   UNL d   1      -1.028   1.079  -0.067  0.00  0.00     0.265 C 
ATOM      5  N   UNL d   1       0.274   1.442  -0.137  0.00  0.00    -0.342 N 
ATOM      6  C   UNL d   1       1.441   0.614  -0.125  0.00  0.00     0.157 C 
ATOM      7  C   UNL d   1      -2.798  -0.603   0.179  0.00  0.00     0.107 C 
ATOM      8  N   UNL d   1      -3.932  -0.841   0.282  0.00  0.00    -0.191 NA
ATOM      9  O   UNL d   1      -1.874   1.976  -0.029  0.00  0.00    -0.267 OA
ATOM     10  H   UNL d   1       0.406   2.446  -0.137  0.00  0.00     0.164 HD
ENDROOT
BRANCH   2  11
ATOM     11  N   UNL d   1      -0.867  -2.725  -0.165  0.00  0.00    -0.286 NA
ATOM     12  H   UNL d   1      -0.007  -3.273  -0.215  0.00  0.00     0.128 HD
BRANCH  11  13
ATOM     13  C   UNL d   1      -1.946  -3.340  -0.939  0.00  0.00     0.095 C 
BRANCH  13  14
ATOM     14  C   UNL d   1      -1.425  -4.526  -1.741  0.00  0.00     0.041 C 
BRANCH  14  15
ATOM     15  C   UNL d   1      -2.544  -5.100  -2.598  0.00  0.00     0.168 C 
BRANCH  15  16
ATOM     16  O   UNL d   1      -2.033  -6.191  -3.359  0.00  0.00    -0.396 OA
ATOM     17  C   UNL d   1      -3.045  -6.749  -4.190  0.00  0.00     0.201 C 
ENDBRANCH  15  16
ENDBRANCH  14  15
ENDBRANCH  13  14
ENDBRANCH  11  13
ENDBRANCH   2  11
BRANCH   6  18
ATOM     18  C   UNL d   1       2.303   0.702   1.160  0.00  0.00     0.022 C 
ATOM     19  C   UNL d   1       2.858   2.130   1.370  0.00  0.00     0.034 C 
ATOM     20  C   UNL d   1       2.247   2.920   2.479  0.00  0.00    -0.030 C 
ATOM     21  C   UNL d   1       1.406   2.411   3.382  0.00  0.00    -0.031 C 
ATOM     22  C   UNL d   1       0.967   0.987   3.396  0.00  0.00     0.027 C 
ATOM     23  C   UNL d   1       1.711   0.062   2.433  0.00  0.00     0.011 C 
ENDBRANCH   6  18
TORSDOF 6
