REMARK  6 active torsions:
REMARK  status: ('A' for Active; 'I' for Inactive)
REMARK    1  A    between atoms: C_13  and  C_1 
REMARK    2  A    between atoms: C_11  and  C_2 
REMARK    3  A    between atoms: C_5  and  N_14 
REMARK    4  A    between atoms: N_14  and  N_8 
REMARK    5  A    between atoms: C_15  and  N_10 
REMARK    6  A    between atoms: O_21  and  C_18 
ROOT
ATOM      1  C   UNL d   1       1.029   0.939   0.044  0.00  0.00     0.026 A 
ATOM      2  C   UNL d   1       0.985  -0.389   0.591  0.00  0.00     0.071 A 
ATOM      3  N   UNL d   1      -0.227  -0.939   0.408  0.00  0.00    -0.299 N 
ATOM      4  HN  UNL d   1      -0.537  -1.872   0.680  1.00  0.00     0.187 HD
ATOM      5  N   UNL d   1      -0.938   0.011  -0.212  0.00  0.00    -0.310 N 
ATOM      6  C   UNL d   1      -0.249   1.169  -0.411  0.00  0.00     0.122 A 
ATOM      7  H   UNL d   1      -1.899  -0.202  -0.466  0.00  0.00     0.186 HD
ENDROOT
BRANCH   1   8
ATOM      8  C   UNL d   1       2.141   1.865  -0.014  0.00  0.00     0.122 C 
ATOM      9  N   UNL d   1       3.312   1.377  -0.249  0.00  0.00    -0.309 N 
ATOM     10  HN  UNL d   1       3.424   0.399  -0.514  1.00  0.00     0.186 HD
BRANCH   9  11
ATOM     11  N   UNL d   1       4.399   2.196  -0.137  0.00  0.00    -0.277 N 
ATOM     12  H   UNL d   1       4.372   2.958   0.527  0.00  0.00     0.189 HD
BRANCH  11  13
ATOM     13  C   UNL d   1       5.567   1.857  -0.765  0.00  0.00     0.187 C 
ATOM     14  N   UNL d   1       6.746   2.288  -0.239  0.00  0.00    -0.358 N 
ATOM     15  H   UNL d   1       7.503   1.982  -0.844  0.00  0.00     0.162 HD
ATOM     16  S   UNL d   1       5.673   0.932  -2.161  0.00  0.00    -0.040 SA
BRANCH  14  17
ATOM     17  C   UNL d   1       7.159   2.551   1.156  0.00  0.00     0.021 C 
ATOM     18  C   UNL d   1       6.542   1.539   2.133  0.00  0.00     0.037 C 
ATOM     19  C   UNL d   1       8.695   2.391   1.212  0.00  0.00     0.037 C 
ATOM     20  C   UNL d   1       6.816   3.981   1.590  0.00  0.00     0.037 C 
ENDBRANCH  14  17
ENDBRANCH  11  13
ENDBRANCH   9  11
ENDBRANCH   1   8
BRANCH   2  21
ATOM     21  C   UNL d   1       2.043  -1.099   1.314  0.00  0.00    -0.007 A 
ATOM     22  C   UNL d   1       2.882  -0.402   2.194  0.00  0.00     0.016 A 
ATOM     23  C   UNL d   1       3.961  -1.032   2.814  0.00  0.00     0.037 A 
ATOM     24  C   UNL d   1       4.202  -2.384   2.595  0.00  0.00     0.068 A 
ATOM     25  C   UNL d   1       3.330  -3.105   1.774  0.00  0.00     0.037 A 
ATOM     26  C   UNL d   1       2.256  -2.470   1.136  0.00  0.00     0.016 A 
BRANCH  24  27
ATOM     27  O   UNL d   1       5.241  -3.098   3.126  0.00  0.00    -0.356 OA
ATOM     28  C   UNL d   1       6.192  -2.354   3.877  0.00  0.00     0.210 C 
ENDBRANCH  24  27
ENDBRANCH   2  21
TORSDOF 6
