REMARK  4 active torsions:
REMARK  status: ('A' for Active; 'I' for Inactive)
REMARK       I    between atoms: N_2  and  C_1 
REMARK       I    between atoms: N_4  and  C_1 
REMARK    1  A    between atoms: C_3  and  N_2 
REMARK    2  A    between atoms: N_8  and  C_3 
REMARK    3  A    between atoms: C_14  and  N_8 
REMARK    4  A    between atoms: C_10  and  C_14 
ROOT
ATOM      1  C   UNL d   1       0.927  -0.165  -0.037  0.00  0.00     0.676 C 
ATOM      2  N   UNL d   1       0.437   1.116  -0.188  0.00  0.00    -0.167 N 
ATOM      3  N   UNL d   1      -0.052  -1.126   0.019  0.00  0.00    -0.214 N 
ATOM      4  N   UNL d   1       2.178  -0.427   0.064  0.00  0.00    -0.234 N 
ATOM      5  HN  UNL d   1       2.586  -1.355   0.179  1.00  0.00     0.174 HD
ATOM      6  O   UNL d   1      -0.101  -3.772  -1.125  0.00  0.00    -0.388 OA
ATOM      7  C   UNL d   1      -0.810  -1.431  -1.213  0.00  0.00     0.167 C 
ATOM      8  C   UNL d   1       0.179  -2.333   0.838  0.00  0.00     0.167 C 
ATOM      9  C   UNL d   1       0.743  -3.488   0.005  0.00  0.00     0.188 C 
ATOM     10  C   UNL d   1      -0.185  -2.613  -1.967  0.00  0.00     0.188 C 
ATOM     11  H   UNL d   1      -0.564   1.113  -0.091  0.00  0.00     0.186 HD
ATOM     12  H   UNL d   1       2.701   0.457   0.009  0.00  0.00     0.174 HD
ENDROOT
BRANCH   2  13
ATOM     13  C   UNL d   1       0.999   2.379  -0.221  0.00  0.00     0.186 C 
ATOM     14  S   UNL d   1       2.608   2.762  -0.005  0.00  0.00    -0.040 SA
BRANCH  13  15
ATOM     15  N   UNL d   1       0.128   3.405  -0.477  0.00  0.00    -0.363 N 
ATOM     16  H   UNL d   1       0.557   4.324  -0.457  0.00  0.00     0.162 HD
BRANCH  15  17
ATOM     17  C   UNL d   1      -1.240   3.337  -0.954  0.00  0.00     0.148 C 
BRANCH  17  18
ATOM     18  C   UNL d   1      -2.156   3.512   0.212  0.00  0.00    -0.018 C 
ATOM     19  C   UNL d   1      -3.013   2.585   0.666  0.00  0.00     0.008 C 
ENDBRANCH  17  18
ENDBRANCH  15  17
ENDBRANCH  13  15
ENDBRANCH   2  13
TORSDOF 4
