REMARK  4 active torsions:
REMARK  status: ('A' for Active; 'I' for Inactive)
REMARK    1  A    between atoms: N_2  and  C_1 
REMARK       I    between atoms: C_3  and  N_2 
REMARK    2  A    between atoms: C_11  and  C_3 
REMARK    3  A    between atoms: C_4  and  S_9 
REMARK    4  A    between atoms: S_9  and  C_11 
ROOT
ATOM      1  N   UNL d   1       0.237   2.371   0.004  0.00  0.00    -0.321 N 
ATOM      2  C   UNL d   1       1.449   3.046  -0.056  0.00  0.00     0.232 C 
ATOM      3  O   UNL d   1       2.548   2.501   0.016  0.00  0.00    -0.272 OA
ATOM      4  H   UNL d   1      -0.546   2.881   0.395  0.00  0.00     0.169 HD
ENDROOT
BRANCH   2   5
ATOM      5  C   UNL d   1       1.292   4.561  -0.089  0.00  0.00     0.184 C 
BRANCH   5   6
ATOM      6  S   UNL d   1       2.300   5.291  -1.414  0.00  0.00    -0.103 SA
BRANCH   6   7
ATOM      7  C   UNL d   1       1.533   4.508  -2.816  0.00  0.00     0.069 A 
ATOM      8  N   UNL d   1       0.206   4.252  -2.744  0.00  0.00    -0.361 N 
ATOM      9  C   UNL d   1      -0.364   3.662  -3.812  0.00  0.00     0.089 A 
ATOM     10  HN  UNL d   1      -0.338   4.494  -1.916  1.00  0.00     0.165 HD
ATOM     11  C   UNL d   1       0.323   3.325  -4.969  0.00  0.00     0.017 A 
ATOM     12  C   UNL d   1       1.682   3.610  -5.030  0.00  0.00     0.004 A 
ATOM     13  C   UNL d   1       2.301   4.214  -3.938  0.00  0.00     0.037 A 
ENDBRANCH   6   7
ENDBRANCH   5   6
ENDBRANCH   2   5
BRANCH   1  14
ATOM     14  C   UNL d   1       0.163   0.963   0.079  0.00  0.00     0.112 A 
ATOM     15  C   UNL d   1      -0.709   0.403   1.015  0.00  0.00     0.146 A 
ATOM     16  F   UNL d   1      -1.431   1.207   1.811  0.00  0.00    -0.204 F 
ATOM     17  C   UNL d   1      -0.805  -0.976   1.182  0.00  0.00     0.045 A 
ATOM     18  C   UNL d   1      -0.056  -1.823   0.367  0.00  0.00     0.006 A 
ATOM     19  C   UNL d   1       0.784  -1.281  -0.607  0.00  0.00     0.045 A 
ATOM     20  C   UNL d   1       0.899   0.103  -0.739  0.00  0.00     0.146 A 
ATOM     21  F   UNL d   1       1.659   0.584  -1.736  0.00  0.00    -0.204 F 
ENDBRANCH   1  14
TORSDOF 4
