REMARK  2 active torsions:
REMARK  status: ('A' for Active; 'I' for Inactive)
REMARK    1  A    between atoms: C_12  and  C_5 
REMARK    2  A    between atoms: O_14  and  C_10 
ROOT
ATOM      1  C   UNL d   1       0.162  -0.591   0.062  0.00  0.00     0.137 A 
ATOM      2  C   UNL d   1       0.157   0.803   0.020  0.00  0.00     0.044 A 
ATOM      3  N   UNL d   1       2.338   0.062   0.107  0.00  0.00    -0.296 N 
ATOM      4  HN  UNL d   1       3.357   0.023   0.133  1.00  0.00     0.187 HD
ATOM      5  C   UNL d   1       1.554   1.159   0.086  0.00  0.00     0.073 A 
ATOM      6  N   UNL d   1       1.474  -0.966   0.085  0.00  0.00    -0.280 N 
ATOM      7  N   UNL d   1      -0.899  -1.428   0.059  0.00  0.00    -0.321 N 
ATOM      8  HN  UNL d   1      -0.823  -2.445   0.090  1.00  0.00     0.169 HD
ATOM      9  C   UNL d   1      -1.109   1.439  -0.094  0.00  0.00    -0.042 A 
ATOM     10  C   UNL d   1      -2.061  -0.767   0.010  0.00  0.00     0.141 A 
ATOM     11  C   UNL d   1      -2.237   0.601  -0.062  0.00  0.00     0.063 A 
ATOM     12  C   UNL d   1       1.960  -2.324   0.047  0.00  0.00     0.179 C 
ATOM     13  C   UNL d   1      -1.359   2.915  -0.230  0.00  0.00     0.049 C 
ENDROOT
BRANCH   5  14
ATOM     14  C   UNL d   1       2.172   2.488   0.092  0.00  0.00    -0.007 A 
ATOM     15  C   UNL d   1       1.615   3.546   0.823  0.00  0.00     0.014 A 
ATOM     16  C   UNL d   1       2.123   4.840   0.703  0.00  0.00     0.001 A 
ATOM     17  C   UNL d   1       3.240   5.080  -0.095  0.00  0.00     0.000 A 
ATOM     18  C   UNL d   1       3.863   4.021  -0.752  0.00  0.00     0.001 A 
ATOM     19  C   UNL d   1       3.330   2.731  -0.659  0.00  0.00     0.014 A 
ENDBRANCH   5  14
BRANCH  10  20
ATOM     20  O   UNL d   1      -3.157  -1.573   0.019  0.00  0.00    -0.346 OA
ATOM     21  H   UNL d   1      -2.727  -2.447   0.061  0.00  0.00     0.219 HD
ENDBRANCH  10  20
TORSDOF 2
