REMARK  1 active torsions:
REMARK  status: ('A' for Active; 'I' for Inactive)
REMARK    1  A    between atoms: C_6  and  N_1 
ROOT
ATOM      1  N   UNL d   1       2.444  -0.590   0.014  0.00  0.00    -0.254 N 
ATOM      2  C   UNL d   1       2.397   0.816  -0.014  0.00  0.00     0.186 A 
ATOM      3  C   UNL d   1       1.296  -1.395   0.176  0.00  0.00     0.267 A 
ATOM      4  C   UNL d   1      -0.010  -0.706   0.138  0.00  0.00     0.060 A 
ATOM      5  N   UNL d   1       1.157   1.392   0.077  0.00  0.00    -0.332 N 
ATOM      6  C   UNL d   1      -0.034   0.678   0.088  0.00  0.00     0.050 A 
ATOM      7  S   UNL d   1       3.658   1.913  -0.230  0.00  0.00    -0.040 SA
ATOM      8  O   UNL d   1       1.300  -2.612   0.346  0.00  0.00    -0.267 OA
ATOM      9  C   UNL d   1      -1.211  -1.427   0.127  0.00  0.00     0.026 A 
ATOM     10  C   UNL d   1      -1.246   1.364   0.017  0.00  0.00     0.031 A 
ATOM     11  C   UNL d   1      -2.437  -0.751   0.052  0.00  0.00    -0.061 A 
ATOM     12  C   UNL d   1      -2.443   0.648  -0.013  0.00  0.00     0.009 A 
ATOM     13  C   UNL d   1      -3.733  -1.506   0.017  0.00  0.00     0.048 C 
ATOM     14  H   UNL d   1       1.134   2.405   0.025  0.00  0.00     0.168 HD
ENDROOT
BRANCH   1  15
ATOM     15  C   UNL d   1       3.697  -1.280  -0.132  0.00  0.00     0.051 A 
ATOM     16  C   UNL d   1       3.937  -2.171  -1.203  0.00  0.00    -0.033 A 
ATOM     17  C   UNL d   1       5.212  -2.755  -1.331  0.00  0.00     0.028 A 
ATOM     18  C   UNL d   1       2.926  -2.512  -2.265  0.00  0.00     0.050 C 
ATOM     19  C   UNL d   1       6.234  -2.444  -0.436  0.00  0.00     0.011 A 
ATOM     20  C   UNL d   1       5.998  -1.585   0.629  0.00  0.00     0.021 A 
ATOM     21 BR   UNL d   1       7.961  -3.169  -0.693  0.00  0.00    -0.051 Br
ATOM     22  C   UNL d   1       4.731  -1.022   0.789  0.00  0.00     0.032 A 
ENDBRANCH   1  15
TORSDOF 1
