REMARK  1 active torsions:
REMARK  status: ('A' for Active; 'I' for Inactive)
REMARK    1  A    between atoms: O_18  and  C_16 
ROOT
ATOM      1  C   UNL d   1       1.611  -0.782  -0.003  0.00  0.00     0.161 A 
ATOM      2  N   UNL d   1       0.898   0.391  -0.005  0.00  0.00    -0.235 N 
ATOM      3  N   UNL d   1       0.981  -1.987  -0.001  0.00  0.00    -0.282 N 
ATOM      4  HN  UNL d   1       1.541  -2.839  -0.000  1.00  0.00     0.188 HD
ATOM      5  N   UNL d   1       1.666   1.507  -0.007  0.00  0.00    -0.302 N 
ATOM      6  HN  UNL d   1       1.367   2.482  -0.009  1.00  0.00     0.186 HD
ATOM      7  C   UNL d   1      -0.493   0.385  -0.004  0.00  0.00     0.089 A 
ATOM      8  C   UNL d   1       2.925  -0.386  -0.004  0.00  0.00     0.075 A 
ATOM      9  N   UNL d   1      -0.276  -2.078   0.001  0.00  0.00    -0.297 N 
ATOM     10  HN  UNL d   1      -0.726  -2.994   0.003  1.00  0.00     0.187 HD
ATOM     11  C   UNL d   1       2.912   1.017  -0.006  0.00  0.00     0.131 A 
ATOM     12  C   UNL d   1      -1.056  -0.897  -0.000  0.00  0.00     0.077 A 
ATOM     13  C   UNL d   1      -1.258   1.553  -0.005  0.00  0.00     0.070 A 
ATOM     14 BR   UNL d   1       4.461  -1.448  -0.002  0.00  0.00    -0.045 Br
ATOM     15  C   UNL d   1      -2.449  -0.994   0.002  0.00  0.00     0.036 A 
ATOM     16  C   UNL d   1      -2.640   1.419  -0.003  0.00  0.00     0.068 A 
ATOM     17  C   UNL d   1      -3.240   0.160   0.001  0.00  0.00     0.039 A 
ENDROOT
BRANCH  16  18
ATOM     18  O   UNL d   1      -3.460   2.508  -0.004  0.00  0.00    -0.361 OA
ATOM     19  H   UNL d   1      -2.915   3.313  -0.006  0.00  0.00     0.217 HD
ENDBRANCH  16  18
TORSDOF 1
