REMARK  5 active torsions:
REMARK  status: ('A' for Active; 'I' for Inactive)
REMARK    1  A    between atoms: C_2  and  C_1 
REMARK       I    between atoms: N_6  and  C_1 
REMARK    2  A    between atoms: C_3  and  C_2 
REMARK    3  A    between atoms: N_13  and  C_3 
REMARK    4  A    between atoms: C_9  and  N_6 
REMARK    5  A    between atoms: O_16  and  N_7 
ROOT
ATOM      1  C   UNL d   1       1.979  -3.837  -3.180  0.00  0.00     0.228 C 
ATOM      2  N   UNL d   1       1.546  -4.975  -3.826  0.00  0.00    -0.327 N 
ATOM      3  O   UNL d   1       1.246  -2.931  -2.781  0.00  0.00    -0.273 OA
ATOM      4  H   UNL d   1       2.244  -5.710  -3.942  0.00  0.00     0.169 HD
ENDROOT
BRANCH   1   5
ATOM      5  C   UNL d   1       3.477  -3.670  -3.044  0.00  0.00     0.174 C 
BRANCH   5   6
ATOM      6  C   UNL d   1       4.374  -4.886  -2.971  0.00  0.00     0.083 C 
ATOM      7  N   UNL d   1       4.075  -5.950  -3.664  0.00  0.00    -0.262 N 
ATOM      8  HN  UNL d   1       3.237  -6.056  -4.235  1.00  0.00     0.195 HD
BRANCH   7   9
ATOM      9  O   UNL d   1       5.072  -6.929  -3.511  0.00  0.00    -0.289 OA
ATOM     10  H   UNL d   1       4.729  -7.672  -4.042  0.00  0.00     0.244 HD
ENDBRANCH   7   9
BRANCH   6  11
ATOM     11  N   UNL d   1       5.524  -4.783  -2.228  0.00  0.00    -0.290 NA
ATOM     12  H   UNL d   1       5.947  -3.865  -2.145  0.00  0.00     0.125 HD
ATOM     13  H   UNL d   1       6.186  -5.521  -2.457  0.00  0.00     0.125 HD
ENDBRANCH   6  11
ENDBRANCH   5   6
ENDBRANCH   1   5
BRANCH   2  14
ATOM     14  C   UNL d   1       0.235  -5.267  -4.256  0.00  0.00     0.036 A 
ATOM     15  C   UNL d   1      -0.784  -4.315  -4.323  0.00  0.00     0.053 A 
ATOM     16  C   UNL d   1      -2.057  -4.664  -4.789  0.00  0.00     0.042 A 
ATOM     17 CL   UNL d   1      -3.257  -3.421  -4.869  0.00  0.00    -0.084 Cl
ATOM     18  C   UNL d   1      -2.342  -5.977  -5.189  0.00  0.00    -0.040 A 
ATOM     19  C   UNL d   1      -1.315  -6.929  -5.123  0.00  0.00     0.011 A 
ATOM     20  C   UNL d   1      -3.701  -6.376  -5.690  0.00  0.00     0.050 C 
ATOM     21  C   UNL d   1      -0.039  -6.575  -4.671  0.00  0.00     0.030 A 
ENDBRANCH   2  14
TORSDOF 5
