REMARK  4 active torsions:
REMARK  status: ('A' for Active; 'I' for Inactive)
REMARK    1  A    between atoms: C_6  and  N_1 
REMARK    2  A    between atoms: C_2  and  C_3 
REMARK    3  A    between atoms: C_4  and  C_2 
REMARK    4  A    between atoms: C_3  and  C_6 
ROOT
ATOM      1  C   UNL d   1      -2.356   1.299  -3.751  0.00  0.00     0.161 C 
ATOM      2  O   UNL d   1      -2.340   0.272  -4.423  0.00  0.00    -0.292 OA
ENDROOT
BRANCH   1   3
ATOM      3  C   UNL d   1      -2.315   1.294  -2.229  0.00  0.00     0.114 C 
BRANCH   3   4
ATOM      4  C   UNL d   1      -1.629   0.035  -1.697  0.00  0.00     0.280 C 
BRANCH   4   5
ATOM      5  N   UNL d   1      -1.534  -0.016  -0.221  0.00  0.00     0.092 N 
ATOM      6  C   UNL d   1      -0.777   1.105   0.381  0.00  0.00     0.298 C 
ATOM      7  C   UNL d   1       0.723   1.076   0.051  0.00  0.00     0.198 C 
ATOM      8  O   UNL d   1       1.321  -0.149   0.495  0.00  0.00    -0.388 OA
ATOM      9  C   UNL d   1       0.657  -1.286  -0.073  0.00  0.00     0.198 C 
ATOM     10  C   UNL d   1      -0.860  -1.268   0.208  0.00  0.00     0.298 C 
ENDBRANCH   4   5
ENDBRANCH   3   4
ENDBRANCH   1   3
BRANCH   1  11
ATOM     11  C   UNL d   1      -2.395   2.627  -4.428  0.00  0.00     0.010 A 
ATOM     12  C   UNL d   1      -1.860   2.754  -5.715  0.00  0.00     0.015 A 
ATOM     13  C   UNL d   1      -1.869   3.996  -6.357  0.00  0.00     0.007 A 
ATOM     14  C   UNL d   1      -2.417   5.118  -5.724  0.00  0.00    -0.062 A 
ATOM     15  C   UNL d   1      -2.956   4.986  -4.441  0.00  0.00     0.007 A 
ATOM     16  C   UNL d   1      -2.436   6.443  -6.427  0.00  0.00     0.048 C 
ATOM     17  C   UNL d   1      -2.947   3.745  -3.795  0.00  0.00     0.015 A 
ENDBRANCH   1  11
TORSDOF 4
