REMARK  5 active torsions:
REMARK  status: ('A' for Active; 'I' for Inactive)
REMARK    1  A    between atoms: C_6  and  N_2 
REMARK    2  A    between atoms: C_14  and  C_3 
REMARK    3  A    between atoms: C_15  and  N_7 
REMARK    4  A    between atoms: C_9  and  C_11 
REMARK    5  A    between atoms: C_10  and  C_13 
ROOT
ATOM      1  C   UNL d   1       0.980  -0.681   0.187  0.00  0.00     0.156 C 
ATOM      2  N   UNL d   1       0.947   0.743   0.110  0.00  0.00    -0.294 N 
ATOM      3  C   UNL d   1      -0.368   1.291   0.300  0.00  0.00     0.033 C 
ATOM      4  S   UNL d   1      -0.588  -1.223   0.861  0.00  0.00    -0.063 SA
ATOM      5  C   UNL d   1      -1.262   0.350   0.675  0.00  0.00     0.079 C 
ATOM      6  N   UNL d   1       1.943  -1.490  -0.154  0.00  0.00    -0.336 N 
ATOM      7  HN  UNL d   1       2.816  -1.087  -0.494  1.00  0.00     0.168 HD
ENDROOT
BRANCH   2   8
ATOM      8  C   UNL d   1       2.182   1.468   0.080  0.00  0.00     0.042 A 
ATOM      9  C   UNL d   1       3.235   1.099  -0.779  0.00  0.00     0.046 A 
ATOM     10  C   UNL d   1       4.450   1.812  -0.822  0.00  0.00     0.050 A 
ATOM     11  C   UNL d   1       4.591   2.964  -0.040  0.00  0.00     0.016 A 
ATOM     12  C   UNL d   1       3.585   3.327   0.845  0.00  0.00     0.003 A 
ATOM     13  C   UNL d   1       2.425   2.551   0.938  0.00  0.00     0.030 A 
BRANCH  10  14
ATOM     14  C   UNL d   1       5.598   1.352  -1.686  0.00  0.00     0.417 C 
ATOM     15  F   UNL d   1       5.444   0.095  -2.185  0.00  0.00    -0.166 F 
ATOM     16  F   UNL d   1       5.797   2.163  -2.761  0.00  0.00    -0.166 F 
ATOM     17  F   UNL d   1       6.782   1.338  -1.009  0.00  0.00    -0.166 F 
ENDBRANCH  10  14
ENDBRANCH   2   8
BRANCH   6  18
ATOM     18  C   UNL d   1       1.840  -2.888  -0.076  0.00  0.00     0.034 A 
ATOM     19  C   UNL d   1       0.792  -3.601  -0.676  0.00  0.00     0.045 A 
ATOM     20  C   UNL d   1       0.652  -4.989  -0.497  0.00  0.00     0.050 A 
ATOM     21  C   UNL d   1       1.663  -5.686   0.163  0.00  0.00     0.016 A 
ATOM     22  C   UNL d   1       2.774  -5.007   0.668  0.00  0.00     0.003 A 
ATOM     23  C   UNL d   1       2.847  -3.615   0.561  0.00  0.00     0.029 A 
BRANCH  20  24
ATOM     24  C   UNL d   1      -0.597  -5.694  -0.955  0.00  0.00     0.417 C 
ATOM     25  F   UNL d   1      -1.542  -4.862  -1.476  0.00  0.00    -0.166 F 
ATOM     26  F   UNL d   1      -0.357  -6.633  -1.909  0.00  0.00    -0.166 F 
ATOM     27  F   UNL d   1      -1.219  -6.355   0.066  0.00  0.00    -0.166 F 
ENDBRANCH  20  24
ENDBRANCH   6  18
BRANCH   3  28
ATOM     28  C   UNL d   1      -0.856   2.738   0.018  0.00  0.00    -0.008 C 
ATOM     29  C   UNL d   1      -0.026   3.560  -0.991  0.00  0.00     0.021 C 
ATOM     30  C   UNL d   1      -2.286   2.741  -0.616  0.00  0.00     0.021 C 
ATOM     31  C   UNL d   1      -1.011   3.492   1.359  0.00  0.00     0.021 C 
ENDBRANCH   3  28
TORSDOF 5
