REMARK  7 active torsions:
REMARK  status: ('A' for Active; 'I' for Inactive)
REMARK    1  A    between atoms: C_5  and  C_1 
REMARK    2  A    between atoms: C_2  and  C_4 
REMARK       I    between atoms: C_3  and  N_6 
REMARK    3  A    between atoms: C_9  and  C_3 
REMARK    4  A    between atoms: N_6  and  C_22 
REMARK    5  A    between atoms: O_13  and  C_8 
REMARK    6  A    between atoms: C_23  and  O_13 
REMARK    7  A    between atoms: O_31  and  C_24 
ROOT
ATOM      1  C   UNL d   1       5.877  -3.957  -0.396  0.00  0.00     0.035 A 
ATOM      2  C   UNL d   1       3.123  -4.529  -0.283  0.00  0.00     0.076 A 
ATOM      3  C   UNL d   1       5.329  -4.997  -1.160  0.00  0.00     0.032 A 
ATOM      4  C   UNL d   1       5.024  -3.183   0.390  0.00  0.00     0.032 A 
ATOM      5  C   UNL d   1       3.958  -5.280  -1.107  0.00  0.00     0.039 A 
ATOM      6  C   UNL d   1       3.652  -3.453   0.433  0.00  0.00     0.039 A 
ENDROOT
BRANCH   2   7
ATOM      7  O   UNL d   1       1.791  -4.884  -0.247  0.00  0.00    -0.311 OA
BRANCH   7   8
ATOM      8  C   UNL d   1       1.122  -4.748   0.951  0.00  0.00     0.077 A 
ATOM      9  C   UNL d   1      -0.168  -4.220   0.906  0.00  0.00     0.053 A 
ATOM     10  C   UNL d   1      -0.888  -4.002   2.093  0.00  0.00     0.051 A 
ATOM     11  C   UNL d   1      -0.289  -4.333   3.323  0.00  0.00     0.032 A 
ATOM     12  C   UNL d   1       0.997  -4.896   3.373  0.00  0.00     0.051 A 
ATOM     13  C   UNL d   1       1.680  -5.132   2.173  0.00  0.00     0.053 A 
BRANCH  10  14
ATOM     14  C   UNL d   1      -2.276  -3.408   2.036  0.00  0.00     0.417 C 
ATOM     15  F   UNL d   1      -2.810  -3.163   3.265  0.00  0.00    -0.166 F 
ATOM     16  F   UNL d   1      -3.162  -4.221   1.399  0.00  0.00    -0.166 F 
ATOM     17  F   UNL d   1      -2.308  -2.221   1.371  0.00  0.00    -0.166 F 
ENDBRANCH  10  14
BRANCH  12  18
ATOM     18  C   UNL d   1       1.673  -5.214   4.685  0.00  0.00     0.417 C 
ATOM     19  F   UNL d   1       0.898  -4.952   5.773  0.00  0.00    -0.166 F 
ATOM     20  F   UNL d   1       2.033  -6.522   4.785  0.00  0.00    -0.166 F 
ATOM     21  F   UNL d   1       2.817  -4.495   4.860  0.00  0.00    -0.166 F 
ENDBRANCH  12  18
ENDBRANCH   7   8
ENDBRANCH   2   7
BRANCH   1  22
ATOM     22  N   UNL d   1       7.275  -3.766  -0.462  0.00  0.00    -0.323 N 
ATOM     23  C   UNL d   1       8.023  -2.829   0.237  0.00  0.00     0.256 C 
ATOM     24  O   UNL d   1       7.595  -1.992   1.026  0.00  0.00    -0.267 OA
ATOM     25  H   UNL d   1       7.780  -4.441  -1.019  0.00  0.00     0.169 HD
BRANCH  23  26
ATOM     26  C   UNL d   1       9.498  -2.904   0.031  0.00  0.00     0.032 A 
ATOM     27  C   UNL d   1      10.069  -3.293  -1.187  0.00  0.00     0.020 A 
ATOM     28  C   UNL d   1      11.461  -3.375  -1.316  0.00  0.00     0.038 A 
ATOM     29  C   UNL d   1      12.286  -3.063  -0.234  0.00  0.00     0.068 A 
ATOM     30  C   UNL d   1      11.719  -2.621   0.962  0.00  0.00     0.038 A 
ATOM     31  C   UNL d   1      10.332  -2.546   1.098  0.00  0.00     0.020 A 
BRANCH  29  32
ATOM     32  O   UNL d   1      13.653  -3.103  -0.258  0.00  0.00    -0.356 OA
ATOM     33  C   UNL d   1      14.211  -4.138  -1.062  0.00  0.00     0.210 C 
ENDBRANCH  29  32
ENDBRANCH  23  26
ENDBRANCH   1  22
TORSDOF 7
