REMARK  4 active torsions:
REMARK  status: ('A' for Active; 'I' for Inactive)
REMARK    1  A    between atoms: C_2  and  C_1 
REMARK    2  A    between atoms: O_8  and  C_2 
REMARK    3  A    between atoms: C_7  and  C_3 
REMARK    4  A    between atoms: C_15  and  O_8 
ROOT
ATOM      1  C   UNL d   1       0.852  -0.013  -0.043  0.00  0.00     0.120 C 
ATOM      2  C   UNL d   1       0.201  -0.282   1.106  0.00  0.00     0.040 C 
ATOM      3  C   UNL d   1       0.188   0.217  -1.281  0.00  0.00     0.105 C 
ATOM      4  N   UNL d   1      -0.364   0.411  -2.282  0.00  0.00    -0.191 NA
ENDROOT
BRANCH   1   5
ATOM      5  C   UNL d   1       2.326   0.118   0.051  0.00  0.00     0.303 C 
ATOM      6  O   UNL d   1       2.960  -0.011   1.090  0.00  0.00    -0.258 OA
BRANCH   5   7
ATOM      7  O   UNL d   1       2.849   0.485  -1.145  0.00  0.00    -0.317 OA
BRANCH   7   8
ATOM      8  C   UNL d   1       4.184   1.010  -1.101  0.00  0.00     0.174 C 
ATOM      9  C   UNL d   1       4.094   2.502  -0.839  0.00  0.00     0.034 C 
ENDBRANCH   7   8
ENDBRANCH   5   7
ENDBRANCH   1   5
BRANCH   2  10
ATOM     10  C   UNL d   1      -1.253  -0.373   1.228  0.00  0.00    -0.035 A 
ATOM     11  C   UNL d   1      -1.900  -1.594   1.012  0.00  0.00     0.013 A 
ATOM     12  C   UNL d   1      -3.288  -1.677   1.123  0.00  0.00     0.020 A 
ATOM     13  C   UNL d   1      -4.027  -0.540   1.448  0.00  0.00     0.011 A 
ATOM     14  C   UNL d   1      -3.390   0.681   1.661  0.00  0.00     0.020 A 
ATOM     15 BR   UNL d   1      -5.907  -0.659   1.604  0.00  0.00    -0.051 Br
ATOM     16  C   UNL d   1      -2.001   0.765   1.551  0.00  0.00     0.013 A 
ENDBRANCH   2  10
TORSDOF 4
