REMARK  6 active torsions:
REMARK  status: ('A' for Active; 'I' for Inactive)
REMARK    1  A    between atoms: C_4  and  N_1 
REMARK    2  A    between atoms: C_5  and  C_4 
REMARK    3  A    between atoms: N_6  and  C_5 
REMARK    4  A    between atoms: C_7  and  C_5 
REMARK    5  A    between atoms: C_8  and  N_6 
REMARK    6  A    between atoms: C_13  and  C_7 
ROOT
ATOM      1  C   UNL d   1       3.825  -0.068  -0.059  0.00  0.00     0.088 C 
ATOM      2  C   UNL d   1       4.304   0.267   1.366  0.00  0.00     0.048 C 
ENDROOT
BRANCH   1   3
ATOM      3  C   UNL d   1       2.305  -0.068  -0.059  0.00  0.00    -0.051 C 
BRANCH   3   4
ATOM      4  N   UNL d   1       1.044  -0.068  -0.059  0.00  0.00    -0.368 N 
ATOM      5  HN2 UNL d   1       2.064  -0.068  -0.059  1.00  0.00     0.165 HD
ATOM      6  HN1 UNL d   1       0.024  -0.068  -0.059  1.00  0.00     0.165 HD
ENDBRANCH   3   4
ENDBRANCH   1   3
BRANCH   1   7
ATOM      7  N   UNL d   1       4.380  -1.421  -0.384  0.00  0.00    -0.272 NA
ATOM      8  H   UNL d   1       4.163  -2.082   0.366  0.00  0.00     0.129 HD
BRANCH   7   9
ATOM      9  C   UNL d   1       4.177  -2.084  -1.601  0.00  0.00     0.009 A 
ATOM     10  C   UNL d   1       5.134  -3.043  -1.970  0.00  0.00     0.025 A 
ATOM     11  C   UNL d   1       4.979  -3.833  -3.116  0.00  0.00     0.025 A 
ATOM     12  C   UNL d   1       3.841  -3.695  -3.900  0.00  0.00     0.034 A 
ATOM     13  C   UNL d   1       2.866  -2.772  -3.546  0.00  0.00     0.025 A 
ATOM     14 CL   UNL d   1       3.627  -4.676  -5.295  0.00  0.00    -0.084 Cl
ATOM     15  C   UNL d   1       3.035  -1.977  -2.404  0.00  0.00     0.025 A 
ENDBRANCH   7   9
ENDBRANCH   1   7
BRANCH   1  16
ATOM     16  C   UNL d   1       4.375   0.966  -1.089  0.00  0.00     0.078 C 
BRANCH  16  17
ATOM     17  C   UNL d   1       3.960   2.411  -0.902  0.00  0.00    -0.055 A 
ATOM     18  C   UNL d   1       4.755   3.294  -0.159  0.00  0.00     0.007 A 
ATOM     19  C   UNL d   1       4.374   4.629  -0.002  0.00  0.00     0.001 A 
ATOM     20  C   UNL d   1       3.199   5.095  -0.588  0.00  0.00     0.000 A 
ATOM     21  C   UNL d   1       2.404   4.226  -1.332  0.00  0.00     0.001 A 
ATOM     22  C   UNL d   1       2.781   2.893  -1.489  0.00  0.00     0.007 A 
ENDBRANCH  16  17
ENDBRANCH   1  16
TORSDOF 6
