REMARK  4 active torsions:
REMARK  status: ('A' for Active; 'I' for Inactive)
REMARK    1  A    between atoms: C_6  and  C_1 
REMARK    2  A    between atoms: N_7  and  C_6 
REMARK    3  A    between atoms: C_8  and  N_7 
REMARK    4  A    between atoms: N_10  and  C_9 
ROOT
ATOM      1  C   UNL d   1       0.446  -0.553  -1.185  0.00  0.00     0.135 C 
ATOM      2  C   UNL d   1       1.750  -0.072  -1.490  0.00  0.00     0.111 C 
ATOM      3  C   UNL d   1      -0.675   0.205  -1.624  0.00  0.00     0.111 C 
ATOM      4  N   UNL d   1       2.794   0.350  -1.776  0.00  0.00    -0.191 NA
ATOM      5  N   UNL d   1      -1.615   0.814  -1.932  0.00  0.00    -0.191 NA
ENDROOT
BRANCH   1   6
ATOM      6  C   UNL d   1       0.235  -1.690  -0.498  0.00  0.00     0.096 C 
BRANCH   6   7
ATOM      7  N   UNL d   1       1.108  -2.575   0.116  0.00  0.00    -0.266 NA
ATOM      8  H   UNL d   1       0.626  -3.311   0.639  0.00  0.00     0.133 HD
BRANCH   7   9
ATOM      9  C   UNL d   1       2.221  -2.162   0.908  0.00  0.00     0.033 A 
ATOM     10  C   UNL d   1       2.110  -1.235   1.974  0.00  0.00     0.027 A 
ATOM     11  C   UNL d   1       3.231  -0.998   2.783  0.00  0.00     0.025 A 
ATOM     12  C   UNL d   1       4.447  -1.637   2.540  0.00  0.00     0.002 A 
ATOM     13  C   UNL d   1       4.547  -2.564   1.509  0.00  0.00     0.002 A 
ATOM     14  C   UNL d   1       3.437  -2.837   0.710  0.00  0.00     0.025 A 
BRANCH  10  15
ATOM     15  N   UNL d   1       0.866  -0.742   2.416  0.00  0.00    -0.301 NA
ATOM     16  H   UNL d   1       0.149  -0.716   1.706  0.00  0.00     0.124 HD
ATOM     17  H   UNL d   1       0.939   0.134   2.925  0.00  0.00     0.124 HD
ENDBRANCH  10  15
ENDBRANCH   7   9
ENDBRANCH   6   7
ENDBRANCH   1   6
TORSDOF 4
