REMARK  5 active torsions:
REMARK  status: ('A' for Active; 'I' for Inactive)
REMARK    1  A    between atoms: N_18  and  C_7 
REMARK    2  A    between atoms: S_20  and  C_8 
REMARK    3  A    between atoms: C_11  and  C_9 
REMARK    4  A    between atoms: C_12  and  C_11 
REMARK    5  A    between atoms: C_13  and  N_18 
ROOT
ATOM      1  C   UNL d   1       3.955   3.583  -0.216  0.00  0.00     0.106 C 
ATOM      2  C   UNL d   1       3.268   2.433  -0.087  0.00  0.00     0.132 C 
ATOM      3  C   UNL d   1       5.372   3.597  -0.270  0.00  0.00     0.104 C 
ATOM      4  N   UNL d   1       6.532   3.592  -0.325  0.00  0.00    -0.191 NA
ENDROOT
BRANCH   1   5
ATOM      5  C   UNL d   1       3.201   4.865  -0.324  0.00  0.00     0.175 C 
ATOM      6  O   UNL d   1       2.056   4.997   0.091  0.00  0.00    -0.291 OA
BRANCH   5   7
ATOM      7  C   UNL d   1       3.919   6.005  -0.980  0.00  0.00     0.061 A 
ATOM      8  C   UNL d   1       4.228   7.260  -0.199  0.00  0.00     0.013 A 
ATOM      9  C   UNL d   1       3.199   7.296  -1.290  0.00  0.00     0.013 A 
ENDBRANCH   5   7
ENDBRANCH   1   5
BRANCH   2  10
ATOM     10  N   UNL d   1       3.761   1.152  -0.009  0.00  0.00    -0.200 N 
ATOM     11  H   UNL d   1       4.760   0.985  -0.045  0.00  0.00     0.183 HD
BRANCH  10  12
ATOM     12  C   UNL d   1       3.053  -0.047   0.065  0.00  0.00     0.685 A 
ATOM     13  N   UNL d   1       3.801  -1.146   0.096  0.00  0.00    -0.181 N 
ATOM     14  C   UNL d   1       3.138  -2.300   0.170  0.00  0.00     0.095 A 
ATOM     15  HN  UNL d   1       4.820  -1.109   0.065  1.00  0.00     0.185 HD
ATOM     16  N   UNL d   1       1.814  -2.409   0.205  0.00  0.00    -0.326 N 
ATOM     17  C   UNL d   1       3.951  -3.557   0.204  0.00  0.00     0.089 C 
ATOM     18  C   UNL d   1       1.159  -1.250   0.167  0.00  0.00     0.160 A 
ATOM     19  HN  UNL d   1       1.337  -3.309   0.258  1.00  0.00     0.169 HD
ATOM     20  N   UNL d   1       1.729  -0.050   0.095  0.00  0.00    -0.170 N 
ATOM     21  HN  UNL d   1       1.182   0.810   0.066  1.00  0.00     0.186 HD
BRANCH  18  22
ATOM     22  S   UNL d   1      -0.620  -1.258   0.210  0.00  0.00    -0.098 SA
ATOM     23  C   UNL d   1      -0.949  -3.033   0.320  0.00  0.00     0.099 C 
ENDBRANCH  18  22
ENDBRANCH  10  12
ENDBRANCH   2  10
TORSDOF 5
