REMARK  2 active torsions:
REMARK  status: ('A' for Active; 'I' for Inactive)
REMARK    1  A    between atoms: N_6  and  C_1 
REMARK       I    between atoms: C_8  and  N_6 
REMARK    2  A    between atoms: C_9  and  C_8 
ROOT
ATOM      1  C   UNL d   1       1.532   1.042  -0.161  0.00  0.00     0.138 A 
ATOM      2  N   UNL d   1       2.391   0.048   0.062  0.00  0.00    -0.282 N 
ATOM      3  HN  UNL d   1       3.399   0.118   0.205  1.00  0.00     0.189 HD
ATOM      4  C   UNL d   1       0.210   0.542  -0.334  0.00  0.00     0.076 A 
ATOM      5  N   UNL d   1       1.642  -1.063   0.059  0.00  0.00    -0.294 N 
ATOM      6  C   UNL d   1       0.305  -0.834  -0.130  0.00  0.00     0.067 A 
ATOM      7  C   UNL d   1      -1.051   1.092  -0.607  0.00  0.00     0.132 A 
ATOM      8  C   UNL d   1       2.281  -2.344   0.241  0.00  0.00     0.178 C 
ATOM      9  F   UNL d   1      -1.186   2.407  -0.831  0.00  0.00    -0.205 F 
ATOM     10  C   UNL d   1      -0.814  -1.680  -0.142  0.00  0.00     0.032 A 
ATOM     11  C   UNL d   1      -2.061  -1.098  -0.399  0.00  0.00     0.005 A 
ATOM     12  C   UNL d   1      -2.179   0.270  -0.644  0.00  0.00     0.043 A 
ENDROOT
BRANCH   1  13
ATOM     13  N   UNL d   1       1.865   2.380  -0.174  0.00  0.00    -0.305 N 
ATOM     14  C   UNL d   1       3.118   2.893   0.088  0.00  0.00     0.281 C 
ATOM     15  O   UNL d   1       4.158   2.252   0.208  0.00  0.00    -0.265 OA
ATOM     16  H   UNL d   1       1.104   3.041  -0.282  0.00  0.00     0.170 HD
BRANCH  14  17
ATOM     17  C   UNL d   1       3.107   4.337   0.248  0.00  0.00     0.142 A 
ATOM     18  O   UNL d   1       1.938   5.035   0.084  0.00  0.00    -0.317 OA
ATOM     19  C   UNL d   1       2.218   6.343   0.327  0.00  0.00     0.143 A 
ATOM     20  C   UNL d   1       3.545   6.503   0.647  0.00  0.00     0.027 A 
ATOM     21  C   UNL d   1       4.120   5.213   0.592  0.00  0.00     0.045 A 
ENDBRANCH  14  17
ENDBRANCH   1  13
TORSDOF 2
