REMARK  2 active torsions:
REMARK  status: ('A' for Active; 'I' for Inactive)
REMARK    1  A    between atoms: N_7  and  N_4 
REMARK    2  A    between atoms: C_11  and  C_12 
ROOT
ATOM      1  N   UNL d   1       0.691  -1.249   0.550  0.00  0.00    -0.306 N 
ATOM      2  C   UNL d   1       1.189  -0.147   1.200  0.00  0.00     0.161 C 
ATOM      3  C   UNL d   1      -0.569  -1.508   0.070  0.00  0.00     0.224 C 
ATOM      4  N   UNL d   1       2.477  -0.059   1.325  0.00  0.00    -0.280 N 
ATOM      5  HN  UNL d   1       3.121  -0.813   1.083  1.00  0.00     0.189 HD
ATOM      6  S   UNL d   1       0.026   1.019   1.785  0.00  0.00    -0.092 SA
ATOM      7  C   UNL d   1      -1.674  -0.537   0.399  0.00  0.00     0.114 C 
ATOM      8  O   UNL d   1      -0.782  -2.522  -0.595  0.00  0.00    -0.273 OA
ATOM      9  C   UNL d   1      -1.176   0.887   0.460  0.00  0.00     0.091 C 
ATOM     10  H   UNL d   1       1.396  -1.911   0.257  0.00  0.00     0.171 HD
ENDROOT
BRANCH   4  11
ATOM     11  N   UNL d   1       2.885   1.170   1.821  0.00  0.00    -0.309 N 
ATOM     12  C   UNL d   1       4.148   1.241   2.093  0.00  0.00     0.119 C 
ATOM     13  HN  UNL d   1       2.245   1.952   1.961  1.00  0.00     0.186 HD
BRANCH  12  14
ATOM     14  C   UNL d   1       4.735   2.535   2.519  0.00  0.00    -0.013 A 
ATOM     15  C   UNL d   1       6.016   2.644   3.078  0.00  0.00    -0.050 A 
ATOM     16  C   UNL d   1       6.927   1.485   3.358  0.00  0.00     0.049 C 
ATOM     17  C   UNL d   1       6.500   3.934   3.384  0.00  0.00     0.007 A 
ATOM     18  C   UNL d   1       5.725   5.075   3.155  0.00  0.00     0.001 A 
ATOM     19  C   UNL d   1       4.453   4.953   2.618  0.00  0.00     0.001 A 
ATOM     20  C   UNL d   1       3.959   3.693   2.301  0.00  0.00     0.013 A 
ENDBRANCH  12  14
ENDBRANCH   4  11
TORSDOF 2
