REMARK  7 active torsions:
REMARK  status: ('A' for Active; 'I' for Inactive)
REMARK    1  A    between atoms: C_5  and  C_1 
REMARK    2  A    between atoms: C_2  and  N_6 
REMARK    3  A    between atoms: N_9  and  C_2 
REMARK    4  A    between atoms: N_6  and  N_3 
REMARK    5  A    between atoms: O_16  and  C_7 
REMARK    6  A    between atoms: C_14  and  N_9 
REMARK    7  A    between atoms: C_12  and  C_14 
ROOT
ATOM      1  N   UNL d   1      -0.834   3.691   0.026  0.00  0.00    -0.302 N 
ATOM      2  HN  UNL d   1      -1.457   4.498   0.016  1.00  0.00     0.186 HD
ATOM      3  C   UNL d   1      -1.337   2.486   0.019  0.00  0.00     0.035 C 
ATOM      4  C   UNL d   1      -0.524   1.203   0.016  0.00  0.00     0.070 C 
ENDROOT
BRANCH   1   5
ATOM      5  N   UNL d   1       0.519   3.879   0.048  0.00  0.00    -0.276 N 
ATOM      6  H   UNL d   1       1.132   3.085   0.142  0.00  0.00     0.189 HD
BRANCH   5   7
ATOM      7  C   UNL d   1       1.102   5.145   0.068  0.00  0.00     0.186 C 
ATOM      8  S   UNL d   1       0.243   6.582   0.060  0.00  0.00    -0.040 SA
BRANCH   7   9
ATOM      9  N   UNL d   1       2.492   5.052   0.101  0.00  0.00    -0.365 N 
ATOM     10  H   UNL d   1       2.899   4.138  -0.021  0.00  0.00     0.161 HD
BRANCH   9  11
ATOM     11  C   UNL d   1       3.416   6.187   0.109  0.00  0.00     0.130 C 
BRANCH  11  12
ATOM     12  C   UNL d   1       4.919   5.806   0.158  0.00  0.00    -0.035 C 
ATOM     13  C   UNL d   1       5.336   5.028  -1.102  0.00  0.00     0.016 C 
ATOM     14  C   UNL d   1       5.746   7.106   0.218  0.00  0.00     0.016 C 
ATOM     15  C   UNL d   1       5.241   4.969   1.407  0.00  0.00     0.016 C 
ENDBRANCH  11  12
ENDBRANCH   9  11
ENDBRANCH   7   9
ENDBRANCH   5   7
ENDBRANCH   1   5
BRANCH   3  16
ATOM     16  C   UNL d   1      -2.843   2.337   0.015  0.00  0.00     0.024 A 
ATOM     17  C   UNL d   1      -3.697   3.456   0.012  0.00  0.00     0.078 A 
ATOM     18  C   UNL d   1      -5.089   3.303   0.013  0.00  0.00     0.040 A 
ATOM     19  C   UNL d   1      -5.653   2.030   0.017  0.00  0.00     0.045 A 
ATOM     20  C   UNL d   1      -4.819   0.924   0.021  0.00  0.00     0.117 A 
ATOM     21  C   UNL d   1      -3.432   1.063   0.020  0.00  0.00     0.058 A 
ATOM     22  F   UNL d   1      -5.351  -0.305   0.025  0.00  0.00    -0.206 F 
BRANCH  17  23
ATOM     23  O   UNL d   1      -3.254   4.750   0.007  0.00  0.00    -0.360 OA
ATOM     24  H   UNL d   1      -2.269   4.744   0.012  0.00  0.00     0.217 HD
ENDBRANCH  17  23
ENDBRANCH   3  16
TORSDOF 7
