REMARK  0 active torsions:
REMARK  status: ('A' for Active; 'I' for Inactive)
ROOT
ATOM      1  C   UNL d   1       2.677  -0.467  -0.157  0.00  0.00     0.084 A 
ATOM      2  C   UNL d   1       3.987  -1.031  -0.181  0.00  0.00     0.122 A 
ATOM      3  C   UNL d   1       2.478   1.004  -0.024  0.00  0.00     0.302 A 
ATOM      4  N   UNL d   1       4.411  -2.219  -0.581  0.00  0.00    -0.340 N 
ATOM      5  HN  UNL d   1       3.844  -2.977  -0.960  1.00  0.00     0.167 HD
ATOM      6  C   UNL d   1       1.618  -1.289  -0.248  0.00  0.00     0.035 A 
ATOM      7  O   UNL d   1       1.175   1.476  -0.093  0.00  0.00    -0.272 OA
ATOM      8  N   UNL d   1       5.050  -0.289   0.293  0.00  0.00    -0.340 N 
ATOM      9  C   UNL d   1       0.259  -0.766  -0.196  0.00  0.00     0.002 A 
ATOM     10  C   UNL d   1       0.065   0.612  -0.135  0.00  0.00     0.111 A 
ATOM     11  C   UNL d   1      -1.218   1.164  -0.086  0.00  0.00     0.070 A 
ATOM     12  C   UNL d   1       5.774  -2.223  -0.383  0.00  0.00     0.060 A 
ATOM     13  C   UNL d   1       6.194  -1.031   0.190  0.00  0.00     0.060 A 
ATOM     14  C   UNL d   1      -2.329   0.325  -0.080  0.00  0.00     0.050 A 
ATOM     15  C   UNL d   1      -0.857  -1.606  -0.194  0.00  0.00     0.038 A 
ATOM     16  O   UNL d   1       3.419   1.776   0.147  0.00  0.00    -0.259 OA
ATOM     17  C   UNL d   1      -2.142  -1.056  -0.128  0.00  0.00     0.036 A 
ATOM     18 CL   UNL d   1      -1.460   2.869  -0.018  0.00  0.00    -0.081 Cl
ATOM     19 CL   UNL d   1      -3.512  -2.097  -0.098  0.00  0.00    -0.084 Cl
ATOM     20  C   UNL d   1       6.728  -3.212  -0.669  0.00  0.00     0.032 A 
ATOM     21  C   UNL d   1       7.521  -0.758   0.529  0.00  0.00     0.032 A 
ATOM     22  C   UNL d   1       8.071  -2.962  -0.351  0.00  0.00     0.002 A 
ATOM     23  C   UNL d   1       8.456  -1.758   0.245  0.00  0.00     0.002 A 
ATOM     24  H   UNL d   1       4.988   0.666   0.627  0.00  0.00     0.167 HD
ENDROOT
TORSDOF 0
