REMARK  3 active torsions:
REMARK  status: ('A' for Active; 'I' for Inactive)
REMARK    1  A    between atoms: C_4  and  C_1 
REMARK    2  A    between atoms: C_7  and  C_4 
REMARK    3  A    between atoms: O_20  and  C_16 
ROOT
ATOM      1  C   UNL d   1      -2.324  -0.205  -0.061  0.00  0.00     0.127 A 
ATOM      2  O   UNL d   1      -1.555   0.929  -0.048  0.00  0.00    -0.306 OA
ATOM      3  C   UNL d   1      -1.506  -1.317   0.032  0.00  0.00     0.055 A 
ATOM      4  C   UNL d   1      -0.167  -0.843   0.031  0.00  0.00     0.003 A 
ATOM      5  C   UNL d   1      -0.256   0.540  -0.004  0.00  0.00     0.086 A 
ATOM      6  C   UNL d   1       1.113  -1.425   0.048  0.00  0.00     0.051 A 
ATOM      7  C   UNL d   1       0.837   1.399  -0.007  0.00  0.00     0.041 A 
ATOM      8  C   UNL d   1       2.247  -0.593   0.030  0.00  0.00     0.069 A 
ATOM      9  C   UNL d   1       2.103   0.799   0.008  0.00  0.00     0.039 A 
ENDROOT
BRANCH   1  10
ATOM     10  C   UNL d   1      -3.763  -0.078  -0.148  0.00  0.00     0.215 C 
ATOM     11  O   UNL d   1      -4.545  -0.949   0.225  0.00  0.00    -0.284 OA
BRANCH  10  12
ATOM     12  C   UNL d   1      -4.332   1.165  -0.747  0.00  0.00     0.019 A 
ATOM     13  C   UNL d   1      -3.700   1.807  -1.822  0.00  0.00     0.041 A 
ATOM     14  C   UNL d   1      -4.237   2.981  -2.355  0.00  0.00     0.056 A 
ATOM     15 CL   UNL d   1      -3.382   3.728  -3.659  0.00  0.00    -0.083 Cl
ATOM     16  C   UNL d   1      -5.419   3.511  -1.829  0.00  0.00     0.055 A 
ATOM     17  C   UNL d   1      -6.069   2.854  -0.779  0.00  0.00     0.026 A 
ATOM     18 CL   UNL d   1      -6.128   4.967  -2.430  0.00  0.00    -0.083 Cl
ATOM     19  C   UNL d   1      -5.532   1.679  -0.242  0.00  0.00     0.017 A 
ENDBRANCH  10  12
ENDBRANCH   1  10
BRANCH   8  20
ATOM     20  O   UNL d   1       3.438  -1.269   0.033  0.00  0.00    -0.356 OA
ATOM     21  C   UNL d   1       4.625  -0.486   0.005  0.00  0.00     0.210 C 
ENDBRANCH   8  20
TORSDOF 3
