REMARK  1 active torsions:
REMARK  status: ('A' for Active; 'I' for Inactive)
REMARK    1  A    between atoms: C_2  and  C_1 
ROOT
ATOM      1  C   UNL d   1       2.047  -2.439  -0.072  0.00  0.00     0.104 A 
ATOM      2  O   UNL d   1       3.067  -2.656   0.813  0.00  0.00    -0.308 OA
ATOM      3  C   UNL d   1       2.006  -3.466  -0.997  0.00  0.00     0.054 A 
ATOM      4  C   UNL d   1       3.049  -4.368  -0.660  0.00  0.00     0.002 A 
ATOM      5  C   UNL d   1       3.659  -3.831   0.467  0.00  0.00     0.086 A 
ATOM      6  C   UNL d   1       3.537  -5.580  -1.178  0.00  0.00     0.038 A 
ATOM      7  C   UNL d   1       4.725  -4.425   1.139  0.00  0.00     0.040 A 
ATOM      8  C   UNL d   1       4.611  -6.198  -0.524  0.00  0.00     0.035 A 
ATOM      9  C   UNL d   1       5.192  -5.636   0.616  0.00  0.00     0.026 A 
ATOM     10 CL   UNL d   1       5.227  -7.686  -1.139  0.00  0.00    -0.084 Cl
ENDROOT
BRANCH   1  11
ATOM     11  C   UNL d   1       1.116  -1.279  -0.026  0.00  0.00     0.073 A 
ATOM     12  N   UNL d   1       0.032  -1.175  -0.880  0.00  0.00    -0.352 N 
ATOM     13  C   UNL d   1      -0.652  -0.088  -0.594  0.00  0.00     0.047 A 
ATOM     14  HN  UNL d   1      -0.202  -1.840  -1.618  1.00  0.00     0.166 HD
ATOM     15  C   UNL d   1      -1.915   0.315  -1.271  0.00  0.00     0.076 C 
ATOM     16  S   UNL d   1      -0.001   0.891   0.662  0.00  0.00    -0.087 SA
ATOM     17  C   UNL d   1       1.262  -0.246   0.876  0.00  0.00     0.083 A 
ENDBRANCH   1  11
TORSDOF 1
