REMARK  4 active torsions:
REMARK  status: ('A' for Active; 'I' for Inactive)
REMARK    1  A    between atoms: C_3  and  C_1 
REMARK       I    between atoms: N_2  and  C_3 
REMARK    2  A    between atoms: C_9  and  C_6 
REMARK    3  A    between atoms: C_12  and  C_7 
REMARK    4  A    between atoms: O_15  and  C_9 
ROOT
ATOM      1  C   UNL d   1      -0.420  -1.340   0.206  0.00  0.00     0.064 A 
ATOM      2  C   UNL d   1      -1.680  -0.699   0.384  0.00  0.00     0.057 A 
ATOM      3  C   UNL d   1       0.484  -0.309   0.016  0.00  0.00     0.065 A 
ATOM      4  C   UNL d   1      -1.494   0.651   0.183  0.00  0.00     0.087 A 
ATOM      5  O   UNL d   1      -0.168   0.890  -0.032  0.00  0.00    -0.314 OA
ATOM      6  C   UNL d   1       1.951  -0.243  -0.152  0.00  0.00     0.077 C 
ENDROOT
BRANCH   1   7
ATOM      7  C   UNL d   1      -0.098  -2.756   0.292  0.00  0.00     0.257 C 
ATOM      8  N   UNL d   1      -0.924  -3.647  -0.378  0.00  0.00    -0.324 N 
ATOM      9  C   UNL d   1      -0.741  -5.069  -0.140  0.00  0.00     0.249 C 
ATOM     10  C   UNL d   1      -2.011  -3.321  -1.300  0.00  0.00     0.138 C 
ATOM     11  S   UNL d   1      -1.364  -5.881  -1.644  0.00  0.00    -0.132 SA
ATOM     12  C   UNL d   1      -2.564  -4.576  -1.967  0.00  0.00     0.096 C 
ATOM     13  O   UNL d   1       0.873  -3.146   0.937  0.00  0.00    -0.267 OA
BRANCH   9  14
ATOM     14  C   UNL d   1      -1.597  -5.494   1.067  0.00  0.00     0.291 C 
ATOM     15  O   UNL d   1      -2.607  -4.908   1.453  0.00  0.00    -0.262 OA
BRANCH  14  16
ATOM     16  O   UNL d   1      -1.123  -6.652   1.615  0.00  0.00    -0.324 OA
ATOM     17  C   UNL d   1      -1.911  -7.142   2.700  0.00  0.00     0.213 C 
ENDBRANCH  14  16
ENDBRANCH   9  14
ENDBRANCH   1   7
BRANCH   4  18
ATOM     18  C   UNL d   1      -2.398   1.796   0.158  0.00  0.00    -0.002 A 
ATOM     19  C   UNL d   1      -3.780   1.606   0.330  0.00  0.00     0.014 A 
ATOM     20  C   UNL d   1      -4.667   2.685   0.288  0.00  0.00     0.001 A 
ATOM     21  C   UNL d   1      -4.184   3.972   0.074  0.00  0.00     0.000 A 
ATOM     22  C   UNL d   1      -2.819   4.181  -0.096  0.00  0.00     0.001 A 
ATOM     23  C   UNL d   1      -1.930   3.100  -0.054  0.00  0.00     0.014 A 
ENDBRANCH   4  18
TORSDOF 4
