REMARK  4 active torsions:
REMARK  status: ('A' for Active; 'I' for Inactive)
REMARK    1  A    between atoms: C_9  and  N_1 
REMARK    2  A    between atoms: O_10  and  C_6 
REMARK    3  A    between atoms: C_13  and  C_9 
REMARK    4  A    between atoms: O_12  and  C_13 
ROOT
ATOM      1  N   UNL d   1      -0.671   1.159  -0.037  0.00  0.00    -0.253 N 
ATOM      2  N   UNL d   1      -1.391  -0.021  -0.046  0.00  0.00    -0.275 N 
ATOM      3  HN  UNL d   1      -2.411  -0.035  -0.068  1.00  0.00     0.189 HD
ATOM      4  C   UNL d   1       0.722   1.218   0.039  0.00  0.00     0.268 A 
ATOM      5  C   UNL d   1       1.449  -0.088   0.009  0.00  0.00     0.012 A 
ATOM      6  C   UNL d   1      -0.692  -1.095  -0.024  0.00  0.00     0.155 A 
ATOM      7  C   UNL d   1       0.753  -1.231  -0.012  0.00  0.00     0.069 A 
ATOM      8  O   UNL d   1       1.353   2.272   0.112  0.00  0.00    -0.266 OA
ATOM      9  C   UNL d   1       2.945  -0.072   0.002  0.00  0.00     0.054 C 
ENDROOT
BRANCH   1  10
ATOM     10  C   UNL d   1      -1.450   2.393   0.014  0.00  0.00     0.178 C 
BRANCH  10  11
ATOM     11  C   UNL d   1      -1.246   3.288  -1.209  0.00  0.00     0.186 C 
BRANCH  11  12
ATOM     12  O   UNL d   1      -2.084   4.439  -1.116  0.00  0.00    -0.399 OA
ATOM     13  H   UNL d   1      -1.822   5.034  -1.840  0.00  0.00     0.209 HD
ENDBRANCH  11  12
ENDBRANCH  10  11
ENDBRANCH   1  10
BRANCH   6  14
ATOM     14  O   UNL d   1      -1.307  -2.282  -0.009  0.00  0.00    -0.345 OA
ATOM     15  H   UNL d   1      -2.265  -2.114  -0.005  0.00  0.00     0.219 HD
ENDBRANCH   6  14
TORSDOF 4
