REMARK  4 active torsions:
REMARK  status: ('A' for Active; 'I' for Inactive)
REMARK    1  A    between atoms: C_3  and  C_1 
REMARK       I    between atoms: N_8  and  C_3 
REMARK    2  A    between atoms: C_10  and  C_5 
REMARK    3  A    between atoms: C_7  and  C_9 
REMARK    4  A    between atoms: C_12  and  N_8 
ROOT
ATOM      1  C   UNL d   1       0.243  -2.624   0.219  0.00  0.00     0.258 C 
ATOM      2  N   UNL d   1      -0.783  -3.544   0.390  0.00  0.00    -0.323 N 
ATOM      3  O   UNL d   1       1.416  -2.921   0.021  0.00  0.00    -0.267 OA
ATOM      4  H   UNL d   1      -1.723  -3.187   0.446  0.00  0.00     0.169 HD
ENDROOT
BRANCH   1   5
ATOM      5  C   UNL d   1      -0.172  -1.225   0.236  0.00  0.00     0.064 A 
ATOM      6  C   UNL d   1      -1.465  -0.639   0.421  0.00  0.00     0.057 A 
ATOM      7  C   UNL d   1      -1.319   0.729   0.306  0.00  0.00     0.087 A 
ATOM      8  O   UNL d   1      -0.008   1.026   0.091  0.00  0.00    -0.314 OA
ATOM      9  C   UNL d   1       0.683  -0.145   0.050  0.00  0.00     0.065 A 
ATOM     10  C   UNL d   1       2.140   0.007  -0.182  0.00  0.00     0.077 C 
BRANCH   7  11
ATOM     11  C   UNL d   1      -2.241   1.857   0.360  0.00  0.00    -0.002 A 
ATOM     12  C   UNL d   1      -1.775   3.171   0.529  0.00  0.00     0.016 A 
ATOM     13  C   UNL d   1      -2.668   4.244   0.605  0.00  0.00     0.024 A 
ATOM     14  C   UNL d   1      -4.037   4.012   0.507  0.00  0.00     0.034 A 
ATOM     15  C   UNL d   1      -4.520   2.720   0.324  0.00  0.00     0.024 A 
ATOM     16 CL   UNL d   1      -5.141   5.327   0.616  0.00  0.00    -0.084 Cl
ATOM     17  C   UNL d   1      -3.624   1.648   0.251  0.00  0.00     0.016 A 
ENDBRANCH   7  11
ENDBRANCH   1   5
BRANCH   2  18
ATOM     18  C   UNL d   1      -0.654  -4.949   0.310  0.00  0.00     0.035 A 
ATOM     19  C   UNL d   1       0.579  -5.606   0.294  0.00  0.00     0.045 A 
ATOM     20  C   UNL d   1       0.665  -6.992   0.089  0.00  0.00     0.050 A 
ATOM     21  C   UNL d   1      -0.516  -7.729  -0.054  0.00  0.00     0.016 A 
ATOM     22  C   UNL d   1      -1.755  -7.092   0.018  0.00  0.00     0.003 A 
ATOM     23  C   UNL d   1      -1.824  -5.708   0.205  0.00  0.00     0.029 A 
BRANCH  20  24
ATOM     24  C   UNL d   1       2.011  -7.665  -0.014  0.00  0.00     0.417 C 
ATOM     25  F   UNL d   1       3.067  -6.827   0.188  0.00  0.00    -0.166 F 
ATOM     26  F   UNL d   1       2.160  -8.673   0.888  0.00  0.00    -0.166 F 
ATOM     27  F   UNL d   1       2.213  -8.227  -1.239  0.00  0.00    -0.166 F 
ENDBRANCH  20  24
ENDBRANCH   2  18
TORSDOF 4
