REMARK  6 active torsions:
REMARK  status: ('A' for Active; 'I' for Inactive)
REMARK    1  A    between atoms: C_4  and  C_1 
REMARK    2  A    between atoms: C_2  and  C_3 
REMARK    3  A    between atoms: C_6  and  C_10 
REMARK       I    between atoms: N_19  and  C_6 
REMARK    4  A    between atoms: N_18  and  C_9 
REMARK    5  A    between atoms: C_10  and  C_20 
REMARK    6  A    between atoms: C_20  and  N_18 
ROOT
ATOM      1  C   UNL d   1       0.858   3.725   0.732  0.00  0.00     0.050 A 
ATOM      2  C   UNL d   1       0.641   1.302   0.677  0.00  0.00     0.050 A 
ATOM      3  C   UNL d   1       1.129   2.493   0.122  0.00  0.00     0.032 A 
ATOM      4  C   UNL d   1       0.070   3.750   1.895  0.00  0.00     0.045 A 
ATOM      5  C   UNL d   1      -0.149   1.364   1.839  0.00  0.00     0.045 A 
ATOM      6  C   UNL d   1      -0.485   2.585   2.436  0.00  0.00     0.029 A 
ENDROOT
BRANCH   6   7
ATOM      7  N   UNL d   1      -1.283   2.587   3.581  0.00  0.00    -0.389 N 
ATOM      8  H   UNL d   1      -1.762   1.704   3.741  0.00  0.00     0.159 HD
BRANCH   7   9
ATOM      9  C   UNL d   1      -2.128   3.750   3.886  0.00  0.00     0.129 C 
BRANCH   9  10
ATOM     10  C   UNL d   1      -3.206   3.949   2.823  0.00  0.00     0.122 C 
BRANCH  10  11
ATOM     11  C   UNL d   1      -4.029   5.180   3.098  0.00  0.00     0.216 C 
ATOM     12  O   UNL d   1      -3.895   5.905   4.075  0.00  0.00    -0.274 OA
ATOM     13  N   UNL d   1      -4.974   5.442   2.148  0.00  0.00    -0.370 N 
ATOM     14  H   UNL d   1      -5.051   4.920   1.286  0.00  0.00     0.159 HD
ATOM     15  H   UNL d   1      -5.529   6.281   2.257  0.00  0.00     0.159 HD
ENDBRANCH  10  11
ENDBRANCH   9  10
ENDBRANCH   7   9
ENDBRANCH   6   7
BRANCH   1  16
ATOM     16  C   UNL d   1       1.375   5.023   0.163  0.00  0.00     0.417 C 
ATOM     17  F   UNL d   1       2.137   4.861  -0.954  0.00  0.00    -0.166 F 
ATOM     18  F   UNL d   1       0.366   5.866  -0.194  0.00  0.00    -0.166 F 
ATOM     19  F   UNL d   1       2.146   5.713   1.047  0.00  0.00    -0.166 F 
ENDBRANCH   1  16
BRANCH   2  20
ATOM     20  C   UNL d   1       0.940  -0.037   0.048  0.00  0.00     0.417 C 
ATOM     21  F   UNL d   1       1.719   0.048  -1.066  0.00  0.00    -0.166 F 
ATOM     22  F   UNL d   1      -0.192  -0.690  -0.339  0.00  0.00    -0.166 F 
ATOM     23  F   UNL d   1       1.588  -0.881   0.896  0.00  0.00    -0.166 F 
ENDBRANCH   2  20
TORSDOF 6
