REMARK  2 active torsions:
REMARK  status: ('A' for Active; 'I' for Inactive)
REMARK    1  A    between atoms: C_7  and  N_1 
REMARK    2  A    between atoms: N_6  and  C_13 
ROOT
ATOM      1  N   UNL d   1      -2.336   0.079  -0.220  0.00  0.00    -0.252 N 
ATOM      2  C   UNL d   1      -1.683  -0.797   0.619  0.00  0.00     0.236 C 
ATOM      3  C   UNL d   1      -1.470   1.022  -0.719  0.00  0.00     0.236 C 
ATOM      4  C   UNL d   1      -0.308  -0.259   0.943  0.00  0.00     0.096 C 
ATOM      5  C   UNL d   1      -0.238   1.040   0.163  0.00  0.00     0.095 C 
ATOM      6  C   UNL d   1       1.045   1.390  -0.579  0.00  0.00     0.042 C 
ATOM      7  C   UNL d   1       0.780  -1.315   0.723  0.00  0.00     0.048 C 
ATOM      8  O   UNL d   1      -2.079  -1.870   1.060  0.00  0.00    -0.272 OA
ATOM      9  O   UNL d   1      -1.634   1.822  -1.627  0.00  0.00    -0.272 OA
ATOM     10  C   UNL d   1       2.035   0.285  -0.725  0.00  0.00    -0.023 C 
ATOM     11  C   UNL d   1       1.937  -0.918  -0.144  0.00  0.00    -0.087 C 
ATOM     12  C   UNL d   1       3.032  -1.936  -0.318  0.00  0.00     0.043 C 
ENDROOT
BRANCH   1  13
ATOM     13  C   UNL d   1      -3.741   0.034  -0.501  0.00  0.00     0.045 A 
ATOM     14  C   UNL d   1      -4.619  -0.652   0.346  0.00  0.00     0.032 A 
ATOM     15  C   UNL d   1      -6.012  -0.571   0.185  0.00  0.00     0.031 A 
ATOM     16  C   UNL d   1      -6.601   0.172  -0.843  0.00  0.00     0.030 A 
ATOM     17  C   UNL d   1      -5.723   0.807  -1.724  0.00  0.00     0.031 A 
ATOM     18  C   UNL d   1      -4.325   0.751  -1.553  0.00  0.00     0.032 A 
BRANCH  16  19
ATOM     19  N   UNL d   1      -7.971   0.247  -0.960  0.00  0.00    -0.377 N 
ATOM     20  C   UNL d   1      -8.668   0.396  -2.244  0.00  0.00     0.149 C 
ATOM     21  C   UNL d   1      -9.420   1.732  -2.301  0.00  0.00     0.187 C 
ATOM     22  O   UNL d   1     -10.307   1.885  -1.180  0.00  0.00    -0.388 OA
ATOM     23  C   UNL d   1      -9.564   1.842   0.050  0.00  0.00     0.187 C 
ATOM     24  C   UNL d   1      -8.815   0.507   0.220  0.00  0.00     0.149 C 
ENDBRANCH  16  19
ENDBRANCH   1  13
TORSDOF 2
