REMARK  1 active torsions:
REMARK  status: ('A' for Active; 'I' for Inactive)
REMARK    1  A    between atoms: N_11  and  C_7 
ROOT
ATOM      1  C   UNL d   1       0.101  -0.608  -0.121  0.00  0.00     0.103 C 
ATOM      2  C   UNL d   1       0.044   0.748  -0.012  0.00  0.00     0.134 C 
ATOM      3  N   UNL d   1       1.262   1.457   0.121  0.00  0.00    -0.288 N 
ATOM      4  N   UNL d   1       2.491  -0.562   0.136  0.00  0.00    -0.270 N 
ATOM      5  C   UNL d   1       2.511   0.809   0.203  0.00  0.00     0.332 C 
ATOM      6  C   UNL d   1       1.428  -1.161  -0.477  0.00  0.00     0.267 C 
ATOM      7  C   UNL d   1      -1.087  -1.472  -0.074  0.00  0.00     0.055 C 
ATOM      8  N   UNL d   1      -1.240   1.346  -0.045  0.00  0.00    -0.304 N 
ATOM      9  C   UNL d   1      -2.282  -0.870  -0.028  0.00  0.00     0.105 C 
ATOM     10  C   UNL d   1      -2.418   0.588  -0.027  0.00  0.00     0.251 C 
ATOM     11  O   UNL d   1       3.574   1.427   0.287  0.00  0.00    -0.246 OA
ATOM     12  O   UNL d   1       1.558  -2.059  -1.304  0.00  0.00    -0.267 OA
ATOM     13  O   UNL d   1      -3.556   1.056  -0.006  0.00  0.00    -0.268 OA
ATOM     14  C   UNL d   1       1.374   2.900   0.265  0.00  0.00     0.163 C 
ATOM     15  C   UNL d   1       3.773  -1.237   0.078  0.00  0.00     0.164 C 
ATOM     16  C   UNL d   1      -1.499   2.767  -0.196  0.00  0.00     0.161 C 
ENDROOT
BRANCH   7  17
ATOM     17  N   UNL d   1      -1.048  -2.880   0.007  0.00  0.00    -0.376 N 
ATOM     18  C   UNL d   1      -0.008  -3.640   0.738  0.00  0.00     0.149 C 
ATOM     19  C   UNL d   1      -0.560  -5.003   1.188  0.00  0.00     0.187 C 
ATOM     20  O   UNL d   1      -1.020  -5.772   0.066  0.00  0.00    -0.388 OA
ATOM     21  C   UNL d   1      -2.073  -5.071  -0.610  0.00  0.00     0.187 C 
ATOM     22  C   UNL d   1      -1.624  -3.686  -1.104  0.00  0.00     0.149 C 
ENDBRANCH   7  17
TORSDOF 1
