REMARK  6 active torsions:
REMARK  status: ('A' for Active; 'I' for Inactive)
REMARK    1  A    between atoms: C_7  and  N_1 
REMARK    2  A    between atoms: C_13  and  N_5 
REMARK    3  A    between atoms: C_16  and  C_7 
REMARK    4  A    between atoms: O_19  and  C_9 
REMARK    5  A    between atoms: O_25  and  C_10 
REMARK    6  A    between atoms: C_15  and  C_16 
ROOT
ATOM      1  N   UNL d   1      -0.460   0.911   0.072  0.00  0.00    -0.297 N 
ATOM      2  C   UNL d   1       0.684   0.472   0.699  0.00  0.00     0.150 C 
ATOM      3  C   UNL d   1      -1.162  -0.055  -0.615  0.00  0.00     0.235 C 
ATOM      4  S   UNL d   1       0.622  -1.262   0.893  0.00  0.00    -0.084 SA
ATOM      5  N   UNL d   1       1.625   1.279   1.065  0.00  0.00    -0.337 N 
ATOM      6  HN  UNL d   1       1.489   2.276   0.899  1.00  0.00     0.168 HD
ATOM      7  C   UNL d   1      -0.619  -1.439  -0.388  0.00  0.00     0.185 C 
ATOM      8  O   UNL d   1      -2.087   0.142  -1.403  0.00  0.00    -0.272 OA
ENDROOT
BRANCH   1   9
ATOM      9  C   UNL d   1      -0.747   2.341  -0.098  0.00  0.00     0.138 C 
BRANCH   9  10
ATOM     10  C   UNL d   1      -2.240   2.711  -0.066  0.00  0.00     0.059 C 
BRANCH  10  11
ATOM     11  C   UNL d   1      -2.485   4.198  -0.155  0.00  0.00    -0.054 A 
ATOM     12  C   UNL d   1      -2.585   4.822  -1.411  0.00  0.00     0.046 A 
ATOM     13  C   UNL d   1      -2.833   6.198  -1.529  0.00  0.00     0.102 A 
ATOM     14  C   UNL d   1      -3.005   6.954  -0.357  0.00  0.00     0.101 A 
ATOM     15  C   UNL d   1      -2.877   6.337   0.894  0.00  0.00     0.040 A 
ATOM     16  C   UNL d   1      -2.623   4.970   0.999  0.00  0.00     0.010 A 
BRANCH  13  17
ATOM     17  O   UNL d   1      -2.892   6.856  -2.729  0.00  0.00    -0.353 OA
ATOM     18  C   UNL d   1      -2.680   6.106  -3.917  0.00  0.00     0.210 C 
ENDBRANCH  13  17
BRANCH  14  19
ATOM     19  O   UNL d   1      -3.242   8.304  -0.275  0.00  0.00    -0.353 OA
ATOM     20  C   UNL d   1      -4.070   8.860  -1.290  0.00  0.00     0.210 C 
ENDBRANCH  14  19
ENDBRANCH  10  11
ENDBRANCH   9  10
ENDBRANCH   1   9
BRANCH   5  21
ATOM     21  C   UNL d   1       2.825   0.872   1.678  0.00  0.00     0.034 A 
ATOM     22  C   UNL d   1       3.638  -0.163   1.198  0.00  0.00     0.032 A 
ATOM     23  C   UNL d   1       4.823  -0.518   1.851  0.00  0.00     0.044 A 
ATOM     24  C   UNL d   1       5.245   0.219   2.951  0.00  0.00     0.116 A 
ATOM     25  C   UNL d   1       4.496   1.298   3.403  0.00  0.00     0.044 A 
ATOM     26  F   UNL d   1       6.387  -0.103   3.566  0.00  0.00    -0.206 F 
ATOM     27  C   UNL d   1       3.288   1.618   2.769  0.00  0.00     0.032 A 
ENDBRANCH   5  21
TORSDOF 6
