REMARK  7 active torsions:
REMARK  status: ('A' for Active; 'I' for Inactive)
REMARK    1  A    between atoms: C_6  and  C_1 
REMARK       I    between atoms: N_9  and  C_6 
REMARK    2  A    between atoms: C_14  and  N_9 
REMARK    3  A    between atoms: S_10  and  C_15 
REMARK    4  A    between atoms: C_16  and  S_10 
REMARK    5  A    between atoms: O_13  and  C_17 
REMARK    6  A    between atoms: C_15  and  C_14 
REMARK    7  A    between atoms: C_17  and  C_16 
ROOT
ATOM      1  C   UNL d   1       4.008   0.007  -0.084  0.00  0.00     0.260 C 
ATOM      2  O   UNL d   1       4.670  -1.030  -0.104  0.00  0.00    -0.267 OA
ATOM      3  N   UNL d   1       4.642   1.234  -0.102  0.00  0.00    -0.356 N 
ATOM      4  H   UNL d   1       4.086   2.054   0.111  0.00  0.00     0.162 HD
ENDROOT
BRANCH   1   5
ATOM      5  C   UNL d   1       2.550   0.040  -0.040  0.00  0.00     0.096 A 
ATOM      6  S   UNL d   1       1.702   1.529  -0.015  0.00  0.00    -0.082 SA
ATOM      7  C   UNL d   1       0.163   0.769  -0.015  0.00  0.00     0.017 A 
ATOM      8  C   UNL d   1      -1.094   1.407  -0.016  0.00  0.00     0.020 A 
ATOM      9  C   UNL d   1       0.281  -0.621  -0.015  0.00  0.00     0.004 A 
ATOM     10  C   UNL d   1      -2.252   0.627  -0.021  0.00  0.00     0.001 A 
ATOM     11  C   UNL d   1      -2.167  -0.756  -0.021  0.00  0.00     0.001 A 
ATOM     12  C   UNL d   1      -0.918  -1.384  -0.016  0.00  0.00     0.014 A 
ATOM     13  C   UNL d   1       1.667  -1.024  -0.020  0.00  0.00     0.068 A 
ATOM     14 CL   UNL d   1       2.103  -2.691  -0.018  0.00  0.00    -0.082 Cl
ENDBRANCH   1   5
BRANCH   3  15
ATOM     15  C   UNL d   1       6.088   1.343  -0.015  0.00  0.00     0.133 C 
BRANCH  15  16
ATOM     16  C   UNL d   1       6.569   2.794   0.052  0.00  0.00     0.093 C 
BRANCH  16  17
ATOM     17  S   UNL d   1       5.897   3.602   1.548  0.00  0.00    -0.165 SA
BRANCH  17  18
ATOM     18  C   UNL d   1       6.670   5.240   1.378  0.00  0.00     0.100 C 
BRANCH  18  19
ATOM     19  C   UNL d   1       6.274   6.110   2.565  0.00  0.00     0.174 C 
BRANCH  19  20
ATOM     20  O   UNL d   1       6.851   7.405   2.425  0.00  0.00    -0.400 OA
ATOM     21  H   UNL d   1       6.578   7.918   3.205  0.00  0.00     0.209 HD
ENDBRANCH  19  20
ENDBRANCH  18  19
ENDBRANCH  17  18
ENDBRANCH  16  17
ENDBRANCH  15  16
ENDBRANCH   3  15
TORSDOF 7
