REMARK  6 active torsions:
REMARK  status: ('A' for Active; 'I' for Inactive)
REMARK    1  A    between atoms: N_3  and  C_2 
REMARK       I    between atoms: C_4  and  N_3 
REMARK    2  A    between atoms: C_9  and  C_4 
REMARK    3  A    between atoms: C_5  and  C_11 
REMARK    4  A    between atoms: O_14  and  C_5 
REMARK    5  A    between atoms: C_6  and  C_9 
REMARK    6  A    between atoms: C_11  and  C_6 
ROOT
ATOM      1  N   UNL d   1      -1.285   2.840  -0.649  0.00  0.00    -0.326 N 
ATOM      2  C   UNL d   1      -0.087   3.478  -0.381  0.00  0.00     0.222 C 
ATOM      3  O   UNL d   1       0.980   2.872  -0.261  0.00  0.00    -0.273 OA
ATOM      4  H   UNL d   1      -1.962   3.362  -1.196  0.00  0.00     0.169 HD
ENDROOT
BRANCH   2   5
ATOM      5  C   UNL d   1      -0.184   4.999  -0.265  0.00  0.00     0.112 C 
BRANCH   5   6
ATOM      6  C   UNL d   1       1.189   5.742  -0.203  0.00  0.00    -0.030 C 
ATOM      7  C   UNL d   1       0.966   7.262  -0.021  0.00  0.00     0.016 C 
ATOM      8  C   UNL d   1       1.985   5.297   1.051  0.00  0.00     0.016 C 
BRANCH   6   9
ATOM      9  C   UNL d   1       2.054   5.494  -1.472  0.00  0.00     0.119 C 
BRANCH   9  10
ATOM     10  C   UNL d   1       1.431   5.901  -2.794  0.00  0.00     0.140 C 
ATOM     11  O   UNL d   1       0.336   6.420  -2.948  0.00  0.00    -0.650 OA
BRANCH  10  12
ATOM     12  O   UNL d   1       2.238   5.622  -3.847  0.00  0.00    -0.776 OA
ATOM     13  H   UNL d   1       3.072   5.179  -3.596  0.00  0.00     0.167 HD
ENDBRANCH  10  12
ENDBRANCH   9  10
ENDBRANCH   6   9
ENDBRANCH   5   6
ENDBRANCH   2   5
BRANCH   1  14
ATOM     14  C   UNL d   1      -1.356   1.421  -0.741  0.00  0.00     0.058 A 
ATOM     15  C   UNL d   1      -2.069   0.806  -1.784  0.00  0.00     0.082 A 
ATOM     16  C   UNL d   1      -2.105  -0.597  -1.867  0.00  0.00     0.058 A 
ATOM     17 CL   UNL d   1      -2.806   1.798  -3.003  0.00  0.00    -0.080 Cl
ATOM     18 CL   UNL d   1      -2.917  -1.430  -3.147  0.00  0.00    -0.082 Cl
ATOM     19  C   UNL d   1      -1.458  -1.379  -0.904  0.00  0.00     0.026 A 
ATOM     20  C   UNL d   1      -0.767  -0.771   0.138  0.00  0.00     0.004 A 
ATOM     21  C   UNL d   1      -0.715   0.619   0.218  0.00  0.00     0.031 A 
ENDBRANCH   1  14
TORSDOF 6
