REMARK  6 active torsions:
REMARK  status: ('A' for Active; 'I' for Inactive)
REMARK       I    between atoms: C_3  and  N_5 
REMARK    1  A    between atoms: C_16  and  C_3 
REMARK    2  A    between atoms: N_5  and  C_6 
REMARK    3  A    between atoms: C_7  and  C_17 
REMARK    4  A    between atoms: O_15  and  C_7 
REMARK    5  A    between atoms: O_14  and  C_16 
REMARK    6  A    between atoms: C_17  and  O_14 
ROOT
ATOM      1  C   UNL d   1       0.294  -0.675   0.078  0.00  0.00     0.104 A 
ATOM      2  C   UNL d   1       1.513  -1.348   0.161  0.00  0.00     0.069 A 
ATOM      3  C   UNL d   1       0.269   0.715  -0.069  0.00  0.00     0.102 A 
ATOM      4  C   UNL d   1       2.726  -0.659   0.047  0.00  0.00     0.037 A 
ATOM      5  O   UNL d   1      -0.814  -1.484   0.166  0.00  0.00    -0.348 OA
ATOM      6  O   UNL d   1      -0.858   1.495  -0.117  0.00  0.00    -0.348 OA
ATOM      7  C   UNL d   1       1.476   1.409  -0.191  0.00  0.00     0.042 A 
ATOM      8  C   UNL d   1       2.698   0.728  -0.116  0.00  0.00     0.032 A 
ATOM      9  C   UNL d   1      -2.749  -0.043  -0.070  0.00  0.00     0.053 C 
ATOM     10  C   UNL d   1      -1.859  -1.088  -0.719  0.00  0.00     0.178 C 
ATOM     11  C   UNL d   1      -1.939   1.004   0.678  0.00  0.00     0.178 C 
ENDROOT
BRANCH   4  12
ATOM     12  N   UNL d   1       3.978  -1.306   0.102  0.00  0.00    -0.325 N 
ATOM     13  C   UNL d   1       4.199  -2.667  -0.068  0.00  0.00     0.245 C 
ATOM     14  O   UNL d   1       3.362  -3.501  -0.407  0.00  0.00    -0.271 OA
ATOM     15  H   UNL d   1       4.797  -0.719   0.196  0.00  0.00     0.169 HD
BRANCH  13  16
ATOM     16  C   UNL d   1       5.657  -3.074   0.128  0.00  0.00     0.271 C 
BRANCH  16  17
ATOM     17  O   UNL d   1       6.136  -2.656   1.411  0.00  0.00    -0.372 OA
BRANCH  17  18
ATOM     18  C   UNL d   1       7.421  -3.209   1.694  0.00  0.00     0.277 C 
BRANCH  18  19
ATOM     19  C   UNL d   1       8.489  -2.531   0.855  0.00  0.00     0.164 C 
ATOM     20  O   UNL d   1       9.313  -3.114   0.168  0.00  0.00    -0.648 OA
BRANCH  19  21
ATOM     21  O   UNL d   1       8.400  -1.178   0.916  0.00  0.00    -0.775 OA
ATOM     22  H   UNL d   1       7.665  -0.905   1.505  0.00  0.00     0.167 HD
ENDBRANCH  19  21
ENDBRANCH  18  19
ENDBRANCH  17  18
ENDBRANCH  16  17
ENDBRANCH  13  16
ENDBRANCH   4  12
TORSDOF 6
