REMARK  2 active torsions:
REMARK  status: ('A' for Active; 'I' for Inactive)
REMARK    1  A    between atoms: C_8  and  C_4 
REMARK    2  A    between atoms: S_10  and  C_9 
ROOT
ATOM      1  C   UNL d   1       1.872   0.500   0.105  0.00  0.00    -0.002 A 
ATOM      2  C   UNL d   1       0.825   1.556   0.266  0.00  0.00     0.189 A 
ATOM      3  C   UNL d   1      -0.437   0.860   0.548  0.00  0.00     0.021 A 
ATOM      4  C   UNL d   1       3.166   0.789  -0.088  0.00  0.00     0.023 C 
ATOM      5  C   UNL d   1      -0.214  -0.517   0.548  0.00  0.00    -0.040 A 
ATOM      6  C   UNL d   1       1.212  -0.850   0.234  0.00  0.00     0.082 A 
ATOM      7  O   UNL d   1       0.981   2.759   0.191  0.00  0.00    -0.287 OA
ATOM      8  C   UNL d   1      -1.682   1.409   0.802  0.00  0.00     0.016 A 
ATOM      9  C   UNL d   1      -1.253  -1.394   0.816  0.00  0.00     0.008 A 
ATOM     10  C   UNL d   1      -2.732   0.529   1.071  0.00  0.00     0.001 A 
ATOM     11  C   UNL d   1      -2.518  -0.861   1.081  0.00  0.00     0.001 A 
ENDROOT
BRANCH   4  12
ATOM     12  C   UNL d   1       4.175  -0.263  -0.215  0.00  0.00    -0.035 A 
ATOM     13  C   UNL d   1       4.489  -0.793  -1.468  0.00  0.00     0.012 A 
ATOM     14  C   UNL d   1       5.411  -1.842  -1.585  0.00  0.00     0.019 A 
ATOM     15  C   UNL d   1       6.026  -2.378  -0.449  0.00  0.00    -0.000 A 
ATOM     16  C   UNL d   1       5.720  -1.828   0.802  0.00  0.00     0.019 A 
ATOM     17  C   UNL d   1       4.799  -0.782   0.921  0.00  0.00     0.012 A 
BRANCH  15  18
ATOM     18  S   UNL d   1       7.240  -3.690  -0.500  0.00  0.00    -0.134 SA
ATOM     19  C   UNL d   1       6.688  -4.685  -1.911  0.00  0.00     0.095 C 
ENDBRANCH  15  18
ENDBRANCH   4  12
TORSDOF 2
