REMARK  3 active torsions:
REMARK  status: ('A' for Active; 'I' for Inactive)
REMARK    1  A    between atoms: C_2  and  C_1 
REMARK       I    between atoms: N_8  and  C_2 
REMARK    2  A    between atoms: C_12  and  N_8 
REMARK    3  A    between atoms: C_10  and  C_11 
ROOT
ATOM      1  C   UNL d   1      -0.795   4.166  -1.131  0.00  0.00     0.260 C 
ATOM      2  N   UNL d   1      -1.194   3.297  -0.125  0.00  0.00    -0.323 N 
ATOM      3  O   UNL d   1      -1.573   4.807  -1.828  0.00  0.00    -0.267 OA
ATOM      4  H   UNL d   1      -0.498   2.984   0.534  0.00  0.00     0.169 HD
ENDROOT
BRANCH   2   5
ATOM      5  C   UNL d   1      -2.508   2.800   0.065  0.00  0.00     0.035 A 
ATOM      6  C   UNL d   1      -3.560   3.047  -0.813  0.00  0.00     0.030 A 
ATOM      7  C   UNL d   1      -4.797   2.414  -0.655  0.00  0.00     0.010 A 
ATOM      8  C   UNL d   1      -5.029   1.499   0.384  0.00  0.00    -0.051 A 
ATOM      9  C   UNL d   1      -3.991   1.319   1.311  0.00  0.00     0.010 A 
ATOM     10  C   UNL d   1      -2.747   1.956   1.153  0.00  0.00     0.030 A 
BRANCH   8  11
ATOM     11  C   UNL d   1      -6.336   0.689   0.403  0.00  0.00    -0.024 C 
ATOM     12  C   UNL d   1      -6.441  -0.298   1.585  0.00  0.00     0.019 C 
ATOM     13  C   UNL d   1      -7.563   1.623   0.469  0.00  0.00     0.019 C 
ATOM     14  C   UNL d   1      -6.412  -0.147  -0.897  0.00  0.00     0.019 C 
ENDBRANCH   8  11
ENDBRANCH   2   5
BRANCH   1  15
ATOM     15  C   UNL d   1       0.640   4.323  -1.326  0.00  0.00     0.087 A 
ATOM     16  C   UNL d   1       1.180   5.326  -2.116  0.00  0.00     0.090 A 
ATOM     17  O   UNL d   1       2.530   5.225  -2.138  0.00  0.00    -0.242 OA
ATOM     18  C   UNL d   1       0.595   6.425  -2.915  0.00  0.00     0.080 C 
ATOM     19  N   UNL d   1       2.920   4.142  -1.385  0.00  0.00    -0.265 N 
ATOM     20  C   UNL d   1       1.792   3.583  -0.924  0.00  0.00     0.047 A 
ATOM     21  HN  UNL d   1       3.875   3.827  -1.213  1.00  0.00     0.194 HD
ATOM     22  C   UNL d   1       1.920   2.333  -0.139  0.00  0.00     0.071 C 
ENDBRANCH   1  15
TORSDOF 3
