REMARK  11 active torsions:
REMARK  status: ('A' for Active; 'I' for Inactive)
REMARK    1  A    between atoms: C_3  and  C_1 
REMARK    2  A    between atoms: C_8  and  C_2 
REMARK    3  A    between atoms: C_4  and  C_6 
REMARK    4  A    between atoms: O_22  and  C_5 
REMARK       I    between atoms: N_11  and  C_8 
REMARK    5  A    between atoms: C_9  and  N_12 
REMARK    6  A    between atoms: N_21  and  C_9 
REMARK    7  A    between atoms: N_12  and  N_11 
REMARK    8  A    between atoms: C_25  and  N_21 
REMARK    9  A    between atoms: C_23  and  C_25 
REMARK   10  A    between atoms: C_26  and  C_23 
REMARK   11  A    between atoms: O_24  and  C_26 
ROOT
ATOM      1  C   UNL d   1      -0.913  -1.096  -0.085  0.00  0.00     0.067 A 
ATOM      2  C   UNL d   1       0.435  -1.464  -0.268  0.00  0.00     0.082 A 
ATOM      3  C   UNL d   1       1.435  -0.451  -0.179  0.00  0.00     0.085 A 
ATOM      4  C   UNL d   1      -0.248   1.245   0.330  0.00  0.00     0.051 A 
ATOM      5  C   UNL d   1      -1.228   0.256   0.228  0.00  0.00     0.033 A 
ATOM      6  C   UNL d   1       1.078   0.876   0.102  0.00  0.00     0.053 A 
ENDROOT
BRANCH   2   7
ATOM      7  C   UNL d   1       0.900  -2.892  -0.408  0.00  0.00     0.273 C 
ATOM      8  N   UNL d   1       0.299  -3.675  -1.383  0.00  0.00    -0.264 N 
ATOM      9  H   UNL d   1      -0.550  -3.367  -1.859  0.00  0.00     0.190 HD
ATOM     10  O   UNL d   1       1.774  -3.341   0.338  0.00  0.00    -0.266 OA
BRANCH   8  11
ATOM     11  N   UNL d   1       0.401  -5.092  -1.293  0.00  0.00    -0.274 N 
ATOM     12  H   UNL d   1       1.046  -5.444  -0.589  0.00  0.00     0.189 HD
BRANCH  11  13
ATOM     13  C   UNL d   1      -0.031  -5.883  -2.326  0.00  0.00     0.186 C 
ATOM     14  S   UNL d   1      -0.501  -5.322  -3.836  0.00  0.00    -0.040 SA
BRANCH  13  15
ATOM     15  N   UNL d   1      -0.174  -7.220  -2.086  0.00  0.00    -0.366 N 
ATOM     16  H   UNL d   1      -0.544  -7.722  -2.882  0.00  0.00     0.161 HD
BRANCH  15  17
ATOM     17  C   UNL d   1      -0.333  -7.873  -0.790  0.00  0.00     0.124 C 
BRANCH  17  18
ATOM     18  C   UNL d   1      -1.676  -7.526  -0.143  0.00  0.00     0.046 C 
BRANCH  18  19
ATOM     19  C   UNL d   1      -1.883  -8.248   1.182  0.00  0.00     0.168 C 
BRANCH  19  20
ATOM     20  O   UNL d   1      -0.816  -7.911   2.066  0.00  0.00    -0.396 OA
ATOM     21  C   UNL d   1      -0.950  -8.552   3.326  0.00  0.00     0.201 C 
ENDBRANCH  19  20
ENDBRANCH  18  19
ENDBRANCH  17  18
ENDBRANCH  15  17
ENDBRANCH  13  15
ENDBRANCH  11  13
ENDBRANCH   8  11
ENDBRANCH   2   7
BRANCH   1  22
ATOM     22  C   UNL d   1      -2.125  -1.998  -0.154  0.00  0.00     0.418 C 
ATOM     23  F   UNL d   1      -1.933  -3.242  -0.644  0.00  0.00    -0.166 F 
ATOM     24  F   UNL d   1      -2.723  -2.150   1.057  0.00  0.00    -0.166 F 
ATOM     25  F   UNL d   1      -3.080  -1.453  -0.965  0.00  0.00    -0.166 F 
ENDBRANCH   1  22
BRANCH   3  26
ATOM     26  O   UNL d   1       2.740  -0.798  -0.438  0.00  0.00    -0.355 OA
ATOM     27  C   UNL d   1       3.750   0.104   0.015  0.00  0.00     0.210 C 
ENDBRANCH   3  26
BRANCH   4  28
ATOM     28  C   UNL d   1      -0.586   2.675   0.666  0.00  0.00     0.417 C 
ATOM     29  F   UNL d   1      -1.926   2.901   0.797  0.00  0.00    -0.166 F 
ATOM     30  F   UNL d   1      -0.025   3.076   1.843  0.00  0.00    -0.166 F 
ATOM     31  F   UNL d   1      -0.146   3.552  -0.273  0.00  0.00    -0.166 F 
ENDBRANCH   4  28
TORSDOF 11
