REMARK  2 active torsions:
REMARK  status: ('A' for Active; 'I' for Inactive)
REMARK    1  A    between atoms: C_4  and  C_2 
REMARK    2  A    between atoms: C_8  and  C_5 
ROOT
ATOM      1  N   UNL d   1       0.177   0.413  -0.265  0.00  0.00    -0.364 N 
ATOM      2  C   UNL d   1      -1.337  -1.179   0.109  0.00  0.00    -0.008 A 
ATOM      3  C   UNL d   1      -0.017  -0.940  -0.219  0.00  0.00     0.100 A 
ATOM      4  C   UNL d   1      -1.965   0.099   0.280  0.00  0.00     0.002 A 
ATOM      5  C   UNL d   1      -0.992   1.072   0.030  0.00  0.00     0.043 A 
ATOM      6  C   UNL d   1      -3.265   0.538   0.608  0.00  0.00     0.014 A 
ATOM      7  C   UNL d   1      -1.249   2.447   0.091  0.00  0.00     0.030 A 
ATOM      8  C   UNL d   1      -3.540   1.911   0.677  0.00  0.00     0.001 A 
ATOM      9  C   UNL d   1      -2.545   2.850   0.419  0.00  0.00     0.002 A 
ATOM     10  H   UNL d   1       1.051   0.869  -0.486  0.00  0.00     0.165 HD
ENDROOT
BRANCH   2  11
ATOM     11  C   UNL d   1      -1.940  -2.481   0.239  0.00  0.00     0.014 C 
ATOM     12  C   UNL d   1      -1.328  -3.638  -0.065  0.00  0.00     0.013 C 
BRANCH  12  13
ATOM     13  C   UNL d   1      -1.836  -5.026   0.010  0.00  0.00    -0.030 A 
ATOM     14  C   UNL d   1      -3.116  -5.477  -0.364  0.00  0.00    -0.052 A 
ATOM     15  C   UNL d   1      -4.238  -4.586  -0.821  0.00  0.00     0.049 C 
ATOM     16  C   UNL d   1      -3.400  -6.860  -0.312  0.00  0.00     0.007 A 
ATOM     17  C   UNL d   1      -2.430  -7.791   0.056  0.00  0.00     0.001 A 
ATOM     18  C   UNL d   1      -1.160  -7.354   0.400  0.00  0.00     0.001 A 
ATOM     19  C   UNL d   1      -0.871  -5.988   0.381  0.00  0.00     0.012 A 
ENDBRANCH  12  13
ENDBRANCH   2  11
TORSDOF 2
