REMARK  6 active torsions:
REMARK  status: ('A' for Active; 'I' for Inactive)
REMARK    1  A    between atoms: C_7  and  C_1 
REMARK    2  A    between atoms: N_14  and  C_3 
REMARK    3  A    between atoms: C_9  and  C_7 
REMARK    4  A    between atoms: C_10  and  C_7 
REMARK    5  A    between atoms: N_8  and  C_10 
REMARK    6  A    between atoms: O_21  and  C_17 
ROOT
ATOM      1  C   UNL d   1      -0.221   3.150  -0.129  0.00  0.00     0.090 C 
ENDROOT
BRANCH   1   2
ATOM      2  C   UNL d   1      -0.326   1.606  -0.081  0.00  0.00     0.059 A 
ATOM      3  C   UNL d   1      -1.278   0.822  -0.643  0.00  0.00     0.096 A 
ATOM      4  N   UNL d   1      -1.238  -0.555  -0.458  0.00  0.00    -0.294 N 
ATOM      5  C   UNL d   1      -2.171  -1.478  -1.094  0.00  0.00     0.162 C 
ATOM      6  C   UNL d   1      -0.285  -1.200   0.332  0.00  0.00     0.332 A 
ATOM      7  N   UNL d   1       0.634  -0.397   0.965  0.00  0.00    -0.270 N 
ATOM      8  O   UNL d   1      -0.256  -2.428   0.450  0.00  0.00    -0.246 OA
ATOM      9  C   UNL d   1       0.720   0.957   0.770  0.00  0.00     0.261 A 
ATOM     10  C   UNL d   1       1.607  -1.056   1.818  0.00  0.00     0.164 C 
ATOM     11  O   UNL d   1       1.620   1.635   1.263  0.00  0.00    -0.267 OA
BRANCH   3  12
ATOM     12  N   UNL d   1      -2.265   1.421  -1.408  0.00  0.00    -0.288 NA
ATOM     13  H   UNL d   1      -2.873   0.775  -1.892  0.00  0.00     0.125 HD
ATOM     14  H   UNL d   1      -1.854   2.027  -2.121  0.00  0.00     0.125 HD
ENDBRANCH   3  12
ENDBRANCH   1   2
BRANCH   1  15
ATOM     15  C   UNL d   1       0.716   3.652  -1.239  0.00  0.00     0.024 A 
ATOM     16  C   UNL d   1       0.525   3.300  -2.585  0.00  0.00     0.126 A 
ATOM     17  F   UNL d   1      -0.512   2.538  -2.947  0.00  0.00    -0.205 F 
ATOM     18  C   UNL d   1       1.351   3.768  -3.604  0.00  0.00     0.043 A 
ATOM     19  C   UNL d   1       2.396   4.629  -3.308  0.00  0.00     0.006 A 
ATOM     20  C   UNL d   1       2.589   5.036  -1.987  0.00  0.00     0.037 A 
ATOM     21  C   UNL d   1       1.757   4.557  -0.972  0.00  0.00     0.078 A 
BRANCH  21  22
ATOM     22  O   UNL d   1       1.879   5.141   0.266  0.00  0.00    -0.355 OA
ATOM     23  C   UNL d   1       2.741   4.405   1.133  0.00  0.00     0.210 C 
ENDBRANCH  21  22
ENDBRANCH   1  15
BRANCH   1  24
ATOM     24  C   UNL d   1      -1.498   4.003  -0.149  0.00  0.00     0.215 C 
BRANCH  24  25
ATOM     25  N   UNL d   1      -2.385   3.683   1.018  0.00  0.00    -0.155 N 
ATOM     26  O   UNL d   1      -3.606   3.733   0.819  0.00  0.00    -0.537 OA
ATOM     27  O   UNL d   1      -1.851   3.470   2.115  0.00  0.00    -0.537 OA
ENDBRANCH  24  25
ENDBRANCH   1  24
TORSDOF 6
