REMARK  3 active torsions:
REMARK  status: ('A' for Active; 'I' for Inactive)
REMARK    1  A    between atoms: C_2  and  S_1 
REMARK    2  A    between atoms: C_3  and  S_1 
REMARK    3  A    between atoms: C_13  and  C_4 
ROOT
ATOM      1  C   UNL d   1       0.462   1.578  -0.073  0.00  0.00     0.146 C 
ATOM      2  C   UNL d   1      -0.335   2.048  -1.058  0.00  0.00     0.046 C 
ATOM      3  C   UNL d   1       0.889   0.229  -0.021  0.00  0.00     0.112 C 
ATOM      4  N   UNL d   1       1.204  -0.889  -0.049  0.00  0.00    -0.191 NA
ENDROOT
BRANCH   1   5
ATOM      5  S   UNL d   1       0.805   2.652   1.254  0.00  0.00     0.232 S 
ATOM      6  O   UNL d   1      -0.175   2.406   2.300  0.00  0.00    -0.215 OA
ATOM      7  O   UNL d   1       0.960   4.004   0.734  0.00  0.00    -0.215 OA
BRANCH   5   8
ATOM      8  C   UNL d   1       2.396   2.238   1.957  0.00  0.00     0.134 A 
ATOM      9  N   UNL d   1       3.054   1.213   1.369  0.00  0.00    -0.356 N 
ATOM     10  C   UNL d   1       4.231   0.861   1.929  0.00  0.00     0.089 A 
ATOM     11  HN  UNL d   1       2.683   0.733   0.549  1.00  0.00     0.166 HD
ATOM     12  C   UNL d   1       4.792   1.514   3.016  0.00  0.00     0.017 A 
ATOM     13  C   UNL d   1       4.102   2.588   3.575  0.00  0.00     0.004 A 
ATOM     14  C   UNL d   1       2.870   2.960   3.044  0.00  0.00     0.042 A 
ENDBRANCH   5   8
ENDBRANCH   1   5
BRANCH   2  15
ATOM     15  C   UNL d   1      -0.814   1.234  -2.183  0.00  0.00    -0.034 A 
ATOM     16  C   UNL d   1      -2.047   0.579  -2.091  0.00  0.00     0.013 A 
ATOM     17  C   UNL d   1      -2.500  -0.228  -3.142  0.00  0.00     0.023 A 
ATOM     18  C   UNL d   1      -1.722  -0.385  -4.295  0.00  0.00     0.044 A 
ATOM     19  C   UNL d   1      -2.186  -1.210  -5.373  0.00  0.00     0.099 C 
ATOM     20  C   UNL d   1      -0.490   0.270  -4.387  0.00  0.00     0.023 A 
ATOM     21  N   UNL d   1      -2.567  -1.873  -6.249  0.00  0.00    -0.191 NA
ATOM     22  C   UNL d   1      -0.036   1.077  -3.336  0.00  0.00     0.013 A 
ENDBRANCH   2  15
TORSDOF 3
