REMARK  7 active torsions:
REMARK  status: ('A' for Active; 'I' for Inactive)
REMARK    1  A    between atoms: C_15  and  N_3 
REMARK    2  A    between atoms: C_8  and  C_4 
REMARK       I    between atoms: N_10  and  C_8 
REMARK    3  A    between atoms: C_9  and  C_12 
REMARK    4  A    between atoms: C_11  and  N_10 
REMARK    5  A    between atoms: O_16  and  C_13 
REMARK    6  A    between atoms: C_23  and  O_16 
REMARK    7  A    between atoms: O_30  and  C_24 
ROOT
ATOM      1  C   UNL d   1      -3.096   2.298  -0.081  0.00  0.00     0.070 A 
ATOM      2  C   UNL d   1      -3.237   4.708   0.321  0.00  0.00     0.050 A 
ATOM      3  C   UNL d   1      -2.258   2.529  -1.189  0.00  0.00     0.102 A 
ATOM      4  C   UNL d   1      -3.591   3.389   0.650  0.00  0.00     0.048 A 
ATOM      5  C   UNL d   1      -2.382   4.923  -0.769  0.00  0.00     0.019 A 
ATOM      6  C   UNL d   1      -1.901   3.845  -1.514  0.00  0.00     0.040 A 
ENDROOT
BRANCH   1   7
ATOM      7  N   UNL d   1      -3.316   1.004   0.418  0.00  0.00    -0.319 N 
ATOM      8  C   UNL d   1      -4.495   0.381   0.785  0.00  0.00     0.276 C 
ATOM      9  O   UNL d   1      -4.393  -0.711   1.360  0.00  0.00    -0.266 OA
ATOM     10  H   UNL d   1      -2.573   0.329   0.276  0.00  0.00     0.169 HD
BRANCH   8  11
ATOM     11  C   UNL d   1      -5.817   0.880   0.353  0.00  0.00     0.141 A 
ATOM     12  N   UNL d   1      -6.025   1.985  -0.391  0.00  0.00    -0.272 N 
ATOM     13  N   UNL d   1      -7.350   1.926  -0.680  0.00  0.00    -0.196 N 
ATOM     14  HN  UNL d   1      -5.348   2.696  -0.669  1.00  0.00     0.189 HD
ATOM     15  N   UNL d   1      -8.030   0.903  -0.115  0.00  0.00    -0.281 N 
ATOM     16  C   UNL d   1      -7.068   0.217   0.509  0.00  0.00     0.057 A 
ATOM     17  HN  UNL d   1      -9.030   0.705  -0.155  1.00  0.00     0.189 HD
ATOM     18  C   UNL d   1      -7.414  -1.077   1.142  0.00  0.00     0.072 C 
BRANCH  13  19
ATOM     19  C   UNL d   1      -7.980   2.818  -1.587  0.00  0.00     0.074 A 
ATOM     20  C   UNL d   1      -7.252   3.845  -2.204  0.00  0.00     0.033 A 
ATOM     21  C   UNL d   1      -7.886   4.681  -3.126  0.00  0.00     0.002 A 
ATOM     22  C   UNL d   1      -9.236   4.501  -3.435  0.00  0.00     0.000 A 
ATOM     23  C   UNL d   1      -9.963   3.485  -2.818  0.00  0.00     0.002 A 
ATOM     24  C   UNL d   1      -9.340   2.646  -1.895  0.00  0.00     0.033 A 
ENDBRANCH  13  19
ENDBRANCH   8  11
ENDBRANCH   1   7
BRANCH   3  25
ATOM     25  O   UNL d   1      -1.681   1.587  -2.019  0.00  0.00    -0.309 OA
BRANCH  25  26
ATOM     26  C   UNL d   1      -2.310   0.396  -2.290  0.00  0.00     0.076 C 
ATOM     27  C   UNL d   1      -3.689   0.244  -2.439  0.00  0.00     0.040 C 
ATOM     28  C   UNL d   1      -4.246  -1.037  -2.499  0.00  0.00     0.039 C 
ATOM     29  C   UNL d   1      -3.415  -2.157  -2.492  0.00  0.00     0.068 C 
ATOM     30  C   UNL d   1      -2.031  -1.993  -2.526  0.00  0.00     0.039 C 
ATOM     31  C   UNL d   1      -1.478  -0.717  -2.414  0.00  0.00     0.040 C 
BRANCH  29  32
ATOM     32  O   UNL d   1      -3.875  -3.446  -2.497  0.00  0.00    -0.356 OA
ATOM     33  C   UNL d   1      -4.937  -3.673  -1.570  0.00  0.00     0.210 C 
ENDBRANCH  29  32
ENDBRANCH  25  26
ENDBRANCH   3  25
BRANCH   2  34
ATOM     34  C   UNL d   1      -3.728   5.873   1.140  0.00  0.00     0.417 C 
ATOM     35  F   UNL d   1      -4.593   5.521   2.131  0.00  0.00    -0.166 F 
ATOM     36  F   UNL d   1      -2.708   6.534   1.755  0.00  0.00    -0.166 F 
ATOM     37  F   UNL d   1      -4.378   6.804   0.389  0.00  0.00    -0.166 F 
ENDBRANCH   2  34
TORSDOF 7
