REMARK  7 active torsions:
REMARK  status: ('A' for Active; 'I' for Inactive)
REMARK    1  A    between atoms: N_5  and  S_1 
REMARK    2  A    between atoms: C_6  and  S_1 
REMARK    3  A    between atoms: N_2  and  C_3 
REMARK    4  A    between atoms: C_4  and  O_7 
REMARK    5  A    between atoms: C_13  and  N_5 
REMARK    6  A    between atoms: O_7  and  C_17 
REMARK    7  A    between atoms: C_16  and  C_13 
ROOT
ATOM      1  C   UNL d   1       0.220   1.707  -0.362  0.00  0.00     0.079 C 
ATOM      2  C   UNL d   1      -1.144   1.908  -0.606  0.00  0.00     0.028 C 
ATOM      3  C   UNL d   1       1.071   2.795  -0.170  0.00  0.00     0.028 C 
ATOM      4  C   UNL d   1      -0.761   4.290  -0.674  0.00  0.00     0.076 C 
ATOM      5  C   UNL d   1       0.580   4.087  -0.342  0.00  0.00     0.039 C 
ATOM      6  C   UNL d   1      -1.641   3.207  -0.728  0.00  0.00     0.039 C 
ENDROOT
BRANCH   1   7
ATOM      7  S   UNL d   1       0.852   0.048  -0.256  0.00  0.00     0.259 S 
ATOM      8  O   UNL d   1       1.344  -0.102   1.091  0.00  0.00    -0.201 OA
ATOM      9  O   UNL d   1      -0.173  -0.816  -0.801  0.00  0.00    -0.201 OA
BRANCH   7  10
ATOM     10  N   UNL d   1       2.111   0.015  -1.391  0.00  0.00    -0.307 N 
ATOM     11  H   UNL d   1       1.831   0.468  -2.260  0.00  0.00     0.173 HD
BRANCH  10  12
ATOM     12  C   UNL d   1       3.501   0.314  -0.970  0.00  0.00     0.122 C 
ATOM     13  C   UNL d   1       4.400   0.295  -2.212  0.00  0.00     0.038 C 
BRANCH  12  14
ATOM     14  C   UNL d   1       4.056  -0.636   0.071  0.00  0.00    -0.035 A 
ATOM     15  C   UNL d   1       3.713  -1.998   0.075  0.00  0.00     0.009 A 
ATOM     16  C   UNL d   1       4.134  -2.833   1.110  0.00  0.00     0.001 A 
ATOM     17  C   UNL d   1       4.931  -2.326   2.134  0.00  0.00     0.000 A 
ATOM     18  C   UNL d   1       5.321  -0.989   2.117  0.00  0.00     0.001 A 
ATOM     19  C   UNL d   1       4.889  -0.148   1.091  0.00  0.00     0.009 A 
ENDBRANCH  12  14
ENDBRANCH  10  12
ENDBRANCH   7  10
ENDBRANCH   1   7
BRANCH   4  20
ATOM     20  O   UNL d   1      -1.103   5.597  -0.920  0.00  0.00    -0.307 OA
BRANCH  20  21
ATOM     21  C   UNL d   1      -2.100   5.897  -1.817  0.00  0.00     0.130 A 
ATOM     22  C   UNL d   1      -2.993   6.917  -1.457  0.00  0.00     0.138 A 
ATOM     23  C   UNL d   1      -4.058   7.310  -2.279  0.00  0.00     0.039 A 
ATOM     24  C   UNL d   1      -4.236   6.676  -3.503  0.00  0.00     0.004 A 
ATOM     25  C   UNL d   1      -3.329   5.697  -3.911  0.00  0.00     0.027 A 
ATOM     26  C   UNL d   1      -2.247   5.332  -3.095  0.00  0.00     0.070 A 
ATOM     27 CL   UNL d   1      -1.101   4.240  -3.798  0.00  0.00    -0.081 Cl
BRANCH  22  28
ATOM     28  N   UNL d   1      -2.804   7.635  -0.212  0.00  0.00    -0.113 N 
ATOM     29  O   UNL d   1      -1.725   8.211  -0.038  0.00  0.00    -0.532 OA
ATOM     30  O   UNL d   1      -3.772   7.665   0.565  0.00  0.00    -0.532 OA
ENDBRANCH  22  28
ENDBRANCH  20  21
ENDBRANCH   4  20
TORSDOF 7
