REMARK  7 active torsions:
REMARK  status: ('A' for Active; 'I' for Inactive)
REMARK    1  A    between atoms: C_26  and  N_8 
REMARK    2  A    between atoms: C_10  and  C_11 
REMARK    3  A    between atoms: O_23  and  C_10 
REMARK    4  A    between atoms: C_12  and  C_13 
REMARK    5  A    between atoms: C_13  and  O_22 
REMARK    6  A    between atoms: O_22  and  C_27 
REMARK    7  A    between atoms: C_27  and  C_26 
ROOT
ATOM      1  C   UNL d   1      -3.073   0.203   0.103  0.00  0.00     0.148 A 
ATOM      2  N   UNL d   1      -2.353   0.818  -0.813  0.00  0.00    -0.336 N 
ATOM      3  HN  UNL d   1      -2.747   1.348  -1.590  1.00  0.00     0.168 HD
ATOM      4  S   UNL d   1      -2.116  -0.597   1.305  0.00  0.00    -0.052 SA
ATOM      5  N   UNL d   1      -4.434   0.169   0.081  0.00  0.00    -0.358 N 
ATOM      6  C   UNL d   1      -0.672  -0.102   0.531  0.00  0.00     0.036 A 
ATOM      7  C   UNL d   1      -1.001   0.656  -0.589  0.00  0.00     0.051 A 
ATOM      8  N   UNL d   1      -7.232  -0.537  -0.496  0.00  0.00     0.093 N 
ATOM      9  C   UNL d   1       0.658  -0.366   0.893  0.00  0.00     0.045 A 
ATOM     10  C   UNL d   1      -5.266  -0.397   1.146  0.00  0.00     0.155 C 
ATOM     11  C   UNL d   1      -5.157   0.876  -0.981  0.00  0.00     0.155 C 
ATOM     12  C   UNL d   1       0.038   1.182  -1.383  0.00  0.00     0.032 A 
ATOM     13  C   UNL d   1       1.667   0.170   0.092  0.00  0.00     0.035 A 
ATOM     14  C   UNL d   1      -6.422  -1.231   0.538  0.00  0.00     0.292 C 
ATOM     15  C   UNL d   1      -6.289  -0.026  -1.525  0.00  0.00     0.292 C 
ATOM     16  C   UNL d   1       1.371   0.936  -1.031  0.00  0.00     0.026 A 
ATOM     17 CL   UNL d   1       3.312  -0.123   0.508  0.00  0.00    -0.084 Cl
ENDROOT
BRANCH   8  18
ATOM     18  C   UNL d   1      -8.059   0.530   0.103  0.00  0.00     0.299 C 
BRANCH  18  19
ATOM     19  C   UNL d   1      -9.023   1.194  -0.895  0.00  0.00     0.209 C 
BRANCH  19  20
ATOM     20  O   UNL d   1      -9.804   2.232  -0.276  0.00  0.00    -0.316 OA
BRANCH  20  21
ATOM     21  C   UNL d   1      -9.211   3.450  -0.234  0.00  0.00     0.283 C 
ATOM     22  O   UNL d   1      -8.054   3.711  -0.527  0.00  0.00    -0.260 OA
BRANCH  21  23
ATOM     23  C   UNL d   1     -10.214   4.440   0.189  0.00  0.00     0.089 C 
ATOM     24  C   UNL d   1      -9.855   5.724   0.326  0.00  0.00     0.087 C 
BRANCH  24  25
ATOM     25  C   UNL d   1     -10.881   6.704   0.716  0.00  0.00     0.165 C 
ATOM     26  O   UNL d   1     -12.056   6.434   0.895  0.00  0.00    -0.647 OA
BRANCH  25  27
ATOM     27  O   UNL d   1     -10.377   7.945   0.856  0.00  0.00    -0.773 OA
ATOM     28  H   UNL d   1      -9.421   8.039   0.690  0.00  0.00     0.167 HD
ENDBRANCH  25  27
ENDBRANCH  24  25
ENDBRANCH  21  23
ENDBRANCH  20  21
ENDBRANCH  19  20
ENDBRANCH  18  19
ENDBRANCH   8  18
TORSDOF 7
