REMARK  10 active torsions:
REMARK  status: ('A' for Active; 'I' for Inactive)
REMARK    1  A    between atoms: C_13  and  N_1 
REMARK    2  A    between atoms: C_12  and  N_2 
REMARK    3  A    between atoms: C_10  and  C_3 
REMARK    4  A    between atoms: C_26  and  C_3 
REMARK    5  A    between atoms: C_6  and  C_8 
REMARK    6  A    between atoms: C_7  and  C_9 
REMARK    7  A    between atoms: N_16  and  C_10 
REMARK    8  A    between atoms: C_17  and  N_16 
REMARK    9  A    between atoms: C_31  and  C_26 
REMARK   10  A    between atoms: C_32  and  C_31 
ROOT
ATOM      1  N   UNL d   1       0.688   1.169  -0.265  0.00  0.00    -0.213 N 
ATOM      2  N   UNL d   1      -0.616   1.194   0.272  0.00  0.00    -0.213 N 
ATOM      3  C   UNL d   1      -0.086  -1.055  -0.227  0.00  0.00     0.138 C 
ATOM      4  C   UNL d   1       1.138  -0.153  -0.333  0.00  0.00     0.263 C 
ATOM      5  C   UNL d   1      -1.205  -0.062   0.069  0.00  0.00     0.263 C 
ATOM      6  O   UNL d   1      -2.403  -0.304   0.087  0.00  0.00    -0.270 OA
ATOM      7  O   UNL d   1       2.287  -0.555  -0.457  0.00  0.00    -0.270 OA
ENDROOT
BRANCH   3   8
ATOM      8  C   UNL d   1       0.167  -2.059   0.914  0.00  0.00     0.121 C 
BRANCH   8   9
ATOM      9  N   UNL d   1      -0.984  -2.928   1.226  0.00  0.00    -0.291 NA
ATOM     10  H   UNL d   1      -0.698  -3.876   1.477  0.00  0.00     0.127 HD
BRANCH   9  11
ATOM     11  C   UNL d   1      -1.967  -2.486   2.115  0.00  0.00     0.009 A 
ATOM     12  C   UNL d   1      -3.297  -2.870   1.904  0.00  0.00     0.039 A 
ATOM     13  C   UNL d   1      -4.333  -2.450   2.759  0.00  0.00     0.050 A 
ATOM     14  C   UNL d   1      -4.009  -1.658   3.873  0.00  0.00     0.032 A 
ATOM     15  C   UNL d   1      -2.675  -1.326   4.142  0.00  0.00     0.050 A 
ATOM     16  C   UNL d   1      -1.668  -1.765   3.271  0.00  0.00     0.039 A 
BRANCH  13  17
ATOM     17  C   UNL d   1      -5.766  -2.836   2.479  0.00  0.00     0.417 C 
ATOM     18  F   UNL d   1      -6.638  -2.391   3.429  0.00  0.00    -0.166 F 
ATOM     19  F   UNL d   1      -6.232  -2.353   1.295  0.00  0.00    -0.166 F 
ATOM     20  F   UNL d   1      -5.941  -4.187   2.429  0.00  0.00    -0.166 F 
ENDBRANCH  13  17
BRANCH  15  21
ATOM     21  C   UNL d   1      -2.279  -0.498   5.343  0.00  0.00     0.417 C 
ATOM     22  F   UNL d   1      -3.329  -0.125   6.120  0.00  0.00    -0.166 F 
ATOM     23  F   UNL d   1      -1.419  -1.163   6.160  0.00  0.00    -0.166 F 
ATOM     24  F   UNL d   1      -1.645   0.650   4.982  0.00  0.00    -0.166 F 
ENDBRANCH  15  21
ENDBRANCH   9  11
ENDBRANCH   8   9
ENDBRANCH   3   8
BRANCH   3  25
ATOM     25  C   UNL d   1      -0.212  -1.687  -1.627  0.00  0.00     0.031 C 
BRANCH  25  26
ATOM     26  C   UNL d   1      -1.341  -2.694  -1.799  0.00  0.00     0.001 C 
BRANCH  26  27
ATOM     27  C   UNL d   1      -1.384  -3.239  -3.222  0.00  0.00    -0.005 C 
ATOM     28  C   UNL d   1      -2.527  -4.228  -3.365  0.00  0.00     0.005 C 
ENDBRANCH  26  27
ENDBRANCH  25  26
ENDBRANCH   3  25
BRANCH   1  29
ATOM     29  C   UNL d   1       1.585   2.265  -0.276  0.00  0.00     0.060 A 
ATOM     30  C   UNL d   1       2.531   2.381  -1.305  0.00  0.00     0.031 A 
ATOM     31  C   UNL d   1       3.397   3.477  -1.357  0.00  0.00     0.002 A 
ATOM     32  C   UNL d   1       3.343   4.457  -0.364  0.00  0.00     0.000 A 
ATOM     33  C   UNL d   1       2.422   4.338   0.669  0.00  0.00     0.002 A 
ATOM     34  C   UNL d   1       1.548   3.255   0.712  0.00  0.00     0.031 A 
ENDBRANCH   1  29
BRANCH   2  35
ATOM     35  C   UNL d   1      -1.435   2.348   0.197  0.00  0.00     0.060 A 
ATOM     36  C   UNL d   1      -1.768   2.965   1.405  0.00  0.00     0.031 A 
ATOM     37  C   UNL d   1      -2.459   4.177   1.411  0.00  0.00     0.002 A 
ATOM     38  C   UNL d   1      -2.863   4.747   0.205  0.00  0.00     0.000 A 
ATOM     39  C   UNL d   1      -2.588   4.106  -1.002  0.00  0.00     0.002 A 
ATOM     40  C   UNL d   1      -1.859   2.905  -1.013  0.00  0.00     0.031 A 
ENDBRANCH   2  35
TORSDOF 10
