REMARK  5 active torsions:
REMARK  status: ('A' for Active; 'I' for Inactive)
REMARK    1  A    between atoms: C_5  and  C_1 
REMARK       I    between atoms: C_2  and  N_7 
REMARK    2  A    between atoms: C_4  and  C_2 
REMARK    3  A    between atoms: N_6  and  C_3 
REMARK    4  A    between atoms: O_16  and  C_5 
REMARK    5  A    between atoms: N_7  and  C_10 
ROOT
ATOM      1  C   UNL d   1       1.480  -0.237   0.068  0.00  0.00     0.068 A 
ATOM      2  C   UNL d   1       0.687  -1.388  -0.167  0.00  0.00     0.046 A 
ATOM      3  C   UNL d   1       0.896   1.048   0.117  0.00  0.00     0.049 A 
ATOM      4  C   UNL d   1      -0.683  -1.167  -0.398  0.00  0.00     0.032 A 
ATOM      5  C   UNL d   1      -0.468   1.230  -0.064  0.00  0.00     0.036 A 
ATOM      6  C   UNL d   1      -1.252   0.114  -0.345  0.00  0.00     0.032 A 
ENDROOT
BRANCH   5   7
ATOM      7  N   UNL d   1      -1.113   2.479   0.045  0.00  0.00    -0.323 N 
ATOM      8  C   UNL d   1      -0.531   3.698   0.339  0.00  0.00     0.257 C 
ATOM      9  O   UNL d   1       0.670   3.937   0.414  0.00  0.00    -0.267 OA
ATOM     10  H   UNL d   1      -2.123   2.461  -0.035  0.00  0.00     0.169 HD
BRANCH   8  11
ATOM     11  C   UNL d   1      -1.467   4.840   0.515  0.00  0.00     0.054 A 
ATOM     12  C   UNL d   1      -2.673   4.768   1.225  0.00  0.00     0.049 A 
ATOM     13 CL   UNL d   1      -3.215   3.344   2.040  0.00  0.00    -0.083 Cl
ATOM     14  C   UNL d   1      -3.487   5.903   1.329  0.00  0.00     0.025 A 
ATOM     15  C   UNL d   1      -3.098   7.109   0.742  0.00  0.00     0.002 A 
ATOM     16  C   UNL d   1      -1.887   7.192   0.061  0.00  0.00     0.001 A 
ATOM     17  C   UNL d   1      -1.073   6.065  -0.048  0.00  0.00     0.019 A 
ENDBRANCH   8  11
ENDBRANCH   5   7
BRANCH   1  18
ATOM     18  C   UNL d   1       2.971  -0.306   0.177  0.00  0.00     0.295 C 
ATOM     19  O   UNL d   1       3.693  -1.118  -0.381  0.00  0.00    -0.259 OA
BRANCH  18  20
ATOM     20  O   UNL d   1       3.401   0.674   1.015  0.00  0.00    -0.322 OA
ATOM     21  C   UNL d   1       4.818   0.803   1.139  0.00  0.00     0.213 C 
ENDBRANCH  18  20
ENDBRANCH   1  18
BRANCH   2  22
ATOM     22  N   UNL d   1       1.212  -2.676  -0.187  0.00  0.00    -0.376 N 
ATOM     23  C   UNL d   1       0.565  -3.763  -0.941  0.00  0.00     0.149 C 
ATOM     24  C   UNL d   1       1.617  -4.846  -1.244  0.00  0.00     0.187 C 
ATOM     25  O   UNL d   1       2.216  -5.350  -0.035  0.00  0.00    -0.388 OA
ATOM     26  C   UNL d   1       2.862  -4.277   0.679  0.00  0.00     0.187 C 
ATOM     27  C   UNL d   1       1.857  -3.173   1.050  0.00  0.00     0.149 C 
ENDBRANCH   2  22
TORSDOF 5
