REMARK  3 active torsions:
REMARK  status: ('A' for Active; 'I' for Inactive)
REMARK    1  A    between atoms: N_3  and  C_1 
REMARK    2  A    between atoms: C_4  and  C_2 
REMARK       I    between atoms: N_13  and  C_4 
REMARK    3  A    between atoms: N_14  and  N_13 
ROOT
ATOM      1  C   UNL d   1       0.198   1.201  -0.026  0.00  0.00     0.096 A 
ATOM      2  C   UNL d   1       0.311   0.226  -1.012  0.00  0.00     0.068 A 
ATOM      3  S   UNL d   1       0.802   0.657   1.484  0.00  0.00    -0.083 SA
ATOM      4  C   UNL d   1       0.784  -1.017  -0.429  0.00  0.00     0.027 A 
ATOM      5  C   UNL d   1       1.045  -0.923   0.915  0.00  0.00     0.053 A 
ENDROOT
BRANCH   1   6
ATOM      6  N   UNL d   1      -0.202   2.561  -0.088  0.00  0.00    -0.313 N 
ATOM      7  C   UNL d   1      -0.946   3.266   0.883  0.00  0.00     0.013 A 
ATOM      8  C   UNL d   1      -1.041   4.593   0.509  0.00  0.00     0.027 A 
ATOM      9  C   UNL d   1      -1.603   2.693   2.098  0.00  0.00     0.068 C 
ATOM     10  C   UNL d   1      -0.398   4.734  -0.721  0.00  0.00     0.027 A 
ATOM     11  C   UNL d   1       0.121   3.503  -1.079  0.00  0.00     0.013 A 
ATOM     12  C   UNL d   1       0.974   3.279  -2.278  0.00  0.00     0.068 C 
ENDBRANCH   1   6
BRANCH   2  13
ATOM     13  C   UNL d   1      -0.065   0.330  -2.428  0.00  0.00     0.268 C 
ATOM     14  O   UNL d   1      -1.037   0.954  -2.828  0.00  0.00    -0.266 OA
ATOM     15  N   UNL d   1       0.809  -0.359  -3.273  0.00  0.00    -0.290 N 
ATOM     16  H   UNL d   1       1.698  -0.684  -2.899  0.00  0.00     0.183 HD
BRANCH  15  17
ATOM     17  N   UNL d   1       0.685  -0.240  -4.678  0.00  0.00    -0.247 NA
ATOM     18  H   UNL d   1      -0.149   0.335  -4.864  0.00  0.00     0.143 HD
ATOM     19  H   UNL d   1       0.454  -1.162  -5.060  0.00  0.00     0.143 HD
ENDBRANCH  15  17
ENDBRANCH   2  13
TORSDOF 3
