REMARK  1 active torsions:
REMARK  status: ('A' for Active; 'I' for Inactive)
REMARK    1  A    between atoms: N_7  and  C_9 
ROOT
ATOM      1  C   UNL d   1      -1.204  -0.750   0.033  0.00  0.00     0.051 A 
ATOM      2  C   UNL d   1       0.050  -1.511   0.060  0.00  0.00     0.199 A 
ATOM      3  C   UNL d   1       1.291  -0.739   0.028  0.00  0.00     0.066 A 
ATOM      4  C   UNL d   1       1.225   0.645  -0.004  0.00  0.00     0.162 A 
ATOM      5  O   UNL d   1       0.039   1.344  -0.026  0.00  0.00    -0.292 OA
ATOM      6  C   UNL d   1      -1.136   0.636  -0.020  0.00  0.00     0.092 A 
ATOM      7  C   UNL d   1      -2.435  -1.415   0.052  0.00  0.00     0.048 A 
ATOM      8  C   UNL d   1      -3.630  -0.684   0.009  0.00  0.00     0.039 A 
ATOM      9  N   UNL d   1       2.331   1.425  -0.024  0.00  0.00    -0.346 N 
ATOM     10  HN  UNL d   1       2.264   2.443  -0.043  1.00  0.00     0.167 HD
ATOM     11  O   UNL d   1       0.060  -2.735   0.105  0.00  0.00    -0.286 OA
ATOM     12  C   UNL d   1      -2.318   1.372  -0.069  0.00  0.00     0.040 A 
ATOM     13  C   UNL d   1      -3.559   0.718  -0.058  0.00  0.00     0.033 A 
ATOM     14  C   UNL d   1       2.536  -1.367   0.029  0.00  0.00     0.021 A 
ATOM     15  C   UNL d   1       3.530   0.796  -0.018  0.00  0.00     0.090 A 
ATOM     16  C   UNL d   1       3.682  -0.582   0.004  0.00  0.00     0.018 A 
ENDROOT
BRANCH   8  17
ATOM     17  N   UNL d   1      -4.890  -1.360   0.037  0.00  0.00    -0.333 N 
ATOM     18  C   UNL d   1      -5.090  -2.726   0.141  0.00  0.00     0.096 A 
ATOM     19  C   UNL d   1      -6.441  -2.995   0.151  0.00  0.00     0.019 A 
ATOM     20  C   UNL d   1      -7.109  -1.762   0.043  0.00  0.00     0.019 A 
ATOM     21  C   UNL d   1      -6.144  -0.779  -0.027  0.00  0.00     0.096 A 
ENDBRANCH   8  17
TORSDOF 1
