REMARK  2 active torsions:
REMARK  status: ('A' for Active; 'I' for Inactive)
REMARK    1  A    between atoms: C_7  and  N_1 
REMARK    2  A    between atoms: S_10  and  C_2 
ROOT
ATOM      1  N   UNL d   1       1.015  -0.645  -0.052  0.00  0.00    -0.241 N 
ATOM      2  C   UNL d   1       0.884   0.695   0.160  0.00  0.00     0.167 A 
ATOM      3  C   UNL d   1      -0.284  -1.100  -0.192  0.00  0.00     0.347 A 
ATOM      4  N   UNL d   1      -0.342   1.133   0.203  0.00  0.00    -0.276 N 
ATOM      5  HN  UNL d   1      -0.664   2.088   0.362  1.00  0.00     0.189 HD
ATOM      6  N   UNL d   1      -1.094   0.017  -0.014  0.00  0.00    -0.249 N 
ATOM      7  O   UNL d   1      -0.694  -2.233  -0.383  0.00  0.00    -0.245 OA
ATOM      8  H   UNL d   1      -2.106   0.027  -0.025  0.00  0.00     0.192 HD
ENDROOT
BRANCH   1   9
ATOM      9  C   UNL d   1       2.151  -1.480  -0.038  0.00  0.00     0.048 A 
ATOM     10  C   UNL d   1       2.252  -2.546  -0.944  0.00  0.00     0.054 A 
ATOM     11  C   UNL d   1       3.385  -3.361  -0.947  0.00  0.00     0.036 A 
ATOM     12 CL   UNL d   1       3.527  -4.621  -2.110  0.00  0.00    -0.084 Cl
ATOM     13  C   UNL d   1       4.410  -3.154  -0.028  0.00  0.00     0.024 A 
ATOM     14  C   UNL d   1       4.304  -2.124   0.901  0.00  0.00     0.004 A 
ATOM     15  C   UNL d   1       3.183  -1.289   0.892  0.00  0.00     0.030 A 
ENDBRANCH   1   9
BRANCH   2  16
ATOM     16  S   UNL d   1       2.224   1.788   0.233  0.00  0.00    -0.105 SA
ATOM     17  H   UNL d   1       3.058   1.070  -0.531  0.00  0.00     0.110 HD
ENDBRANCH   2  16
TORSDOF 2
