REMARK  5 active torsions:
REMARK  status: ('A' for Active; 'I' for Inactive)
REMARK    1  A    between atoms: C_9  and  C_1 
REMARK    2  A    between atoms: C_12  and  N_6 
REMARK    3  A    between atoms: S_8  and  N_10 
REMARK    4  A    between atoms: N_10  and  N_14 
REMARK    5  A    between atoms: C_13  and  C_12 
REMARK       I    between atoms: N_14  and  C_13 
ROOT
ATOM      1  C   UNL d   1      -0.620  -1.114   0.351  0.00  0.00     0.146 A 
ATOM      2  N   UNL d   1       0.714  -0.928   0.222  0.00  0.00    -0.268 N 
ATOM      3  HN  UNL d   1       1.476  -1.604   0.279  1.00  0.00     0.190 HD
ATOM      4  N   UNL d   1      -1.318   0.064   0.246  0.00  0.00    -0.266 N 
ATOM      5  HN  UNL d   1      -2.328   0.178   0.331  1.00  0.00     0.186 HD
ATOM      6  N   UNL d   1       0.752   0.404  -0.003  0.00  0.00    -0.207 N 
ATOM      7  N   UNL d   1      -0.439   1.021   0.013  0.00  0.00    -0.002 NA
ENDROOT
BRANCH   6   8
ATOM      8  C   UNL d   1       1.953   1.209  -0.041  0.00  0.00     0.271 C 
BRANCH   8   9
ATOM      9  C   UNL d   1       3.291   0.539  -0.164  0.00  0.00     0.257 C 
ATOM     10  N   UNL d   1       3.385  -0.828  -0.203  0.00  0.00    -0.259 N 
ATOM     11  H   UNL d   1       2.587  -1.455  -0.051  0.00  0.00     0.190 HD
ATOM     12  O   UNL d   1       4.320   1.231  -0.210  0.00  0.00    -0.270 OA
BRANCH  10  13
ATOM     13  N   UNL d   1       4.736  -1.391  -0.225  0.00  0.00    -0.225 N 
ATOM     14  H   UNL d   1       5.477  -0.692  -0.077  0.00  0.00     0.200 HD
BRANCH  13  15
ATOM     15  S   UNL d   1       4.978  -2.934   0.406  0.00  0.00     0.240 S 
ATOM     16  O   UNL d   1       4.734  -2.857   1.831  0.00  0.00    -0.205 OA
ATOM     17  O   UNL d   1       4.250  -3.867  -0.428  0.00  0.00    -0.205 OA
ATOM     18  C   UNL d   1       6.725  -3.146   0.132  0.00  0.00     0.187 C 
ENDBRANCH  13  15
ENDBRANCH  10  13
ENDBRANCH   8   9
ENDBRANCH   6   8
BRANCH   1  19
ATOM     19  C   UNL d   1      -1.254  -2.373   0.729  0.00  0.00     0.034 A 
ATOM     20  C   UNL d   1      -2.592  -2.694   0.412  0.00  0.00     0.069 A 
ATOM     21  C   UNL d   1      -3.165  -3.870   0.933  0.00  0.00     0.056 A 
ATOM     22 CL   UNL d   1      -3.537  -1.695  -0.653  0.00  0.00    -0.082 Cl
ATOM     23 CL   UNL d   1      -4.812  -4.320   0.636  0.00  0.00    -0.083 Cl
ATOM     24  C   UNL d   1      -2.414  -4.733   1.736  0.00  0.00     0.026 A 
ATOM     25  C   UNL d   1      -1.083  -4.445   2.012  0.00  0.00     0.003 A 
ATOM     26  C   UNL d   1      -0.508  -3.277   1.512  0.00  0.00     0.017 A 
ENDBRANCH   1  19
TORSDOF 5
