REMARK  3 active torsions:
REMARK  status: ('A' for Active; 'I' for Inactive)
REMARK    1  A    between atoms: C_2  and  C_1 
REMARK    2  A    between atoms: C_3  and  C_7 
REMARK    3  A    between atoms: C_15  and  C_8 
ROOT
ATOM      1  C   UNL d   1       3.799  -0.427  -0.877  0.00  0.00     0.127 C 
ATOM      2  N   UNL d   1       4.190   2.005  -0.107  0.00  0.00    -0.191 NA
ATOM      3  N   UNL d   1       5.823  -1.712  -1.839  0.00  0.00    -0.191 NA
ATOM      4  C   UNL d   1       2.626  -1.085  -0.766  0.00  0.00     0.071 C 
ATOM      5  C   UNL d   1       3.993   0.918  -0.462  0.00  0.00     0.111 C 
ATOM      6  C   UNL d   1       4.923  -1.122  -1.403  0.00  0.00     0.111 C 
ENDROOT
BRANCH   4   7
ATOM      7  C   UNL d   1       1.423  -0.487  -0.305  0.00  0.00     0.078 A 
ATOM      8  O   UNL d   1       1.137   0.851  -0.412  0.00  0.00    -0.310 OA
ATOM      9  C   UNL d   1      -0.128   1.091   0.034  0.00  0.00     0.089 A 
ATOM     10  C   UNL d   1      -0.666  -0.098   0.480  0.00  0.00     0.041 A 
ATOM     11  C   UNL d   1       0.321  -1.094   0.280  0.00  0.00     0.040 A 
BRANCH   9  12
ATOM     12  C   UNL d   1      -0.573   2.492  -0.021  0.00  0.00     0.041 A 
ATOM     13  C   UNL d   1      -0.220   3.351  -1.089  0.00  0.00     0.049 A 
ATOM     14  C   UNL d   1      -0.596   4.706  -1.097  0.00  0.00     0.041 A 
ATOM     15 CL   UNL d   1       0.649   2.820  -2.497  0.00  0.00    -0.083 Cl
ATOM     16  C   UNL d   1      -1.357   5.250  -0.058  0.00  0.00     0.051 A 
ATOM     17  C   UNL d   1      -1.751   4.404   0.982  0.00  0.00     0.041 A 
ATOM     18  C   UNL d   1      -1.362   3.054   1.007  0.00  0.00     0.049 A 
ATOM     19 CL   UNL d   1      -1.887   2.169   2.403  0.00  0.00    -0.083 Cl
BRANCH  16  20
ATOM     20  C   UNL d   1      -1.727   6.712  -0.062  0.00  0.00     0.417 C 
ATOM     21  F   UNL d   1      -2.476   7.082   1.013  0.00  0.00    -0.166 F 
ATOM     22  F   UNL d   1      -0.634   7.522  -0.054  0.00  0.00    -0.166 F 
ATOM     23  F   UNL d   1      -2.450   7.061  -1.160  0.00  0.00    -0.166 F 
ENDBRANCH  16  20
ENDBRANCH   9  12
ENDBRANCH   4   7
TORSDOF 3
