REMARK  6 active torsions:
REMARK  status: ('A' for Active; 'I' for Inactive)
REMARK    1  A    between atoms: C_10  and  C_1 
REMARK    2  A    between atoms: C_13  and  N_4 
REMARK    3  A    between atoms: S_8  and  N_12 
REMARK    4  A    between atoms: C_9  and  C_11 
REMARK    5  A    between atoms: N_12  and  N_15 
REMARK    6  A    between atoms: C_14  and  C_13 
REMARK       I    between atoms: N_15  and  C_14 
ROOT
ATOM      1  C   UNL d   1      -0.567  -1.089   0.358  0.00  0.00     0.145 A 
ATOM      2  N   UNL d   1       0.712  -0.884  -0.033  0.00  0.00    -0.268 N 
ATOM      3  HN  UNL d   1       1.432  -1.560  -0.288  1.00  0.00     0.190 HD
ATOM      4  N   UNL d   1       0.767   0.463   0.009  0.00  0.00    -0.207 N 
ATOM      5  N   UNL d   1      -1.220   0.085   0.630  0.00  0.00    -0.266 N 
ATOM      6  HN  UNL d   1      -2.177   0.181   0.968  1.00  0.00     0.186 HD
ATOM      7  N   UNL d   1      -0.375   1.069   0.371  0.00  0.00    -0.002 NA
ENDROOT
BRANCH   4   8
ATOM      8  C   UNL d   1       1.977   1.252  -0.084  0.00  0.00     0.271 C 
BRANCH   8   9
ATOM      9  C   UNL d   1       3.297   0.582  -0.342  0.00  0.00     0.257 C 
ATOM     10  N   UNL d   1       3.370  -0.777  -0.548  0.00  0.00    -0.259 N 
ATOM     11  H   UNL d   1       2.564  -1.404  -0.456  0.00  0.00     0.190 HD
ATOM     12  O   UNL d   1       4.332   1.263  -0.358  0.00  0.00    -0.270 OA
BRANCH  10  13
ATOM     13  N   UNL d   1       4.710  -1.343  -0.704  0.00  0.00    -0.225 N 
ATOM     14  H   UNL d   1       5.470  -0.679  -0.508  0.00  0.00     0.200 HD
BRANCH  13  15
ATOM     15  S   UNL d   1       4.955  -2.966  -0.326  0.00  0.00     0.240 S 
ATOM     16  O   UNL d   1       4.741  -3.114   1.096  0.00  0.00    -0.205 OA
ATOM     17  O   UNL d   1       4.206  -3.753  -1.282  0.00  0.00    -0.205 OA
ATOM     18  C   UNL d   1       6.696  -3.143  -0.665  0.00  0.00     0.187 C 
ENDBRANCH  13  15
ENDBRANCH  10  13
ENDBRANCH   8   9
ENDBRANCH   4   8
BRANCH   1  19
ATOM     19  C   UNL d   1      -1.126  -2.400   0.685  0.00  0.00     0.025 A 
ATOM     20  C   UNL d   1      -2.489  -2.747   0.577  0.00  0.00     0.061 A 
ATOM     21  C   UNL d   1      -2.894  -4.030   1.026  0.00  0.00     0.017 A 
ATOM     22  C   UNL d   1      -1.989  -4.942   1.564  0.00  0.00     0.001 A 
ATOM     23  C   UNL d   1      -0.648  -4.603   1.650  0.00  0.00     0.001 A 
ATOM     24  C   UNL d   1      -0.224  -3.351   1.208  0.00  0.00     0.016 A 
BRANCH  20  25
ATOM     25  C   UNL d   1      -3.595  -1.888   0.005  0.00  0.00     0.418 C 
ATOM     26  F   UNL d   1      -3.252  -0.665  -0.463  0.00  0.00    -0.166 F 
ATOM     27  F   UNL d   1      -4.207  -2.506  -1.050  0.00  0.00    -0.166 F 
ATOM     28  F   UNL d   1      -4.590  -1.676   0.915  0.00  0.00    -0.166 F 
ENDBRANCH  20  25
ENDBRANCH   1  19
TORSDOF 6
