REMARK  4 active torsions:
REMARK  status: ('A' for Active; 'I' for Inactive)
REMARK    1  A    between atoms: C_8  and  C_3 
REMARK    2  A    between atoms: C_10  and  C_6 
REMARK    3  A    between atoms: C_19  and  C_18 
REMARK    4  A    between atoms: C_20  and  C_19 
ROOT
ATOM      1  N   UNL d   1       0.608   0.059   0.693  0.00  0.00    -0.318 N 
ATOM      2  HN  UNL d   1       1.248   0.168   1.479  1.00  0.00     0.169 HD
ATOM      3  C   UNL d   1      -0.321   0.949   0.206  0.00  0.00     0.145 A 
ATOM      4  N   UNL d   1      -0.973   0.529  -0.888  0.00  0.00    -0.241 N 
ATOM      5  HN  UNL d   1      -1.680   1.025  -1.431  1.00  0.00     0.196 HD
ATOM      6  C   UNL d   1       0.462  -0.969  -0.114  0.00  0.00     0.182 A 
ATOM      7  O   UNL d   1      -0.454  -0.746  -1.103  0.00  0.00    -0.217 OA
ENDROOT
BRANCH   6   8
ATOM      8  C   UNL d   1       1.058  -2.297  -0.046  0.00  0.00     0.017 A 
ATOM      9  C   UNL d   1       1.915  -2.616   1.016  0.00  0.00     0.016 A 
ATOM     10  C   UNL d   1       2.459  -3.896   1.140  0.00  0.00     0.008 A 
ATOM     11  C   UNL d   1       2.164  -4.887   0.197  0.00  0.00    -0.058 A 
ATOM     12  C   UNL d   1       1.306  -4.574  -0.865  0.00  0.00     0.008 A 
ATOM     13  C   UNL d   1       0.769  -3.289  -0.991  0.00  0.00     0.016 A 
BRANCH  11  14
ATOM     14  C   UNL d   1       2.754  -6.270   0.327  0.00  0.00     0.038 C 
BRANCH  14  15
ATOM     15  C   UNL d   1       3.619  -6.693  -0.865  0.00  0.00     0.000 C 
ATOM     16  C   UNL d   1       4.841  -5.807  -1.062  0.00  0.00     0.005 C 
ENDBRANCH  14  15
ENDBRANCH  11  14
ENDBRANCH   6   8
BRANCH   3  17
ATOM     17  C   UNL d   1      -0.615   2.240   0.899  0.00  0.00     0.050 A 
ATOM     18  S   UNL d   1      -1.852   3.324   0.441  0.00  0.00    -0.098 SA
ATOM     19  C   UNL d   1      -1.517   4.359   1.762  0.00  0.00     0.050 A 
ATOM     20  C   UNL d   1      -0.457   3.906   2.515  0.00  0.00     0.009 A 
ATOM     21  C   UNL d   1       0.069   2.679   2.014  0.00  0.00     0.023 A 
ENDBRANCH   3  17
TORSDOF 4
