REMARK  1 active torsions:
REMARK  status: ('A' for Active; 'I' for Inactive)
REMARK    1  A    between atoms: C_2  and  N_1 
REMARK       I    between atoms: C_4  and  N_1 
ROOT
ATOM      1  C   UNL d   1       0.507   0.996   0.855  0.00  0.00     0.073 A 
ATOM      2  C   UNL d   1       0.794   2.370   0.877  0.00  0.00     0.145 A 
ATOM      3  C   UNL d   1       0.099   3.238   1.716  0.00  0.00     0.086 A 
ATOM      4  C   UNL d   1      -0.549   0.521   1.647  0.00  0.00     0.036 A 
ATOM      5  C   UNL d   1      -0.907   2.737   2.526  0.00  0.00     0.119 A 
ATOM      6  F   UNL d   1       1.675   2.917   0.030  0.00  0.00    -0.204 F 
ATOM      7  C   UNL d   1      -1.247   1.390   2.490  0.00  0.00     0.044 A 
ATOM      8  F   UNL d   1      -1.576   3.563   3.340  0.00  0.00    -0.206 F 
ENDROOT
BRANCH   1   9
ATOM      9  N   UNL d   1       1.192   0.044   0.065  0.00  0.00    -0.325 N 
ATOM     10  C   UNL d   1       2.490   0.164  -0.398  0.00  0.00     0.218 C 
ATOM     11  O   UNL d   1       3.293   1.041  -0.102  0.00  0.00    -0.274 OA
ATOM     12  C   UNL d   1       2.908  -0.979  -1.292  0.00  0.00     0.117 C 
ATOM     13  H   UNL d   1       0.778  -0.876   0.007  0.00  0.00     0.169 HD
ENDBRANCH   1   9
TORSDOF 1
