REMARK  5 active torsions:
REMARK  status: ('A' for Active; 'I' for Inactive)
REMARK    1  A    between atoms: C_11  and  C_3 
REMARK    2  A    between atoms: C_14  and  C_6 
REMARK    3  A    between atoms: C_7  and  C_12 
REMARK       I    between atoms: C_9  and  N_10 
REMARK    4  A    between atoms: C_15  and  C_9 
REMARK    5  A    between atoms: N_10  and  C_14 
ROOT
ATOM      1  N   UNL d   1       1.311   0.155  -0.093  0.00  0.00    -0.321 N 
ATOM      2  HN  UNL d   1       2.307   0.318  -0.237  1.00  0.00     0.169 HD
ATOM      3  C   UNL d   1       0.293   1.079   0.018  0.00  0.00     0.137 A 
ATOM      4  N   UNL d   1      -0.924   0.529   0.170  0.00  0.00    -0.242 N 
ATOM      5  HN  UNL d   1      -1.822   1.004   0.256  1.00  0.00     0.196 HD
ATOM      6  C   UNL d   1       0.675  -0.988   0.033  0.00  0.00     0.166 A 
ATOM      7  O   UNL d   1      -0.672  -0.840   0.183  0.00  0.00    -0.221 OA
ENDROOT
BRANCH   6   8
ATOM      8  C   UNL d   1       1.190  -2.375   0.000  0.00  0.00     0.209 C 
BRANCH   8   9
ATOM      9  N   UNL d   1       1.243  -2.858  -1.365  0.00  0.00    -0.349 N 
ATOM     10  C   UNL d   1       1.688  -4.135  -1.621  0.00  0.00     0.252 C 
ATOM     11  O   UNL d   1       2.044  -4.903  -0.734  0.00  0.00    -0.268 OA
ATOM     12  H   UNL d   1       0.791  -2.322  -2.094  0.00  0.00     0.163 HD
BRANCH  10  13
ATOM     13  C   UNL d   1       1.692  -4.568  -3.044  0.00  0.00     0.032 A 
ATOM     14  C   UNL d   1       1.850  -3.657  -4.097  0.00  0.00     0.017 A 
ATOM     15  C   UNL d   1       1.871  -4.113  -5.417  0.00  0.00     0.001 A 
ATOM     16  C   UNL d   1       1.740  -5.475  -5.689  0.00  0.00     0.000 A 
ATOM     17  C   UNL d   1       1.592  -6.386  -4.644  0.00  0.00     0.001 A 
ATOM     18  C   UNL d   1       1.572  -5.935  -3.324  0.00  0.00     0.017 A 
ENDBRANCH  10  13
ENDBRANCH   8   9
ENDBRANCH   6   8
BRANCH   3  19
ATOM     19  C   UNL d   1       0.541   2.517  -0.016  0.00  0.00     0.010 A 
ATOM     20  C   UNL d   1       1.846   3.003  -0.184  0.00  0.00     0.016 A 
ATOM     21  C   UNL d   1       2.101   4.378  -0.199  0.00  0.00     0.017 A 
ATOM     22  C   UNL d   1       1.055   5.298  -0.046  0.00  0.00     0.048 A 
ATOM     23  C   UNL d   1      -0.252   4.814   0.115  0.00  0.00     0.017 A 
ATOM     24  C   UNL d   1      -0.505   3.438   0.130  0.00  0.00     0.016 A 
BRANCH  22  25
ATOM     25  C   UNL d   1       1.312   6.786  -0.050  0.00  0.00     0.417 C 
ATOM     26  F   UNL d   1       2.627   7.111  -0.202  0.00  0.00    -0.166 F 
ATOM     27  F   UNL d   1       0.651   7.426  -1.052  0.00  0.00    -0.166 F 
ATOM     28  F   UNL d   1       0.912   7.385   1.106  0.00  0.00    -0.166 F 
ENDBRANCH  22  25
ENDBRANCH   3  19
TORSDOF 5
