REMARK  8 active torsions:
REMARK  status: ('A' for Active; 'I' for Inactive)
REMARK    1  A    between atoms: C_2  and  C_1 
REMARK    2  A    between atoms: C_3  and  C_1 
REMARK    3  A    between atoms: C_8  and  C_1 
REMARK    4  A    between atoms: N_4  and  C_2 
REMARK    5  A    between atoms: C_5  and  C_2 
REMARK    6  A    between atoms: O_11  and  C_3 
REMARK    7  A    between atoms: C_10  and  N_4 
REMARK    8  A    between atoms: C_16  and  O_11 
ROOT
ATOM      1  C   UNL d   1       0.475  -0.519   1.172  0.00  0.00     0.128 C 
ENDROOT
BRANCH   1   2
ATOM      2  C   UNL d   1       0.924   0.284  -0.073  0.00  0.00     0.142 C 
BRANCH   2   3
ATOM      3  C   UNL d   1       0.235   1.646  -0.078  0.00  0.00     0.269 C 
ATOM      4  O   UNL d   1       0.359   2.492   0.800  0.00  0.00    -0.264 OA
BRANCH   3   5
ATOM      5  O   UNL d   1      -0.451   1.845  -1.244  0.00  0.00    -0.321 OA
BRANCH   5   6
ATOM      6  C   UNL d   1      -0.938   3.181  -1.436  0.00  0.00     0.174 C 
ATOM      7  C   UNL d   1      -2.274   3.388  -0.747  0.00  0.00     0.034 C 
ENDBRANCH   5   6
ENDBRANCH   3   5
ENDBRANCH   2   3
BRANCH   2   8
ATOM      8  C   UNL d   1       2.438   0.516  -0.147  0.00  0.00    -0.043 A 
ATOM      9  C   UNL d   1       3.158   0.084  -1.270  0.00  0.00     0.008 A 
ATOM     10  C   UNL d   1       4.516   0.382  -1.398  0.00  0.00     0.001 A 
ATOM     11  C   UNL d   1       5.172   1.110  -0.408  0.00  0.00     0.000 A 
ATOM     12  C   UNL d   1       4.478   1.524   0.724  0.00  0.00     0.001 A 
ATOM     13  C   UNL d   1       3.123   1.224   0.859  0.00  0.00     0.008 A 
ENDBRANCH   2   8
ENDBRANCH   1   2
BRANCH   1  14
ATOM     14  N   UNL d   1      -1.007  -0.604   1.244  0.00  0.00    -0.282 NA
ATOM     15  H   UNL d   1      -1.348  -1.501   0.899  0.00  0.00     0.128 HD
BRANCH  14  16
ATOM     16  C   UNL d   1      -1.665  -0.171   2.401  0.00  0.00     0.009 A 
ATOM     17  C   UNL d   1      -1.212   0.899   3.184  0.00  0.00     0.023 A 
ATOM     18  C   UNL d   1      -1.916   1.334   4.311  0.00  0.00     0.002 A 
ATOM     19  C   UNL d   1      -3.114   0.725   4.658  0.00  0.00     0.000 A 
ATOM     20  C   UNL d   1      -3.616  -0.300   3.863  0.00  0.00     0.002 A 
ATOM     21  C   UNL d   1      -2.905  -0.732   2.736  0.00  0.00     0.023 A 
ENDBRANCH  14  16
ENDBRANCH   1  14
BRANCH   1  22
ATOM     22  C   UNL d   1       1.037  -1.951   1.197  0.00  0.00     0.028 A 
ATOM     23  N   UNL d   1       1.289  -2.585   0.022  0.00  0.00    -0.368 N 
ATOM     24  C   UNL d   1       1.804  -3.834   0.085  0.00  0.00     0.088 A 
ATOM     25  HN  UNL d   1       1.096  -2.136  -0.874  1.00  0.00     0.165 HD
ATOM     26  C   UNL d   1       2.044  -4.514   1.266  0.00  0.00     0.017 A 
ATOM     27  C   UNL d   1       1.728  -3.881   2.461  0.00  0.00     0.003 A 
ATOM     28  C   UNL d   1       1.215  -2.587   2.429  0.00  0.00     0.027 A 
ENDBRANCH   1  22
TORSDOF 8
