REMARK  9 active torsions:
REMARK  status: ('A' for Active; 'I' for Inactive)
REMARK    1  A    between atoms: C_1  and  O_7 
REMARK    2  A    between atoms: C_2  and  O_8 
REMARK    3  A    between atoms: C_3  and  O_9 
REMARK    4  A    between atoms: C_4  and  O_16 
REMARK    5  A    between atoms: C_6  and  C_17 
REMARK    6  A    between atoms: C_10  and  O_7 
REMARK    7  A    between atoms: C_11  and  O_8 
REMARK    8  A    between atoms: C_12  and  O_9 
REMARK    9  A    between atoms: O_18  and  C_17 
ROOT
ATOM      1  C   UNL d   1       1.654   0.015   0.046  0.00  0.00     0.198 C 
ATOM      2  C   UNL d   1       0.878  -1.292  -0.229  0.00  0.00     0.219 C 
ATOM      3  C   UNL d   1       0.856   1.285  -0.310  0.00  0.00     0.195 C 
ATOM      4  C   UNL d   1      -0.560  -1.173   0.333  0.00  0.00     0.291 C 
ATOM      5  O   UNL d   1      -1.211  -0.014  -0.200  0.00  0.00    -0.348 OA
ATOM      6  C   UNL d   1      -0.572   1.204   0.228  0.00  0.00     0.180 C 
ENDROOT
BRANCH   1   7
ATOM      7  O   UNL d   1       2.966   0.044  -0.585  0.00  0.00    -0.311 OA
BRANCH   7   8
ATOM      8  C   UNL d   1       3.027   0.029  -1.948  0.00  0.00     0.255 C 
ATOM      9  O   UNL d   1       2.064  -0.029  -2.700  0.00  0.00    -0.266 OA
ATOM     10  C   UNL d   1       4.447   0.162  -2.407  0.00  0.00     0.126 C 
ENDBRANCH   7   8
ENDBRANCH   1   7
BRANCH   2  11
ATOM     11  O   UNL d   1       1.545  -2.420   0.402  0.00  0.00    -0.308 OA
BRANCH  11  12
ATOM     12  C   UNL d   1       2.505  -3.065  -0.314  0.00  0.00     0.255 C 
ATOM     13  O   UNL d   1       2.859  -2.790  -1.448  0.00  0.00    -0.266 OA
ATOM     14  C   UNL d   1       3.114  -4.167   0.499  0.00  0.00     0.126 C 
ENDBRANCH  11  12
ENDBRANCH   2  11
BRANCH   3  15
ATOM     15  O   UNL d   1       1.520   2.432   0.278  0.00  0.00    -0.311 OA
BRANCH  15  16
ATOM     16  C   UNL d   1       2.125   3.294  -0.582  0.00  0.00     0.255 C 
ATOM     17  O   UNL d   1       2.123   3.201  -1.800  0.00  0.00    -0.266 OA
ATOM     18  C   UNL d   1       2.777   4.423   0.156  0.00  0.00     0.126 C 
ENDBRANCH  15  16
ENDBRANCH   3  15
BRANCH   4  19
ATOM     19  O   UNL d   1      -0.557  -1.131   1.765  0.00  0.00    -0.363 OA
ATOM     20  C   UNL d   1      -1.877  -1.194   2.301  0.00  0.00     0.204 C 
ENDBRANCH   4  19
BRANCH   6  21
ATOM     21  C   UNL d   1      -1.417   2.375  -0.286  0.00  0.00     0.198 C 
BRANCH  21  22
ATOM     22  O   UNL d   1      -2.736   2.289   0.257  0.00  0.00    -0.398 OA
ATOM     23  H   UNL d   1      -3.054   1.397   0.023  0.00  0.00     0.209 HD
ENDBRANCH  21  22
ENDBRANCH   6  21
TORSDOF 9
