REMARK  6 active torsions:
REMARK  status: ('A' for Active; 'I' for Inactive)
REMARK    1  A    between atoms: S_10  and  C_3 
REMARK    2  A    between atoms: O_16  and  C_4 
REMARK    3  A    between atoms: C_21  and  C_9 
REMARK    4  A    between atoms: C_17  and  S_10 
REMARK    5  A    between atoms: C_14  and  C_17 
REMARK    6  A    between atoms: O_20  and  C_21 
ROOT
ATOM      1  N   UNL d   1      -0.288  -1.159   0.038  0.00  0.00    -0.318 N 
ATOM      2  HN  UNL d   1      -0.847  -2.012   0.022  1.00  0.00     0.170 HD
ATOM      3  C   UNL d   1       1.053  -1.179   0.055  0.00  0.00     0.146 A 
ATOM      4  C   UNL d   1      -0.838   0.054   0.043  0.00  0.00     0.143 A 
ATOM      5  N   UNL d   1       1.843  -0.088   0.066  0.00  0.00    -0.338 N 
ATOM      6  HN  UNL d   1       2.860  -0.164   0.071  1.00  0.00     0.168 HD
ATOM      7  C   UNL d   1      -0.155   1.237   0.056  0.00  0.00     0.083 A 
ATOM      8  C   UNL d   1       1.219   1.119   0.071  0.00  0.00     0.039 A 
ENDROOT
BRANCH   3   9
ATOM      9  S   UNL d   1       1.793  -2.788  -0.051  0.00  0.00    -0.089 SA
BRANCH   9  10
ATOM     10  C   UNL d   1       3.309  -2.521   0.913  0.00  0.00     0.121 C 
BRANCH  10  11
ATOM     11  C   UNL d   1       4.064  -3.824   1.085  0.00  0.00    -0.047 A 
ATOM     12  C   UNL d   1       3.821  -4.653   2.197  0.00  0.00     0.035 A 
ATOM     13  C   UNL d   1       4.490  -5.872   2.329  0.00  0.00     0.073 A 
ATOM     14 CL   UNL d   1       4.174  -6.865   3.700  0.00  0.00    -0.081 Cl
ATOM     15  C   UNL d   1       5.397  -6.276   1.353  0.00  0.00     0.138 A 
ATOM     16  C   UNL d   1       5.644  -5.474   0.244  0.00  0.00     0.044 A 
ATOM     17  F   UNL d   1       6.046  -7.445   1.461  0.00  0.00    -0.204 F 
ATOM     18  C   UNL d   1       4.979  -4.252   0.107  0.00  0.00     0.011 A 
ENDBRANCH  10  11
ENDBRANCH   9  10
ENDBRANCH   3   9
BRANCH   4  19
ATOM     19  O   UNL d   1      -2.195   0.051   0.014  0.00  0.00    -0.346 OA
ATOM     20  H   UNL d   1      -2.372  -0.908   0.003  0.00  0.00     0.219 HD
ENDBRANCH   4  19
BRANCH   8  21
ATOM     21  C   UNL d   1       2.071   2.367   0.054  0.00  0.00     0.224 C 
BRANCH  21  22
ATOM     22  O   UNL d   1       1.747   3.184   1.181  0.00  0.00    -0.390 OA
ATOM     23  C   UNL d   1       2.518   4.378   1.203  0.00  0.00     0.201 C 
ENDBRANCH  21  22
ENDBRANCH   8  21
TORSDOF 6
