REMARK  5 active torsions:
REMARK  status: ('A' for Active; 'I' for Inactive)
REMARK    1  A    between atoms: C_6  and  C_3 
REMARK    2  A    between atoms: N_13  and  C_4 
REMARK    3  A    between atoms: C_15  and  N_13 
REMARK    4  A    between atoms: N_14  and  C_18 
REMARK    5  A    between atoms: C_18  and  C_15 
ROOT
ATOM      1  N   UNL d   1      -1.229   1.391   0.006  0.00  0.00    -0.354 N 
ATOM      2  HN  UNL d   1      -1.233   2.411   0.001  1.00  0.00     0.166 HD
ATOM      3  C   UNL d   1      -2.382   0.694   0.035  0.00  0.00     0.051 A 
ATOM      4  C   UNL d   1      -1.233  -1.420  -0.157  0.00  0.00     0.023 A 
ATOM      5  C   UNL d   1      -2.418  -0.688  -0.016  0.00  0.00     0.055 A 
ATOM      6  C   UNL d   1      -0.075   0.708  -0.017  0.00  0.00     0.044 A 
ATOM      7  C   UNL d   1      -0.006  -0.707  -0.081  0.00  0.00     0.012 A 
ATOM      8  C   UNL d   1       1.277  -1.312  -0.077  0.00  0.00     0.015 A 
ATOM      9  C   UNL d   1       1.101   1.444   0.019  0.00  0.00     0.030 A 
ATOM     10  C   UNL d   1       2.444  -0.547  -0.032  0.00  0.00     0.001 A 
ATOM     11  C   UNL d   1       2.356   0.837   0.010  0.00  0.00     0.002 A 
ENDROOT
BRANCH   4  12
ATOM     12  N   UNL d   1      -1.283  -2.829  -0.275  0.00  0.00    -0.290 NA
ATOM     13  H   UNL d   1      -0.430  -3.242  -0.643  0.00  0.00     0.127 HD
BRANCH  12  14
ATOM     14  C   UNL d   1      -2.486  -3.403  -0.899  0.00  0.00     0.122 C 
BRANCH  14  15
ATOM     15  C   UNL d   1      -2.231  -4.774  -1.563  0.00  0.00     0.285 C 
BRANCH  15  16
ATOM     16  N   UNL d   1      -1.733  -5.860  -0.697  0.00  0.00     0.081 N 
ATOM     17  C   UNL d   1      -2.655  -6.140   0.408  0.00  0.00     0.309 C 
ATOM     18  C   UNL d   1      -1.548  -7.075  -1.498  0.00  0.00     0.309 C 
ENDBRANCH  15  16
ENDBRANCH  14  15
ENDBRANCH  12  14
ENDBRANCH   4  12
BRANCH   3  19
ATOM     19  C   UNL d   1      -3.601   1.516   0.025  0.00  0.00     0.031 A 
ATOM     20  S   UNL d   1      -5.056   0.976   0.766  0.00  0.00    -0.100 SA
ATOM     21  C   UNL d   1      -5.919   2.359   0.264  0.00  0.00     0.050 A 
ATOM     22  C   UNL d   1      -5.120   3.241  -0.426  0.00  0.00     0.008 A 
ATOM     23  C   UNL d   1      -3.782   2.766  -0.545  0.00  0.00     0.021 A 
ENDBRANCH   3  19
TORSDOF 5
