REMARK  5 active torsions:
REMARK  status: ('A' for Active; 'I' for Inactive)
REMARK    1  A    between atoms: C_7  and  C_1 
REMARK    2  A    between atoms: C_8  and  C_3 
REMARK    3  A    between atoms: O_13  and  C_7 
REMARK    4  A    between atoms: O_18  and  C_15 
REMARK    5  A    between atoms: C_19  and  O_18 
ROOT
ATOM      1  C   UNL d   1       1.444   1.033   0.037  0.00  0.00     0.066 C 
ATOM      2  C   UNL d   1       1.373  -0.317   0.006  0.00  0.00     0.024 C 
ATOM      3  C   UNL d   1       0.193   1.872  -0.096  0.00  0.00     0.161 C 
ATOM      4  C   UNL d   1      -1.066  -0.268  -0.042  0.00  0.00     0.321 C 
ATOM      5  N   UNL d   1       0.131  -0.911  -0.091  0.00  0.00    -0.312 N 
ATOM      6  N   UNL d   1      -1.009   1.077   0.081  0.00  0.00    -0.330 N 
ATOM      7  O   UNL d   1      -2.129  -0.872  -0.071  0.00  0.00    -0.247 OA
ATOM      8  C   UNL d   1       2.502  -1.313   0.037  0.00  0.00     0.069 C 
ATOM      9  H   UNL d   1       0.057  -1.921  -0.132  0.00  0.00     0.170 HD
ATOM     10  H   UNL d   1      -1.905   1.541   0.118  0.00  0.00     0.165 HD
ENDROOT
BRANCH   3  11
ATOM     11  C   UNL d   1       0.072   3.073   0.829  0.00  0.00    -0.030 A 
ATOM     12  C   UNL d   1      -0.089   4.357   0.285  0.00  0.00     0.012 A 
ATOM     13  C   UNL d   1      -0.279   5.468   1.110  0.00  0.00     0.037 A 
ATOM     14  C   UNL d   1      -0.321   5.313   2.495  0.00  0.00     0.068 A 
ATOM     15  C   UNL d   1      -0.146   4.041   3.045  0.00  0.00     0.037 A 
ATOM     16  C   UNL d   1       0.049   2.927   2.223  0.00  0.00     0.012 A 
BRANCH  14  17
ATOM     17  O   UNL d   1      -0.532   6.314   3.404  0.00  0.00    -0.352 OA
BRANCH  17  18
ATOM     18  C   UNL d   1      -0.794   7.613   2.874  0.00  0.00     0.171 C 
ATOM     19  C   UNL d   1      -1.075   8.554   4.030  0.00  0.00     0.034 C 
ENDBRANCH  17  18
ENDBRANCH  14  17
ENDBRANCH   3  11
BRANCH   1  20
ATOM     20  C   UNL d   1       2.751   1.735   0.146  0.00  0.00     0.293 C 
ATOM     21  O   UNL d   1       3.742   1.273   0.691  0.00  0.00    -0.259 OA
BRANCH  20  22
ATOM     22  O   UNL d   1       2.695   2.959  -0.438  0.00  0.00    -0.323 OA
ATOM     23  C   UNL d   1       3.872   3.756  -0.257  0.00  0.00     0.213 C 
ENDBRANCH  20  22
ENDBRANCH   1  20
TORSDOF 5
