REMARK  3 active torsions:
REMARK  status: ('A' for Active; 'I' for Inactive)
REMARK    1  A    between atoms: C_10  and  C_3 
REMARK    2  A    between atoms: C_14  and  C_4 
REMARK    3  A    between atoms: C_13  and  C_5 
ROOT
ATOM      1  N   UNL d   1       1.339   0.357  -0.154  0.00  0.00    -0.337 N 
ATOM      2  HN  UNL d   1       2.298   0.661  -0.320  1.00  0.00     0.167 HD
ATOM      3  C   UNL d   1       0.336   1.247   0.024  0.00  0.00     0.147 A 
ATOM      4  C   UNL d   1       1.009  -0.967  -0.102  0.00  0.00     0.073 A 
ATOM      5  C   UNL d   1      -0.306  -1.382   0.155  0.00  0.00     0.086 A 
ATOM      6  N   UNL d   1      -1.272  -0.446   0.279  0.00  0.00    -0.296 N 
ATOM      7  HN  UNL d   1      -2.241  -0.729   0.421  1.00  0.00     0.187 HD
ATOM      8  N   UNL d   1      -0.949   0.879   0.215  0.00  0.00    -0.283 N 
ATOM      9  HN  UNL d   1      -1.676   1.588   0.311  1.00  0.00     0.188 HD
ENDROOT
BRANCH   3  10
ATOM     10  C   UNL d   1       0.668   2.690   0.091  0.00  0.00     0.077 A 
ATOM     11  N   UNL d   1      -0.368   3.562   0.273  0.00  0.00    -0.363 N 
ATOM     12  C   UNL d   1      -0.089   4.878   0.395  0.00  0.00     0.088 A 
ATOM     13  HN  UNL d   1      -1.330   3.227   0.315  1.00  0.00     0.165 HD
ATOM     14  C   UNL d   1       1.190   5.400   0.345  0.00  0.00     0.017 A 
ATOM     15  C   UNL d   1       2.243   4.518   0.149  0.00  0.00     0.004 A 
ATOM     16  C   UNL d   1       1.984   3.155   0.019  0.00  0.00     0.033 A 
ENDBRANCH   3  10
BRANCH   4  17
ATOM     17  C   UNL d   1       2.168  -1.879  -0.281  0.00  0.00    -0.007 A 
ATOM     18  C   UNL d   1       3.396  -1.589   0.344  0.00  0.00     0.014 A 
ATOM     19  C   UNL d   1       4.457  -2.500   0.322  0.00  0.00     0.001 A 
ATOM     20  C   UNL d   1       4.314  -3.722  -0.326  0.00  0.00     0.000 A 
ATOM     21  C   UNL d   1       3.134  -4.008  -1.005  0.00  0.00     0.001 A 
ATOM     22  C   UNL d   1       2.087  -3.079  -1.011  0.00  0.00     0.014 A 
ENDBRANCH   4  17
BRANCH   5  23
ATOM     23  C   UNL d   1      -0.777  -2.768   0.346  0.00  0.00    -0.006 A 
ATOM     24  C   UNL d   1      -0.080  -3.698   1.141  0.00  0.00     0.014 A 
ATOM     25  C   UNL d   1      -0.487  -5.032   1.226  0.00  0.00     0.001 A 
ATOM     26  C   UNL d   1      -1.634  -5.453   0.562  0.00  0.00     0.000 A 
ATOM     27  C   UNL d   1      -2.382  -4.539  -0.173  0.00  0.00     0.001 A 
ATOM     28  C   UNL d   1      -1.957  -3.211  -0.280  0.00  0.00     0.014 A 
ENDBRANCH   5  23
TORSDOF 3
