REMARK  1 active torsions:
REMARK  status: ('A' for Active; 'I' for Inactive)
REMARK    1  A    between atoms: C_5  and  N_1 
ROOT
ATOM      1  N   UNL d   1       0.700   1.121  -0.329  0.00  0.00     0.127 N 
ATOM      2  C   UNL d   1      -0.734  -1.223   0.133  0.00  0.00     0.170 C 
ATOM      3  N   UNL d   1       0.618  -1.208   0.103  0.00  0.00    -0.342 N 
ATOM      4  N   UNL d   1      -1.349  -0.023   0.041  0.00  0.00    -0.342 N 
ATOM      5  C   UNL d   1       1.372  -0.005   0.290  0.00  0.00     0.399 C 
ATOM      6  C   UNL d   1      -0.650   1.220   0.202  0.00  0.00     0.399 C 
ATOM      7  S   UNL d   1      -1.589  -2.641   0.231  0.00  0.00    -0.041 SA
ATOM      8  H   UNL d   1       1.079  -2.098   0.237  0.00  0.00     0.163 HD
ATOM      9  H   UNL d   1      -2.357  -0.029   0.124  0.00  0.00     0.163 HD
ENDROOT
BRANCH   1  10
ATOM     10  C   UNL d   1       0.757   1.135  -1.802  0.00  0.00     0.227 A 
ATOM     11  C   UNL d   1       2.061   1.390  -2.512  0.00  0.00     0.038 A 
ATOM     12  C   UNL d   1       1.008   2.457  -2.484  0.00  0.00     0.038 A 
ENDBRANCH   1  10
TORSDOF 1
