REMARK  4 active torsions:
REMARK  status: ('A' for Active; 'I' for Inactive)
REMARK    1  A    between atoms: N_3  and  C_1 
REMARK    2  A    between atoms: N_4  and  C_2 
REMARK    3  A    between atoms: O_14  and  C_6 
REMARK    4  A    between atoms: O_13  and  C_7 
ROOT
ATOM      1  C   UNL d   1       1.436  -0.329   0.074  0.00  0.00     0.138 A 
ATOM      2  C   UNL d   1      -0.829  -1.202   0.034  0.00  0.00     0.138 A 
ATOM      3  C   UNL d   1       0.561  -1.426   0.078  0.00  0.00     0.077 A 
ATOM      4  C   UNL d   1      -1.358   0.087  -0.037  0.00  0.00     0.104 A 
ATOM      5  C   UNL d   1       0.956   0.977   0.013  0.00  0.00     0.104 A 
ATOM      6  C   UNL d   1      -0.438   1.155  -0.036  0.00  0.00     0.078 A 
ENDROOT
BRANCH   1   7
ATOM      7  N   UNL d   1       2.844  -0.630   0.208  0.00  0.00    -0.113 N 
ATOM      8  O   UNL d   1       3.351  -1.335  -0.674  0.00  0.00    -0.532 OA
ATOM      9  O   UNL d   1       3.433  -0.192   1.205  0.00  0.00    -0.532 OA
ENDBRANCH   1   7
BRANCH   5  10
ATOM     10  O   UNL d   1       1.638   2.156   0.053  0.00  0.00    -0.353 OA
ATOM     11  C   UNL d   1       2.874   2.256  -0.646  0.00  0.00     0.210 C 
ENDBRANCH   5  10
BRANCH   2  12
ATOM     12  N   UNL d   1      -1.646  -2.394   0.084  0.00  0.00    -0.113 N 
ATOM     13  O   UNL d   1      -1.557  -3.173  -0.873  0.00  0.00    -0.532 OA
ATOM     14  O   UNL d   1      -2.314  -2.581   1.108  0.00  0.00    -0.532 OA
ENDBRANCH   2  12
BRANCH   4  15
ATOM     15  O   UNL d   1      -2.634   0.552  -0.143  0.00  0.00    -0.353 OA
ATOM     16  C   UNL d   1      -3.768  -0.293  -0.065  0.00  0.00     0.210 C 
ENDBRANCH   4  15
TORSDOF 4
