REMARK  4 active torsions:
REMARK  status: ('A' for Active; 'I' for Inactive)
REMARK    1  A    between atoms: C_4  and  C_1 
REMARK       I    between atoms: N_7  and  C_1 
REMARK    2  A    between atoms: N_2  and  N_7 
REMARK    3  A    between atoms: C_5  and  C_6 
REMARK    4  A    between atoms: C_16  and  C_15 
ROOT
ATOM      1  C   UNL d   1       0.902   0.147   0.139  0.00  0.00     0.270 C 
ATOM      2  N   UNL d   1       0.889   1.486  -0.233  0.00  0.00    -0.266 N 
ATOM      3  O   UNL d   1       1.430  -0.302   1.151  0.00  0.00    -0.266 OA
ATOM      4  H   UNL d   1       0.545   1.775  -1.139  0.00  0.00     0.190 HD
ENDROOT
BRANCH   1   5
ATOM      5  C   UNL d   1       0.233  -0.793  -0.805  0.00  0.00     0.033 A 
ATOM      6  C   UNL d   1       0.677  -2.115  -0.867  0.00  0.00     0.017 A 
ATOM      7  C   UNL d   1       0.069  -3.028  -1.736  0.00  0.00     0.009 A 
ATOM      8  C   UNL d   1      -1.005  -2.649  -2.566  0.00  0.00    -0.051 A 
ATOM      9  C   UNL d   1      -1.455  -1.321  -2.465  0.00  0.00     0.009 A 
ATOM     10  C   UNL d   1      -0.852  -0.403  -1.595  0.00  0.00     0.017 A 
BRANCH   8  11
ATOM     11  C   UNL d   1      -1.633  -3.663  -3.541  0.00  0.00    -0.024 C 
ATOM     12  C   UNL d   1      -2.790  -3.071  -4.377  0.00  0.00     0.019 C 
ATOM     13  C   UNL d   1      -0.557  -4.161  -4.530  0.00  0.00     0.019 C 
ATOM     14  C   UNL d   1      -2.202  -4.875  -2.772  0.00  0.00     0.019 C 
ENDBRANCH   8  11
ENDBRANCH   1   5
BRANCH   2  15
ATOM     15  N   UNL d   1       1.422   2.416   0.609  0.00  0.00    -0.308 N 
ATOM     16  C   UNL d   1       1.392   3.643   0.199  0.00  0.00     0.120 C 
ATOM     17  HN  UNL d   1       1.822   2.160   1.511  1.00  0.00     0.186 HD
BRANCH  16  18
ATOM     18  C   UNL d   1       1.913   4.736   1.036  0.00  0.00    -0.004 A 
ATOM     19  C   UNL d   1       1.853   6.045   0.579  0.00  0.00     0.100 A 
ATOM     20  N   UNL d   1       2.289   7.110   1.292  0.00  0.00    -0.374 N 
ATOM     21  C   UNL d   1       2.807   6.850   2.515  0.00  0.00     0.087 A 
ATOM     22  HN  UNL d   1       2.230   8.061   0.927  1.00  0.00     0.164 HD
ATOM     23  C   UNL d   1       2.914   5.576   3.053  0.00  0.00     0.018 A 
ATOM     24  C   UNL d   1       2.458   4.499   2.297  0.00  0.00     0.015 A 
ENDBRANCH  16  18
ENDBRANCH   2  15
TORSDOF 4
