REMARK  3 active torsions:
REMARK  status: ('A' for Active; 'I' for Inactive)
REMARK    1  A    between atoms: N_2  and  C_1 
REMARK    2  A    between atoms: N_10  and  C_3 
REMARK    3  A    between atoms: N_8  and  C_5 
ROOT
ATOM      1  C   UNL d   1      -1.202   1.165   0.034  0.00  0.00     0.132 A 
ATOM      2  C   UNL d   1      -2.029   0.026  -0.040  0.00  0.00     0.065 A 
ATOM      3  C   UNL d   1       0.196   1.093   0.105  0.00  0.00     0.083 A 
ATOM      4  C   UNL d   1       0.064  -1.335   0.128  0.00  0.00     0.071 A 
ATOM      5  C   UNL d   1      -1.341  -1.210   0.003  0.00  0.00     0.064 A 
ATOM      6  C   UNL d   1       0.808  -0.151   0.149  0.00  0.00     0.145 A 
ATOM      7  F   UNL d   1       2.149  -0.176   0.186  0.00  0.00    -0.204 F 
ENDROOT
BRANCH   4   8
ATOM      8  N   UNL d   1       0.599  -2.620   0.231  0.00  0.00    -0.378 N 
ATOM      9  C   UNL d   1       1.837  -2.882   0.977  0.00  0.00     0.123 C 
ATOM     10  C   UNL d   1       2.711  -3.680   0.017  0.00  0.00     0.021 C 
ATOM     11  C   UNL d   1       1.693  -4.437  -0.818  0.00  0.00     0.021 C 
ATOM     12  C   UNL d   1       0.576  -3.414  -1.007  0.00  0.00     0.123 C 
ENDBRANCH   4   8
BRANCH   2  13
ATOM     13  N   UNL d   1      -3.425   0.071  -0.088  0.00  0.00    -0.388 N 
ATOM     14  C   UNL d   1      -4.197  -1.085   0.370  0.00  0.00     0.149 C 
ATOM     15  C   UNL d   1      -4.084   0.853  -1.137  0.00  0.00     0.149 C 
ENDBRANCH   2  13
BRANCH   1  16
ATOM     16  N   UNL d   1      -1.760   2.502   0.132  0.00  0.00    -0.113 N 
ATOM     17  O   UNL d   1      -2.419   2.781   1.140  0.00  0.00    -0.532 OA
ATOM     18  O   UNL d   1      -1.482   3.287  -0.786  0.00  0.00    -0.532 OA
ENDBRANCH   1  16
TORSDOF 3
