REMARK  8 active torsions:
REMARK  status: ('A' for Active; 'I' for Inactive)
REMARK    1  A    between atoms: O_17  and  C_3 
REMARK    2  A    between atoms: C_9  and  C_4 
REMARK    3  A    between atoms: S_10  and  C_5 
REMARK    4  A    between atoms: C_19  and  C_9 
REMARK    5  A    between atoms: C_13  and  S_10 
REMARK    6  A    between atoms: C_11  and  C_13 
REMARK    7  A    between atoms: C_12  and  C_11 
REMARK    8  A    between atoms: C_24  and  C_19 
ROOT
ATOM      1  N   UNL d   1      -0.580   1.297   0.178  0.00  0.00    -0.317 N 
ATOM      2  HN  UNL d   1      -1.047   2.203   0.221  1.00  0.00     0.170 HD
ATOM      3  C   UNL d   1      -1.257   0.151   0.045  0.00  0.00     0.150 A 
ATOM      4  C   UNL d   1      -0.714  -1.117  -0.032  0.00  0.00     0.015 A 
ATOM      5  C   UNL d   1       0.748   1.176   0.251  0.00  0.00     0.146 A 
ATOM      6  N   UNL d   1       1.406   0.011   0.176  0.00  0.00    -0.340 N 
ATOM      7  HN  UNL d   1       2.424  -0.022   0.225  1.00  0.00     0.167 HD
ATOM      8  C   UNL d   1       0.676  -1.117   0.033  0.00  0.00     0.018 A 
ATOM      9  C   UNL d   1       1.486  -2.382  -0.004  0.00  0.00     0.069 C 
ENDROOT
BRANCH   5  10
ATOM     10  S   UNL d   1       1.684   2.647   0.588  0.00  0.00    -0.086 SA
BRANCH  10  11
ATOM     11  C   UNL d   1       3.364   1.948   0.555  0.00  0.00     0.166 C 
BRANCH  11  12
ATOM     12  C   UNL d   1       4.372   3.003   0.945  0.00  0.00     0.169 C 
ATOM     13  O   UNL d   1       4.951   3.674   0.087  0.00  0.00    -0.291 OA
BRANCH  12  14
ATOM     14  C   UNL d   1       4.684   3.257   2.391  0.00  0.00     0.011 A 
ATOM     15  C   UNL d   1       4.115   2.518   3.438  0.00  0.00     0.017 A 
ATOM     16  C   UNL d   1       4.403   2.845   4.768  0.00  0.00     0.025 A 
ATOM     17  C   UNL d   1       5.257   3.907   5.059  0.00  0.00     0.034 A 
ATOM     18  C   UNL d   1       5.853   4.629   4.029  0.00  0.00     0.025 A 
ATOM     19 CL   UNL d   1       5.561   4.339   6.696  0.00  0.00    -0.084 Cl
ATOM     20  C   UNL d   1       5.569   4.302   2.700  0.00  0.00     0.017 A 
ENDBRANCH  12  14
ENDBRANCH  11  12
ENDBRANCH  10  11
ENDBRANCH   5  10
BRANCH   3  21
ATOM     21  O   UNL d   1      -2.596   0.357   0.023  0.00  0.00    -0.346 OA
ATOM     22  H   UNL d   1      -2.628   1.330   0.055  0.00  0.00     0.219 HD
ENDBRANCH   3  21
BRANCH   4  23
ATOM     23  C   UNL d   1      -1.500  -2.402  -0.040  0.00  0.00     0.045 C 
BRANCH  23  24
ATOM     24  C   UNL d   1      -2.880  -2.459  -0.709  0.00  0.00     0.009 C 
BRANCH  24  25
ATOM     25  C   UNL d   1      -2.912  -2.103  -2.207  0.00  0.00    -0.023 C 
ATOM     26  C   UNL d   1      -2.048  -3.039  -3.051  0.00  0.00     0.009 C 
ATOM     27  C   UNL d   1      -4.361  -2.144  -2.703  0.00  0.00     0.009 C 
ENDBRANCH  24  25
ENDBRANCH  23  24
ENDBRANCH   4  23
TORSDOF 8
