REMARK  5 active torsions:
REMARK  status: ('A' for Active; 'I' for Inactive)
REMARK    1  A    between atoms: C_4  and  S_1 
REMARK    2  A    between atoms: C_5  and  S_1 
REMARK    3  A    between atoms: S_2  and  C_3 
REMARK    4  A    between atoms: C_10  and  S_2 
REMARK    5  A    between atoms: C_3  and  C_4 
ROOT
ATOM      1  C   UNL d   1       0.506  -0.500   1.563  0.00  0.00     0.161 C 
ENDROOT
BRANCH   1   2
ATOM      2  C   UNL d   1       0.997  -1.871   1.993  0.00  0.00     0.161 C 
BRANCH   2   3
ATOM      3  S   UNL d   1       0.354  -2.228   3.604  0.00  0.00     0.176 S 
ATOM      4  O   UNL d   1       0.870  -1.220   4.512  0.00  0.00    -0.223 OA
ATOM      5  O   UNL d   1      -1.078  -2.423   3.465  0.00  0.00    -0.223 OA
BRANCH   3   6
ATOM      6  C   UNL d   1       1.070  -3.782   4.078  0.00  0.00     0.059 A 
ATOM      7  C   UNL d   1       2.293  -3.796   4.758  0.00  0.00     0.023 A 
ATOM      8  C   UNL d   1       2.793  -5.002   5.250  0.00  0.00     0.002 A 
ATOM      9  C   UNL d   1       2.073  -6.184   5.072  0.00  0.00     0.000 A 
ATOM     10  C   UNL d   1       0.853  -6.166   4.393  0.00  0.00     0.002 A 
ATOM     11  C   UNL d   1       0.345  -4.964   3.896  0.00  0.00     0.023 A 
ENDBRANCH   3   6
ENDBRANCH   2   3
ENDBRANCH   1   2
BRANCH   1  12
ATOM     12  S   UNL d   1       1.112  -0.086  -0.045  0.00  0.00     0.176 S 
ATOM     13  O   UNL d   1       0.500  -0.989  -1.000  0.00  0.00    -0.223 OA
ATOM     14  O   UNL d   1       2.553   0.040   0.042  0.00  0.00    -0.223 OA
BRANCH  12  15
ATOM     15  C   UNL d   1       0.444   1.539  -0.336  0.00  0.00     0.059 A 
ATOM     16  C   UNL d   1       1.204   2.669  -0.018  0.00  0.00     0.025 A 
ATOM     17  C   UNL d   1       0.674   3.942  -0.247  0.00  0.00     0.025 A 
ATOM     18  C   UNL d   1      -0.601   4.075  -0.799  0.00  0.00     0.034 A 
ATOM     19  C   UNL d   1      -1.349   2.946  -1.137  0.00  0.00     0.025 A 
ATOM     20 CL   UNL d   1      -1.254   5.643  -1.070  0.00  0.00    -0.084 Cl
ATOM     21  C   UNL d   1      -0.825   1.670  -0.911  0.00  0.00     0.025 A 
ENDBRANCH  12  15
ENDBRANCH   1  12
TORSDOF 5
