REMARK  11 active torsions:
REMARK  status: ('A' for Active; 'I' for Inactive)
REMARK    1  A    between atoms: C_1  and  O_7 
REMARK    2  A    between atoms: C_2  and  O_8 
REMARK    3  A    between atoms: C_3  and  S_9 
REMARK    4  A    between atoms: C_4  and  O_10 
REMARK    5  A    between atoms: C_6  and  C_15 
REMARK    6  A    between atoms: C_12  and  O_7 
REMARK    7  A    between atoms: C_11  and  O_8 
REMARK    8  A    between atoms: C_21  and  S_9 
REMARK    9  A    between atoms: C_13  and  O_10 
REMARK   10  A    between atoms: C_14  and  O_16 
REMARK   11  A    between atoms: O_16  and  C_15 
ROOT
ATOM      1  C   UNL d   1       0.882  -1.299  -0.207  0.00  0.00     0.203 C 
ATOM      2  C   UNL d   1       1.681  -0.032   0.179  0.00  0.00     0.197 C 
ATOM      3  C   UNL d   1      -0.615  -1.182   0.175  0.00  0.00     0.220 C 
ATOM      4  C   UNL d   1       0.926   1.239  -0.271  0.00  0.00     0.195 C 
ATOM      5  O   UNL d   1      -1.181   0.044  -0.276  0.00  0.00    -0.362 OA
ATOM      6  C   UNL d   1      -0.515   1.195   0.260  0.00  0.00     0.179 C 
ENDROOT
BRANCH   3   7
ATOM      7  S   UNL d   1      -1.598  -2.627  -0.443  0.00  0.00    -0.095 SA
BRANCH   7   8
ATOM      8  C   UNL d   1      -1.525  -2.394  -2.210  0.00  0.00     0.003 A 
ATOM      9  C   UNL d   1      -0.978  -3.393  -3.021  0.00  0.00     0.018 A 
ATOM     10  C   UNL d   1      -0.911  -3.219  -4.406  0.00  0.00     0.001 A 
ATOM     11  C   UNL d   1      -1.396  -2.047  -4.988  0.00  0.00     0.000 A 
ATOM     12  C   UNL d   1      -1.969  -1.063  -4.190  0.00  0.00     0.001 A 
ATOM     13  C   UNL d   1      -2.048  -1.244  -2.808  0.00  0.00     0.018 A 
ENDBRANCH   7   8
ENDBRANCH   3   7
BRANCH   1  14
ATOM     14  O   UNL d   1       1.474  -2.528   0.287  0.00  0.00    -0.310 OA
BRANCH  14  15
ATOM     15  C   UNL d   1       1.402  -2.768   1.626  0.00  0.00     0.255 C 
ATOM     16  O   UNL d   1       1.056  -1.952   2.469  0.00  0.00    -0.266 OA
ATOM     17  C   UNL d   1       1.622  -4.222   1.899  0.00  0.00     0.126 C 
ENDBRANCH  14  15
ENDBRANCH   1  14
BRANCH   2  18
ATOM     18  O   UNL d   1       2.963  -0.042  -0.515  0.00  0.00    -0.311 OA
BRANCH  18  19
ATOM     19  C   UNL d   1       3.994  -0.682   0.100  0.00  0.00     0.255 C 
ATOM     20  O   UNL d   1       3.947  -1.228   1.192  0.00  0.00    -0.266 OA
ATOM     21  C   UNL d   1       5.210  -0.671  -0.775  0.00  0.00     0.126 C 
ENDBRANCH  18  19
ENDBRANCH   2  18
BRANCH   6  22
ATOM     22  C   UNL d   1      -1.337   2.422  -0.167  0.00  0.00     0.213 C 
BRANCH  22  23
ATOM     23  O   UNL d   1      -2.675   2.353   0.375  0.00  0.00    -0.319 OA
BRANCH  23  24
ATOM     24  C   UNL d   1      -2.797   2.688   1.685  0.00  0.00     0.254 C 
ATOM     25  O   UNL d   1      -1.879   3.080   2.397  0.00  0.00    -0.266 OA
ATOM     26  C   UNL d   1      -4.208   2.519   2.159  0.00  0.00     0.126 C 
ENDBRANCH  23  24
ENDBRANCH  22  23
ENDBRANCH   6  22
BRANCH   4  27
ATOM     27  O   UNL d   1       1.613   2.396   0.259  0.00  0.00    -0.311 OA
BRANCH  27  28
ATOM     28  C   UNL d   1       2.086   3.297  -0.644  0.00  0.00     0.255 C 
ATOM     29  O   UNL d   1       1.939   3.229  -1.856  0.00  0.00    -0.266 OA
ATOM     30  C   UNL d   1       2.791   4.428   0.043  0.00  0.00     0.126 C 
ENDBRANCH  27  28
ENDBRANCH   4  27
TORSDOF 11
