REMARK  4 active torsions:
REMARK  status: ('A' for Active; 'I' for Inactive)
REMARK    1  A    between atoms: C_7  and  C_1 
REMARK    2  A    between atoms: N_6  and  C_2 
REMARK    3  A    between atoms: C_8  and  C_4 
REMARK       I    between atoms: C_9  and  N_6 
REMARK    4  A    between atoms: C_10  and  C_11 
ROOT
ATOM      1  C   UNL d   1       0.791   1.126  -0.796  0.00  0.00     0.077 A 
ATOM      2  C   UNL d   1       0.894   0.994   0.582  0.00  0.00     0.057 A 
ATOM      3  S   UNL d   1       0.449  -0.370  -1.534  0.00  0.00    -0.084 SA
ATOM      4  C   UNL d   1       0.273  -1.189  -0.038  0.00  0.00     0.018 A 
ATOM      5  C   UNL d   1       0.585  -0.336   1.003  0.00  0.00     0.051 A 
ENDROOT
BRANCH   4   6
ATOM      6  C   UNL d   1      -0.124  -2.606  -0.010  0.00  0.00    -0.019 A 
ATOM      7  C   UNL d   1       0.307  -3.456   1.015  0.00  0.00     0.013 A 
ATOM      8  C   UNL d   1      -0.044  -4.814   1.016  0.00  0.00     0.009 A 
ATOM      9  C   UNL d   1      -0.835  -5.376  -0.002  0.00  0.00    -0.051 A 
ATOM     10  C   UNL d   1      -1.290  -4.512  -1.005  0.00  0.00     0.009 A 
ATOM     11  C   UNL d   1      -0.944  -3.154  -1.006  0.00  0.00     0.013 A 
BRANCH   9  12
ATOM     12  C   UNL d   1      -1.159  -6.880  -0.010  0.00  0.00    -0.024 C 
ATOM     13  C   UNL d   1      -2.007  -7.324  -1.224  0.00  0.00     0.019 C 
ATOM     14  C   UNL d   1       0.155  -7.689  -0.055  0.00  0.00     0.019 C 
ATOM     15  C   UNL d   1      -1.948  -7.253   1.261  0.00  0.00     0.019 C 
ENDBRANCH   9  12
ENDBRANCH   4   6
BRANCH   1  16
ATOM     16  C   UNL d   1       0.995   2.332  -1.592  0.00  0.00     0.164 C 
ATOM     17  O   UNL d   1       1.414   3.376  -1.088  0.00  0.00    -0.292 OA
ATOM     18  C   UNL d   1       0.687   2.296  -3.072  0.00  0.00     0.097 C 
ENDBRANCH   1  16
BRANCH   2  19
ATOM     19  N   UNL d   1       1.214   2.063   1.416  0.00  0.00    -0.326 N 
ATOM     20  C   UNL d   1       1.761   1.907   2.673  0.00  0.00     0.218 C 
ATOM     21  O   UNL d   1       2.164   0.848   3.151  0.00  0.00    -0.274 OA
ATOM     22  C   UNL d   1       1.813   3.176   3.475  0.00  0.00     0.117 C 
ATOM     23  H   UNL d   1       1.249   2.982   0.976  0.00  0.00     0.169 HD
ENDBRANCH   2  19
TORSDOF 4
