REMARK  4 active torsions:
REMARK  status: ('A' for Active; 'I' for Inactive)
REMARK    1  A    between atoms: C_4  and  C_1 
REMARK    2  A    between atoms: O_14  and  C_2 
REMARK    3  A    between atoms: O_15  and  C_3 
REMARK    4  A    between atoms: C_13  and  N_7 
ROOT
ATOM      1  C   UNL d   1      -4.306  -7.288   1.200  0.00  0.00    -0.078 C 
ATOM      2  C   UNL d   1      -3.767  -8.259   1.663  0.00  0.00     0.018 C 
ATOM      3  C   UNL d   1      -4.901  -6.126   0.626  0.00  0.00     0.019 A 
ATOM      4  C   UNL d   1      -4.712  -3.794  -0.002  0.00  0.00     0.033 A 
ATOM      5  C   UNL d   1      -4.178  -4.935   0.599  0.00  0.00     0.050 A 
ATOM      6  C   UNL d   1      -6.742  -5.036  -0.491  0.00  0.00     0.004 A 
ATOM      7  C   UNL d   1      -6.187  -6.176   0.087  0.00  0.00     0.021 A 
ATOM      8  C   UNL d   1      -6.003  -3.853  -0.538  0.00  0.00     0.029 A 
ENDROOT
BRANCH   4   9
ATOM      9  N   UNL d   1      -4.046  -2.562  -0.026  0.00  0.00    -0.365 N 
ATOM     10  C   UNL d   1      -2.751  -2.520  -0.028  0.00  0.00     0.102 C 
ATOM     11  HN  UNL d   1      -4.582  -1.694  -0.041  1.00  0.00     0.165 HD
BRANCH  10  12
ATOM     12  C   UNL d   1      -2.052  -1.218  -0.014  0.00  0.00     0.017 A 
ATOM     13  C   UNL d   1      -2.771  -0.006  -0.004  0.00  0.00     0.110 A 
ATOM     14  C   UNL d   1      -2.086   1.214   0.016  0.00  0.00     0.103 A 
ATOM     15  C   UNL d   1      -0.684   1.202   0.017  0.00  0.00     0.058 A 
ATOM     16  C   UNL d   1       0.019  -0.003   0.004  0.00  0.00     0.014 A 
ATOM     17  C   UNL d   1      -0.655  -1.220  -0.007  0.00  0.00     0.034 A 
ATOM     18 BR   UNL d   1       1.910   0.018   0.003  0.00  0.00    -0.051 Br
BRANCH  13  19
ATOM     19  O   UNL d   1      -4.143  -0.018  -0.014  0.00  0.00    -0.357 OA
ATOM     20  H   UNL d   1      -4.442  -0.956  -0.009  0.00  0.00     0.217 HD
ENDBRANCH  13  19
BRANCH  14  21
ATOM     21  O   UNL d   1      -2.614   2.478   0.036  0.00  0.00    -0.353 OA
ATOM     22  C   UNL d   1      -4.030   2.610   0.037  0.00  0.00     0.210 C 
ENDBRANCH  14  21
ENDBRANCH  10  12
ENDBRANCH   4   9
TORSDOF 4
