REMARK  6 active torsions:
REMARK  status: ('A' for Active; 'I' for Inactive)
REMARK    1  A    between atoms: C_4  and  C_1 
REMARK    2  A    between atoms: C_5  and  C_1 
REMARK    3  A    between atoms: C_6  and  C_2 
REMARK    4  A    between atoms: O_10  and  C_4 
REMARK    5  A    between atoms: O_11  and  C_5 
REMARK    6  A    between atoms: O_12  and  C_6 
ROOT
ATOM      1  C   UNL d   1      -0.007   1.081  -0.086  0.00  0.00     0.144 A 
ATOM      2  C   UNL d   1       0.778  -0.232   0.076  0.00  0.00     0.115 A 
ATOM      3  C   UNL d   1      -0.728  -0.271  -0.006  0.00  0.00     0.050 A 
ENDROOT
BRANCH   1   4
ATOM      4  C   UNL d   1      -0.084   2.040   1.071  0.00  0.00     0.160 C 
ATOM      5  O   UNL d   1       0.334   3.184   0.937  0.00  0.00    -0.649 OA
BRANCH   4   6
ATOM      6  O   UNL d   1      -0.655   1.614   2.216  0.00  0.00    -0.775 OA
ATOM      7  H   UNL d   1      -0.550   0.651   2.397  0.00  0.00     0.167 HD
ENDBRANCH   4   6
ENDBRANCH   1   4
BRANCH   1   8
ATOM      8  C   UNL d   1       0.093   1.693  -1.470  0.00  0.00     0.160 C 
ATOM      9  O   UNL d   1      -0.127   1.027  -2.472  0.00  0.00    -0.649 OA
BRANCH   8  10
ATOM     10  O   UNL d   1       0.540   2.969  -1.543  0.00  0.00    -0.775 OA
ATOM     11  H   UNL d   1       0.638   3.418  -0.667  0.00  0.00     0.167 HD
ENDBRANCH   8  10
ENDBRANCH   1   8
BRANCH   2  12
ATOM     12  C   UNL d   1       1.454  -0.538   1.351  0.00  0.00     0.145 C 
ATOM     13  O   UNL d   1       0.837  -0.522   2.406  0.00  0.00    -0.650 OA
BRANCH  12  14
ATOM     14  O   UNL d   1       2.775  -0.773   1.244  0.00  0.00    -0.776 OA
ATOM     15  H   UNL d   1       3.132  -0.739   0.334  0.00  0.00     0.167 HD
ENDBRANCH  12  14
ENDBRANCH   2  12
TORSDOF 6
