REMARK  5 active torsions:
REMARK  status: ('A' for Active; 'I' for Inactive)
REMARK    1  A    between atoms: C_3  and  C_8 
REMARK       I    between atoms: C_4  and  N_6 
REMARK       I    between atoms: N_9  and  C_4 
REMARK    2  A    between atoms: O_19  and  C_5 
REMARK    3  A    between atoms: N_6  and  C_7 
REMARK    4  A    between atoms: C_13  and  N_9 
REMARK    5  A    between atoms: O_20  and  C_10 
ROOT
ATOM      1  C   UNL d   1       2.753   2.393  -0.004  0.00  0.00     0.325 C 
ATOM      2  N   UNL d   1       1.408   2.242   0.152  0.00  0.00    -0.305 N 
ATOM      3  N   UNL d   1       3.576   1.462   0.549  0.00  0.00    -0.309 N 
ATOM      4  O   UNL d   1       3.123   3.424  -0.575  0.00  0.00    -0.247 OA
ATOM      5  H   UNL d   1       0.945   3.105  -0.109  0.00  0.00     0.171 HD
ATOM      6  H   UNL d   1       3.118   0.716   1.052  0.00  0.00     0.170 HD
ENDROOT
BRANCH   2   7
ATOM      7  C   UNL d   1       0.588   1.221   0.675  0.00  0.00     0.087 C 
ATOM      8  C   UNL d   1       0.892  -0.136   0.825  0.00  0.00     0.171 C 
ATOM      9  N   UNL d   1       0.106  -1.007   1.488  0.00  0.00    -0.316 N 
ATOM     10  C   UNL d   1      -1.060  -0.552   1.974  0.00  0.00     0.143 C 
ATOM     11  HN  UNL d   1       0.388  -1.979   1.617  1.00  0.00     0.170 HD
ATOM     12  C   UNL d   1      -1.522   0.731   1.763  0.00  0.00     0.058 C 
ATOM     13  C   UNL d   1      -0.687   1.625   1.093  0.00  0.00     0.038 C 
BRANCH   8  14
ATOM     14  O   UNL d   1       2.079  -0.633   0.345  0.00  0.00    -0.339 OA
ATOM     15  C   UNL d   1       2.007  -1.987  -0.102  0.00  0.00     0.211 C 
ENDBRANCH   8  14
BRANCH  10  16
ATOM     16  O   UNL d   1      -1.843  -1.387   2.742  0.00  0.00    -0.341 OA
ATOM     17  C   UNL d   1      -1.189  -2.620   3.042  0.00  0.00     0.211 C 
ENDBRANCH  10  16
ENDBRANCH   2   7
BRANCH   3  18
ATOM     18  C   UNL d   1       4.968   1.327   0.400  0.00  0.00     0.037 A 
ATOM     19  C   UNL d   1       5.739   2.163  -0.406  0.00  0.00     0.045 A 
ATOM     20  C   UNL d   1       7.103   1.905  -0.616  0.00  0.00     0.050 A 
ATOM     21  C   UNL d   1       7.700   0.815   0.034  0.00  0.00     0.016 A 
ATOM     22  C   UNL d   1       6.945  -0.004   0.872  0.00  0.00     0.003 A 
ATOM     23  C   UNL d   1       5.583   0.250   1.048  0.00  0.00     0.029 A 
BRANCH  20  24
ATOM     24  C   UNL d   1       7.907   2.760  -1.562  0.00  0.00     0.417 C 
ATOM     25  F   UNL d   1       7.205   3.788  -2.115  0.00  0.00    -0.166 F 
ATOM     26  F   UNL d   1       8.990   3.328  -0.963  0.00  0.00    -0.166 F 
ATOM     27  F   UNL d   1       8.397   2.042  -2.611  0.00  0.00    -0.166 F 
ENDBRANCH  20  24
ENDBRANCH   3  18
TORSDOF 5
