REMARK  5 active torsions:
REMARK  status: ('A' for Active; 'I' for Inactive)
REMARK    1  A    between atoms: C_3  and  N_1 
REMARK    2  A    between atoms: C_2  and  N_4 
REMARK    3  A    between atoms: N_8  and  C_2 
REMARK    4  A    between atoms: N_4  and  C_6 
REMARK    5  A    between atoms: C_14  and  N_8 
ROOT
ATOM      1  C   UNL d   1      -6.098  -5.016   1.460  0.00  0.00     0.104 C 
ATOM      2  C   UNL d   1      -5.893  -4.454   2.721  0.00  0.00     0.062 C 
ATOM      3  C   UNL d   1      -3.541  -4.140   2.165  0.00  0.00     0.056 C 
ATOM      4  C   UNL d   1      -4.618  -3.997   3.064  0.00  0.00     0.063 C 
ATOM      5  C   UNL d   1      -5.063  -5.043   0.509  0.00  0.00     0.038 C 
ATOM      6  C   UNL d   1      -3.787  -4.587   0.861  0.00  0.00     0.034 C 
ATOM      7 CL   UNL d   1      -4.443  -3.187   4.584  0.00  0.00    -0.082 Cl
ENDROOT
BRANCH   3   8
ATOM      8  N   UNL d   1      -2.188  -3.928   2.556  0.00  0.00    -0.332 N 
ATOM      9  H   UNL d   1      -1.548  -3.736   1.798  0.00  0.00     0.168 HD
BRANCH   8  10
ATOM     10  C   UNL d   1      -1.589  -4.670   3.546  0.00  0.00     0.172 C 
ATOM     11  S   UNL d   1      -2.181  -6.066   4.269  0.00  0.00    -0.041 SA
BRANCH  10  12
ATOM     12  N   UNL d   1      -0.360  -4.284   3.969  0.00  0.00    -0.359 N 
ATOM     13  H   UNL d   1      -0.036  -4.904   4.705  0.00  0.00     0.162 HD
BRANCH  12  14
ATOM     14  C   UNL d   1       0.547  -3.161   3.659  0.00  0.00     0.021 C 
ATOM     15  C   UNL d   1      -0.135  -1.802   3.860  0.00  0.00     0.037 C 
ATOM     16  C   UNL d   1       1.728  -3.260   4.648  0.00  0.00     0.037 C 
ATOM     17  C   UNL d   1       1.109  -3.279   2.236  0.00  0.00     0.037 C 
ENDBRANCH  12  14
ENDBRANCH  10  12
ENDBRANCH   8  10
ENDBRANCH   3   8
BRANCH   1  18
ATOM     18  N   UNL d   1      -7.402  -5.606   1.136  0.00  0.00    -0.116 N 
ATOM     19  O   UNL d   1      -8.198  -5.783   2.065  0.00  0.00    -0.532 OA
ATOM     20  O   UNL d   1      -7.618  -5.899  -0.049  0.00  0.00    -0.532 OA
ENDBRANCH   1  18
TORSDOF 5
