REMARK  3 active torsions:
REMARK  status: ('A' for Active; 'I' for Inactive)
REMARK    1  A    between atoms: C_7  and  N_1 
REMARK    2  A    between atoms: C_8  and  C_2 
REMARK    3  A    between atoms: O_16  and  C_13 
ROOT
ATOM      1  N   UNL d   1       0.928  -0.700   0.024  0.00  0.00    -0.271 N 
ATOM      2  C   UNL d   1       0.899   0.681  -0.009  0.00  0.00     0.141 A 
ATOM      3  N   UNL d   1      -0.300   1.196  -0.003  0.00  0.00    -0.282 N 
ATOM      4  HN  UNL d   1      -0.555   2.183  -0.003  1.00  0.00     0.188 HD
ATOM      5  C   UNL d   1      -0.413  -1.064   0.045  0.00  0.00     0.199 A 
ATOM      6  N   UNL d   1      -1.133   0.122   0.004  0.00  0.00    -0.274 N 
ATOM      7  S   UNL d   1      -1.188  -2.528   0.195  0.00  0.00    -0.039 SA
ATOM      8  H   UNL d   1      -2.139   0.219   0.058  0.00  0.00     0.189 HD
ENDROOT
BRANCH   1   9
ATOM      9  C   UNL d   1       2.052  -1.567   0.130  0.00  0.00     0.046 A 
ATOM     10  C   UNL d   1       3.175  -1.210   0.896  0.00  0.00     0.066 A 
ATOM     11  C   UNL d   1       4.332  -1.997   0.896  0.00  0.00     0.070 A 
ATOM     12  C   UNL d   1       4.352  -3.184   0.166  0.00  0.00     0.037 A 
ATOM     13  C   UNL d   1       3.228  -3.588  -0.546  0.00  0.00     0.005 A 
ATOM     14  C   UNL d   1       2.090  -2.780  -0.572  0.00  0.00     0.030 A 
BRANCH  11  15
ATOM     15  O   UNL d   1       5.506  -1.699   1.530  0.00  0.00    -0.356 OA
ATOM     16  C   UNL d   1       5.471  -0.657   2.498  0.00  0.00     0.210 C 
ENDBRANCH  11  15
ENDBRANCH   1   9
BRANCH   2  17
ATOM     17  C   UNL d   1       2.082   1.556  -0.084  0.00  0.00     0.025 A 
ATOM     18  C   UNL d   1       2.091   2.719   0.677  0.00  0.00     0.102 A 
ATOM     19  N   UNL d   1       3.145   3.569   0.744  0.00  0.00    -0.374 N 
ATOM     20  C   UNL d   1       4.225   3.257  -0.005  0.00  0.00     0.087 A 
ATOM     21  HN  UNL d   1       3.124   4.403   1.331  1.00  0.00     0.164 HD
ATOM     22  C   UNL d   1       4.292   2.147  -0.832  0.00  0.00     0.018 A 
ATOM     23  C   UNL d   1       3.191   1.293  -0.889  0.00  0.00     0.018 A 
ENDBRANCH   2  17
TORSDOF 3
