REMARK  6 active torsions:
REMARK  status: ('A' for Active; 'I' for Inactive)
REMARK    1  A    between atoms: C_18  and  N_1 
REMARK    2  A    between atoms: C_16  and  C_2 
REMARK    3  A    between atoms: N_4  and  C_15 
REMARK    4  A    between atoms: C_6  and  C_16 
REMARK    5  A    between atoms: C_21  and  C_13 
REMARK    6  A    between atoms: C_27  and  C_18 
ROOT
ATOM      1  N   UNL d   1       1.482   1.114  -0.062  0.00  0.00    -0.351 N 
ATOM      2  C   UNL d   1       1.636  -1.116   0.021  0.00  0.00    -0.026 A 
ATOM      3  C   UNL d   1       0.253  -0.749  -0.008  0.00  0.00     0.001 A 
ATOM      4  C   UNL d   1       2.357   0.058  -0.024  0.00  0.00     0.100 A 
ATOM      5  C   UNL d   1       0.181   0.645  -0.108  0.00  0.00     0.045 A 
ATOM      6  C   UNL d   1      -0.944  -1.494   0.033  0.00  0.00     0.050 A 
ATOM      7  C   UNL d   1      -2.172  -0.821  -0.052  0.00  0.00     0.103 A 
ATOM      8  C   UNL d   1      -1.048   1.320  -0.214  0.00  0.00     0.033 A 
ATOM      9  C   UNL d   1      -2.227   0.567  -0.188  0.00  0.00     0.038 A 
ENDROOT
BRANCH   2  10
ATOM     10  C   UNL d   1       2.206  -2.501   0.067  0.00  0.00     0.085 C 
BRANCH  10  11
ATOM     11  C   UNL d   1       2.380  -3.063  -1.313  0.00  0.00     0.018 A 
ATOM     12  C   UNL d   1       3.694  -2.878  -1.976  0.00  0.00     0.266 A 
ATOM     13  N   UNL d   1       3.787  -3.355  -3.260  0.00  0.00    -0.266 N 
ATOM     14  O   UNL d   1       4.640  -2.334  -1.412  0.00  0.00    -0.266 OA
ATOM     15  N   UNL d   1       2.800  -3.983  -3.962  0.00  0.00    -0.297 N 
ATOM     16  H   UNL d   1       4.673  -3.231  -3.738  0.00  0.00     0.190 HD
ATOM     17  C   UNL d   1       1.669  -4.166  -3.351  0.00  0.00     0.059 A 
ATOM     18  HN  UNL d   1       2.944  -4.295  -4.923  1.00  0.00     0.187 HD
ATOM     19  C   UNL d   1       1.407  -3.716  -1.965  0.00  0.00     0.045 A 
BRANCH  17  20
ATOM     20  C   UNL d   1       0.543  -4.828  -4.075  0.00  0.00    -0.008 A 
ATOM     21  C   UNL d   1      -0.418  -5.606  -3.410  0.00  0.00     0.017 A 
ATOM     22  C   UNL d   1      -1.452  -6.209  -4.131  0.00  0.00     0.043 A 
ATOM     23  C   UNL d   1      -1.520  -6.041  -5.509  0.00  0.00     0.116 A 
ATOM     24  C   UNL d   1      -0.574  -5.280  -6.184  0.00  0.00     0.043 A 
ATOM     25  F   UNL d   1      -2.507  -6.630  -6.197  0.00  0.00    -0.206 F 
ATOM     26  C   UNL d   1       0.461  -4.674  -5.468  0.00  0.00     0.017 A 
ENDBRANCH  17  20
ENDBRANCH  10  11
ENDBRANCH   2  10
BRANCH   1  27
ATOM     27  C   UNL d   1       1.900   2.511   0.042  0.00  0.00     0.167 C 
BRANCH  27  28
ATOM     28  C   UNL d   1       2.201   3.104  -1.309  0.00  0.00    -0.040 A 
ATOM     29  C   UNL d   1       1.222   3.828  -2.003  0.00  0.00     0.009 A 
ATOM     30  C   UNL d   1       1.470   4.295  -3.294  0.00  0.00     0.001 A 
ATOM     31  C   UNL d   1       2.702   4.054  -3.899  0.00  0.00     0.000 A 
ATOM     32  C   UNL d   1       3.697   3.369  -3.205  0.00  0.00     0.001 A 
ATOM     33  C   UNL d   1       3.450   2.899  -1.915  0.00  0.00     0.009 A 
ENDBRANCH  27  28
ENDBRANCH   1  27
BRANCH   7  34
ATOM     34  N   UNL d   1      -3.414  -1.602   0.015  0.00  0.00    -0.116 N 
ATOM     35  O   UNL d   1      -3.319  -2.834   0.083  0.00  0.00    -0.532 OA
ATOM     36  O   UNL d   1      -4.488  -0.979  -0.005  0.00  0.00    -0.532 OA
ENDBRANCH   7  34
TORSDOF 6
