REMARK  3 active torsions:
REMARK  status: ('A' for Active; 'I' for Inactive)
REMARK    1  A    between atoms: C_2  and  C_1 
REMARK    2  A    between atoms: C_9  and  C_7 
REMARK    3  A    between atoms: C_18  and  C_8 
ROOT
ATOM      1  C   UNL d   1       0.011  -1.300  -0.031  0.00  0.00     0.052 A 
ATOM      2  N   UNL d   1      -1.316   0.541   0.004  0.00  0.00    -0.259 N 
ATOM      3  HN  UNL d   1      -2.128   1.158   0.004  1.00  0.00     0.195 HD
ATOM      4  C   UNL d   1      -1.333  -0.806   0.004  0.00  0.00     0.080 A 
ATOM      5  O   UNL d   1       0.006   0.923   0.005  0.00  0.00    -0.241 OA
ATOM      6  C   UNL d   1       0.802  -0.175  -0.005  0.00  0.00     0.087 A 
ATOM      7  C   UNL d   1       2.255   0.081  -0.007  0.00  0.00     0.080 C 
ENDROOT
BRANCH   1   8
ATOM      8  C   UNL d   1       0.441  -2.695  -0.081  0.00  0.00     0.054 A 
ATOM      9  N   UNL d   1      -0.330  -3.597  -0.792  0.00  0.00    -0.347 N 
ATOM     10  C   UNL d   1       0.158  -4.812  -0.669  0.00  0.00     0.111 A 
ATOM     11  HN  UNL d   1      -1.160  -3.354  -1.333  1.00  0.00     0.167 HD
ATOM     12  S   UNL d   1       1.608  -4.929   0.240  0.00  0.00    -0.079 SA
ATOM     13  C   UNL d   1       1.557  -3.236   0.520  0.00  0.00     0.082 A 
BRANCH  10  14
ATOM     14  C   UNL d   1      -0.494  -5.955  -1.237  0.00  0.00     0.134 A 
ATOM     15  O   UNL d   1      -0.027  -7.238  -1.119  0.00  0.00    -0.236 OA
ATOM     16  N   UNL d   1      -0.878  -8.116  -1.768  0.00  0.00    -0.272 N 
ATOM     17  C   UNL d   1      -1.852  -7.356  -2.269  0.00  0.00     0.117 A 
ATOM     18  HN  UNL d   1      -0.781  -9.129  -1.846  1.00  0.00     0.194 HD
ATOM     19  C   UNL d   1      -1.668  -6.000  -1.963  0.00  0.00     0.061 A 
ENDBRANCH  10  14
ENDBRANCH   1   8
BRANCH   4  20
ATOM     20  C   UNL d   1      -2.614  -1.521   0.064  0.00  0.00    -0.007 A 
ATOM     21  C   UNL d   1      -3.747  -0.999  -0.580  0.00  0.00     0.014 A 
ATOM     22  C   UNL d   1      -4.970  -1.676  -0.539  0.00  0.00     0.001 A 
ATOM     23  C   UNL d   1      -5.075  -2.888   0.141  0.00  0.00     0.000 A 
ATOM     24  C   UNL d   1      -3.967  -3.409   0.802  0.00  0.00     0.001 A 
ATOM     25  C   UNL d   1      -2.751  -2.721   0.778  0.00  0.00     0.014 A 
ENDBRANCH   4  20
TORSDOF 3
