REMARK  3 active torsions:
REMARK  status: ('A' for Active; 'I' for Inactive)
REMARK    1  A    between atoms: C_10  and  N_3 
REMARK    2  A    between atoms: C_7  and  C_4 
REMARK    3  A    between atoms: C_9  and  C_5 
ROOT
ATOM      1  N   UNL d   1       1.161  -0.166   0.087  0.00  0.00    -0.301 N 
ATOM      2  HN  UNL d   1       2.162  -0.359   0.131  1.00  0.00     0.187 HD
ATOM      3  N   UNL d   1       0.155  -1.089   0.086  0.00  0.00    -0.283 N 
ATOM      4  C   UNL d   1       0.602   1.005   0.020  0.00  0.00     0.038 A 
ATOM      5  C   UNL d   1      -1.181  -0.502   0.002  0.00  0.00     0.147 A 
ATOM      6  C   UNL d   1      -0.902   0.998   0.008  0.00  0.00     0.091 A 
ENDROOT
BRANCH   4   7
ATOM      7  C   UNL d   1       1.361   2.278  -0.042  0.00  0.00    -0.011 A 
ATOM      8  C   UNL d   1       2.761   2.246  -0.076  0.00  0.00     0.025 A 
ATOM      9  C   UNL d   1       3.507   3.437  -0.124  0.00  0.00    -0.025 A 
ATOM     10  C   UNL d   1       4.911   3.424  -0.151  0.00  0.00     0.012 A 
ATOM     11  C   UNL d   1       2.831   4.679  -0.141  0.00  0.00    -0.026 A 
ATOM     12  C   UNL d   1       5.636   4.617  -0.182  0.00  0.00     0.001 A 
ATOM     13  C   UNL d   1       4.968   5.838  -0.190  0.00  0.00     0.001 A 
ATOM     14  C   UNL d   1       3.574   5.870  -0.173  0.00  0.00     0.012 A 
ATOM     15  C   UNL d   1       1.430   4.699  -0.121  0.00  0.00     0.013 A 
ATOM     16  C   UNL d   1       0.700   3.509  -0.073  0.00  0.00     0.014 A 
ENDBRANCH   4   7
BRANCH   3  17
ATOM     17  C   UNL d   1       0.428  -2.455   0.030  0.00  0.00     0.051 A 
ATOM     18  C   UNL d   1       1.630  -2.968   0.542  0.00  0.00     0.031 A 
ATOM     19  C   UNL d   1       1.895  -4.341   0.553  0.00  0.00     0.002 A 
ATOM     20  C   UNL d   1       0.971  -5.234   0.021  0.00  0.00     0.000 A 
ATOM     21  C   UNL d   1      -0.219  -4.752  -0.514  0.00  0.00     0.002 A 
ATOM     22  C   UNL d   1      -0.487  -3.380  -0.500  0.00  0.00     0.031 A 
ENDBRANCH   3  17
BRANCH   5  23
ATOM     23  C   UNL d   1      -2.085  -0.900   1.161  0.00  0.00    -0.033 A 
ATOM     24  C   UNL d   1      -1.566  -1.185   2.439  0.00  0.00     0.012 A 
ATOM     25  C   UNL d   1      -2.406  -1.570   3.481  0.00  0.00     0.043 A 
ATOM     26  C   UNL d   1      -3.776  -1.651   3.262  0.00  0.00     0.116 A 
ATOM     27  C   UNL d   1      -4.316  -1.353   2.016  0.00  0.00     0.043 A 
ATOM     28  F   UNL d   1      -4.584  -2.022   4.260  0.00  0.00    -0.206 F 
ATOM     29  C   UNL d   1      -3.475  -0.977   0.968  0.00  0.00     0.012 A 
ENDBRANCH   5  23
TORSDOF 3
