REMARK  5 active torsions:
REMARK  status: ('A' for Active; 'I' for Inactive)
REMARK    1  A    between atoms: C_8  and  N_1 
REMARK    2  A    between atoms: S_7  and  C_2 
REMARK    3  A    between atoms: C_19  and  S_7 
REMARK    4  A    between atoms: N_11  and  C_9 
REMARK    5  A    between atoms: C_14  and  C_19 
ROOT
ATOM      1  N   UNL d   1      -0.108  -1.361   0.013  0.00  0.00    -0.219 N 
ATOM      2  C   UNL d   1       1.102  -0.682   0.141  0.00  0.00     0.177 A 
ATOM      3  N   UNL d   1       0.874   0.614   0.134  0.00  0.00    -0.264 N 
ATOM      4  HN  UNL d   1       1.566   1.357   0.230  1.00  0.00     0.186 HD
ATOM      5  N   UNL d   1      -0.470   0.767  -0.028  0.00  0.00    -0.006 NA
ATOM      6  N   UNL d   1      -1.075  -0.408  -0.126  0.00  0.00     0.001 NA
ENDROOT
BRANCH   2   7
ATOM      7  S   UNL d   1       2.692  -1.371   0.193  0.00  0.00    -0.087 SA
BRANCH   7   8
ATOM      8  C   UNL d   1       3.715   0.108   0.441  0.00  0.00     0.121 C 
BRANCH   8   9
ATOM      9  C   UNL d   1       5.173  -0.256   0.584  0.00  0.00    -0.043 A 
ATOM     10  C   UNL d   1       6.010  -0.314  -0.541  0.00  0.00     0.050 A 
ATOM     11  C   UNL d   1       7.355  -0.655  -0.397  0.00  0.00     0.119 A 
ATOM     12  F   UNL d   1       8.140  -0.697  -1.481  0.00  0.00    -0.206 F 
ATOM     13  C   UNL d   1       7.893  -0.949   0.848  0.00  0.00     0.084 A 
ATOM     14  C   UNL d   1       7.063  -0.905   1.958  0.00  0.00     0.119 A 
ATOM     15  C   UNL d   1       5.715  -0.567   1.840  0.00  0.00     0.050 A 
ATOM     16  F   UNL d   1       7.565  -1.192   3.166  0.00  0.00    -0.206 F 
ENDBRANCH   8   9
ENDBRANCH   7   8
ENDBRANCH   2   7
BRANCH   1  17
ATOM     17  C   UNL d   1      -0.471  -2.741  -0.000  0.00  0.00     0.057 A 
ATOM     18  C   UNL d   1       0.418  -3.759   0.335  0.00  0.00     0.033 A 
ATOM     19  C   UNL d   1       0.015  -5.101   0.281  0.00  0.00     0.031 A 
ATOM     20  C   UNL d   1      -1.275  -5.492  -0.107  0.00  0.00     0.029 A 
ATOM     21  C   UNL d   1      -2.170  -4.456  -0.396  0.00  0.00     0.031 A 
ATOM     22  C   UNL d   1      -1.782  -3.105  -0.342  0.00  0.00     0.033 A 
BRANCH  20  23
ATOM     23  N   UNL d   1      -1.620  -6.839  -0.126  0.00  0.00    -0.390 N 
ATOM     24  C   UNL d   1      -0.683  -7.788  -0.731  0.00  0.00     0.149 C 
ATOM     25  C   UNL d   1      -3.018  -7.255  -0.166  0.00  0.00     0.149 C 
ENDBRANCH  20  23
ENDBRANCH   1  17
TORSDOF 5
