REMARK  7 active torsions:
REMARK  status: ('A' for Active; 'I' for Inactive)
REMARK    1  A    between atoms: C_2  and  S_1 
REMARK    2  A    between atoms: C_5  and  S_1 
REMARK    3  A    between atoms: C_25  and  C_5 
REMARK    4  A    between atoms: C_6  and  C_24 
REMARK       I    between atoms: N_9  and  C_6 
REMARK    5  A    between atoms: C_10  and  N_9 
REMARK    6  A    between atoms: S_22  and  C_25 
REMARK    7  A    between atoms: C_24  and  S_22 
ROOT
ATOM      1  S   UNL d   1       1.514  -4.362   0.363  0.00  0.00    -0.159 SA
ENDROOT
BRANCH   1   2
ATOM      2  C   UNL d   1       1.306  -2.727  -0.471  0.00  0.00     0.089 C 
BRANCH   2   3
ATOM      3  C   UNL d   1       0.704  -1.676   0.451  0.00  0.00     0.156 C 
BRANCH   3   4
ATOM      4  S   UNL d   1       0.621  -0.092  -0.366  0.00  0.00     0.176 S 
ATOM      5  O   UNL d   1       1.976   0.402  -0.540  0.00  0.00    -0.223 OA
ATOM      6  O   UNL d   1      -0.281  -0.209  -1.493  0.00  0.00    -0.223 OA
BRANCH   4   7
ATOM      7  C   UNL d   1      -0.174   0.950   0.843  0.00  0.00     0.059 A 
ATOM      8  C   UNL d   1       0.601   1.700   1.734  0.00  0.00     0.025 A 
ATOM      9  C   UNL d   1      -0.031   2.497   2.692  0.00  0.00     0.025 A 
ATOM     10  C   UNL d   1      -1.425   2.551   2.744  0.00  0.00     0.034 A 
ATOM     11  C   UNL d   1      -2.196   1.830   1.831  0.00  0.00     0.025 A 
ATOM     12 CL   UNL d   1      -2.199   3.512   3.943  0.00  0.00    -0.084 Cl
ATOM     13  C   UNL d   1      -1.571   1.030   0.871  0.00  0.00     0.025 A 
ENDBRANCH   4   7
ENDBRANCH   3   4
ENDBRANCH   2   3
ENDBRANCH   1   2
BRANCH   1  14
ATOM     14  C   UNL d   1      -0.228  -4.851   0.456  0.00  0.00     0.177 C 
BRANCH  14  15
ATOM     15  C   UNL d   1      -0.529  -6.201   1.086  0.00  0.00     0.231 C 
ATOM     16  N   UNL d   1       0.530  -7.016   1.428  0.00  0.00    -0.326 N 
ATOM     17  H   UNL d   1       1.453  -6.598   1.365  0.00  0.00     0.169 HD
ATOM     18  O   UNL d   1      -1.718  -6.478   1.280  0.00  0.00    -0.272 OA
BRANCH  16  19
ATOM     19  C   UNL d   1       0.413  -8.270   2.082  0.00  0.00     0.036 A 
ATOM     20  C   UNL d   1      -0.778  -9.011   2.108  0.00  0.00     0.056 A 
ATOM     21  C   UNL d   1      -0.879 -10.175   2.873  0.00  0.00     0.074 A 
ATOM     22 CL   UNL d   1      -2.369 -11.039   2.911  0.00  0.00    -0.081 Cl
ATOM     23  C   UNL d   1       0.215 -10.617   3.605  0.00  0.00     0.138 A 
ATOM     24  C   UNL d   1       1.426  -9.933   3.540  0.00  0.00     0.046 A 
ATOM     25  F   UNL d   1       0.126 -11.703   4.387  0.00  0.00    -0.204 F 
ATOM     26  C   UNL d   1       1.530  -8.770   2.765  0.00  0.00     0.032 A 
ENDBRANCH  16  19
ENDBRANCH  14  15
ENDBRANCH   1  14
TORSDOF 7
