REMARK  4 active torsions:
REMARK  status: ('A' for Active; 'I' for Inactive)
REMARK    1  A    between atoms: N_7  and  C_1 
REMARK    2  A    between atoms: N_8  and  C_2 
REMARK    3  A    between atoms: C_10  and  N_7 
REMARK    4  A    between atoms: C_9  and  C_10 
ROOT
ATOM      1  C   UNL d   1       0.443   1.127  -0.071  0.00  0.00     0.121 C 
ATOM      2  C   UNL d   1       0.378   0.420  -1.222  0.00  0.00     0.119 C 
ATOM      3  C   UNL d   1       0.339   0.492   1.215  0.00  0.00     0.114 C 
ATOM      4  C   UNL d   1       0.241  -1.010  -1.226  0.00  0.00     0.114 C 
ATOM      5  N   UNL d   1       0.268   0.033   2.277  0.00  0.00    -0.190 NA
ATOM      6  N   UNL d   1       0.143  -2.167  -1.250  0.00  0.00    -0.190 NA
ENDROOT
BRANCH   1   7
ATOM      7  N   UNL d   1       0.556   2.533  -0.020  0.00  0.00    -0.281 NA
ATOM      8  H   UNL d   1      -0.026   2.864   0.753  0.00  0.00     0.128 HD
BRANCH   7   9
ATOM      9  C   UNL d   1       1.883   3.159   0.112  0.00  0.00     0.101 C 
BRANCH   9  10
ATOM     10  C   UNL d   1       1.786   4.707   0.169  0.00  0.00    -0.039 C 
ATOM     11  C   UNL d   1       1.038   5.173   1.432  0.00  0.00     0.015 C 
ATOM     12  C   UNL d   1       3.212   5.289   0.215  0.00  0.00     0.015 C 
ATOM     13  C   UNL d   1       1.073   5.256  -1.079  0.00  0.00     0.015 C 
ENDBRANCH   9  10
ENDBRANCH   7   9
ENDBRANCH   1   7
BRANCH   2  14
ATOM     14  N   UNL d   1       0.411   1.001  -2.486  0.00  0.00    -0.292 NA
ATOM     15  H   UNL d   1       0.724   1.970  -2.445  0.00  0.00     0.125 HD
ATOM     16  H   UNL d   1       0.884   0.441  -3.192  0.00  0.00     0.125 HD
ENDBRANCH   2  14
TORSDOF 4
