REMARK  4 active torsions:
REMARK  status: ('A' for Active; 'I' for Inactive)
REMARK    1  A    between atoms: C_2  and  C_1 
REMARK       I    between atoms: N_12  and  C_2 
REMARK    2  A    between atoms: C_22  and  C_5 
REMARK    3  A    between atoms: C_7  and  N_13 
REMARK    4  A    between atoms: C_8  and  C_9 
ROOT
ATOM      1  C   UNL d   1       0.057  -2.645   0.156  0.00  0.00     0.256 C 
ATOM      2  N   UNL d   1      -0.985  -3.555  -0.011  0.00  0.00    -0.345 N 
ATOM      3  N   UNL d   1      -3.377  -5.066  -0.046  0.00  0.00    -0.363 N 
ATOM      4  O   UNL d   1       0.897  -2.780   1.045  0.00  0.00    -0.267 OA
ATOM      5  C   UNL d   1      -1.788  -3.724  -1.235  0.00  0.00     0.146 C 
ATOM      6  C   UNL d   1      -1.162  -4.652   0.965  0.00  0.00     0.146 C 
ATOM      7  C   UNL d   1      -3.267  -3.843  -0.847  0.00  0.00     0.144 C 
ATOM      8  C   UNL d   1      -2.661  -4.978   1.240  0.00  0.00     0.144 C 
ENDROOT
BRANCH   1   9
ATOM      9  C   UNL d   1       0.106  -1.500  -0.746  0.00  0.00     0.064 C 
ATOM     10  C   UNL d   1      -0.973  -0.745  -1.296  0.00  0.00     0.057 C 
ATOM     11  C   UNL d   1      -0.434   0.163  -2.178  0.00  0.00     0.087 C 
ATOM     12  O   UNL d   1       0.925   0.123  -2.094  0.00  0.00    -0.314 OA
ATOM     13  C   UNL d   1       1.250  -0.865  -1.204  0.00  0.00     0.065 C 
ATOM     14  C   UNL d   1       2.697  -1.042  -0.955  0.00  0.00     0.077 C 
BRANCH  11  15
ATOM     15  C   UNL d   1      -1.026   1.091  -3.130  0.00  0.00    -0.002 A 
ATOM     16  C   UNL d   1      -0.386   2.281  -3.488  0.00  0.00     0.014 A 
ATOM     17  C   UNL d   1      -1.002   3.183  -4.360  0.00  0.00     0.001 A 
ATOM     18  C   UNL d   1      -2.259   2.899  -4.893  0.00  0.00     0.000 A 
ATOM     19  C   UNL d   1      -2.896   1.705  -4.568  0.00  0.00     0.001 A 
ATOM     20  C   UNL d   1      -2.283   0.807  -3.693  0.00  0.00     0.014 A 
ENDBRANCH  11  15
ENDBRANCH   1   9
BRANCH   3  21
ATOM     21  C   UNL d   1      -4.491  -5.869  -0.172  0.00  0.00     0.125 A 
ATOM     22  N   UNL d   1      -5.154  -6.217   0.957  0.00  0.00    -0.350 N 
ATOM     23  C   UNL d   1      -6.229  -7.041   0.861  0.00  0.00     0.106 A 
ATOM     24  HN  UNL d   1      -4.850  -5.866   1.865  1.00  0.00     0.166 HD
ATOM     25  C   UNL d   1      -6.707  -7.562  -0.330  0.00  0.00     0.065 A 
ATOM     26  C   UNL d   1      -6.026  -7.219  -1.492  0.00  0.00     0.045 A 
ATOM     27  C   UNL d   1      -4.908  -6.388  -1.421  0.00  0.00     0.078 A 
ATOM     28 CL   UNL d   1      -4.030  -6.171  -2.901  0.00  0.00    -0.080 Cl
BRANCH  25  29
ATOM     29  C   UNL d   1      -7.887  -8.481  -0.339  0.00  0.00     0.418 C 
ATOM     30  F   UNL d   1      -8.254  -8.872  -1.591  0.00  0.00    -0.166 F 
ATOM     31  F   UNL d   1      -7.658  -9.627   0.356  0.00  0.00    -0.166 F 
ATOM     32  F   UNL d   1      -8.994  -7.918   0.214  0.00  0.00    -0.166 F 
ENDBRANCH  25  29
ENDBRANCH   3  21
TORSDOF 4
