REMARK  4 active torsions:
REMARK  status: ('A' for Active; 'I' for Inactive)
REMARK       I    between atoms: N_2  and  C_1 
REMARK    1  A    between atoms: C_4  and  C_1 
REMARK    2  A    between atoms: C_12  and  N_2 
REMARK    3  A    between atoms: C_3  and  C_5 
REMARK    4  A    between atoms: O_19  and  C_14 
ROOT
ATOM      1  C   UNL d   1       0.206  -1.014   0.652  0.00  0.00     0.032 A 
ATOM      2  C   UNL d   1      -1.268  -2.964   2.085  0.00  0.00    -0.023 A 
ATOM      3  C   UNL d   1       0.687  -1.498   1.870  0.00  0.00     0.018 A 
ATOM      4  C   UNL d   1      -1.016  -1.476   0.160  0.00  0.00     0.018 A 
ATOM      5  C   UNL d   1      -1.741  -2.439   0.869  0.00  0.00     0.013 A 
ATOM      6  C   UNL d   1      -0.042  -2.467   2.571  0.00  0.00     0.013 A 
ENDROOT
BRANCH   1   7
ATOM      7  C   UNL d   1       0.946   0.008  -0.137  0.00  0.00     0.256 C 
ATOM      8  N   UNL d   1       2.321  -0.144  -0.142  0.00  0.00    -0.323 N 
ATOM      9  H   UNL d   1       2.695  -0.984   0.278  0.00  0.00     0.169 HD
ATOM     10  O   UNL d   1       0.293   0.847  -0.744  0.00  0.00    -0.267 OA
BRANCH   8  11
ATOM     11  C   UNL d   1       3.252   0.666  -0.828  0.00  0.00     0.035 A 
ATOM     12  C   UNL d   1       2.919   1.873  -1.442  0.00  0.00     0.032 A 
ATOM     13  C   UNL d   1       3.878   2.606  -2.151  0.00  0.00     0.039 A 
ATOM     14  C   UNL d   1       5.187   2.139  -2.252  0.00  0.00     0.068 A 
ATOM     15  C   UNL d   1       5.534   0.952  -1.606  0.00  0.00     0.039 A 
ATOM     16  C   UNL d   1       4.576   0.221  -0.894  0.00  0.00     0.032 A 
BRANCH  14  17
ATOM     17  O   UNL d   1       6.201   2.744  -2.941  0.00  0.00    -0.356 OA
ATOM     18  C   UNL d   1       5.844   3.872  -3.732  0.00  0.00     0.210 C 
ENDBRANCH  14  17
ENDBRANCH   8  11
ENDBRANCH   1   7
BRANCH   2  19
ATOM     19  C   UNL d   1      -2.029  -3.993   2.828  0.00  0.00     0.013 A 
ATOM     20  C   UNL d   1      -2.693  -5.049   2.178  0.00  0.00     0.127 A 
ATOM     21  F   UNL d   1      -2.645  -5.164   0.841  0.00  0.00    -0.205 F 
ATOM     22  C   UNL d   1      -3.407  -6.021   2.880  0.00  0.00     0.043 A 
ATOM     23  C   UNL d   1      -3.471  -5.966   4.269  0.00  0.00     0.003 A 
ATOM     24  C   UNL d   1      -2.825  -4.935   4.945  0.00  0.00     0.001 A 
ATOM     25  C   UNL d   1      -2.119  -3.958   4.233  0.00  0.00     0.015 A 
ENDBRANCH   2  19
TORSDOF 4
