REMARK  5 active torsions:
REMARK  status: ('A' for Active; 'I' for Inactive)
REMARK    1  A    between atoms: N_2  and  S_1 
REMARK    2  A    between atoms: C_7  and  S_1 
REMARK    3  A    between atoms: C_3  and  N_2 
REMARK    4  A    between atoms: O_15  and  C_6 
REMARK    5  A    between atoms: O_20  and  C_10 
ROOT
ATOM      1  N   UNL d   1       0.853  -1.685   0.344  0.00  0.00    -0.276 N 
ATOM      2  H   UNL d   1       0.264  -0.872   0.180  0.00  0.00     0.179 HD
ENDROOT
BRANCH   1   3
ATOM      3  S   UNL d   1       0.839  -2.212   1.943  0.00  0.00     0.263 S 
ATOM      4  O   UNL d   1       0.381  -3.580   2.035  0.00  0.00    -0.200 OA
ATOM      5  O   UNL d   1       0.223  -1.151   2.713  0.00  0.00    -0.200 OA
BRANCH   3   6
ATOM      6  C   UNL d   1       2.580  -2.189   2.319  0.00  0.00     0.080 A 
ATOM      7  C   UNL d   1       3.154  -1.031   2.854  0.00  0.00     0.027 A 
ATOM      8  C   UNL d   1       4.518  -1.012   3.148  0.00  0.00     0.025 A 
ATOM      9  C   UNL d   1       5.295  -2.147   2.912  0.00  0.00     0.034 A 
ATOM     10  C   UNL d   1       4.719  -3.306   2.388  0.00  0.00     0.025 A 
ATOM     11 CL   UNL d   1       6.975  -2.120   3.279  0.00  0.00    -0.084 Cl
ATOM     12  C   UNL d   1       3.353  -3.334   2.097  0.00  0.00     0.027 A 
ENDBRANCH   3   6
ENDBRANCH   1   3
BRANCH   1  13
ATOM     13  C   UNL d   1       0.954  -2.659  -0.692  0.00  0.00     0.093 A 
ATOM     14  C   UNL d   1      -0.132  -3.406  -1.180  0.00  0.00     0.171 A 
ATOM     15  N   UNL d   1      -0.019  -4.314  -2.178  0.00  0.00    -0.316 N 
ATOM     16  C   UNL d   1       1.213  -4.497  -2.698  0.00  0.00     0.143 A 
ATOM     17  HN  UNL d   1      -0.826  -4.834  -2.521  1.00  0.00     0.170 HD
ATOM     18  C   UNL d   1       2.335  -3.810  -2.284  0.00  0.00     0.058 A 
ATOM     19  C   UNL d   1       2.202  -2.871  -1.260  0.00  0.00     0.039 A 
BRANCH  14  20
ATOM     20  O   UNL d   1      -1.385  -3.154  -0.651  0.00  0.00    -0.339 OA
ATOM     21  C   UNL d   1      -2.409  -3.950  -1.247  0.00  0.00     0.211 C 
ENDBRANCH  14  20
BRANCH  16  22
ATOM     22  O   UNL d   1       1.405  -5.408  -3.717  0.00  0.00    -0.341 OA
ATOM     23  C   UNL d   1       0.213  -6.088  -4.096  0.00  0.00     0.211 C 
ENDBRANCH  16  22
ENDBRANCH   1  13
TORSDOF 5
