REMARK  6 active torsions:
REMARK  status: ('A' for Active; 'I' for Inactive)
REMARK    1  A    between atoms: S_4  and  C_1 
REMARK    2  A    between atoms: C_7  and  C_2 
REMARK    3  A    between atoms: N_10  and  C_3 
REMARK    4  A    between atoms: C_12  and  S_4 
REMARK    5  A    between atoms: O_13  and  C_7 
REMARK    6  A    between atoms: C_15  and  C_12 
ROOT
ATOM      1  C   UNL d   1      -0.648  -1.247  -0.032  0.00  0.00     0.093 A 
ATOM      2  C   UNL d   1      -0.194   1.054  -0.043  0.00  0.00     0.107 A 
ATOM      3  C   UNL d   1      -1.189   0.081  -0.077  0.00  0.00     0.071 A 
ATOM      4  S   UNL d   1       1.368   0.334  -0.003  0.00  0.00    -0.092 SA
ATOM      5  C   UNL d   1       0.729  -1.240   0.004  0.00  0.00     0.076 A 
ENDROOT
BRANCH   1   6
ATOM      6  S   UNL d   1      -1.549  -2.732   0.015  0.00  0.00     0.178 S 
ATOM      7  O   UNL d   1      -0.545  -3.777  -0.011  0.00  0.00    -0.223 OA
ATOM      8  O   UNL d   1      -2.458  -2.559   1.130  0.00  0.00    -0.223 OA
BRANCH   6   9
ATOM      9  C   UNL d   1      -2.480  -2.785  -1.502  0.00  0.00     0.145 C 
BRANCH   9  10
ATOM     10  C   UNL d   1      -3.240  -4.104  -1.624  0.00  0.00     0.011 C 
ATOM     11  C   UNL d   1      -4.075  -4.147  -2.892  0.00  0.00     0.006 C 
ENDBRANCH   9  10
ENDBRANCH   6   9
ENDBRANCH   1   6
BRANCH   3  12
ATOM     12  N   UNL d   1      -2.513   0.382  -0.130  0.00  0.00    -0.397 N 
ATOM     13  H   UNL d   1      -2.804   1.356   0.003  0.00  0.00     0.156 HD
ATOM     14  H   UNL d   1      -3.212  -0.258   0.246  0.00  0.00     0.156 HD
ENDBRANCH   3  12
BRANCH   2  15
ATOM     15  C   UNL d   1      -0.343   2.505  -0.016  0.00  0.00     0.302 C 
ATOM     16  O   UNL d   1      -1.413   3.106   0.000  0.00  0.00    -0.259 OA
BRANCH  15  17
ATOM     17  O   UNL d   1       0.876   3.124   0.007  0.00  0.00    -0.322 OA
ATOM     18  C   UNL d   1       0.850   4.550   0.045  0.00  0.00     0.213 C 
ENDBRANCH  15  17
ENDBRANCH   2  15
TORSDOF 6
