REMARK  3 active torsions:
REMARK  status: ('A' for Active; 'I' for Inactive)
REMARK    1  A    between atoms: N_4  and  C_1 
REMARK       I    between atoms: C_5  and  N_4 
REMARK       I    between atoms: N_10  and  C_5 
REMARK    2  A    between atoms: O_20  and  C_8 
REMARK    3  A    between atoms: C_16  and  N_10 
ROOT
ATOM      1  N   UNL d   1      -1.352   2.180   0.112  0.00  0.00    -0.022 N 
ATOM      2  C   UNL d   1      -2.703   2.281  -0.007  0.00  0.00     0.690 C 
ATOM      3  N   UNL d   1      -3.404   1.122  -0.190  0.00  0.00    -0.192 N 
ATOM      4  N   UNL d   1      -3.258   3.450   0.079  0.00  0.00    -0.234 N 
ATOM      5  HN  UNL d   1      -4.261   3.623   0.002  1.00  0.00     0.174 HD
ATOM      6  H   UNL d   1      -0.806   3.021   0.190  0.00  0.00     0.203 HD
ATOM      7  H   UNL d   1      -2.858   0.267  -0.118  0.00  0.00     0.184 HD
ATOM      8  H   UNL d   1      -2.557   4.173   0.235  0.00  0.00     0.174 HD
ENDROOT
BRANCH   1   9
ATOM      9  C   UNL d   1      -0.511   1.087  -0.047  0.00  0.00     0.699 A 
ATOM     10  N   UNL d   1       0.799   1.372  -0.070  0.00  0.00    -0.170 N 
ATOM     11  C   UNL d   1       1.616   0.331  -0.242  0.00  0.00     0.157 A 
ATOM     12  HN  UNL d   1       1.148   2.324   0.037  1.00  0.00     0.186 HD
ATOM     13  C   UNL d   1       1.230  -0.971  -0.381  0.00  0.00     0.081 A 
ATOM     14  C   UNL d   1      -0.128  -1.177  -0.337  0.00  0.00     0.026 A 
ATOM     15  N   UNL d   1      -1.007  -0.162  -0.165  0.00  0.00    -0.195 N 
ATOM     16  C   UNL d   1      -0.689  -2.565  -0.415  0.00  0.00     0.069 C 
ATOM     17  HN  UNL d   1      -2.012  -0.336  -0.126  1.00  0.00     0.184 HD
BRANCH  11  18
ATOM     18  O   UNL d   1       2.935   0.653  -0.272  0.00  0.00    -0.346 OA
ATOM     19  H   UNL d   1       2.896   1.619  -0.150  0.00  0.00     0.219 HD
ENDBRANCH  11  18
ENDBRANCH   1   9
BRANCH   3  20
ATOM     20  C   UNL d   1      -4.739   0.949  -0.591  0.00  0.00     0.051 A 
ATOM     21  C   UNL d   1      -5.504   1.961  -1.187  0.00  0.00     0.055 A 
ATOM     22  C   UNL d   1      -6.851   1.763  -1.517  0.00  0.00     0.058 A 
ATOM     23 CL   UNL d   1      -7.696   3.066  -2.276  0.00  0.00    -0.082 Cl
ATOM     24  C   UNL d   1      -7.462   0.540  -1.234  0.00  0.00     0.055 A 
ATOM     25  C   UNL d   1      -6.722  -0.476  -0.629  0.00  0.00     0.028 A 
ATOM     26 CL   UNL d   1      -9.122   0.224  -1.595  0.00  0.00    -0.083 Cl
ATOM     27  C   UNL d   1      -5.374  -0.271  -0.312  0.00  0.00     0.032 A 
ENDBRANCH   3  20
TORSDOF 3
