REMARK  2 active torsions:
REMARK  status: ('A' for Active; 'I' for Inactive)
REMARK    1  A    between atoms: C_7  and  N_1 
REMARK    2  A    between atoms: N_9  and  C_3 
ROOT
ATOM      1  N   UNL d   1      -0.643   1.247   0.003  0.00  0.00    -0.254 N 
ATOM      2  C   UNL d   1      -1.389   0.066   0.163  0.00  0.00     0.335 A 
ATOM      3  C   UNL d   1       0.754   1.221  -0.134  0.00  0.00     0.094 A 
ATOM      4  N   UNL d   1      -0.678  -1.103   0.157  0.00  0.00    -0.275 N 
ATOM      5  C   UNL d   1       1.395   0.042  -0.138  0.00  0.00     0.117 A 
ATOM      6  C   UNL d   1       0.664  -1.218  -0.006  0.00  0.00     0.252 A 
ATOM      7  O   UNL d   1      -2.613  -0.001   0.276  0.00  0.00    -0.246 OA
ATOM      8  O   UNL d   1       1.246  -2.295  -0.028  0.00  0.00    -0.268 OA
ATOM      9  H   UNL d   1      -1.212  -1.954   0.235  0.00  0.00     0.173 HD
ENDROOT
BRANCH   1  10
ATOM     10  C   UNL d   1      -1.379   2.478  -0.036  0.00  0.00     0.045 A 
ATOM     11  C   UNL d   1      -2.253   2.814   1.006  0.00  0.00     0.032 A 
ATOM     12  C   UNL d   1      -2.925   4.040   0.999  0.00  0.00     0.026 A 
ATOM     13  C   UNL d   1      -2.750   4.920  -0.067  0.00  0.00     0.034 A 
ATOM     14  C   UNL d   1      -1.904   4.588  -1.124  0.00  0.00     0.026 A 
ATOM     15 CL   UNL d   1      -3.576   6.428  -0.075  0.00  0.00    -0.084 Cl
ATOM     16  C   UNL d   1      -1.212   3.375  -1.103  0.00  0.00     0.032 A 
ENDBRANCH   1  10
BRANCH   3  17
ATOM     17  N   UNL d   1       1.509   2.384  -0.205  0.00  0.00    -0.288 NA
ATOM     18  H   UNL d   1       1.067   3.158   0.288  0.00  0.00     0.125 HD
ATOM     19  H   UNL d   1       2.478   2.270   0.080  0.00  0.00     0.125 HD
ENDBRANCH   3  17
TORSDOF 2
