REMARK  3 active torsions:
REMARK  status: ('A' for Active; 'I' for Inactive)
REMARK    1  A    between atoms: C_5  and  N_1 
REMARK    2  A    between atoms: C_9  and  C_5 
REMARK    3  A    between atoms: C_11  and  C_9 
ROOT
ATOM      1  C   UNL d   1       0.229  -2.374   0.011  0.00  0.00     0.138 C 
ENDROOT
BRANCH   1   2
ATOM      2  N   UNL d   1       0.467  -0.927  -0.038  0.00  0.00    -0.302 N 
ATOM      3  C   UNL d   1       0.577  -0.198  -1.202  0.00  0.00     0.143 A 
ATOM      4  S   UNL d   1       0.790   1.504  -0.842  0.00  0.00    -0.091 SA
ATOM      5  S   UNL d   1       0.524  -0.758  -2.773  0.00  0.00    -0.052 SA
ATOM      6  C   UNL d   1       0.686   1.257   0.937  0.00  0.00     0.185 A 
ATOM      7  C   UNL d   1       0.576  -0.230   1.150  0.00  0.00     0.235 A 
ATOM      8  O   UNL d   1       0.569  -0.735   2.268  0.00  0.00    -0.272 OA
ENDBRANCH   1   2
BRANCH   1   9
ATOM      9  C   UNL d   1       1.520  -3.206  -0.054  0.00  0.00     0.059 C 
BRANCH   9  10
ATOM     10  C   UNL d   1       1.306  -4.708  -0.081  0.00  0.00    -0.057 A 
ATOM     11  C   UNL d   1       0.217  -5.300  -0.739  0.00  0.00     0.009 A 
ATOM     12  C   UNL d   1       0.061  -6.689  -0.766  0.00  0.00     0.024 A 
ATOM     13  C   UNL d   1       1.007  -7.504  -0.155  0.00  0.00     0.034 A 
ATOM     14  C   UNL d   1       2.112  -6.942   0.476  0.00  0.00     0.024 A 
ATOM     15 CL   UNL d   1       0.814  -9.213  -0.193  0.00  0.00    -0.084 Cl
ATOM     16  C   UNL d   1       2.262  -5.551   0.511  0.00  0.00     0.009 A 
ENDBRANCH   9  10
ENDBRANCH   1   9
TORSDOF 3
