REMARK  2 active torsions:
REMARK  status: ('A' for Active; 'I' for Inactive)
REMARK    1  A    between atoms: C_7  and  N_1 
REMARK    2  A    between atoms: C_6  and  C_7 
ROOT
ATOM      1  N   UNL d   1       1.776   0.303  -0.511  0.00  0.00    -0.279 N 
ATOM      2  C   UNL d   1       0.818   0.089   0.444  0.00  0.00     0.261 A 
ATOM      3  C   UNL d   1       1.220   0.615  -1.719  0.00  0.00     0.261 A 
ATOM      4  C   UNL d   1      -0.474   0.321  -0.202  0.00  0.00     0.048 A 
ATOM      5  C   UNL d   1      -0.227   0.662  -1.518  0.00  0.00     0.048 A 
ATOM      6  O   UNL d   1       0.947  -0.252   1.603  0.00  0.00    -0.267 OA
ATOM      7  O   UNL d   1       1.756   0.786  -2.797  0.00  0.00    -0.267 OA
ATOM      8  C   UNL d   1      -1.759   0.220   0.294  0.00  0.00     0.018 A 
ATOM      9  C   UNL d   1      -1.244   0.947  -2.408  0.00  0.00     0.018 A 
ATOM     10  C   UNL d   1      -2.809   0.505  -0.586  0.00  0.00     0.001 A 
ATOM     11  C   UNL d   1      -2.553   0.873  -1.924  0.00  0.00     0.001 A 
ENDROOT
BRANCH   1  12
ATOM     12  C   UNL d   1       3.188   0.032  -0.321  0.00  0.00     0.145 C 
BRANCH  12  13
ATOM     13  C   UNL d   1       4.081   1.256  -0.002  0.00  0.00    -0.023 C 
ATOM     14  C   UNL d   1       3.638   1.961   1.304  0.00  0.00     0.015 C 
ATOM     15  C   UNL d   1       4.606   3.103   1.662  0.00  0.00    -0.013 C 
ATOM     16  C   UNL d   1       6.020   2.529   1.845  0.00  0.00     0.009 C 
ATOM     17  C   UNL d   1       4.617   4.134   0.521  0.00  0.00     0.009 C 
ATOM     18  C   UNL d   1       6.494   1.872   0.540  0.00  0.00    -0.013 C 
ATOM     19  C   UNL d   1       5.533   0.732   0.180  0.00  0.00     0.015 C 
ATOM     20  C   UNL d   1       6.489   2.909  -0.594  0.00  0.00     0.009 C 
ATOM     21  C   UNL d   1       5.070   3.465  -0.788  0.00  0.00    -0.013 C 
ATOM     22  C   UNL d   1       4.103   2.313  -1.136  0.00  0.00     0.015 C 
ENDBRANCH  12  13
ENDBRANCH   1  12
TORSDOF 2
