REMARK  7 active torsions:
REMARK  status: ('A' for Active; 'I' for Inactive)
REMARK    1  A    between atoms: C_5  and  S_1 
REMARK    2  A    between atoms: O_13  and  S_1 
REMARK    3  A    between atoms: N_2  and  C_16 
REMARK    4  A    between atoms: C_22  and  O_13 
REMARK    5  A    between atoms: C_16  and  C_24 
REMARK    6  A    between atoms: C_25  and  C_22 
REMARK    7  A    between atoms: C_24  and  C_25 
ROOT
ATOM      1  C   UNL d   1       5.120   2.643  -0.978  0.00  0.00     0.022 C 
ENDROOT
BRANCH   1   2
ATOM      2  C   UNL d   1       6.643   2.670  -1.036  0.00  0.00     0.135 C 
BRANCH   2   3
ATOM      3  N   UNL d   1       7.272   3.958  -1.256  0.00  0.00    -0.288 N 
ATOM      4  C   UNL d   1       7.473   4.382  -2.556  0.00  0.00     0.227 C 
ATOM      5  C   UNL d   1       8.637   5.325  -2.743  0.00  0.00     0.113 C 
ATOM      6  O   UNL d   1       6.842   3.951  -3.519  0.00  0.00    -0.273 OA
ATOM      7  C   UNL d   1       8.777   6.389  -1.655  0.00  0.00    -0.024 C 
ATOM      8  C   UNL d   1       8.596   5.753  -0.273  0.00  0.00     0.113 C 
ATOM      9  C   UNL d   1       7.792   7.561  -1.867  0.00  0.00     0.010 C 
ATOM     10  C   UNL d   1      10.187   7.041  -1.731  0.00  0.00     0.010 C 
ATOM     11  C   UNL d   1       7.425   4.805  -0.172  0.00  0.00     0.227 C 
ATOM     12  O   UNL d   1       6.739   4.744   0.847  0.00  0.00    -0.273 OA
ATOM     13  C   UNL d   1       8.588   8.807  -1.501  0.00  0.00     0.001 C 
ATOM     14  C   UNL d   1       9.966   8.510  -2.061  0.00  0.00     0.001 C 
ENDBRANCH   2   3
ENDBRANCH   1   2
BRANCH   1  15
ATOM     15  C   UNL d   1       4.607   1.206  -0.771  0.00  0.00     0.029 C 
BRANCH  15  16
ATOM     16  C   UNL d   1       5.135   0.522   0.493  0.00  0.00     0.190 C 
BRANCH  16  17
ATOM     17  O   UNL d   1       4.842   1.326   1.625  0.00  0.00    -0.272 OA
BRANCH  17  18
ATOM     18  S   UNL d   1       5.513   0.888   3.045  0.00  0.00     0.298 S 
ATOM     19  O   UNL d   1       5.004  -0.436   3.368  0.00  0.00    -0.193 OA
ATOM     20  O   UNL d   1       6.935   1.143   2.972  0.00  0.00    -0.193 OA
BRANCH  18  21
ATOM     21  C   UNL d   1       4.827   2.022   4.224  0.00  0.00     0.086 A 
ATOM     22  C   UNL d   1       4.453   1.558   5.487  0.00  0.00     0.026 A 
ATOM     23  C   UNL d   1       3.854   2.435   6.393  0.00  0.00     0.008 A 
ATOM     24  C   UNL d   1       3.625   3.773   6.040  0.00  0.00    -0.062 A 
ATOM     25  C   UNL d   1       4.016   4.227   4.772  0.00  0.00     0.008 A 
ATOM     26  C   UNL d   1       2.938   4.689   7.012  0.00  0.00     0.048 C 
ATOM     27  C   UNL d   1       4.616   3.354   3.861  0.00  0.00     0.026 A 
ENDBRANCH  18  21
ENDBRANCH  17  18
ENDBRANCH  16  17
ENDBRANCH  15  16
ENDBRANCH   1  15
TORSDOF 7
