REMARK  7 active torsions:
REMARK  status: ('A' for Active; 'I' for Inactive)
REMARK    1  A    between atoms: N_2  and  C_1 
REMARK    2  A    between atoms: C_3  and  C_5 
REMARK    3  A    between atoms: C_5  and  O_11 
REMARK    4  A    between atoms: C_6  and  C_10 
REMARK    5  A    between atoms: O_12  and  C_8 
REMARK    6  A    between atoms: O_11  and  C_15 
REMARK    7  A    between atoms: C_16  and  O_12 
ROOT
ATOM      1  C   UNL d   1       2.785  -2.588   1.196  0.00  0.00     0.113 A 
ATOM      2  C   UNL d   1       2.599  -2.248  -0.150  0.00  0.00     0.110 A 
ATOM      3  C   UNL d   1       3.574  -2.583  -1.091  0.00  0.00     0.040 A 
ATOM      4  C   UNL d   1       3.994  -3.138   1.625  0.00  0.00     0.040 A 
ATOM      5  C   UNL d   1       4.983  -3.434   0.685  0.00  0.00     0.003 A 
ATOM      6  C   UNL d   1       4.765  -3.179  -0.672  0.00  0.00     0.003 A 
ENDROOT
BRANCH   2   7
ATOM      7  O   UNL d   1       1.394  -1.734  -0.552  0.00  0.00    -0.305 OA
BRANCH   7   8
ATOM      8  C   UNL d   1       1.353  -0.502  -1.158  0.00  0.00     0.109 A 
ATOM      9  C   UNL d   1       0.229  -0.206  -1.934  0.00  0.00     0.137 A 
ATOM     10  C   UNL d   1      -0.005   1.071  -2.460  0.00  0.00     0.055 A 
ATOM     11  C   UNL d   1       0.925   2.091  -2.222  0.00  0.00     0.050 A 
ATOM     12  C   UNL d   1       2.086   1.790  -1.486  0.00  0.00     0.019 A 
ATOM     13  C   UNL d   1       2.294   0.510  -0.948  0.00  0.00     0.040 A 
BRANCH   9  14
ATOM     14  N   UNL d   1      -0.737  -1.246  -2.217  0.00  0.00    -0.113 N 
ATOM     15  O   UNL d   1      -0.365  -2.178  -2.941  0.00  0.00    -0.532 OA
ATOM     16  O   UNL d   1      -1.880  -1.085  -1.768  0.00  0.00    -0.532 OA
ENDBRANCH   9  14
BRANCH  11  17
ATOM     17  C   UNL d   1       0.679   3.501  -2.709  0.00  0.00     0.417 C 
ATOM     18  F   UNL d   1      -0.480   3.634  -3.411  0.00  0.00    -0.166 F 
ATOM     19  F   UNL d   1       0.600   4.391  -1.683  0.00  0.00    -0.166 F 
ATOM     20  F   UNL d   1       1.668   3.951  -3.526  0.00  0.00    -0.166 F 
ENDBRANCH  11  17
ENDBRANCH   7   8
ENDBRANCH   2   7
BRANCH   1  21
ATOM     21  O   UNL d   1       1.776  -2.427   2.159  0.00  0.00    -0.272 OA
BRANCH  21  22
ATOM     22  C   UNL d   1       0.689  -3.267   1.928  0.00  0.00     0.305 C 
ATOM     23  O   UNL d   1       0.547  -3.977   0.935  0.00  0.00    -0.258 OA
BRANCH  22  24
ATOM     24  C   UNL d   1      -0.275  -3.264   3.010  0.00  0.00     0.082 C 
ATOM     25  S   UNL d   1       0.059  -2.759   4.605  0.00  0.00    -0.084 SA
ATOM     26  C   UNL d   1      -1.412  -3.441   5.214  0.00  0.00     0.016 A 
ATOM     27  C   UNL d   1      -1.835  -3.534   6.556  0.00  0.00     0.019 A 
ATOM     28  C   UNL d   1      -2.195  -3.953   4.177  0.00  0.00    -0.018 A 
ATOM     29  C   UNL d   1      -3.038  -4.188   6.843  0.00  0.00     0.001 A 
ATOM     30  C   UNL d   1      -3.823  -4.712   5.824  0.00  0.00     0.001 A 
ATOM     31  C   UNL d   1      -3.421  -4.583   4.494  0.00  0.00     0.013 A 
ATOM     32  C   UNL d   1      -1.554  -3.776   2.914  0.00  0.00     0.038 C 
ENDBRANCH  22  24
ENDBRANCH  21  22
ENDBRANCH   1  21
TORSDOF 7
