REMARK  5 active torsions:
REMARK  status: ('A' for Active; 'I' for Inactive)
REMARK    1  A    between atoms: C_8  and  C_1 
REMARK    2  A    between atoms: C_2  and  C_8 
REMARK       I    between atoms: N_4  and  C_2 
REMARK    3  A    between atoms: C_16  and  N_3 
REMARK    4  A    between atoms: C_19  and  N_4 
REMARK    5  A    between atoms: C_22  and  C_16 
ROOT
ATOM      1  C   UNL d   1       1.706   3.154   2.155  0.00  0.00     0.218 C 
ATOM      2  N   UNL d   1       0.930   4.084   1.475  0.00  0.00    -0.356 N 
ATOM      3  O   UNL d   1       1.296   2.022   2.405  0.00  0.00    -0.274 OA
ATOM      4  H   UNL d   1       1.260   5.031   1.349  0.00  0.00     0.162 HD
ENDROOT
BRANCH   2   5
ATOM      5  C   UNL d   1      -0.379   3.663   0.955  0.00  0.00     0.087 C 
ATOM      6  C   UNL d   1      -1.348   3.343   2.093  0.00  0.00     0.055 C 
ATOM      7  C   UNL d   1      -1.903   4.633   2.692  0.00  0.00     0.275 C 
ATOM      8  N   UNL d   1      -2.713   5.401   1.729  0.00  0.00     0.092 N 
ATOM      9  C   UNL d   1      -1.897   5.744   0.559  0.00  0.00     0.275 C 
ATOM     10  C   UNL d   1      -1.046   4.618  -0.055  0.00  0.00     0.055 C 
BRANCH   8  11
ATOM     11  C   UNL d   1      -3.957   4.655   1.442  0.00  0.00     0.311 C 
BRANCH  11  12
ATOM     12  C   UNL d   1      -5.099   5.362   0.752  0.00  0.00    -0.030 A 
ATOM     13  C   UNL d   1      -6.081   4.560   0.137  0.00  0.00     0.009 A 
ATOM     14  C   UNL d   1      -7.231   5.114  -0.417  0.00  0.00     0.001 A 
ATOM     15  C   UNL d   1      -7.424   6.492  -0.363  0.00  0.00     0.000 A 
ATOM     16  C   UNL d   1      -6.470   7.302   0.253  0.00  0.00     0.001 A 
ATOM     17  C   UNL d   1      -5.316   6.744   0.817  0.00  0.00     0.009 A 
ENDBRANCH  11  12
ENDBRANCH   8  11
ENDBRANCH   2   5
BRANCH   1  18
ATOM     18  C   UNL d   1       3.144   3.507   2.468  0.00  0.00     0.112 C 
BRANCH  18  19
ATOM     19  C   UNL d   1       3.552   4.439   3.631  0.00  0.00    -0.031 C 
ATOM     20  C   UNL d   1       2.747   4.238   4.940  0.00  0.00     0.014 C 
ATOM     21  C   UNL d   1       3.329   5.118   6.076  0.00  0.00    -0.013 C 
ATOM     22  C   UNL d   1       4.800   4.740   6.324  0.00  0.00     0.009 C 
ATOM     23  C   UNL d   1       3.265   6.599   5.670  0.00  0.00     0.009 C 
ATOM     24  C   UNL d   1       5.620   4.972   5.048  0.00  0.00    -0.013 C 
ATOM     25  C   UNL d   1       5.046   4.098   3.932  0.00  0.00     0.014 C 
ATOM     26  C   UNL d   1       5.527   6.441   4.615  0.00  0.00     0.009 C 
ATOM     27  C   UNL d   1       4.056   6.822   4.369  0.00  0.00    -0.013 C 
ATOM     28  C   UNL d   1       3.466   5.936   3.250  0.00  0.00     0.014 C 
ENDBRANCH  18  19
ENDBRANCH   1  18
TORSDOF 5
