REMARK  7 active torsions:
REMARK  status: ('A' for Active; 'I' for Inactive)
REMARK    1  A    between atoms: C_4  and  N_1 
REMARK    2  A    between atoms: C_2  and  C_5 
REMARK    3  A    between atoms: C_3  and  C_4 
REMARK    4  A    between atoms: C_6  and  C_3 
REMARK    5  A    between atoms: S_7  and  C_3 
REMARK    6  A    between atoms: C_13  and  S_7 
REMARK    7  A    between atoms: N_15  and  C_14 
ROOT
ATOM      1  C   UNL d   1       1.081   2.069   1.154  0.00  0.00     0.110 C 
ENDROOT
BRANCH   1   2
ATOM      2  C   UNL d   1      -0.045   1.193   0.580  0.00  0.00     0.221 C 
BRANCH   2   3
ATOM      3  N   UNL d   1      -1.016   2.003  -0.219  0.00  0.00    -0.154 N 
ATOM      4  O   UNL d   1      -2.128   2.207   0.281  0.00  0.00    -0.536 OA
ATOM      5  O   UNL d   1      -0.663   2.353  -1.353  0.00  0.00    -0.536 OA
ENDBRANCH   2   3
ENDBRANCH   1   2
BRANCH   1   6
ATOM      6  C   UNL d   1       2.025   2.698   0.089  0.00  0.00    -0.027 A 
ATOM      7  C   UNL d   1       2.769   1.915  -0.840  0.00  0.00     0.055 A 
ATOM      8  C   UNL d   1       3.490   2.556  -1.879  0.00  0.00     0.017 A 
ATOM      9  C   UNL d   1       3.566   3.940  -1.969  0.00  0.00     0.001 A 
ATOM     10  C   UNL d   1       2.932   4.712  -1.014  0.00  0.00     0.001 A 
ATOM     11  C   UNL d   1       2.168   4.103  -0.013  0.00  0.00     0.009 A 
BRANCH   7  12
ATOM     12  C   UNL d   1       2.872   0.402  -0.833  0.00  0.00     0.418 C 
ATOM     13  F   UNL d   1       2.450  -0.178   0.325  0.00  0.00    -0.166 F 
ATOM     14  F   UNL d   1       2.135  -0.172  -1.823  0.00  0.00    -0.166 F 
ATOM     15  F   UNL d   1       4.148  -0.039  -1.011  0.00  0.00    -0.166 F 
ENDBRANCH   7  12
ENDBRANCH   1   6
BRANCH   1  16
ATOM     16  S   UNL d   1       0.396   3.315   2.375  0.00  0.00    -0.118 SA
BRANCH  16  17
ATOM     17  C   UNL d   1      -0.402   2.313   3.608  0.00  0.00     0.001 A 
ATOM     18  C   UNL d   1       0.331   1.479   4.449  0.00  0.00     0.020 A 
ATOM     19  C   UNL d   1      -0.303   0.816   5.507  0.00  0.00     0.024 A 
ATOM     20  C   UNL d   1      -1.677   0.944   5.721  0.00  0.00     0.005 A 
ATOM     21  C   UNL d   1      -2.399   1.812   4.898  0.00  0.00     0.024 A 
ATOM     22  C   UNL d   1      -1.771   2.479   3.838  0.00  0.00     0.020 A 
BRANCH  20  23
ATOM     23  N   UNL d   1      -2.261   0.432   6.883  0.00  0.00    -0.303 NA
ATOM     24  H   UNL d   1      -3.268   0.321   6.835  0.00  0.00     0.124 HD
ATOM     25  H   UNL d   1      -1.795  -0.387   7.263  0.00  0.00     0.124 HD
ENDBRANCH  20  23
ENDBRANCH  16  17
ENDBRANCH   1  16
TORSDOF 7
