REMARK  7 active torsions:
REMARK  status: ('A' for Active; 'I' for Inactive)
REMARK    1  A    between atoms: C_11  and  C_1 
REMARK    2  A    between atoms: S_2  and  N_10 
REMARK    3  A    between atoms: C_16  and  S_2 
REMARK    4  A    between atoms: C_13  and  N_5 
REMARK    5  A    between atoms: C_9  and  C_12 
REMARK    6  A    between atoms: N_10  and  N_15 
REMARK    7  A    between atoms: C_14  and  C_13 
REMARK       I    between atoms: N_15  and  C_14 
ROOT
ATOM      1  C   UNL d   1      -0.725  -0.776   0.597  0.00  0.00     0.145 A 
ATOM      2  N   UNL d   1       0.622  -0.662   0.611  0.00  0.00    -0.268 N 
ATOM      3  HN  UNL d   1       1.322  -1.255   1.056  1.00  0.00     0.190 HD
ATOM      4  N   UNL d   1       0.781   0.459  -0.131  0.00  0.00    -0.207 N 
ATOM      5  N   UNL d   1      -1.324   0.220  -0.128  0.00  0.00    -0.266 N 
ATOM      6  HN  UNL d   1      -2.326   0.347  -0.269  1.00  0.00     0.186 HD
ATOM      7  N   UNL d   1      -0.360   0.986  -0.611  0.00  0.00    -0.002 NA
ENDROOT
BRANCH   4   8
ATOM      8  C   UNL d   1       1.944   1.309  -0.004  0.00  0.00     0.271 C 
BRANCH   8   9
ATOM      9  C   UNL d   1       3.296   0.675  -0.167  0.00  0.00     0.257 C 
ATOM     10  N   UNL d   1       3.428  -0.694  -0.146  0.00  0.00    -0.259 N 
ATOM     11  H   UNL d   1       2.685  -1.336   0.148  0.00  0.00     0.190 HD
ATOM     12  O   UNL d   1       4.295   1.395  -0.297  0.00  0.00    -0.270 OA
BRANCH  10  13
ATOM     13  N   UNL d   1       4.773  -1.209  -0.342  0.00  0.00    -0.220 N 
ATOM     14  H   UNL d   1       5.543  -0.531  -0.430  0.00  0.00     0.200 HD
BRANCH  13  15
ATOM     15  S   UNL d   1       5.201  -2.802  -0.039  0.00  0.00     0.276 S 
ATOM     16  O   UNL d   1       6.643  -2.857   0.026  0.00  0.00    -0.199 OA
ATOM     17  O   UNL d   1       4.364  -3.287   1.039  0.00  0.00    -0.199 OA
BRANCH  15  18
ATOM     18  C   UNL d   1       4.693  -3.601  -1.541  0.00  0.00     0.081 A 
ATOM     19  C   UNL d   1       5.525  -3.568  -2.666  0.00  0.00     0.027 A 
ATOM     20  C   UNL d   1       5.137  -4.243  -3.827  0.00  0.00     0.025 A 
ATOM     21  C   UNL d   1       3.932  -4.948  -3.851  0.00  0.00     0.034 A 
ATOM     22  C   UNL d   1       3.107  -4.984  -2.726  0.00  0.00     0.025 A 
ATOM     23 CL   UNL d   1       3.463  -5.792  -5.274  0.00  0.00    -0.084 Cl
ATOM     24  C   UNL d   1       3.489  -4.312  -1.563  0.00  0.00     0.027 A 
ENDBRANCH  15  18
ENDBRANCH  13  15
ENDBRANCH  10  13
ENDBRANCH   8   9
ENDBRANCH   4   8
BRANCH   1  25
ATOM     25  C   UNL d   1      -1.479  -1.716   1.426  0.00  0.00     0.025 A 
ATOM     26  C   UNL d   1      -2.759  -2.220   1.108  0.00  0.00     0.061 A 
ATOM     27  C   UNL d   1      -3.427  -3.029   2.058  0.00  0.00     0.017 A 
ATOM     28  C   UNL d   1      -2.844  -3.359   3.281  0.00  0.00     0.001 A 
ATOM     29  C   UNL d   1      -1.573  -2.889   3.579  0.00  0.00     0.001 A 
ATOM     30  C   UNL d   1      -0.898  -2.083   2.665  0.00  0.00     0.016 A 
BRANCH  26  31
ATOM     31  C   UNL d   1      -3.504  -1.980  -0.187  0.00  0.00     0.418 C 
ATOM     32  F   UNL d   1      -2.800  -1.422  -1.200  0.00  0.00    -0.166 F 
ATOM     33  F   UNL d   1      -3.976  -3.156  -0.706  0.00  0.00    -0.166 F 
ATOM     34  F   UNL d   1      -4.609  -1.204  -0.006  0.00  0.00    -0.166 F 
ENDBRANCH  26  31
ENDBRANCH   1  25
TORSDOF 7
