REMARK  4 active torsions:
REMARK  status: ('A' for Active; 'I' for Inactive)
REMARK    1  A    between atoms: C_3  and  C_1 
REMARK    2  A    between atoms: C_7  and  C_2 
REMARK    3  A    between atoms: O_14  and  C_3 
REMARK    4  A    between atoms: O_15  and  C_9 
ROOT
ATOM      1  C   UNL d   1       0.966   0.695   0.349  0.00  0.00     0.120 C 
ATOM      2  C   UNL d   1       0.482   0.741  -0.910  0.00  0.00     0.040 C 
ATOM      3  C   UNL d   1       2.160   1.368   0.736  0.00  0.00     0.105 C 
ATOM      4  N   UNL d   1       3.137   1.924   1.035  0.00  0.00    -0.191 NA
ENDROOT
BRANCH   1   5
ATOM      5  C   UNL d   1       0.227  -0.103   1.357  0.00  0.00     0.303 C 
ATOM      6  O   UNL d   1      -0.802  -0.726   1.132  0.00  0.00    -0.258 OA
BRANCH   5   7
ATOM      7  O   UNL d   1       0.869  -0.046   2.550  0.00  0.00    -0.322 OA
ATOM      8  C   UNL d   1       0.260  -0.787   3.607  0.00  0.00     0.213 C 
ENDBRANCH   5   7
ENDBRANCH   1   5
BRANCH   2   9
ATOM      9  C   UNL d   1       1.181   1.464  -1.975  0.00  0.00    -0.033 A 
ATOM     10  C   UNL d   1       2.159   0.808  -2.727  0.00  0.00     0.033 A 
ATOM     11  C   UNL d   1       2.989   1.512  -3.619  0.00  0.00     0.045 A 
ATOM     12 BR   UNL d   1       4.268   0.415  -4.501  0.00  0.00    -0.048 Br
ATOM     13  C   UNL d   1       2.828   2.896  -3.770  0.00  0.00     0.085 A 
ATOM     14  C   UNL d   1       1.808   3.530  -3.036  0.00  0.00     0.039 A 
ATOM     15  C   UNL d   1       0.989   2.830  -2.148  0.00  0.00     0.014 A 
BRANCH  13  16
ATOM     16  O   UNL d   1       3.502   3.805  -4.534  0.00  0.00    -0.355 OA
ATOM     17  C   UNL d   1       4.669   3.446  -5.246  0.00  0.00     0.210 C 
ENDBRANCH  13  16
ENDBRANCH   2   9
TORSDOF 4
