REMARK  3 active torsions:
REMARK  status: ('A' for Active; 'I' for Inactive)
REMARK    1  A    between atoms: C_2  and  C_1 
REMARK    2  A    between atoms: C_12  and  N_3 
REMARK    3  A    between atoms: O_23  and  C_18 
ROOT
ATOM      1  C   UNL d   1      -0.300  -1.977  -0.390  0.00  0.00     0.151 C 
ATOM      2  N   UNL d   1       0.802  -1.209  -0.039  0.00  0.00    -0.224 N 
ATOM      3  N   UNL d   1       0.353  -0.024   0.434  0.00  0.00     0.001 NA
ATOM      4  N   UNL d   1      -0.939   0.009   0.136  0.00  0.00    -0.007 NA
ATOM      5  N   UNL d   1      -1.356  -1.182  -0.408  0.00  0.00    -0.269 N 
ATOM      6  HN  UNL d   1      -2.288  -1.407  -0.755  1.00  0.00     0.185 HD
ENDROOT
BRANCH   1   7
ATOM      7  C   UNL d   1      -0.332  -3.439  -0.681  0.00  0.00     0.038 C 
ATOM      8  C   UNL d   1       0.535  -4.461  -0.184  0.00  0.00     0.008 A 
ATOM      9  C   UNL d   1       0.314  -5.587  -0.976  0.00  0.00     0.043 A 
ATOM     10  C   UNL d   1       1.530  -4.530   0.817  0.00  0.00     0.038 A 
ATOM     11  C   UNL d   1       1.131  -6.722  -0.919  0.00  0.00     0.032 A 
ATOM     12  N   UNL d   1      -0.797  -5.322  -1.745  0.00  0.00    -0.364 N 
ATOM     13  C   UNL d   1       2.178  -6.723   0.009  0.00  0.00     0.026 A 
ATOM     14  C   UNL d   1       2.353  -5.657   0.883  0.00  0.00     0.035 A 
ATOM     15 CL   UNL d   1       3.627  -5.698   2.042  0.00  0.00    -0.084 Cl
ATOM     16  C   UNL d   1      -1.219  -4.032  -1.550  0.00  0.00     0.104 C 
ATOM     17  H   UNL d   1      -1.225  -5.979  -2.386  0.00  0.00     0.165 HD
ENDBRANCH   1   7
BRANCH   2  18
ATOM     18  C   UNL d   1       2.184  -1.481  -0.188  0.00  0.00     0.056 A 
ATOM     19  C   UNL d   1       2.635  -2.324  -1.214  0.00  0.00     0.034 A 
ATOM     20  C   UNL d   1       3.963  -2.756  -1.239  0.00  0.00     0.039 A 
ATOM     21  C   UNL d   1       4.850  -2.332  -0.253  0.00  0.00     0.068 A 
ATOM     22  C   UNL d   1       4.425  -1.401   0.700  0.00  0.00     0.039 A 
ATOM     23  C   UNL d   1       3.098  -0.961   0.732  0.00  0.00     0.034 A 
BRANCH  21  24
ATOM     24  O   UNL d   1       6.149  -2.747  -0.139  0.00  0.00    -0.356 OA
ATOM     25  C   UNL d   1       6.433  -4.032  -0.687  0.00  0.00     0.210 C 
ENDBRANCH  21  24
ENDBRANCH   2  18
TORSDOF 3
