REMARK  8 active torsions:
REMARK  status: ('A' for Active; 'I' for Inactive)
REMARK    1  A    between atoms: C_2  and  C_1 
REMARK    2  A    between atoms: O_6  and  C_1 
REMARK    3  A    between atoms: N_3  and  O_6 
REMARK    4  A    between atoms: C_8  and  C_5 
REMARK    5  A    between atoms: N_14  and  C_5 
REMARK    6  A    between atoms: O_15  and  C_19 
REMARK    7  A    between atoms: C_16  and  O_15 
REMARK    8  A    between atoms: C_19  and  C_17 
ROOT
ATOM      1  C   UNL d   1      -1.014  -3.618  -0.715  0.00  0.00     0.004 A 
ATOM      2  C   UNL d   1       0.068  -3.979   0.104  0.00  0.00     0.024 A 
ATOM      3  C   UNL d   1       0.708  -5.219  -0.059  0.00  0.00    -0.033 A 
ATOM      4  C   UNL d   1      -1.465  -4.507  -1.696  0.00  0.00     0.015 A 
ATOM      5  C   UNL d   1      -0.836  -5.743  -1.862  0.00  0.00     0.002 A 
ATOM      6  C   UNL d   1       0.239  -6.099  -1.045  0.00  0.00     0.009 A 
ENDROOT
BRANCH   1   7
ATOM      7  C   UNL d   1      -1.687  -2.290  -0.530  0.00  0.00     0.109 C 
ATOM      8  N   UNL d   1      -2.952  -2.200  -0.812  0.00  0.00    -0.246 N 
ATOM      9  HN  UNL d   1      -3.510  -2.970  -1.181  1.00  0.00     0.196 HD
BRANCH   8  10
ATOM     10  O   UNL d   1      -3.466  -0.905  -0.546  0.00  0.00    -0.193 OA
BRANCH  10  11
ATOM     11  C   UNL d   1      -4.812  -0.863  -0.854  0.00  0.00     0.322 C 
ATOM     12  O   UNL d   1      -5.452  -1.786  -1.355  0.00  0.00    -0.257 OA
BRANCH  11  13
ATOM     13  C   UNL d   1      -5.407   0.431  -0.538  0.00  0.00     0.082 A 
ATOM     14  S   UNL d   1      -4.564   1.697   0.251  0.00  0.00    -0.096 SA
ATOM     15  C   UNL d   1      -5.933   2.729   0.218  0.00  0.00     0.050 A 
ATOM     16  C   UNL d   1      -7.016   2.131  -0.383  0.00  0.00     0.009 A 
ATOM     17  C   UNL d   1      -6.713   0.807  -0.813  0.00  0.00     0.026 A 
ENDBRANCH  11  13
ENDBRANCH  10  11
ENDBRANCH   8  10
BRANCH   7  18
ATOM     18  N   UNL d   1      -0.928  -1.230  -0.088  0.00  0.00    -0.286 NA
ATOM     19  H   UNL d   1      -1.382  -0.337  -0.249  0.00  0.00     0.125 HD
ATOM     20  H   UNL d   1       0.038  -1.231  -0.395  0.00  0.00     0.125 HD
ENDBRANCH   7  18
ENDBRANCH   1   7
BRANCH   3  21
ATOM     21  C   UNL d   1       1.859  -5.615   0.838  0.00  0.00     0.214 C 
BRANCH  21  22
ATOM     22  O   UNL d   1       1.338  -6.242   2.008  0.00  0.00    -0.347 OA
BRANCH  22  23
ATOM     23  C   UNL d   1       2.243  -6.646   2.953  0.00  0.00     0.069 A 
ATOM     24  C   UNL d   1       3.632  -6.535   2.863  0.00  0.00     0.038 A 
ATOM     25  C   UNL d   1       4.444  -6.985   3.911  0.00  0.00     0.026 A 
ATOM     26  C   UNL d   1       3.868  -7.547   5.048  0.00  0.00     0.034 A 
ATOM     27  C   UNL d   1       2.485  -7.668   5.146  0.00  0.00     0.026 A 
ATOM     28 CL   UNL d   1       4.871  -8.093   6.335  0.00  0.00    -0.084 Cl
ATOM     29  C   UNL d   1       1.677  -7.218   4.097  0.00  0.00     0.038 A 
ENDBRANCH  22  23
ENDBRANCH  21  22
ENDBRANCH   3  21
TORSDOF 8
