REMARK  2 active torsions:
REMARK  status: ('A' for Active; 'I' for Inactive)
REMARK    1  A    between atoms: C_4  and  N_1 
REMARK    2  A    between atoms: C_14  and  C_10 
ROOT
ATOM      1  C   UNL d   1      -0.025   2.277  -0.107  0.00  0.00     0.058 A 
ATOM      2  C   UNL d   1       0.583   2.976  -1.174  0.00  0.00    -0.034 A 
ATOM      3  C   UNL d   1      -0.628   2.980   0.964  0.00  0.00    -0.030 A 
ATOM      4  C   UNL d   1      -0.032   5.078  -0.121  0.00  0.00     0.001 A 
ATOM      5  C   UNL d   1       0.573   4.379  -1.161  0.00  0.00     0.009 A 
ATOM      6  C   UNL d   1      -0.624   4.386   0.932  0.00  0.00     0.009 A 
ATOM      7  C   UNL d   1       1.272   2.303  -2.330  0.00  0.00     0.050 C 
ENDROOT
BRANCH   1   8
ATOM      8  N   UNL d   1      -0.026   0.873  -0.099  0.00  0.00    -0.244 N 
ATOM      9  C   UNL d   1      -0.976   0.103  -0.697  0.00  0.00     0.255 A 
ATOM     10  C   UNL d   1      -0.557  -1.296  -0.511  0.00  0.00     0.080 A 
ATOM     11  O   UNL d   1      -1.985   0.414  -1.304  0.00  0.00    -0.268 OA
ATOM     12  C   UNL d   1       0.620  -1.293   0.115  0.00  0.00     0.080 A 
ATOM     13  C   UNL d   1       1.003   0.103   0.357  0.00  0.00     0.255 A 
ATOM     14  O   UNL d   1       2.066   0.421   0.859  0.00  0.00    -0.268 OA
ENDBRANCH   1   8
BRANCH   3  15
ATOM     15  C   UNL d   1      -1.207   2.287   2.181  0.00  0.00     0.036 C 
ATOM     16  C   UNL d   1      -2.678   2.593   2.437  0.00  0.00     0.010 C 
ENDBRANCH   3  15
TORSDOF 2
