REMARK  5 active torsions:
REMARK  status: ('A' for Active; 'I' for Inactive)
REMARK    1  A    between atoms: C_6  and  N_1 
REMARK    2  A    between atoms: N_10  and  C_6 
REMARK    3  A    between atoms: C_7  and  O_11 
REMARK    4  A    between atoms: C_15  and  N_10 
REMARK    5  A    between atoms: O_11  and  C_16 
ROOT
ATOM      1  N   UNL d   1       3.950   1.255   0.231  0.00  0.00    -0.276 NA
ATOM      2  H   UNL d   1       3.493   2.026  -0.263  0.00  0.00     0.129 HD
ENDROOT
BRANCH   1   3
ATOM      3  C   UNL d   1       3.367  -0.005  -0.190  0.00  0.00     0.230 C 
BRANCH   3   4
ATOM      4  N   UNL d   1       1.947   0.041   0.043  0.00  0.00    -0.267 N 
ATOM      5  C   UNL d   1       1.237  -1.059   0.438  0.00  0.00     0.262 C 
ATOM      6  C   UNL d   1      -0.177  -0.697   0.350  0.00  0.00     0.048 A 
ATOM      7  O   UNL d   1       1.633  -2.168   0.738  0.00  0.00    -0.267 OA
ATOM      8  C   UNL d   1      -1.312  -1.422   0.658  0.00  0.00     0.018 A 
ATOM      9  C   UNL d   1      -0.243   0.576  -0.184  0.00  0.00     0.048 A 
ATOM     10  C   UNL d   1      -2.545  -0.811   0.420  0.00  0.00     0.001 A 
ATOM     11  C   UNL d   1      -2.616   0.494  -0.116  0.00  0.00     0.001 A 
ATOM     12  C   UNL d   1      -1.454   1.202  -0.431  0.00  0.00     0.018 A 
ATOM     13  C   UNL d   1       1.118   1.012  -0.446  0.00  0.00     0.262 C 
ATOM     14  O   UNL d   1       1.410   2.030  -1.047  0.00  0.00    -0.267 OA
ENDBRANCH   3   4
ENDBRANCH   1   3
BRANCH   1  15
ATOM     15  C   UNL d   1       5.339   1.413   0.161  0.00  0.00     0.009 A 
ATOM     16  C   UNL d   1       6.180   0.710  -0.709  0.00  0.00     0.026 A 
ATOM     17  C   UNL d   1       7.565   0.955  -0.743  0.00  0.00     0.039 A 
ATOM     18  C   UNL d   1       8.123   1.941   0.065  0.00  0.00     0.078 A 
ATOM     19  C   UNL d   1       7.286   2.655   0.927  0.00  0.00     0.039 A 
ATOM     20  C   UNL d   1       5.912   2.410   0.954  0.00  0.00     0.026 A 
BRANCH  18  21
ATOM     21  O   UNL d   1       9.432   2.297   0.148  0.00  0.00    -0.255 OA
BRANCH  21  22
ATOM     22  C   UNL d   1      10.311   2.040  -0.933  0.00  0.00     0.530 C 
ATOM     23  F   UNL d   1       9.686   1.859  -2.114  0.00  0.00    -0.144 F 
ATOM     24  F   UNL d   1      11.137   3.103  -1.067  0.00  0.00    -0.144 F 
ATOM     25  F   UNL d   1      11.067   0.954  -0.661  0.00  0.00    -0.144 F 
ENDBRANCH  21  22
ENDBRANCH  18  21
ENDBRANCH   1  15
TORSDOF 5
