REMARK  4 active torsions:
REMARK  status: ('A' for Active; 'I' for Inactive)
REMARK    1  A    between atoms: C_7  and  N_1 
REMARK    2  A    between atoms: S_9  and  C_2 
REMARK    3  A    between atoms: C_8  and  C_11 
REMARK    4  A    between atoms: C_11  and  S_9 
ROOT
ATOM      1  N   UNL d   1      -0.126  -1.322  -0.091  0.00  0.00    -0.218 N 
ATOM      2  C   UNL d   1       1.096  -0.659  -0.147  0.00  0.00     0.177 A 
ATOM      3  N   UNL d   1       0.882   0.640  -0.128  0.00  0.00    -0.264 N 
ATOM      4  HN  UNL d   1       1.587   1.376  -0.145  1.00  0.00     0.186 HD
ATOM      5  N   UNL d   1      -1.091  -0.366  -0.077  0.00  0.00     0.001 NA
ATOM      6  N   UNL d   1      -0.469   0.805  -0.080  0.00  0.00    -0.006 NA
ENDROOT
BRANCH   2   7
ATOM      7  S   UNL d   1       2.661  -1.382  -0.392  0.00  0.00    -0.086 SA
BRANCH   7   8
ATOM      8  C   UNL d   1       3.717   0.103  -0.366  0.00  0.00     0.126 C 
BRANCH   8   9
ATOM      9  C   UNL d   1       5.189  -0.218  -0.435  0.00  0.00     0.012 A 
ATOM     10  C   UNL d   1       5.883  -0.484   0.753  0.00  0.00     0.125 A 
ATOM     11  F   UNL d   1       5.222  -0.475   1.922  0.00  0.00    -0.205 F 
ATOM     12  C   UNL d   1       7.252  -0.743   0.773  0.00  0.00     0.043 A 
ATOM     13  C   UNL d   1       7.969  -0.746  -0.418  0.00  0.00     0.005 A 
ATOM     14  C   UNL d   1       7.301  -0.502  -1.618  0.00  0.00     0.024 A 
ATOM     15  C   UNL d   1       5.924  -0.247  -1.629  0.00  0.00     0.044 A 
ATOM     16 CL   UNL d   1       5.185   0.042  -3.164  0.00  0.00    -0.084 Cl
ENDBRANCH   8   9
ENDBRANCH   7   8
ENDBRANCH   2   7
BRANCH   1  17
ATOM     17  C   UNL d   1      -0.470  -2.695   0.084  0.00  0.00     0.062 A 
ATOM     18  C   UNL d   1      -1.683  -3.238  -0.405  0.00  0.00    -0.033 A 
ATOM     19  C   UNL d   1      -2.006  -4.574  -0.079  0.00  0.00     0.015 A 
ATOM     20  C   UNL d   1      -2.671  -2.541  -1.306  0.00  0.00     0.050 C 
ATOM     21  C   UNL d   1      -1.158  -5.374   0.694  0.00  0.00    -0.061 A 
ATOM     22  C   UNL d   1       0.045  -4.834   1.143  0.00  0.00     0.009 A 
ATOM     23  C   UNL d   1      -1.557  -6.777   1.041  0.00  0.00     0.048 C 
ATOM     24  C   UNL d   1       0.386  -3.513   0.842  0.00  0.00     0.032 A 
ENDBRANCH   1  17
TORSDOF 4
