REMARK  6 active torsions:
REMARK  status: ('A' for Active; 'I' for Inactive)
REMARK    1  A    between atoms: N_2  and  C_1 
REMARK    2  A    between atoms: C_11  and  C_5 
REMARK    3  A    between atoms: C_20  and  N_9 
REMARK    4  A    between atoms: C_12  and  S_14 
REMARK    5  A    between atoms: S_14  and  C_21 
REMARK    6  A    between atoms: C_21  and  C_20 
ROOT
ATOM      1  N   UNL d   1       0.897  -3.565  -0.016  0.00  0.00    -0.397 N 
ATOM      2  HN  UNL d   1       1.465  -3.166  -0.764  1.00  0.00     0.158 HD
ATOM      3  C   UNL d   1       0.471  -2.853   0.969  0.00  0.00     0.102 C 
ENDROOT
BRANCH   1   4
ATOM      4  C   UNL d   1       0.517  -4.983  -0.001  0.00  0.00     0.129 C 
BRANCH   4   5
ATOM      5  C   UNL d   1       1.796  -5.824  -0.034  0.00  0.00     0.099 C 
BRANCH   5   6
ATOM      6  S   UNL d   1       1.387  -7.602  -0.056  0.00  0.00    -0.128 SA
BRANCH   6   7
ATOM      7  C   UNL d   1       2.985  -8.409  -0.062  0.00  0.00     0.000 A 
ATOM      8  C   UNL d   1       4.221  -7.752  -0.053  0.00  0.00     0.020 A 
ATOM      9  C   UNL d   1       5.417  -8.481  -0.051  0.00  0.00     0.025 A 
ATOM     10  C   UNL d   1       5.386  -9.873  -0.059  0.00  0.00     0.034 A 
ATOM     11  C   UNL d   1       4.168 -10.543  -0.070  0.00  0.00     0.025 A 
ATOM     12 CL   UNL d   1       6.856 -10.765  -0.052  0.00  0.00    -0.084 Cl
ATOM     13  C   UNL d   1       2.975  -9.813  -0.072  0.00  0.00     0.020 A 
ENDBRANCH   6   7
ENDBRANCH   5   6
ENDBRANCH   4   5
ENDBRANCH   1   4
BRANCH   3  14
ATOM     14  C   UNL d   1       0.811  -1.451   1.023  0.00  0.00     0.022 A 
ATOM     15  S   UNL d   1       0.283  -0.487   2.334  0.00  0.00    -0.065 SA
ATOM     16  C   UNL d   1       1.035   0.898   1.693  0.00  0.00     0.144 A 
ATOM     17  C   UNL d   1       1.681   0.651   0.502  0.00  0.00     0.045 A 
ATOM     18  C   UNL d   1       1.549  -0.715   0.116  0.00  0.00     0.023 A 
BRANCH  16  19
ATOM     19  N   UNL d   1       0.963   2.163   2.378  0.00  0.00    -0.108 N 
ATOM     20  O   UNL d   1       1.537   3.115   1.833  0.00  0.00    -0.531 OA
ATOM     21  O   UNL d   1       0.344   2.217   3.448  0.00  0.00    -0.531 OA
ENDBRANCH  16  19
ENDBRANCH   3  14
TORSDOF 6
