REMARK  3 active torsions:
REMARK  status: ('A' for Active; 'I' for Inactive)
REMARK    1  A    between atoms: C_2  and  N_1 
REMARK    2  A    between atoms: O_13  and  C_6 
REMARK    3  A    between atoms: C_12  and  O_13 
ROOT
ATOM      1  C   UNL d   1      -4.871   0.984  -2.186  0.00  0.00     0.118 A 
ATOM      2  N   UNL d   1      -3.910   2.355  -3.914  0.00  0.00    -0.344 N 
ATOM      3  HN  UNL d   1      -3.970   2.793  -4.834  1.00  0.00     0.167 HD
ATOM      4  C   UNL d   1      -2.829   2.534  -3.116  0.00  0.00     0.148 A 
ATOM      5  C   UNL d   1      -4.908   1.573  -3.439  0.00  0.00     0.126 A 
ATOM      6  C   UNL d   1      -3.768   1.214  -1.358  0.00  0.00     0.041 A 
ATOM      7  C   UNL d   1      -2.727   2.011  -1.834  0.00  0.00     0.059 A 
ENDROOT
BRANCH   4   8
ATOM      8  O   UNL d   1      -1.752   3.277  -3.580  0.00  0.00    -0.294 OA
BRANCH   8   9
ATOM      9  C   UNL d   1      -1.493   3.238  -4.933  0.00  0.00     0.078 A 
ATOM     10  C   UNL d   1      -1.586   2.068  -5.697  0.00  0.00     0.045 A 
ATOM     11  C   UNL d   1      -1.315   2.080  -7.074  0.00  0.00    -0.038 A 
ATOM     12  C   UNL d   1      -1.492   0.816  -7.867  0.00  0.00     0.050 C 
ATOM     13  C   UNL d   1      -0.896   3.282  -7.662  0.00  0.00     0.040 A 
ATOM     14  C   UNL d   1      -0.759   4.442  -6.892  0.00  0.00     0.027 A 
ATOM     15 CL   UNL d   1      -0.530   3.381  -9.348  0.00  0.00    -0.084 Cl
ATOM     16  C   UNL d   1      -1.054   4.419  -5.527  0.00  0.00     0.039 A 
ENDBRANCH   8   9
ENDBRANCH   4   8
BRANCH   1  17
ATOM     17  N   UNL d   1      -5.967   0.124  -1.763  0.00  0.00    -0.114 N 
ATOM     18  O   UNL d   1      -6.894  -0.064  -2.561  0.00  0.00    -0.532 OA
ATOM     19  O   UNL d   1      -5.899  -0.375  -0.631  0.00  0.00    -0.532 OA
ENDBRANCH   1  17
TORSDOF 3
