REMARK  4 active torsions:
REMARK  status: ('A' for Active; 'I' for Inactive)
REMARK    1  A    between atoms: C_2  and  C_1 
REMARK    2  A    between atoms: C_3  and  C_2 
REMARK    3  A    between atoms: N_13  and  C_4 
REMARK    4  A    between atoms: O_16  and  C_14 
ROOT
ATOM      1  C   UNL d   1       0.924   1.521  -2.289  0.00  0.00     0.015 A 
ATOM      2  C   UNL d   1       0.424   2.769  -2.688  0.00  0.00     0.027 A 
ATOM      3  C   UNL d   1       0.994   3.477  -3.761  0.00  0.00    -0.025 A 
ATOM      4  C   UNL d   1       2.095   2.927  -4.449  0.00  0.00    -0.023 A 
ATOM      5  C   UNL d   1       2.648   3.637  -5.532  0.00  0.00     0.049 A 
ATOM      6  C   UNL d   1       2.011   0.975  -2.979  0.00  0.00     0.016 A 
ATOM      7  C   UNL d   1       2.596   1.677  -4.042  0.00  0.00     0.013 A 
ATOM      8  C   UNL d   1       0.479   4.715  -4.171  0.00  0.00     0.015 A 
ATOM      9  C   UNL d   1       2.118   4.866  -5.944  0.00  0.00     0.069 A 
ATOM     10  C   UNL d   1       1.032   5.403  -5.257  0.00  0.00     0.037 A 
ENDROOT
BRANCH   1  11
ATOM     11  C   UNL d   1       0.227   0.826  -1.165  0.00  0.00     0.183 C 
ATOM     12  O   UNL d   1      -0.960   1.046  -0.956  0.00  0.00    -0.288 OA
BRANCH  11  13
ATOM     13  C   UNL d   1       1.025  -0.086  -0.298  0.00  0.00     0.072 C 
ATOM     14  C   UNL d   1       0.469  -0.733   0.737  0.00  0.00     0.088 C 
BRANCH  14  15
ATOM     15  N   UNL d   1       1.065  -1.593   1.655  0.00  0.00    -0.398 N 
ATOM     16  C   UNL d   1       2.479  -1.957   1.652  0.00  0.00     0.148 C 
ATOM     17  C   UNL d   1       0.292  -2.256   2.711  0.00  0.00     0.148 C 
ENDBRANCH  14  15
ENDBRANCH  11  13
ENDBRANCH   1  11
BRANCH   9  18
ATOM     18  O   UNL d   1       2.740   5.431  -7.024  0.00  0.00    -0.356 OA
ATOM     19  C   UNL d   1       2.219   6.671  -7.487  0.00  0.00     0.210 C 
ENDBRANCH   9  18
TORSDOF 4
