REMARK  7 active torsions:
REMARK  status: ('A' for Active; 'I' for Inactive)
REMARK    1  A    between atoms: C9_7  and  C1_1 
REMARK    2  A    between atoms: C6_6  and  O1_8 
REMARK       I    between atoms: N_18  and  C6_6 
REMARK    3  A    between atoms: O1_8  and  C9_7 
REMARK    4  A    between atoms: CA_19  and  N_18 
REMARK    5  A    between atoms: C_20  and  CA_19 
REMARK    6  A    between atoms: CB_22  and  CA_19 
REMARK    7  A    between atoms: OXT_23  and  C_20 
ROOT
ATOM      1  C9  <1> d   1      -0.399   2.565   1.349  0.00  0.00     0.194 C 
ENDROOT
BRANCH   1   2
ATOM      2  C1  <1> d   1      -0.140   1.855  -0.001  0.00  0.00     0.078 A 
ATOM      3  C4  <1> d   1       0.640   2.721  -0.986  0.00  0.00    -0.036 A 
ATOM      4  C2  <1> d   1       1.903   2.148  -1.250  0.00  0.00    -0.018 A 
ATOM      5  C14 <1> d   1       0.243   3.898  -1.601  0.00  0.00     0.009 A 
ATOM      6  C11 <1> d   1       2.795   2.778  -2.104  0.00  0.00     0.013 A 
ATOM      7  C3  <1> d   1       2.014   0.900  -0.528  0.00  0.00    -0.018 A 
ATOM      8  C18 <1> d   1       2.411   3.984  -2.697  0.00  0.00     0.001 A 
ATOM      9  C17 <1> d   1       1.143   4.535  -2.455  0.00  0.00     0.001 A 
ATOM     10  C5  <1> d   1       0.818   0.677   0.189  0.00  0.00    -0.036 A 
ATOM     11  C12 <1> d   1       3.056  -0.012  -0.460  0.00  0.00     0.013 A 
ATOM     12  C13 <1> d   1       0.635  -0.473   0.944  0.00  0.00     0.009 A 
ATOM     13  C20 <1> d   1       1.688  -1.389   1.014  0.00  0.00     0.001 A 
ATOM     14  C19 <1> d   1       2.890  -1.156   0.327  0.00  0.00     0.001 A 
ENDBRANCH   1   2
BRANCH   1  15
ATOM     15  O1  <1> d   1      -1.173   3.787   1.285  0.00  0.00    -0.303 OA
BRANCH  15  16
ATOM     16  C6  <1> d   1      -2.413   3.663   0.758  0.00  0.00     0.361 C 
ATOM     17  N   VAL d   1      -3.051   4.838   0.562  0.00  0.00    -0.322 N 
ATOM     18  H   VAL d   1      -3.884   4.749  -0.008  0.00  0.00     0.165 HD
ATOM     19  O2  <1> d   1      -2.924   2.606   0.408  0.00  0.00    -0.238 OA
BRANCH  17  20
ATOM     20  CA  VAL d   1      -2.940   6.056   1.354  0.00  0.00     0.188 C 
BRANCH  20  21
ATOM     21  C   VAL d   1      -2.921   7.260   0.398  0.00  0.00     0.164 C 
ATOM     22  O   VAL d   1      -3.603   7.339  -0.615  0.00  0.00    -0.648 OA
BRANCH  21  23
ATOM     23  OXT VAL d   1      -2.104   8.268   0.785  0.00  0.00    -0.775 OA
ATOM     24  HXT VAL d   1      -1.568   8.087   1.580  0.00  0.00     0.167 HD
ENDBRANCH  21  23
ENDBRANCH  20  21
BRANCH  20  25
ATOM     25  CB  VAL d   1      -4.124   6.183   2.352  0.00  0.00     0.010 C 
ATOM     26  CG1 VAL d   1      -5.506   6.085   1.684  0.00  0.00     0.012 C 
ATOM     27  CG2 VAL d   1      -4.037   5.128   3.461  0.00  0.00     0.012 C 
ENDBRANCH  20  25
ENDBRANCH  17  20
ENDBRANCH  15  16
ENDBRANCH   1  15
TORSDOF 7
