REMARK  0 active torsions:
REMARK  status: ('A' for Active; 'I' for Inactive)
ROOT
ATOM      1  C   UNL d   1      -1.203  -0.950  -0.424  0.00  0.00     0.253 C 
ATOM      2  C   UNL d   1      -0.584   0.301  -1.045  0.00  0.00     0.074 C 
ATOM      3  C   UNL d   1      -0.505  -1.060   0.925  0.00  0.00     0.075 A 
ATOM      4  C   UNL d   1       0.971   0.211  -1.228  0.00  0.00     0.070 C 
ATOM      5  C   UNL d   1       1.050  -1.172   0.760  0.00  0.00     0.071 A 
ATOM      6  C   UNL d   1       1.491  -1.135  -0.759  0.00  0.00     0.137 C 
ATOM      7  C   UNL d   1      -0.348   0.419   1.344  0.00  0.00     0.006 A 
ATOM      8  C   UNL d   1       1.179   0.308   1.215  0.00  0.00     0.007 A 
ATOM      9  C   UNL d   1      -0.729   1.303   0.130  0.00  0.00     0.001 C 
ATOM     10  C   UNL d   1       1.477   1.129  -0.074  0.00  0.00     0.003 C 
ATOM     11  C   UNL d   1       0.450   2.246  -0.018  0.00  0.00     0.011 C 
ATOM     12  O   UNL d   1       2.108  -1.933  -1.443  0.00  0.00    -0.297 OA
ATOM     13  F   UNL d   1      -2.534  -0.793  -0.242  0.00  0.00    -0.205 F 
ATOM     14  F   UNL d   1      -1.016  -2.052  -1.172  0.00  0.00    -0.205 F 
ENDROOT
TORSDOF 0
