REMARK  1 active torsions:
REMARK  status: ('A' for Active; 'I' for Inactive)
REMARK    1  A    between atoms: C_6  and  C_3 
ROOT
ATOM      1  N   UNL d   1       2.474  -0.513   0.066  0.00  0.00    -0.307 N 
ATOM      2  HN  UNL d   1       3.394  -0.954   0.093  1.00  0.00     0.170 HD
ATOM      3  C   UNL d   1       2.386   0.787   0.035  0.00  0.00     0.128 A 
ATOM      4  N   UNL d   1       1.166   1.476   0.011  0.00  0.00    -0.336 N 
ATOM      5  C   UNL d   1       1.350  -1.294   0.062  0.00  0.00     0.259 A 
ATOM      6  C   UNL d   1       0.021  -0.658   0.032  0.00  0.00     0.059 A 
ATOM      7  C   UNL d   1      -0.039   0.741   0.022  0.00  0.00     0.051 A 
ATOM      8  O   UNL d   1       1.412  -2.521   0.083  0.00  0.00    -0.267 OA
ATOM      9  C   UNL d   1       1.055   2.920  -0.155  0.00  0.00     0.158 C 
ATOM     10  C   UNL d   1      -1.139  -1.449   0.003  0.00  0.00     0.019 A 
ATOM     11  C   UNL d   1      -1.320   1.324   0.015  0.00  0.00     0.031 A 
ATOM     12  C   UNL d   1      -2.391  -0.846  -0.029  0.00  0.00     0.001 A 
ATOM     13  C   UNL d   1      -2.481   0.541  -0.019  0.00  0.00     0.002 A 
ENDROOT
BRANCH   3  14
ATOM     14  C   UNL d   1       3.701   1.453   0.030  0.00  0.00     0.050 A 
ATOM     15  C   UNL d   1       4.113   2.591   0.702  0.00  0.00     0.042 A 
ATOM     16  C   UNL d   1       5.426   2.979   0.333  0.00  0.00     0.018 A 
ATOM     17 BR   UNL d   1       6.217   4.561   0.983  0.00  0.00    -0.051 Br
ATOM     18  C   UNL d   1       6.027   2.106  -0.535  0.00  0.00     0.069 A 
ATOM     19  S   UNL d   1       4.976   0.818  -0.941  0.00  0.00    -0.097 SA
ENDBRANCH   3  14
TORSDOF 1
