REMARK  6 active torsions:
REMARK  status: ('A' for Active; 'I' for Inactive)
REMARK    1  A    between atoms: N_3  and  C_1 
REMARK    2  A    between atoms: N_4  and  C_1 
REMARK    3  A    between atoms: C_5  and  N_3 
REMARK    4  A    between atoms: N_6  and  N_4 
REMARK    5  A    between atoms: C_7  and  C_5 
REMARK    6  A    between atoms: O_13  and  C_8 
ROOT
ATOM      1  N   UNL d   1      -2.300  -0.085   0.471  0.00  0.00    -0.362 N 
ATOM      2  H   UNL d   1      -3.171  -0.437   0.842  0.00  0.00     0.162 HD
ENDROOT
BRANCH   1   3
ATOM      3  C   UNL d   1      -2.265   0.045  -0.894  0.00  0.00     0.182 C 
ATOM      4  S   UNL d   1      -0.898   0.162  -1.842  0.00  0.00    -0.040 SA
BRANCH   3   5
ATOM      5  N   UNL d   1      -3.507   0.106  -1.494  0.00  0.00    -0.300 N 
ATOM      6  H   UNL d   1      -3.506   0.278  -2.501  0.00  0.00     0.183 HD
BRANCH   5   7
ATOM      7  N   UNL d   1      -4.686   0.371  -0.773  0.00  0.00    -0.248 NA
ATOM      8  H   UNL d   1      -4.459   0.992   0.009  0.00  0.00     0.143 HD
ATOM      9  H   UNL d   1      -5.045  -0.503  -0.385  0.00  0.00     0.143 HD
ENDBRANCH   5   7
ENDBRANCH   3   5
ENDBRANCH   1   3
BRANCH   1  10
ATOM     10  C   UNL d   1      -1.140  -0.176   1.339  0.00  0.00     0.160 C 
BRANCH  10  11
ATOM     11  C   UNL d   1      -1.559  -0.388   2.769  0.00  0.00    -0.040 A 
ATOM     12  C   UNL d   1      -1.711  -1.683   3.280  0.00  0.00     0.011 A 
ATOM     13  C   UNL d   1      -2.118  -1.889   4.602  0.00  0.00     0.037 A 
ATOM     14  C   UNL d   1      -2.391  -0.797   5.426  0.00  0.00     0.068 A 
ATOM     15  C   UNL d   1      -2.236   0.495   4.924  0.00  0.00     0.037 A 
ATOM     16  C   UNL d   1      -1.837   0.703   3.602  0.00  0.00     0.011 A 
BRANCH  14  17
ATOM     17  O   UNL d   1      -2.775  -0.870   6.737  0.00  0.00    -0.356 OA
ATOM     18  C   UNL d   1      -3.444  -2.066   7.122  0.00  0.00     0.210 C 
ENDBRANCH  14  17
ENDBRANCH  10  11
ENDBRANCH   1  10
TORSDOF 6
