REMARK  1 active torsions:
REMARK  status: ('A' for Active; 'I' for Inactive)
REMARK    1  A    between atoms: C_6  and  N_1 
ROOT
ATOM      1  N   UNL d   1       2.453  -0.596  -0.019  0.00  0.00    -0.254 N 
ATOM      2  C   UNL d   1       2.407   0.807  -0.013  0.00  0.00     0.186 A 
ATOM      3  C   UNL d   1       1.300  -1.409   0.000  0.00  0.00     0.267 A 
ATOM      4  C   UNL d   1      -0.005  -0.717   0.032  0.00  0.00     0.060 A 
ATOM      5  N   UNL d   1       1.166   1.382   0.042  0.00  0.00    -0.332 N 
ATOM      6  C   UNL d   1      -0.028   0.669   0.033  0.00  0.00     0.050 A 
ATOM      7  S   UNL d   1       3.684   1.898  -0.139  0.00  0.00    -0.040 SA
ATOM      8  O   UNL d   1       1.300  -2.640   0.007  0.00  0.00    -0.267 OA
ATOM      9  C   UNL d   1      -1.208  -1.434   0.043  0.00  0.00     0.026 A 
ATOM     10  C   UNL d   1      -1.239   1.359   0.007  0.00  0.00     0.031 A 
ATOM     11  C   UNL d   1      -2.434  -0.754   0.026  0.00  0.00    -0.061 A 
ATOM     12  C   UNL d   1      -2.438   0.645  -0.009  0.00  0.00     0.009 A 
ATOM     13  C   UNL d   1      -3.733  -1.505   0.015  0.00  0.00     0.048 C 
ATOM     14  H   UNL d   1       1.144   2.396   0.028  0.00  0.00     0.168 HD
ENDROOT
BRANCH   1  15
ATOM     15  C   UNL d   1       3.711  -1.278  -0.110  0.00  0.00     0.045 A 
ATOM     16  C   UNL d   1       4.687  -1.105   0.881  0.00  0.00     0.038 A 
ATOM     17  C   UNL d   1       5.975  -1.650   0.737  0.00  0.00    -0.043 A 
ATOM     18  C   UNL d   1       7.005  -1.363   1.793  0.00  0.00     0.049 C 
ATOM     19  C   UNL d   1       6.259  -2.399  -0.415  0.00  0.00     0.017 A 
ATOM     20  C   UNL d   1       5.272  -2.622  -1.380  0.00  0.00     0.022 A 
ATOM     21 BR   UNL d   1       7.986  -3.118  -0.744  0.00  0.00    -0.051 Br
ATOM     22  C   UNL d   1       3.998  -2.071  -1.224  0.00  0.00     0.031 A 
ENDBRANCH   1  15
TORSDOF 1
