REMARK  4 active torsions:
REMARK  status: ('A' for Active; 'I' for Inactive)
REMARK    1  A    between atoms: S_10  and  C_3 
REMARK    2  A    between atoms: C_11  and  N_5 
REMARK    3  A    between atoms: C_12  and  C_11 
REMARK    4  A    between atoms: C_13  and  C_12 
ROOT
ATOM      1  N   UNL d   1      -0.516   1.761   2.097  0.00  0.00    -0.355 N 
ATOM      2  HN  UNL d   1      -0.535   2.389   2.901  1.00  0.00     0.163 HD
ATOM      3  C   UNL d   1      -1.477   0.974   1.833  0.00  0.00     0.135 C 
ATOM      4  N   UNL d   1      -1.573   0.151   0.721  0.00  0.00    -0.355 N 
ATOM      5  N   UNL d   1       0.376   1.217  -0.139  0.00  0.00    -0.381 N 
ATOM      6  C   UNL d   1       0.603   1.713   1.190  0.00  0.00     0.244 C 
ATOM      7  C   UNL d   1      -0.642   0.238  -0.365  0.00  0.00     0.244 C 
ATOM      8  H   UNL d   1      -2.369  -0.463   0.654  0.00  0.00     0.163 HD
ENDROOT
BRANCH   5   9
ATOM      9  C   UNL d   1       0.617   2.139  -1.246  0.00  0.00     0.124 C 
BRANCH   9  10
ATOM     10  C   UNL d   1       2.068   2.660  -1.317  0.00  0.00     0.058 C 
BRANCH  10  11
ATOM     11  C   UNL d   1       2.255   3.614  -2.468  0.00  0.00    -0.054 A 
ATOM     12  C   UNL d   1       1.974   4.975  -2.317  0.00  0.00     0.024 A 
ATOM     13  C   UNL d   1       2.146   5.814  -3.405  0.00  0.00     0.088 A 
ATOM     14  N   UNL d   1       2.563   5.392  -4.617  0.00  0.00    -0.375 N 
ATOM     15  C   UNL d   1       2.831   4.076  -4.744  0.00  0.00     0.088 A 
ATOM     16  HN  UNL d   1       2.670   6.037  -5.400  1.00  0.00     0.164 HD
ATOM     17  C   UNL d   1       2.690   3.158  -3.715  0.00  0.00     0.024 A 
ENDBRANCH  10  11
ENDBRANCH   9  10
ENDBRANCH   5   9
BRANCH   3  18
ATOM     18  S   UNL d   1      -2.830   0.828   2.895  0.00  0.00    -0.107 SA
ATOM     19  H   UNL d   1      -2.347   1.678   3.812  0.00  0.00     0.110 HD
ENDBRANCH   3  18
TORSDOF 4
