REMARK  7 active torsions:
REMARK  status: ('A' for Active; 'I' for Inactive)
REMARK    1  A    between atoms: C_4  and  C_1 
REMARK    2  A    between atoms: C_2  and  C_3 
REMARK    3  A    between atoms: N_5  and  C_16 
REMARK    4  A    between atoms: C_17  and  N_5 
REMARK    5  A    between atoms: O_18  and  N_5 
REMARK    6  A    between atoms: C_8  and  C_17 
REMARK    7  A    between atoms: C_16  and  C_9 
ROOT
ATOM      1  N   UNL d   1      -2.914   1.268  -2.655  0.00  0.00    -0.191 NA
ENDROOT
BRANCH   1   2
ATOM      2  C   UNL d   1      -2.140   2.520  -2.638  0.00  0.00     0.159 C 
BRANCH   2   3
ATOM      3  C   UNL d   1      -1.627   2.859  -4.026  0.00  0.00    -0.042 A 
ATOM      4  C   UNL d   1      -2.087   3.999  -4.702  0.00  0.00     0.024 A 
ATOM      5  C   UNL d   1      -1.689   4.268  -6.022  0.00  0.00     0.048 A 
ATOM      6  C   UNL d   1      -0.805   3.379  -6.657  0.00  0.00     0.016 A 
ATOM      7  C   UNL d   1      -0.326   2.256  -5.988  0.00  0.00     0.001 A 
ATOM      8  C   UNL d   1      -0.733   1.996  -4.678  0.00  0.00     0.008 A 
BRANCH   5   9
ATOM      9  C   UNL d   1      -2.221   5.460  -6.774  0.00  0.00     0.417 C 
ATOM     10  F   UNL d   1      -3.026   6.266  -6.024  0.00  0.00    -0.166 F 
ATOM     11  F   UNL d   1      -2.963   5.103  -7.859  0.00  0.00    -0.166 F 
ATOM     12  F   UNL d   1      -1.231   6.265  -7.249  0.00  0.00    -0.166 F 
ENDBRANCH   5   9
ENDBRANCH   2   3
ENDBRANCH   1   2
BRANCH   1  13
ATOM     13  C   UNL d   1      -3.399   0.920  -1.310  0.00  0.00     0.159 C 
BRANCH  13  14
ATOM     14  C   UNL d   1      -4.144  -0.403  -1.299  0.00  0.00    -0.042 A 
ATOM     15  C   UNL d   1      -5.485  -0.466  -0.887  0.00  0.00     0.024 A 
ATOM     16  C   UNL d   1      -6.186  -1.684  -0.888  0.00  0.00     0.048 A 
ATOM     17  C   UNL d   1      -5.525  -2.848  -1.311  0.00  0.00     0.016 A 
ATOM     18  C   UNL d   1      -4.192  -2.797  -1.715  0.00  0.00     0.001 A 
ATOM     19  C   UNL d   1      -3.505  -1.584  -1.705  0.00  0.00     0.008 A 
BRANCH  16  20
ATOM     20  C   UNL d   1      -7.628  -1.758  -0.451  0.00  0.00     0.417 C 
ATOM     21  F   UNL d   1      -8.138  -0.563  -0.041  0.00  0.00    -0.166 F 
ATOM     22  F   UNL d   1      -8.453  -2.194  -1.443  0.00  0.00    -0.166 F 
ATOM     23  F   UNL d   1      -7.813  -2.617   0.590  0.00  0.00    -0.166 F 
ENDBRANCH  16  20
ENDBRANCH  13  14
ENDBRANCH   1  13
BRANCH   1  24
ATOM     24  O   UNL d   1      -4.110   1.559  -3.443  0.00  0.00    -0.312 OA
ATOM     25  H   UNL d   1      -3.951   0.998  -4.228  0.00  0.00     0.237 HD
ENDBRANCH   1  24
TORSDOF 7
