REMARK  4 active torsions:
REMARK  status: ('A' for Active; 'I' for Inactive)
REMARK    1  A    between atoms: C_12  and  C_3 
REMARK    2  A    between atoms: N_9  and  C_5 
REMARK    3  A    between atoms: N_14  and  N_9 
REMARK       I    between atoms: C_15  and  N_14 
REMARK    4  A    between atoms: C_16  and  C_17 
ROOT
ATOM      1  C   UNL d   1      -0.198   0.041  -0.802  0.00  0.00     0.072 A 
ATOM      2  S   UNL d   1       1.233   0.618  -1.551  0.00  0.00    -0.084 SA
ATOM      3  C   UNL d   1       2.049   0.829  -0.053  0.00  0.00     0.018 A 
ATOM      4  C   UNL d   1       1.210   0.513   1.000  0.00  0.00     0.050 A 
ATOM      5  C   UNL d   1      -1.391  -0.406  -1.386  0.00  0.00     0.119 A 
ATOM      6  C   UNL d   1      -0.072   0.046   0.579  0.00  0.00     0.054 A 
ATOM      7  N   UNL d   1      -2.380  -0.825  -0.557  0.00  0.00    -0.341 N 
ATOM      8  HN  UNL d   1      -3.262  -1.175  -0.931  1.00  0.00     0.167 HD
ATOM      9  N   UNL d   1      -1.069  -0.356   1.405  0.00  0.00    -0.351 N 
ATOM     10  HN  UNL d   1      -0.987  -0.344   2.421  1.00  0.00     0.166 HD
ATOM     11  C   UNL d   1      -2.169  -0.769   0.768  0.00  0.00     0.182 A 
ENDROOT
BRANCH   3  12
ATOM     12  C   UNL d   1       3.440   1.318  -0.026  0.00  0.00    -0.019 A 
ATOM     13  C   UNL d   1       3.883   2.158   1.000  0.00  0.00     0.013 A 
ATOM     14  C   UNL d   1       5.200   2.643   1.018  0.00  0.00     0.009 A 
ATOM     15  C   UNL d   1       6.124   2.309   0.011  0.00  0.00    -0.051 A 
ATOM     16  C   UNL d   1       5.676   1.446  -0.999  0.00  0.00     0.009 A 
ATOM     17  C   UNL d   1       4.362   0.958  -1.014  0.00  0.00     0.013 A 
BRANCH  15  18
ATOM     18  C   UNL d   1       7.548   2.892   0.028  0.00  0.00    -0.024 C 
ATOM     19  C   UNL d   1       8.417   2.441  -1.169  0.00  0.00     0.019 C 
ATOM     20  C   UNL d   1       7.477   4.433  -0.020  0.00  0.00     0.019 C 
ATOM     21  C   UNL d   1       8.281   2.457   1.313  0.00  0.00     0.019 C 
ENDBRANCH  15  18
ENDBRANCH   3  12
BRANCH   5  22
ATOM     22  N   UNL d   1      -1.586  -0.397  -2.780  0.00  0.00    -0.186 NA
ATOM     23  H   UNL d   1      -0.703  -0.324  -3.297  0.00  0.00     0.154 HD
BRANCH  22  24
ATOM     24  N   UNL d   1      -2.382  -1.457  -3.231  0.00  0.00    -0.286 N 
ATOM     25  C   UNL d   1      -2.068  -1.998  -4.459  0.00  0.00     0.228 C 
ATOM     26  O   UNL d   1      -1.071  -1.673  -5.101  0.00  0.00    -0.273 OA
ATOM     27  C   UNL d   1      -3.040  -3.033  -4.954  0.00  0.00     0.118 C 
ATOM     28  H   UNL d   1      -3.243  -1.625  -2.716  0.00  0.00     0.184 HD
ENDBRANCH  22  24
ENDBRANCH   5  22
TORSDOF 4
