REMARK  1 active torsions:
REMARK  status: ('A' for Active; 'I' for Inactive)
REMARK    1  A    between atoms: C_5  and  N_1 
ROOT
ATOM      1  N   UNL d   1       2.382  -0.681   0.028  0.00  0.00    -0.219 N 
ATOM      2  C   UNL d   1       1.229  -1.472   0.059  0.00  0.00     0.278 C 
ATOM      3  N   UNL d   1       2.398   0.690   0.164  0.00  0.00    -0.301 N 
ATOM      4  HN  UNL d   1       3.276   1.200   0.264  1.00  0.00     0.186 HD
ATOM      5  C   UNL d   1      -0.052  -0.743   0.054  0.00  0.00     0.045 A 
ATOM      6  C   UNL d   1       1.259   1.308   0.162  0.00  0.00     0.120 C 
ATOM      7  O   UNL d   1       1.210  -2.701   0.107  0.00  0.00    -0.265 OA
ATOM      8  C   UNL d   1      -0.035   0.643   0.059  0.00  0.00    -0.004 A 
ATOM      9  C   UNL d   1      -1.273  -1.423   0.011  0.00  0.00     0.018 A 
ATOM     10  C   UNL d   1      -1.222   1.377  -0.013  0.00  0.00     0.014 A 
ATOM     11  C   UNL d   1      -2.466  -0.700  -0.057  0.00  0.00     0.001 A 
ATOM     12  C   UNL d   1      -2.439   0.697  -0.079  0.00  0.00     0.001 A 
ENDROOT
BRANCH   1  13
ATOM     13  C   UNL d   1       3.664  -1.260  -0.148  0.00  0.00     0.083 A 
ATOM     14  C   UNL d   1       4.651  -1.016   0.820  0.00  0.00     0.057 A 
ATOM     15  C   UNL d   1       5.907  -1.605   0.697  0.00  0.00     0.036 A 
ATOM     16 CL   UNL d   1       7.092  -1.357   1.918  0.00  0.00    -0.084 Cl
ATOM     17  C   UNL d   1       6.210  -2.410  -0.402  0.00  0.00     0.026 A 
ATOM     18  C   UNL d   1       5.249  -2.624  -1.390  0.00  0.00     0.028 A 
ATOM     19  C   UNL d   1       3.977  -2.056  -1.266  0.00  0.00     0.062 A 
ATOM     20 CL   UNL d   1       2.895  -2.244  -2.606  0.00  0.00    -0.082 Cl
ENDBRANCH   1  13
TORSDOF 1
