REMARK  8 active torsions:
REMARK  status: ('A' for Active; 'I' for Inactive)
REMARK    1  A    between atoms: C_9  and  C_1 
REMARK    2  A    between atoms: C_12  and  N_4 
REMARK    3  A    between atoms: C_8  and  C_10 
REMARK    4  A    between atoms: C_11  and  N_16 
REMARK    5  A    between atoms: N_14  and  C_11 
REMARK    6  A    between atoms: C_13  and  C_12 
REMARK       I    between atoms: N_17  and  C_13 
REMARK    7  A    between atoms: C_15  and  N_14 
REMARK    8  A    between atoms: N_16  and  N_17 
ROOT
ATOM      1  C   UNL d   1       1.757   1.322  -0.162  0.00  0.00     0.271 C 
ENDROOT
BRANCH   1   2
ATOM      2  N   UNL d   1       0.545   0.601   0.148  0.00  0.00    -0.207 N 
ATOM      3  N   UNL d   1      -0.640   1.081  -0.279  0.00  0.00    -0.268 N 
ATOM      4  C   UNL d   1      -1.486   0.401   0.510  0.00  0.00     0.145 A 
ATOM      5  HN  UNL d   1      -0.839   1.772  -1.003  1.00  0.00     0.190 HD
ATOM      6  N   UNL d   1      -0.839  -0.482   1.338  0.00  0.00    -0.266 N 
ATOM      7  N   UNL d   1       0.461  -0.335   1.113  0.00  0.00    -0.002 NA
ATOM      8  HN  UNL d   1      -1.273  -1.126   1.999  1.00  0.00     0.186 HD
BRANCH   4   9
ATOM      9  C   UNL d   1      -2.900   0.736   0.622  0.00  0.00     0.025 A 
ATOM     10  C   UNL d   1      -3.931  -0.207   0.779  0.00  0.00     0.061 A 
ATOM     11  C   UNL d   1      -5.252   0.266   0.969  0.00  0.00     0.017 A 
ATOM     12  C   UNL d   1      -5.549   1.627   0.971  0.00  0.00     0.001 A 
ATOM     13  C   UNL d   1      -4.537   2.553   0.778  0.00  0.00     0.001 A 
ATOM     14  C   UNL d   1      -3.228   2.111   0.605  0.00  0.00     0.016 A 
BRANCH  10  15
ATOM     15  C   UNL d   1      -3.730  -1.701   0.757  0.00  0.00     0.418 C 
ATOM     16  F   UNL d   1      -2.558  -2.127   0.216  0.00  0.00    -0.166 F 
ATOM     17  F   UNL d   1      -3.805  -2.253   1.998  0.00  0.00    -0.166 F 
ATOM     18  F   UNL d   1      -4.698  -2.328   0.022  0.00  0.00    -0.166 F 
ENDBRANCH  10  15
ENDBRANCH   4   9
ENDBRANCH   1   2
BRANCH   1  19
ATOM     19  C   UNL d   1       3.040   0.546  -0.135  0.00  0.00     0.257 C 
ATOM     20  N   UNL d   1       3.130  -0.707  -0.666  0.00  0.00    -0.266 N 
ATOM     21  H   UNL d   1       4.058  -1.121  -0.726  0.00  0.00     0.190 HD
ATOM     22  O   UNL d   1       4.077   1.080   0.275  0.00  0.00    -0.270 OA
BRANCH  20  23
ATOM     23  N   UNL d   1       2.051  -1.453  -1.162  0.00  0.00    -0.273 N 
ATOM     24  H   UNL d   1       1.553  -1.974  -0.435  0.00  0.00     0.189 HD
BRANCH  23  25
ATOM     25  C   UNL d   1       2.242  -2.152  -2.349  0.00  0.00     0.191 C 
ATOM     26  S   UNL d   1       3.247  -1.629  -3.588  0.00  0.00    -0.039 SA
BRANCH  25  27
ATOM     27  N   UNL d   1       1.481  -3.307  -2.377  0.00  0.00    -0.330 N 
ATOM     28  H   UNL d   1       0.478  -3.203  -2.240  0.00  0.00     0.168 HD
BRANCH  27  29
ATOM     29  C   UNL d   1       1.925  -4.584  -2.792  0.00  0.00     0.073 A 
ATOM     30  C   UNL d   1       0.980  -5.540  -3.172  0.00  0.00     0.143 A 
ATOM     31  F   UNL d   1      -0.324  -5.222  -3.177  0.00  0.00    -0.204 F 
ATOM     32  C   UNL d   1       1.368  -6.820  -3.561  0.00  0.00     0.044 A 
ATOM     33  C   UNL d   1       2.721  -7.166  -3.542  0.00  0.00     0.003 A 
ATOM     34  C   UNL d   1       3.670  -6.237  -3.128  0.00  0.00     0.002 A 
ATOM     35  C   UNL d   1       3.275  -4.951  -2.753  0.00  0.00     0.033 A 
ENDBRANCH  27  29
ENDBRANCH  25  27
ENDBRANCH  23  25
ENDBRANCH  20  23
ENDBRANCH   1  19
TORSDOF 8
