REMARK  3 active torsions:
REMARK  status: ('A' for Active; 'I' for Inactive)
REMARK    1  A    between atoms: N_5  and  C_3 
REMARK    2  A    between atoms: N_11  and  C_4 
REMARK    3  A    between atoms: C_16  and  N_11 
ROOT
ATOM      1  N   UNL d   1      -0.617  -1.216   0.140  0.00  0.00    -0.021 N 
ATOM      2  HN  UNL d   1      -1.083  -2.108   0.308  1.00  0.00     0.203 HD
ATOM      3  C   UNL d   1      -1.302  -0.082  -0.031  0.00  0.00     0.703 A 
ATOM      4  C   UNL d   1       0.704  -1.116   0.077  0.00  0.00     0.698 A 
ATOM      5  N   UNL d   1      -0.746   1.123  -0.182  0.00  0.00    -0.186 N 
ATOM      6  HN  UNL d   1      -1.292   1.978  -0.288  1.00  0.00     0.185 HD
ATOM      7  N   UNL d   1       1.356   0.032  -0.086  0.00  0.00    -0.187 N 
ATOM      8  HN  UNL d   1       2.373   0.083  -0.132  1.00  0.00     0.185 HD
ATOM      9  C   UNL d   1       0.581   1.109  -0.184  0.00  0.00     0.215 A 
ENDROOT
BRANCH   4  10
ATOM     10  N   UNL d   1       1.478  -2.277   0.103  0.00  0.00    -0.191 N 
ATOM     11  H   UNL d   1       2.457  -2.043   0.007  0.00  0.00     0.184 HD
BRANCH  10  12
ATOM     12  C   UNL d   1       1.225  -3.476   0.786  0.00  0.00     0.049 A 
ATOM     13  C   UNL d   1       1.743  -4.672   0.268  0.00  0.00     0.033 A 
ATOM     14  C   UNL d   1       1.522  -5.888   0.920  0.00  0.00     0.044 A 
ATOM     15  C   UNL d   1       0.802  -5.906   2.107  0.00  0.00     0.116 A 
ATOM     16  C   UNL d   1       0.288  -4.735   2.646  0.00  0.00     0.044 A 
ATOM     17  F   UNL d   1       0.602  -7.069   2.741  0.00  0.00    -0.206 F 
ATOM     18  C   UNL d   1       0.492  -3.523   1.981  0.00  0.00     0.033 A 
ENDBRANCH  10  12
ENDBRANCH   4  10
BRANCH   3  19
ATOM     19  N   UNL d   1      -2.725  -0.186  -0.099  0.00  0.00    -0.168 N 
ATOM     20  C   UNL d   1      -3.463  -1.343   0.069  0.00  0.00     0.114 A 
ATOM     21  C   UNL d   1      -4.798  -1.049  -0.100  0.00  0.00     0.020 A 
ATOM     22  C   UNL d   1      -4.889   0.332  -0.389  0.00  0.00     0.020 A 
ATOM     23  C   UNL d   1      -3.608   0.840  -0.374  0.00  0.00     0.114 A 
ENDBRANCH   3  19
TORSDOF 3
