REMARK  7 active torsions:
REMARK  status: ('A' for Active; 'I' for Inactive)
REMARK    1  A    between atoms: C_2  and  S_1 
REMARK    2  A    between atoms: C_5  and  S_1 
REMARK    3  A    between atoms: C_4  and  C_2 
REMARK    4  A    between atoms: N_8  and  C_3 
REMARK    5  A    between atoms: O_13  and  C_4 
REMARK    6  A    between atoms: C_12  and  N_8 
REMARK    7  A    between atoms: C_24  and  O_13 
ROOT
ATOM      1  C   UNL d   1       0.553  -1.571  -0.722  0.00  0.00     0.154 C 
ATOM      2  C   UNL d   1      -0.169  -2.382   0.075  0.00  0.00     0.118 C 
ENDROOT
BRANCH   1   3
ATOM      3  S   UNL d   1       0.841  -2.071  -2.358  0.00  0.00     0.214 S 
ATOM      4  O   UNL d   1       0.159  -1.177  -3.278  0.00  0.00    -0.217 OA
ATOM      5  O   UNL d   1       0.619  -3.503  -2.482  0.00  0.00    -0.217 OA
BRANCH   3   6
ATOM      6  C   UNL d   1       2.601  -1.851  -2.613  0.00  0.00     0.064 A 
ATOM      7  C   UNL d   1       3.472  -2.913  -2.341  0.00  0.00     0.025 A 
ATOM      8  C   UNL d   1       4.837  -2.772  -2.611  0.00  0.00     0.025 A 
ATOM      9  C   UNL d   1       5.321  -1.579  -3.150  0.00  0.00     0.034 A 
ATOM     10  C   UNL d   1       4.451  -0.526  -3.434  0.00  0.00     0.025 A 
ATOM     11 CL   UNL d   1       7.000  -1.412  -3.482  0.00  0.00    -0.084 Cl
ATOM     12  C   UNL d   1       3.084  -0.667  -3.183  0.00  0.00     0.025 A 
ENDBRANCH   3   6
ENDBRANCH   1   3
BRANCH   1  13
ATOM     13  C   UNL d   1       1.092  -0.266  -0.315  0.00  0.00     0.306 C 
ATOM     14  O   UNL d   1       1.420   0.621  -1.084  0.00  0.00    -0.258 OA
BRANCH  13  15
ATOM     15  O   UNL d   1       1.295  -0.235   1.029  0.00  0.00    -0.317 OA
BRANCH  15  16
ATOM     16  C   UNL d   1       2.225   0.754   1.494  0.00  0.00     0.174 C 
ATOM     17  C   UNL d   1       3.625   0.174   1.400  0.00  0.00     0.034 C 
ENDBRANCH  15  16
ENDBRANCH  13  15
ENDBRANCH   1  13
BRANCH   2  18
ATOM     18  N   UNL d   1      -0.621  -2.170   1.359  0.00  0.00    -0.364 N 
ATOM     19  H   UNL d   1      -0.421  -1.257   1.765  0.00  0.00     0.165 HD
BRANCH  18  20
ATOM     20  C   UNL d   1      -1.126  -3.115   2.268  0.00  0.00     0.032 A 
ATOM     21  C   UNL d   1      -0.839  -4.484   2.181  0.00  0.00     0.032 A 
ATOM     22  C   UNL d   1      -1.393  -5.390   3.092  0.00  0.00     0.044 A 
ATOM     23  C   UNL d   1      -2.265  -4.933   4.070  0.00  0.00     0.116 A 
ATOM     24  C   UNL d   1      -2.590  -3.586   4.159  0.00  0.00     0.044 A 
ATOM     25  F   UNL d   1      -2.804  -5.801   4.935  0.00  0.00    -0.206 F 
ATOM     26  C   UNL d   1      -2.018  -2.681   3.261  0.00  0.00     0.032 A 
ENDBRANCH  18  20
ENDBRANCH   2  18
TORSDOF 7
