REMARK  12 active torsions:
REMARK  status: ('A' for Active; 'I' for Inactive)
REMARK    1  A    between atoms: N_2  and  C_1 
REMARK    2  A    between atoms: N_9  and  C_1 
REMARK    3  A    between atoms: C_7  and  N_2 
REMARK    4  A    between atoms: C_16  and  N_2 
REMARK    5  A    between atoms: N_3  and  C_4 
REMARK       I    between atoms: C_5  and  N_3 
REMARK    6  A    between atoms: C_13  and  C_7 
REMARK    7  A    between atoms: C_8  and  C_18 
REMARK    8  A    between atoms: C_15  and  N_9 
REMARK    9  A    between atoms: C_10  and  O_14 
REMARK   10  A    between atoms: O_14  and  C_17 
REMARK   11  A    between atoms: C_18  and  C_15 
REMARK   12  A    between atoms: C_17  and  C_16 
ROOT
ATOM      1  N   UNL d   1       0.388  -0.859   0.534  0.00  0.00    -0.352 N 
ENDROOT
BRANCH   1   2
ATOM      2  C   UNL d   1       1.194   0.089  -0.147  0.00  0.00     0.170 C 
ATOM      3  S   UNL d   1       0.638   1.464  -0.962  0.00  0.00    -0.041 SA
BRANCH   2   4
ATOM      4  N   UNL d   1       2.541  -0.205  -0.146  0.00  0.00    -0.367 N 
ATOM      5  H   UNL d   1       2.859  -0.361   0.805  0.00  0.00     0.161 HD
BRANCH   4   6
ATOM      6  C   UNL d   1       3.540   0.476  -0.959  0.00  0.00     0.126 C 
BRANCH   6   7
ATOM      7  C   UNL d   1       4.876  -0.268  -1.029  0.00  0.00     0.053 C 
BRANCH   7   8
ATOM      8  C   UNL d   1       5.814   0.416  -2.005  0.00  0.00    -0.082 C 
ATOM      9  C   UNL d   1       6.975   0.974  -1.615  0.00  0.00    -0.024 C 
ATOM     10  C   UNL d   1       7.884   1.733  -2.541  0.00  0.00     0.027 C 
ATOM     11  C   UNL d   1       7.235   2.073  -3.884  0.00  0.00     0.004 C 
ATOM     12  C   UNL d   1       6.456   0.882  -4.429  0.00  0.00     0.005 C 
ATOM     13  C   UNL d   1       5.360   0.463  -3.450  0.00  0.00     0.034 C 
ENDBRANCH   7   8
ENDBRANCH   6   7
ENDBRANCH   4   6
ENDBRANCH   2   4
ENDBRANCH   1   2
BRANCH   1  14
ATOM     14  C   UNL d   1      -1.075  -0.627   0.648  0.00  0.00     0.164 C 
BRANCH  14  15
ATOM     15  C   UNL d   1      -1.827  -0.629  -0.665  0.00  0.00    -0.040 A 
ATOM     16  C   UNL d   1      -1.632  -1.640  -1.615  0.00  0.00     0.009 A 
ATOM     17  C   UNL d   1      -2.179  -1.514  -2.893  0.00  0.00     0.001 A 
ATOM     18  C   UNL d   1      -2.934  -0.388  -3.224  0.00  0.00     0.000 A 
ATOM     19  C   UNL d   1      -3.189   0.588  -2.264  0.00  0.00     0.001 A 
ATOM     20  C   UNL d   1      -2.661   0.456  -0.982  0.00  0.00     0.009 A 
ENDBRANCH  14  15
ENDBRANCH   1  14
BRANCH   1  21
ATOM     21  C   UNL d   1       0.849  -1.853   1.541  0.00  0.00     0.152 C 
BRANCH  21  22
ATOM     22  C   UNL d   1       2.286  -2.389   1.623  0.00  0.00     0.195 C 
BRANCH  22  23
ATOM     23  O   UNL d   1       3.158  -1.352   2.098  0.00  0.00    -0.347 OA
BRANCH  23  24
ATOM     24  C   UNL d   1       3.990  -1.592   3.146  0.00  0.00     0.095 A 
ATOM     25  C   UNL d   1       4.411  -0.502   3.940  0.00  0.00     0.068 A 
ATOM     26  C   UNL d   1       5.378  -0.727   4.937  0.00  0.00     0.032 A 
ATOM     27  C   UNL d   1       5.906  -2.000   5.158  0.00  0.00     0.002 A 
ATOM     28  C   UNL d   1       5.501  -3.059   4.365  0.00  0.00     0.003 A 
ATOM     29  C   UNL d   1       4.566  -2.857   3.353  0.00  0.00     0.039 A 
BRANCH  25  30
ATOM     30  N   UNL d   1       3.995   0.847   3.810  0.00  0.00    -0.325 N 
ATOM     31  C   UNL d   1       2.820   1.343   3.277  0.00  0.00     0.218 C 
ATOM     32  O   UNL d   1       1.833   0.705   2.939  0.00  0.00    -0.274 OA
ATOM     33  C   UNL d   1       2.820   2.851   3.214  0.00  0.00     0.117 C 
ATOM     34  H   UNL d   1       4.550   1.524   4.317  0.00  0.00     0.169 HD
ENDBRANCH  25  30
ENDBRANCH  23  24
ENDBRANCH  22  23
ENDBRANCH  21  22
ENDBRANCH   1  21
TORSDOF 12
