REMARK  2 active torsions:
REMARK  status: ('A' for Active; 'I' for Inactive)
REMARK    1  A    between atoms: C_12  and  C_3 
REMARK    2  A    between atoms: O_16  and  C_12 
ROOT
ATOM      1  N   UNL d   1      -0.222  -0.703  -0.001  0.00  0.00    -0.240 N 
ATOM      2  C   UNL d   1      -0.151   0.682  -0.002  0.00  0.00     0.143 A 
ATOM      3  C   UNL d   1       2.107  -0.763  -0.010  0.00  0.00     0.146 A 
ATOM      4  C   UNL d   1       0.951  -1.468  -0.003  0.00  0.00     0.067 A 
ATOM      5  N   UNL d   1       2.115   0.630  -0.011  0.00  0.00    -0.291 N 
ATOM      6  HN  UNL d   1       3.012   1.116  -0.016  1.00  0.00     0.187 HD
ATOM      7  N   UNL d   1       1.056   1.309  -0.007  0.00  0.00    -0.283 N 
ATOM      8  HN  UNL d   1       1.102   2.328  -0.007  1.00  0.00     0.188 HD
ATOM      9  N   UNL d   1      -1.515  -1.128   0.003  0.00  0.00    -0.297 N 
ATOM     10  HN  UNL d   1      -1.850  -2.091   0.004  1.00  0.00     0.187 HD
ATOM     11  C   UNL d   1      -1.445   1.145   0.001  0.00  0.00     0.077 A 
ATOM     12  C   UNL d   1      -2.250  -0.011   0.003  0.00  0.00     0.026 A 
ATOM     13  C   UNL d   1       0.763  -2.957   0.001  0.00  0.00     0.073 C 
ATOM     14  C   UNL d   1      -3.733  -0.078   0.004  0.00  0.00     0.070 C 
ENDROOT
BRANCH   3  15
ATOM     15  C   UNL d   1       3.466  -1.405  -0.019  0.00  0.00     0.197 C 
ATOM     16  O   UNL d   1       3.701  -2.601  -0.019  0.00  0.00    -0.645 OA
BRANCH  15  17
ATOM     17  O   UNL d   1       4.461  -0.484  -0.029  0.00  0.00    -0.772 OA
ATOM     18  H   UNL d   1       4.123   0.435  -0.030  0.00  0.00     0.167 HD
ENDBRANCH  15  17
ENDBRANCH   3  15
TORSDOF 2
