REMARK  6 active torsions:
REMARK  status: ('A' for Active; 'I' for Inactive)
REMARK    1  A    between atoms: S_9  and  C_3 
REMARK       I    between atoms: C_4  and  N_5 
REMARK    2  A    between atoms: C_6  and  C_4 
REMARK    3  A    between atoms: N_5  and  C_7 
REMARK    4  A    between atoms: S_11  and  C_8 
REMARK    5  A    between atoms: C_18  and  S_9 
REMARK    6  A    between atoms: C_19  and  S_11 
ROOT
ATOM      1  N   UNL d   1      -1.348   0.012  -0.025  0.00  0.00    -0.343 N 
ATOM      2  HN  UNL d   1      -2.365   0.037  -0.091  1.00  0.00     0.167 HD
ATOM      3  C   UNL d   1      -0.626   1.154   0.082  0.00  0.00     0.102 A 
ATOM      4  C   UNL d   1       0.773   1.173   0.178  0.00  0.00     0.069 A 
ATOM      5  C   UNL d   1      -0.677  -1.161  -0.042  0.00  0.00     0.075 A 
ATOM      6  C   UNL d   1       1.433  -0.056   0.184  0.00  0.00     0.035 A 
ATOM      7  C   UNL d   1       0.702  -1.237   0.080  0.00  0.00     0.039 A 
ENDROOT
BRANCH   4   8
ATOM      8  N   UNL d   1       1.482   2.390   0.301  0.00  0.00    -0.320 N 
ATOM      9  C   UNL d   1       2.758   2.611  -0.189  0.00  0.00     0.263 C 
ATOM     10  O   UNL d   1       3.332   1.811  -0.929  0.00  0.00    -0.267 OA
ATOM     11  H   UNL d   1       0.953   3.211   0.578  0.00  0.00     0.169 HD
BRANCH   9  12
ATOM     12  C   UNL d   1       3.376   3.876   0.182  0.00  0.00     0.072 A 
ATOM     13  S   UNL d   1       2.797   4.844   1.472  0.00  0.00    -0.097 SA
ATOM     14  C   UNL d   1       4.104   5.939   1.327  0.00  0.00     0.050 A 
ATOM     15  C   UNL d   1       4.940   5.610   0.284  0.00  0.00     0.009 A 
ATOM     16  C   UNL d   1       4.513   4.427  -0.382  0.00  0.00     0.025 A 
ENDBRANCH   9  12
ENDBRANCH   4   8
BRANCH   3  17
ATOM     17  S   UNL d   1      -1.578   2.662   0.056  0.00  0.00    -0.070 SA
BRANCH  17  18
ATOM     18  C   UNL d   1      -1.682   3.105  -1.675  0.00  0.00     0.007 A 
ATOM     19  C   UNL d   1      -1.002   2.456  -2.714  0.00  0.00     0.019 A 
ATOM     20  C   UNL d   1      -1.121   2.906  -4.035  0.00  0.00     0.001 A 
ATOM     21  C   UNL d   1      -1.922   4.003  -4.337  0.00  0.00     0.000 A 
ATOM     22  C   UNL d   1      -2.611   4.652  -3.317  0.00  0.00     0.001 A 
ATOM     23  C   UNL d   1      -2.492   4.207  -1.999  0.00  0.00     0.019 A 
ENDBRANCH  17  18
ENDBRANCH   3  17
BRANCH   5  24
ATOM     24  S   UNL d   1      -1.626  -2.668  -0.141  0.00  0.00    -0.073 SA
BRANCH  24  25
ATOM     25  C   UNL d   1      -2.451  -2.505  -1.717  0.00  0.00     0.007 A 
ATOM     26  C   UNL d   1      -2.240  -3.471  -2.704  0.00  0.00     0.019 A 
ATOM     27  C   UNL d   1      -2.916  -3.397  -3.925  0.00  0.00     0.001 A 
ATOM     28  C   UNL d   1      -3.809  -2.358  -4.165  0.00  0.00     0.000 A 
ATOM     29  C   UNL d   1      -4.037  -1.395  -3.183  0.00  0.00     0.001 A 
ATOM     30  C   UNL d   1      -3.365  -1.472  -1.960  0.00  0.00     0.019 A 
ENDBRANCH  24  25
ENDBRANCH   5  24
TORSDOF 6
