REMARK  2 active torsions:
REMARK  status: ('A' for Active; 'I' for Inactive)
REMARK    1  A    between atoms: C_4  and  N_1 
REMARK    2  A    between atoms: C_14  and  C_8 
ROOT
ATOM      1  N   UNL d   1       0.002  -0.980  -0.105  0.00  0.00    -0.252 N 
ATOM      2  C   UNL d   1       1.249  -0.340  -0.097  0.00  0.00     0.231 C 
ATOM      3  C   UNL d   1      -1.237  -0.335   0.030  0.00  0.00     0.231 C 
ATOM      4  C   UNL d   1       1.260   1.148   0.141  0.00  0.00     0.113 C 
ATOM      5  C   UNL d   1      -1.200   1.122   0.402  0.00  0.00     0.113 C 
ATOM      6  C   UNL d   1      -0.035   1.831  -0.266  0.00  0.00     0.036 C 
ATOM      7  O   UNL d   1      -2.329  -0.889  -0.113  0.00  0.00    -0.273 OA
ATOM      8  O   UNL d   1       2.335  -0.923  -0.165  0.00  0.00    -0.273 OA
ENDROOT
BRANCH   1   9
ATOM      9  C   UNL d   1      -0.008  -2.406  -0.272  0.00  0.00     0.046 A 
ATOM     10  C   UNL d   1      -0.717  -3.217   0.623  0.00  0.00     0.054 A 
ATOM     11  C   UNL d   1      -0.687  -4.609   0.493  0.00  0.00     0.042 A 
ATOM     12 CL   UNL d   1      -1.528  -5.546   1.678  0.00  0.00    -0.084 Cl
ATOM     13  C   UNL d   1       0.021  -5.217  -0.553  0.00  0.00    -0.040 A 
ATOM     14  C   UNL d   1       0.711  -4.400  -1.459  0.00  0.00     0.011 A 
ATOM     15  C   UNL d   1       0.062  -6.709  -0.725  0.00  0.00     0.050 C 
ATOM     16  C   UNL d   1       0.711  -3.011  -1.310  0.00  0.00     0.031 A 
ENDBRANCH   1   9
BRANCH   6  17
ATOM     17  C   UNL d   1       0.014   3.304   0.097  0.00  0.00    -0.053 A 
ATOM     18  C   UNL d   1       0.110   3.729   1.433  0.00  0.00     0.007 A 
ATOM     19  C   UNL d   1       0.207   5.081   1.751  0.00  0.00     0.001 A 
ATOM     20  C   UNL d   1       0.201   6.037   0.736  0.00  0.00     0.000 A 
ATOM     21  C   UNL d   1       0.092   5.633  -0.591  0.00  0.00     0.001 A 
ATOM     22  C   UNL d   1      -0.004   4.277  -0.913  0.00  0.00     0.007 A 
ENDBRANCH   6  17
TORSDOF 2
