REMARK  5 active torsions:
REMARK  status: ('A' for Active; 'I' for Inactive)
REMARK    1  A    between atoms: N_4  and  C_1 
REMARK    2  A    between atoms: N_5  and  C_2 
REMARK    3  A    between atoms: S_10  and  C_3 
REMARK    4  A    between atoms: C_6  and  C_7 
REMARK    5  A    between atoms: C_18  and  S_10 
ROOT
ATOM      1  C   UNL d   1       1.372  -0.173  -0.142  0.00  0.00     0.123 A 
ATOM      2  C   UNL d   1      -0.787  -1.149   0.007  0.00  0.00     0.123 A 
ATOM      3  C   UNL d   1       0.599  -1.348  -0.126  0.00  0.00     0.071 A 
ATOM      4  C   UNL d   1      -0.567   1.279   0.125  0.00  0.00     0.052 A 
ATOM      5  C   UNL d   1      -1.370   0.132   0.134  0.00  0.00     0.053 A 
ATOM      6  C   UNL d   1       0.816   1.117  -0.032  0.00  0.00     0.053 A 
ENDROOT
BRANCH   3   7
ATOM      7  S   UNL d   1       1.347  -2.972  -0.092  0.00  0.00    -0.086 SA
BRANCH   7   8
ATOM      8  C   UNL d   1       1.305  -3.549  -1.778  0.00  0.00     0.005 A 
ATOM      9  C   UNL d   1       1.509  -2.726  -2.890  0.00  0.00     0.020 A 
ATOM     10  C   UNL d   1       1.521  -3.268  -4.182  0.00  0.00     0.025 A 
ATOM     11  C   UNL d   1       1.344  -4.637  -4.366  0.00  0.00     0.034 A 
ATOM     12  C   UNL d   1       1.151  -5.471  -3.269  0.00  0.00     0.025 A 
ATOM     13 CL   UNL d   1       1.377  -5.301  -5.952  0.00  0.00    -0.084 Cl
ATOM     14  C   UNL d   1       1.135  -4.928  -1.982  0.00  0.00     0.020 A 
ENDBRANCH   7   8
ENDBRANCH   3   7
BRANCH   2  15
ATOM     15  N   UNL d   1      -1.706  -2.272   0.045  0.00  0.00    -0.114 N 
ATOM     16  O   UNL d   1      -1.842  -2.924  -0.996  0.00  0.00    -0.532 OA
ATOM     17  O   UNL d   1      -2.337  -2.437   1.096  0.00  0.00    -0.532 OA
ENDBRANCH   2  15
BRANCH   1  18
ATOM     18  N   UNL d   1       2.815  -0.231  -0.287  0.00  0.00    -0.114 N 
ATOM     19  O   UNL d   1       3.467  -0.627   0.685  0.00  0.00    -0.532 OA
ATOM     20  O   UNL d   1       3.274   0.187  -1.357  0.00  0.00    -0.532 OA
ENDBRANCH   1  18
BRANCH   4  21
ATOM     21  C   UNL d   1      -1.155   2.663   0.301  0.00  0.00     0.417 C 
ATOM     22  F   UNL d   1      -2.508   2.659   0.430  0.00  0.00    -0.166 F 
ATOM     23  F   UNL d   1      -0.667   3.285   1.406  0.00  0.00    -0.166 F 
ATOM     24  F   UNL d   1      -0.873   3.475  -0.751  0.00  0.00    -0.166 F 
ENDBRANCH   4  21
TORSDOF 5
