REMARK  5 active torsions:
REMARK  status: ('A' for Active; 'I' for Inactive)
REMARK    1  A    between atoms: C_7  and  C_1 
REMARK    2  A    between atoms: C_3  and  C_2 
REMARK       I    between atoms: N_10  and  C_3 
REMARK    3  A    between atoms: C_6  and  C_8 
REMARK       I    between atoms: N_13  and  C_6 
REMARK    4  A    between atoms: C_9  and  N_10 
REMARK    5  A    between atoms: C_19  and  N_13 
ROOT
ATOM      1  C   UNL d   1      -0.017  -4.109   1.625  0.00  0.00     0.261 C 
ATOM      2  N   UNL d   1      -0.571  -3.321   0.630  0.00  0.00    -0.322 N 
ATOM      3  O   UNL d   1      -0.271  -5.288   1.832  0.00  0.00    -0.267 OA
ATOM      4  H   UNL d   1      -0.000  -2.538   0.297  0.00  0.00     0.169 HD
ENDROOT
BRANCH   2   5
ATOM      5  C   UNL d   1      -1.770  -3.547  -0.088  0.00  0.00     0.053 A 
ATOM      6  C   UNL d   1      -2.054  -2.820  -1.272  0.00  0.00     0.097 A 
ATOM      7  C   UNL d   1      -3.315  -2.985  -1.868  0.00  0.00     0.134 A 
ATOM      8  F   UNL d   1      -3.655  -2.304  -2.975  0.00  0.00    -0.205 F 
ATOM      9  C   UNL d   1      -4.268  -3.854  -1.345  0.00  0.00     0.043 A 
ATOM     10  C   UNL d   1      -3.973  -4.589  -0.207  0.00  0.00     0.005 A 
ATOM     11  C   UNL d   1      -2.735  -4.432   0.419  0.00  0.00     0.031 A 
BRANCH   6  12
ATOM     12  C   UNL d   1      -1.002  -1.973  -1.934  0.00  0.00     0.261 C 
ATOM     13  N   UNL d   1      -1.295  -1.501  -3.203  0.00  0.00    -0.323 N 
ATOM     14  H   UNL d   1      -2.269  -1.525  -3.492  0.00  0.00     0.169 HD
ATOM     15  O   UNL d   1       0.051  -1.756  -1.333  0.00  0.00    -0.267 OA
BRANCH  13  16
ATOM     16  C   UNL d   1      -0.391  -1.090  -4.202  0.00  0.00     0.035 A 
ATOM     17  C   UNL d   1       0.993  -1.255  -4.108  0.00  0.00     0.032 A 
ATOM     18  C   UNL d   1       1.814  -0.944  -5.198  0.00  0.00     0.044 A 
ATOM     19  C   UNL d   1       1.251  -0.452  -6.370  0.00  0.00     0.116 A 
ATOM     20  C   UNL d   1      -0.119  -0.257  -6.472  0.00  0.00     0.044 A 
ATOM     21  F   UNL d   1       2.038  -0.175  -7.418  0.00  0.00    -0.206 F 
ATOM     22  C   UNL d   1      -0.941  -0.580  -5.389  0.00  0.00     0.032 A 
ENDBRANCH  13  16
ENDBRANCH   6  12
ENDBRANCH   2   5
BRANCH   1  23
ATOM     23  C   UNL d   1       0.926  -3.382   2.445  0.00  0.00     0.093 A 
ATOM     24  C   UNL d   1       2.302  -3.621   2.746  0.00  0.00     0.086 A 
ATOM     25  N   UNL d   1       2.766  -2.644   3.547  0.00  0.00    -0.259 N 
ATOM     26  O   UNL d   1       1.691  -1.852   3.874  0.00  0.00    -0.241 OA
ATOM     27  HN  UNL d   1       3.731  -2.516   3.853  1.00  0.00     0.195 HD
ATOM     28  C   UNL d   1       0.587  -2.300   3.231  0.00  0.00     0.090 A 
ATOM     29  C   UNL d   1      -0.674  -1.600   3.545  0.00  0.00     0.080 C 
BRANCH  24  30
ATOM     30  C   UNL d   1       3.197  -4.700   2.309  0.00  0.00     0.037 A 
ATOM     31  C   UNL d   1       3.345  -5.039   0.950  0.00  0.00     0.048 A 
ATOM     32 CL   UNL d   1       2.596  -4.154  -0.338  0.00  0.00    -0.083 Cl
ATOM     33  C   UNL d   1       4.181  -6.093   0.552  0.00  0.00     0.025 A 
ATOM     34  C   UNL d   1       4.927  -6.798   1.490  0.00  0.00     0.003 A 
ATOM     35  C   UNL d   1       4.834  -6.454   2.832  0.00  0.00     0.025 A 
ATOM     36  C   UNL d   1       3.969  -5.428   3.245  0.00  0.00     0.048 A 
ATOM     37 CL   UNL d   1       3.909  -5.152   4.958  0.00  0.00    -0.083 Cl
ENDBRANCH  24  30
ENDBRANCH   1  23
TORSDOF 5
