REMARK  2 active torsions:
REMARK  status: ('A' for Active; 'I' for Inactive)
REMARK    1  A    between atoms: N_8  and  N_5 
REMARK    2  A    between atoms: C_9  and  N_8 
ROOT
ATOM      1  C   UNL d   1       1.379   0.947   0.048  0.00  0.00     0.129 A 
ATOM      2  C   UNL d   1      -0.039   0.371   0.003  0.00  0.00     0.275 A 
ATOM      3  C   UNL d   1       2.279  -0.196  -0.013  0.00  0.00     0.027 A 
ATOM      4  N   UNL d   1       0.125  -0.996  -0.094  0.00  0.00    -0.321 N 
ATOM      5  N   UNL d   1       1.765   2.179   0.115  0.00  0.00    -0.294 N 
ATOM      6  HN  UNL d   1       2.755   2.424   0.131  1.00  0.00     0.187 HD
ATOM      7  C   UNL d   1       1.476  -1.333  -0.102  0.00  0.00     0.048 A 
ATOM      8  C   UNL d   1       3.656  -0.252   0.004  0.00  0.00     0.058 A 
ATOM      9  O   UNL d   1      -1.063   1.018   0.046  0.00  0.00    -0.266 OA
ATOM     10  C   UNL d   1       2.030  -2.593  -0.182  0.00  0.00     0.033 A 
ATOM     11  C   UNL d   1       4.221  -1.520  -0.074  0.00  0.00     0.117 A 
ATOM     12  C   UNL d   1       3.428  -2.679  -0.167  0.00  0.00     0.044 A 
ATOM     13  F   UNL d   1       5.554  -1.644  -0.060  0.00  0.00    -0.206 F 
ATOM     14  H   UNL d   1      -0.651  -1.641  -0.143  0.00  0.00     0.169 HD
ENDROOT
BRANCH   5  15
ATOM     15  N   UNL d   1       0.805   3.128   0.162  0.00  0.00    -0.299 N 
ATOM     16  H   UNL d   1      -0.199   2.911   0.180  0.00  0.00     0.187 HD
BRANCH  15  17
ATOM     17  C   UNL d   1       1.170   4.488   0.160  0.00  0.00     0.070 A 
ATOM     18  C   UNL d   1       0.202   5.508   0.209  0.00  0.00     0.063 A 
ATOM     19  C   UNL d   1       0.569   6.858   0.208  0.00  0.00     0.050 A 
ATOM     20 CL   UNL d   1      -1.485   5.125   0.272  0.00  0.00    -0.082 Cl
ATOM     21  C   UNL d   1       1.916   7.204   0.158  0.00  0.00     0.035 A 
ATOM     22  C   UNL d   1       2.895   6.218   0.111  0.00  0.00     0.026 A 
ATOM     23 CL   UNL d   1       2.377   8.861   0.154  0.00  0.00    -0.084 Cl
ATOM     24  C   UNL d   1       2.522   4.872   0.113  0.00  0.00     0.034 A 
ENDBRANCH  15  17
ENDBRANCH   5  15
TORSDOF 2
