REMARK  7 active torsions:
REMARK  status: ('A' for Active; 'I' for Inactive)
REMARK    1  A    between atoms: C_11  and  N_1 
REMARK    2  A    between atoms: C_13  and  C_5 
REMARK    3  A    between atoms: C_8  and  C_11 
REMARK    4  A    between atoms: C_16  and  C_9 
REMARK    5  A    between atoms: C_17  and  C_13 
REMARK    6  A    between atoms: O_27  and  C_17 
REMARK    7  A    between atoms: C_30  and  O_27 
ROOT
ATOM      1  N   UNL d   1       2.394  -0.646   0.009  0.00  0.00    -0.251 N 
ATOM      2  N   UNL d   1       2.393   0.731   0.006  0.00  0.00    -0.298 N 
ATOM      3  HN  UNL d   1       3.273   1.247  -0.002  1.00  0.00     0.187 HD
ATOM      4  C   UNL d   1       1.246  -1.429   0.058  0.00  0.00     0.273 A 
ATOM      5  C   UNL d   1       1.260   1.368   0.013  0.00  0.00     0.046 A 
ATOM      6  C   UNL d   1      -0.041  -0.711   0.045  0.00  0.00     0.046 A 
ATOM      7  C   UNL d   1      -0.054   0.677  -0.017  0.00  0.00     0.004 A 
ATOM      8  O   UNL d   1       1.243  -2.658   0.060  0.00  0.00    -0.266 OA
ATOM      9  C   UNL d   1      -1.243  -1.434   0.046  0.00  0.00     0.018 A 
ATOM     10  C   UNL d   1      -1.284   1.346  -0.108  0.00  0.00     0.014 A 
ATOM     11  C   UNL d   1      -2.463  -0.763  -0.021  0.00  0.00     0.001 A 
ATOM     12  C   UNL d   1      -2.483   0.627  -0.101  0.00  0.00     0.001 A 
ENDROOT
BRANCH   1  13
ATOM     13  C   UNL d   1       3.700  -1.302  -0.063  0.00  0.00     0.217 C 
BRANCH  13  14
ATOM     14  C   UNL d   1       4.291  -1.467   1.306  0.00  0.00     0.071 A 
ATOM     15  N   UNL d   1       4.051  -2.480   2.115  0.00  0.00    -0.351 N 
ATOM     16  C   UNL d   1       4.744  -2.329   3.305  0.00  0.00     0.049 A 
ATOM     17  HN  UNL d   1       3.439  -3.266   1.895  1.00  0.00     0.166 HD
ATOM     18  C   UNL d   1       5.537  -1.201   3.368  0.00  0.00     0.081 A 
ATOM     19  S   UNL d   1       5.409  -0.305   1.911  0.00  0.00    -0.085 SA
BRANCH  16  20
ATOM     20  C   UNL d   1       4.572  -3.285   4.395  0.00  0.00    -0.007 A 
ATOM     21  C   UNL d   1       5.536  -3.458   5.398  0.00  0.00     0.039 A 
ATOM     22  C   UNL d   1       5.316  -4.357   6.450  0.00  0.00     0.056 A 
ATOM     23 CL   UNL d   1       6.548  -4.492   7.657  0.00  0.00    -0.083 Cl
ATOM     24  C   UNL d   1       4.132  -5.100   6.504  0.00  0.00     0.055 A 
ATOM     25  C   UNL d   1       3.174  -4.945   5.502  0.00  0.00     0.026 A 
ATOM     26 CL   UNL d   1       3.795  -6.218   7.777  0.00  0.00    -0.083 Cl
ATOM     27  C   UNL d   1       3.396  -4.047   4.454  0.00  0.00     0.015 A 
ENDBRANCH  16  20
ENDBRANCH  13  14
ENDBRANCH   1  13
BRANCH   5  28
ATOM     28  C   UNL d   1       1.329   2.885   0.006  0.00  0.00     0.170 C 
BRANCH  28  29
ATOM     29  C   UNL d   1       0.646   3.552   1.165  0.00  0.00     0.264 C 
ATOM     30  O   UNL d   1       0.058   2.963   2.062  0.00  0.00    -0.265 OA
BRANCH  29  31
ATOM     31  O   UNL d   1       0.664   4.904   1.003  0.00  0.00    -0.322 OA
BRANCH  31  32
ATOM     32  C   UNL d   1      -0.357   5.628   1.708  0.00  0.00     0.174 C 
ATOM     33  C   UNL d   1      -0.106   5.755   3.200  0.00  0.00     0.034 C 
ENDBRANCH  31  32
ENDBRANCH  29  31
ENDBRANCH  28  29
ENDBRANCH   5  28
TORSDOF 7
