REMARK  8 active torsions:
REMARK  status: ('A' for Active; 'I' for Inactive)
REMARK    1  A    between atoms: C_12  and  C_1 
REMARK    2  A    between atoms: C_11  and  C_2 
REMARK    3  A    between atoms: C_4  and  C_3 
REMARK    4  A    between atoms: C_10  and  C_5 
REMARK    5  A    between atoms: O_20  and  C_11 
REMARK    6  A    between atoms: O_19  and  C_12 
REMARK    7  A    between atoms: C_29  and  O_19 
REMARK    8  A    between atoms: C_28  and  O_20 
ROOT
ATOM      1  C   UNL d   1       1.273  -1.056   0.128  0.00  0.00     0.054 C 
ATOM      2  C   UNL d   1      -1.270  -1.086   0.121  0.00  0.00     0.054 C 
ATOM      3  C   UNL d   1       0.010  -1.892  -0.149  0.00  0.00     0.125 C 
ATOM      4  C   UNL d   1      -1.229   0.270   0.037  0.00  0.00     0.018 C 
ATOM      5  C   UNL d   1       1.215   0.295   0.033  0.00  0.00     0.018 C 
ATOM      6  N   UNL d   1      -0.014   0.903  -0.174  0.00  0.00    -0.362 N 
ATOM      7  C   UNL d   1      -2.427   1.176   0.147  0.00  0.00     0.069 C 
ATOM      8  C   UNL d   1       2.380   1.252   0.108  0.00  0.00     0.069 C 
ATOM      9  H   UNL d   1      -0.019   1.922  -0.136  0.00  0.00     0.165 HD
ENDROOT
BRANCH   3  10
ATOM     10  C   UNL d   1       0.001  -2.395  -1.583  0.00  0.00     0.067 A 
ATOM     11  O   UNL d   1       0.024  -3.743  -1.804  0.00  0.00    -0.313 OA
ATOM     12  C   UNL d   1       0.037  -3.929  -3.162  0.00  0.00     0.092 A 
ATOM     13  C   UNL d   1       0.004  -2.704  -3.798  0.00  0.00     0.041 A 
ATOM     14  C   UNL d   1      -0.021  -1.719  -2.791  0.00  0.00     0.036 A 
BRANCH  12  15
ATOM     15  C   UNL d   1       0.138  -5.298  -3.646  0.00  0.00     0.075 A 
ATOM     16  C   UNL d   1      -0.463  -6.374  -2.988  0.00  0.00     0.132 A 
ATOM     17  F   UNL d   1      -1.206  -6.181  -1.887  0.00  0.00    -0.205 F 
ATOM     18  C   UNL d   1      -0.342  -7.683  -3.469  0.00  0.00     0.043 A 
ATOM     19  C   UNL d   1       0.389  -7.941  -4.627  0.00  0.00     0.006 A 
ATOM     20  C   UNL d   1       0.983  -6.882  -5.308  0.00  0.00     0.043 A 
ATOM     21  C   UNL d   1       0.850  -5.581  -4.820  0.00  0.00     0.132 A 
ATOM     22  F   UNL d   1       1.442  -4.596  -5.514  0.00  0.00    -0.205 F 
ENDBRANCH  12  15
ENDBRANCH   3  10
BRANCH   2  23
ATOM     23  C   UNL d   1      -2.533  -1.815   0.413  0.00  0.00     0.292 C 
ATOM     24  O   UNL d   1      -3.615  -1.284   0.616  0.00  0.00    -0.259 OA
BRANCH  23  25
ATOM     25  O   UNL d   1      -2.320  -3.155   0.444  0.00  0.00    -0.318 OA
BRANCH  25  26
ATOM     26  C   UNL d   1      -3.475  -3.967   0.705  0.00  0.00     0.174 C 
ATOM     27  C   UNL d   1      -4.273  -4.180  -0.568  0.00  0.00     0.034 C 
ENDBRANCH  25  26
ENDBRANCH  23  25
ENDBRANCH   2  23
BRANCH   1  28
ATOM     28  C   UNL d   1       2.530  -1.762   0.475  0.00  0.00     0.292 C 
ATOM     29  O   UNL d   1       3.449  -1.270   1.111  0.00  0.00    -0.259 OA
BRANCH  28  30
ATOM     30  O   UNL d   1       2.534  -3.002  -0.063  0.00  0.00    -0.318 OA
BRANCH  30  31
ATOM     31  C   UNL d   1       3.828  -3.601  -0.227  0.00  0.00     0.174 C 
ATOM     32  C   UNL d   1       4.291  -3.288  -1.637  0.00  0.00     0.034 C 
ENDBRANCH  30  31
ENDBRANCH  28  30
ENDBRANCH   1  28
TORSDOF 8
