REMARK  6 active torsions:
REMARK  status: ('A' for Active; 'I' for Inactive)
REMARK    1  A    between atoms: C_2  and  C_1 
REMARK    2  A    between atoms: N_3  and  O_13 
REMARK    3  A    between atoms: C_7  and  C_11 
REMARK    4  A    between atoms: O_13  and  C_8 
REMARK    5  A    between atoms: C_12  and  C_9 
REMARK    6  A    between atoms: C_26  and  C_9 
ROOT
ATOM      1  N   UNL d   1      -0.267  -2.961   5.546  0.00  0.00    -0.263 N 
ATOM      2  HN  UNL d   1      -0.267  -1.968   5.312  1.00  0.00     0.194 HD
ATOM      3  C   UNL d   1      -0.586  -3.436   6.718  0.00  0.00     0.042 C 
ENDROOT
BRANCH   3   4
ATOM      4  C   UNL d   1      -1.042  -2.455   7.774  0.00  0.00    -0.012 A 
ATOM      5  C   UNL d   1      -1.113  -1.092   7.447  0.00  0.00     0.014 A 
ATOM      6  C   UNL d   1      -1.596  -0.146   8.367  0.00  0.00     0.013 A 
ATOM      7  C   UNL d   1      -2.038  -0.525   9.644  0.00  0.00    -0.023 A 
ATOM      8  C   UNL d   1      -1.943  -1.888   9.961  0.00  0.00     0.013 A 
ATOM      9  C   UNL d   1      -1.442  -2.838   9.054  0.00  0.00     0.014 A 
BRANCH   7  10
ATOM     10  C   UNL d   1      -2.613   0.450  10.604  0.00  0.00     0.013 A 
ATOM     11  C   UNL d   1      -2.420   0.338  11.994  0.00  0.00     0.127 A 
ATOM     12  F   UNL d   1      -1.642  -0.633  12.499  0.00  0.00    -0.205 F 
ATOM     13  C   UNL d   1      -3.018   1.213  12.902  0.00  0.00     0.043 A 
ATOM     14  C   UNL d   1      -3.821   2.250  12.441  0.00  0.00     0.003 A 
ATOM     15  C   UNL d   1      -4.014   2.409  11.072  0.00  0.00     0.001 A 
ATOM     16  C   UNL d   1      -3.421   1.518  10.166  0.00  0.00     0.015 A 
ENDBRANCH   7  10
ENDBRANCH   3   4
BRANCH   3  17
ATOM     17  C   UNL d   1      -0.550  -4.938   7.030  0.00  0.00     0.055 C 
ATOM     18  C   UNL d   1       0.869  -5.484   7.095  0.00  0.00     0.011 C 
ENDBRANCH   3  17
BRANCH   1  19
ATOM     19  O   UNL d   1       0.075  -3.982   4.647  0.00  0.00    -0.220 OA
BRANCH  19  20
ATOM     20  C   UNL d   1       0.396  -3.502   3.396  0.00  0.00     0.170 A 
ATOM     21  C   UNL d   1       0.314  -2.163   3.036  0.00  0.00     0.059 A 
ATOM     22  C   UNL d   1       0.651  -1.796   1.733  0.00  0.00     0.022 A 
ATOM     23  C   UNL d   1       1.054  -2.774   0.818  0.00  0.00     0.063 A 
ATOM     24  C   UNL d   1       1.111  -4.082   1.270  0.00  0.00     0.106 A 
ATOM     25  N   UNL d   1       0.791  -4.465   2.527  0.00  0.00    -0.344 N 
ATOM     26  HN  UNL d   1       0.845  -5.443   2.811  1.00  0.00     0.167 HD
BRANCH  23  27
ATOM     27  C   UNL d   1       1.413  -2.426  -0.592  0.00  0.00     0.418 C 
ATOM     28  F   UNL d   1       1.780  -3.502  -1.343  0.00  0.00    -0.166 F 
ATOM     29  F   UNL d   1       2.452  -1.550  -0.666  0.00  0.00    -0.166 F 
ATOM     30  F   UNL d   1       0.383  -1.840  -1.261  0.00  0.00    -0.166 F 
ENDBRANCH  23  27
ENDBRANCH  19  20
ENDBRANCH   1  19
TORSDOF 6
