REMARK  3 active torsions:
REMARK  status: ('A' for Active; 'I' for Inactive)
REMARK    1  A    between atoms: C_4  and  C_1 
REMARK    2  A    between atoms: C_7  and  C_1 
REMARK    3  A    between atoms: O_8  and  N_2 
ROOT
ATOM      1  C   UNL d   1       0.849  -0.050  -0.013  0.00  0.00     0.062 C 
ATOM      2  N   UNL d   1       0.046   0.984   0.071  0.00  0.00    -0.271 N 
ATOM      3  HN  UNL d   1      -0.970   0.896   0.031  1.00  0.00     0.194 HD
ENDROOT
BRANCH   1   4
ATOM      4  C   UNL d   1       0.154  -1.381  -0.067  0.00  0.00     0.057 A 
ATOM      5  N   UNL d   1       0.759  -2.421   0.554  0.00  0.00    -0.364 N 
ATOM      6  C   UNL d   1       0.201  -3.638   0.396  0.00  0.00     0.088 A 
ATOM      7  HN  UNL d   1       1.600  -2.289   1.115  1.00  0.00     0.165 HD
ATOM      8  C   UNL d   1      -0.969  -3.864  -0.307  0.00  0.00     0.017 A 
ATOM      9  C   UNL d   1      -1.612  -2.771  -0.880  0.00  0.00     0.004 A 
ATOM     10  C   UNL d   1      -1.044  -1.507  -0.762  0.00  0.00     0.031 A 
ENDBRANCH   1   4
BRANCH   1  11
ATOM     11  C   UNL d   1       2.421  -0.024  -0.008  0.00  0.00     0.040 C 
ATOM     12  C   UNL d   1       3.068   1.185  -0.722  0.00  0.00     0.011 C 
ATOM     13  C   UNL d   1       2.761   1.172  -2.219  0.00  0.00     0.001 C 
ATOM     14  C   UNL d   1       3.305  -0.094  -2.879  0.00  0.00     0.000 C 
ATOM     15  C   UNL d   1       2.864  -1.358  -2.150  0.00  0.00     0.001 C 
ATOM     16  C   UNL d   1       3.120  -1.256  -0.644  0.00  0.00     0.011 C 
ENDBRANCH   1  11
BRANCH   2  17
ATOM     17  O   UNL d   1       0.683   2.202   0.217  0.00  0.00    -0.290 OA
ATOM     18  H   UNL d   1      -0.060   2.829   0.286  0.00  0.00     0.244 HD
ENDBRANCH   2  17
TORSDOF 3
