REMARK  5 active torsions:
REMARK  status: ('A' for Active; 'I' for Inactive)
REMARK    1  A    between atoms: C_4  and  C_1 
REMARK    2  A    between atoms: C_14  and  C_5 
REMARK    3  A    between atoms: C_7  and  C_10 
REMARK    4  A    between atoms: C_15  and  O_16 
REMARK    5  A    between atoms: O_16  and  C_24 
ROOT
ATOM      1  C   UNL d   1       0.198  -1.153  -0.037  0.00  0.00     0.088 C 
ATOM      2  N   UNL d   1       1.333  -0.540  -0.316  0.00  0.00    -0.349 N 
ATOM      3  HN  UNL d   1       2.165  -1.001  -0.686  1.00  0.00     0.166 HD
ATOM      4  C   UNL d   1       1.242   0.818  -0.036  0.00  0.00     0.050 C 
ATOM      5  S   UNL d   1      -1.050  -0.111   0.542  0.00  0.00    -0.081 SA
ATOM      6  C   UNL d   1      -0.021   1.237   0.333  0.00  0.00     0.082 C 
ENDROOT
BRANCH   1   7
ATOM      7  C   UNL d   1      -0.003  -2.614  -0.083  0.00  0.00     0.041 A 
ATOM      8  C   UNL d   1       0.919  -3.475   0.552  0.00  0.00     0.049 A 
ATOM      9  C   UNL d   1       0.753  -4.870   0.531  0.00  0.00     0.041 A 
ATOM     10 CL   UNL d   1       2.298  -2.900   1.433  0.00  0.00    -0.083 Cl
ATOM     11  C   UNL d   1      -0.345  -5.455  -0.107  0.00  0.00     0.051 A 
ATOM     12  C   UNL d   1      -1.266  -4.613  -0.740  0.00  0.00     0.041 A 
ATOM     13  C   UNL d   1      -1.090  -3.219  -0.748  0.00  0.00     0.049 A 
ATOM     14 CL   UNL d   1      -2.261  -2.331  -1.668  0.00  0.00    -0.083 Cl
BRANCH  11  15
ATOM     15  C   UNL d   1      -0.549  -6.948  -0.120  0.00  0.00     0.417 C 
ATOM     16  F   UNL d   1       0.483  -7.643   0.427  0.00  0.00    -0.166 F 
ATOM     17  F   UNL d   1      -1.662  -7.322   0.567  0.00  0.00    -0.166 F 
ATOM     18  F   UNL d   1      -0.704  -7.436  -1.382  0.00  0.00    -0.166 F 
ENDBRANCH  11  15
ENDBRANCH   1   7
BRANCH   4  19
ATOM     19  C   UNL d   1       2.401   1.703  -0.131  0.00  0.00    -0.009 A 
ATOM     20  C   UNL d   1       3.517   1.325  -0.888  0.00  0.00     0.016 A 
ATOM     21  C   UNL d   1       4.639   2.163  -0.992  0.00  0.00     0.038 A 
ATOM     22  C   UNL d   1       4.657   3.391  -0.331  0.00  0.00     0.074 A 
ATOM     23  C   UNL d   1       3.571   3.753   0.464  0.00  0.00     0.038 A 
ATOM     24  C   UNL d   1       2.451   2.923   0.560  0.00  0.00     0.016 A 
BRANCH  22  25
ATOM     25  O   UNL d   1       5.678   4.297  -0.351  0.00  0.00    -0.290 OA
BRANCH  25  26
ATOM     26  C   UNL d   1       6.485   4.299  -1.516  0.00  0.00     0.505 C 
ATOM     27  F   UNL d   1       5.707   4.513  -2.606  0.00  0.00    -0.184 F 
ATOM     28  F   UNL d   1       7.325   5.361  -1.425  0.00  0.00    -0.184 F 
ENDBRANCH  25  26
ENDBRANCH  22  25
ENDBRANCH   4  19
TORSDOF 5
