REMARK  4 active torsions:
REMARK  status: ('A' for Active; 'I' for Inactive)
REMARK    1  A    between atoms: C_10  and  N_4 
REMARK    2  A    between atoms: C_11  and  C_5 
REMARK    3  A    between atoms: C_12  and  C_6 
REMARK    4  A    between atoms: C_17  and  C_10 
ROOT
ATOM      1  C   UNL d   1      -1.265  -0.086   0.032  0.00  0.00     0.021 C 
ATOM      2  C   UNL d   1       1.293  -0.057   0.046  0.00  0.00     0.021 C 
ATOM      3  C   UNL d   1       0.023  -0.851   0.022  0.00  0.00     0.188 C 
ATOM      4  N   UNL d   1      -0.015   1.986  -0.393  0.00  0.00     0.101 N 
ATOM      5  C   UNL d   1      -2.396  -0.792  -0.165  0.00  0.00     0.024 C 
ATOM      6  C   UNL d   1       2.446  -0.739  -0.106  0.00  0.00     0.024 C 
ATOM      7  C   UNL d   1       1.192   1.428   0.230  0.00  0.00     0.315 C 
ATOM      8  C   UNL d   1      -1.190   1.394   0.256  0.00  0.00     0.315 C 
ATOM      9  O   UNL d   1       0.037  -2.080   0.011  0.00  0.00    -0.287 OA
ENDROOT
BRANCH   5  10
ATOM     10  C   UNL d   1      -3.745  -0.217  -0.196  0.00  0.00    -0.035 A 
ATOM     11  C   UNL d   1      -4.273   0.261  -1.403  0.00  0.00     0.014 A 
ATOM     12  C   UNL d   1      -5.562   0.797  -1.442  0.00  0.00     0.043 A 
ATOM     13  C   UNL d   1      -6.316   0.854  -0.276  0.00  0.00     0.116 A 
ATOM     14  C   UNL d   1      -5.803   0.390   0.931  0.00  0.00     0.043 A 
ATOM     15  F   UNL d   1      -7.555   1.360  -0.316  0.00  0.00    -0.206 F 
ATOM     16  C   UNL d   1      -4.513  -0.146   0.973  0.00  0.00     0.014 A 
ENDBRANCH   5  10
BRANCH   4  17
ATOM     17  C   UNL d   1      -0.061   3.455  -0.255  0.00  0.00     0.311 C 
BRANCH  17  18
ATOM     18  C   UNL d   1       1.071   4.168  -0.965  0.00  0.00    -0.030 A 
ATOM     19  C   UNL d   1       1.278   3.995  -2.342  0.00  0.00     0.009 A 
ATOM     20  C   UNL d   1       2.351   4.618  -2.980  0.00  0.00     0.001 A 
ATOM     21  C   UNL d   1       3.223   5.426  -2.253  0.00  0.00     0.000 A 
ATOM     22  C   UNL d   1       3.017   5.621  -0.888  0.00  0.00     0.001 A 
ATOM     23  C   UNL d   1       1.945   4.998  -0.247  0.00  0.00     0.009 A 
ENDBRANCH  17  18
ENDBRANCH   4  17
BRANCH   6  24
ATOM     24  C   UNL d   1       3.778  -0.126  -0.084  0.00  0.00    -0.035 A 
ATOM     25  C   UNL d   1       4.459   0.030   1.131  0.00  0.00     0.014 A 
ATOM     26  C   UNL d   1       5.725   0.618   1.154  0.00  0.00     0.043 A 
ATOM     27  C   UNL d   1       6.303   1.050  -0.034  0.00  0.00     0.116 A 
ATOM     28  C   UNL d   1       5.637   0.909  -1.246  0.00  0.00     0.043 A 
ATOM     29  F   UNL d   1       7.520   1.609  -0.010  0.00  0.00    -0.206 F 
ATOM     30  C   UNL d   1       4.370   0.321  -1.272  0.00  0.00     0.014 A 
ENDBRANCH   6  24
TORSDOF 4
