REMARK  5 active torsions:
REMARK  status: ('A' for Active; 'I' for Inactive)
REMARK    1  A    between atoms: C_3  and  C_1 
REMARK    2  A    between atoms: C_9  and  C_1 
REMARK    3  A    between atoms: C_11  and  C_2 
REMARK    4  A    between atoms: N_4  and  C_3 
REMARK    5  A    between atoms: O_22  and  C_19 
ROOT
ATOM      1  C   UNL d   1       1.093   0.036  -0.011  0.00  0.00     0.037 C 
ATOM      2  C   UNL d   1       0.459  -1.160   0.003  0.00  0.00     0.034 C 
ENDROOT
BRANCH   1   3
ATOM      3  C   UNL d   1       2.613   0.036  -0.011  0.00  0.00    -0.036 C 
BRANCH   3   4
ATOM      4  N   UNL d   1       3.874   0.036  -0.011  0.00  0.00    -0.365 N 
ATOM      5  HN2 UNL d   1       2.854   0.036  -0.011  1.00  0.00     0.165 HD
ATOM      6  HN1 UNL d   1       4.894   0.036  -0.011  1.00  0.00     0.165 HD
ENDBRANCH   3   4
ENDBRANCH   1   3
BRANCH   1   7
ATOM      7  C   UNL d   1       0.367   1.330  -0.018  0.00  0.00    -0.017 A 
ATOM      8  C   UNL d   1       0.933   2.469   0.578  0.00  0.00     0.015 A 
ATOM      9  C   UNL d   1       0.277   3.708   0.555  0.00  0.00     0.037 A 
ATOM     10  C   UNL d   1      -0.962   3.835  -0.065  0.00  0.00     0.068 A 
ATOM     11  C   UNL d   1      -1.534   2.714  -0.667  0.00  0.00     0.037 A 
ATOM     12  C   UNL d   1      -0.877   1.478  -0.650  0.00  0.00     0.015 A 
BRANCH  10  13
ATOM     13  O   UNL d   1      -1.706   4.978  -0.154  0.00  0.00    -0.356 OA
ATOM     14  C   UNL d   1      -1.156   6.151   0.432  0.00  0.00     0.210 C 
ENDBRANCH  10  13
ENDBRANCH   1   7
BRANCH   2  15
ATOM     15  C   UNL d   1       1.147  -2.465  -0.012  0.00  0.00    -0.032 A 
ATOM     16  C   UNL d   1       1.482  -3.070  -1.232  0.00  0.00     0.051 A 
ATOM     17  C   UNL d   1       2.168  -4.270  -1.194  0.00  0.00     0.105 A 
ATOM     18  O   UNL d   1       2.577  -4.988  -2.276  0.00  0.00    -0.323 OA
ATOM     19  C   UNL d   1       2.517  -4.870  -0.007  0.00  0.00     0.105 A 
ATOM     20  C   UNL d   1       3.258  -6.086  -1.633  0.00  0.00     0.352 A 
ATOM     21  O   UNL d   1       3.193  -6.035  -0.192  0.00  0.00    -0.323 OA
ATOM     22  C   UNL d   1       2.197  -4.306   1.209  0.00  0.00     0.040 A 
ATOM     23  C   UNL d   1       1.505  -3.090   1.204  0.00  0.00     0.014 A 
ENDBRANCH   2  15
TORSDOF 5
