REMARK  6 active torsions:
REMARK  status: ('A' for Active; 'I' for Inactive)
REMARK    1  A    between atoms: S_2  and  C_1 
REMARK    2  A    between atoms: N_7  and  S_2 
REMARK    3  A    between atoms: C_8  and  C_3 
REMARK    4  A    between atoms: C_11  and  N_6 
REMARK    5  A    between atoms: O_18  and  C_8 
REMARK    6  A    between atoms: C_23  and  O_18 
ROOT
ATOM      1  C   UNL d   1      -0.122  -1.189  -0.120  0.00  0.00     0.115 A 
ATOM      2  C   UNL d   1       1.204  -0.673  -0.057  0.00  0.00     0.086 A 
ATOM      3  C   UNL d   1      -1.007  -0.099  -0.144  0.00  0.00     0.037 A 
ATOM      4  C   UNL d   1       1.107   0.718  -0.101  0.00  0.00     0.031 A 
ATOM      5  N   UNL d   1      -0.249   1.101  -0.121  0.00  0.00    -0.317 N 
ATOM      6  C   UNL d   1       2.273   1.658  -0.007  0.00  0.00     0.070 C 
ATOM      7  C   UNL d   1      -2.503  -0.131  -0.176  0.00  0.00     0.070 C 
ENDROOT
BRANCH   1   8
ATOM      8  S   UNL d   1      -0.450  -2.905   0.058  0.00  0.00     0.246 S 
ATOM      9  O   UNL d   1       0.194  -3.225   1.313  0.00  0.00    -0.206 OA
ATOM     10  O   UNL d   1      -1.875  -3.069  -0.105  0.00  0.00    -0.206 OA
BRANCH   8  11
ATOM     11  N   UNL d   1       0.312  -3.816  -1.159  0.00  0.00    -0.202 NA
ATOM     12  C   UNL d   1      -0.177  -3.672  -2.559  0.00  0.00     0.134 C 
ATOM     13  C   UNL d   1      -1.410  -4.552  -2.815  0.00  0.00     0.183 C 
ATOM     14  O   UNL d   1      -1.159  -5.928  -2.487  0.00  0.00    -0.389 OA
ATOM     15  C   UNL d   1      -0.758  -6.066  -1.115  0.00  0.00     0.183 C 
ATOM     16  C   UNL d   1       0.517  -5.266  -0.846  0.00  0.00     0.134 C 
ENDBRANCH   8  11
ENDBRANCH   1   8
BRANCH   2  17
ATOM     17  C   UNL d   1       2.453  -1.402   0.139  0.00  0.00     0.296 C 
ATOM     18  O   UNL d   1       3.326  -1.041   0.927  0.00  0.00    -0.259 OA
BRANCH  17  19
ATOM     19  O   UNL d   1       2.596  -2.464  -0.693  0.00  0.00    -0.318 OA
BRANCH  19  20
ATOM     20  C   UNL d   1       3.842  -3.165  -0.607  0.00  0.00     0.174 C 
ATOM     21  C   UNL d   1       3.936  -4.014   0.651  0.00  0.00     0.034 C 
ENDBRANCH  19  20
ENDBRANCH  17  19
ENDBRANCH   2  17
BRANCH   5  22
ATOM     22  C   UNL d   1      -0.738   2.479  -0.048  0.00  0.00     0.039 A 
ATOM     23  C   UNL d   1      -1.967   2.817   0.535  0.00  0.00     0.030 A 
ATOM     24  C   UNL d   1      -2.366   4.160   0.685  0.00  0.00     0.002 A 
ATOM     25  C   UNL d   1      -1.534   5.198   0.285  0.00  0.00     0.000 A 
ATOM     26  C   UNL d   1      -0.325   4.891  -0.316  0.00  0.00     0.002 A 
ATOM     27  C   UNL d   1       0.044   3.553  -0.510  0.00  0.00     0.030 A 
ENDBRANCH   5  22
TORSDOF 6
