REMARK  13 active torsions:
REMARK  status: ('A' for Active; 'I' for Inactive)
REMARK    1  A    between atoms: C_6  and  C_1 
REMARK    2  A    between atoms: C_4  and  O_9 
REMARK    3  A    between atoms: N_13  and  C_5 
REMARK    4  A    between atoms: O_9  and  C_19 
REMARK    5  A    between atoms: C_31  and  N_13 
REMARK    6  A    between atoms: O_17  and  C_23 
REMARK    7  A    between atoms: C_20  and  O_17 
REMARK    8  A    between atoms: C_22  and  C_30 
REMARK    9  A    between atoms: C_23  and  C_22 
REMARK   10  A    between atoms: O_29  and  C_22 
REMARK   11  A    between atoms: N_24  and  C_32 
REMARK   12  A    between atoms: C_30  and  N_24 
REMARK   13  A    between atoms: C_32  and  C_31 
ROOT
ATOM      1  N   UNL d   1      -3.571  -5.085  -5.139  0.00  0.00     0.087 N 
ATOM      2  H   UNL d   1      -3.801  -5.624  -4.307  0.00  0.00     0.316 HD
ENDROOT
BRANCH   1   3
ATOM      3  C   UNL d   1      -3.203  -3.719  -4.724  0.00  0.00     0.284 C 
BRANCH   3   4
ATOM      4  C   UNL d   1      -4.292  -2.977  -3.924  0.00  0.00     0.125 C 
BRANCH   4   5
ATOM      5  N   UNL d   1      -3.817  -1.674  -3.497  0.00  0.00    -0.262 NA
ATOM      6  H   UNL d   1      -2.964  -1.655  -2.947  0.00  0.00     0.130 HD
BRANCH   5   7
ATOM      7  C   UNL d   1      -4.758  -0.918  -2.812  0.00  0.00     0.157 A 
ATOM      8  N   UNL d   1      -4.262  -0.051  -1.925  0.00  0.00    -0.329 N 
ATOM      9  C   UNL d   1      -5.139   0.738  -1.250  0.00  0.00     0.120 A 
ATOM     10  HN  UNL d   1      -3.258   0.018  -1.759  1.00  0.00     0.168 HD
ATOM     11  C   UNL d   1      -6.505   0.646  -1.453  0.00  0.00     0.051 A 
ATOM     12  C   UNL d   1      -6.914  -0.283  -2.371  0.00  0.00     0.093 A 
ATOM     13  N   UNL d   1      -6.066  -1.072  -3.051  0.00  0.00    -0.343 N 
ATOM     14  HN  UNL d   1      -6.405  -1.761  -3.722  1.00  0.00     0.167 HD
BRANCH   9  15
ATOM     15  C   UNL d   1      -4.607   1.756  -0.260  0.00  0.00     0.432 C 
ATOM     16  F   UNL d   1      -3.258   1.744  -0.106  0.00  0.00    -0.165 F 
ATOM     17  F   UNL d   1      -5.126   1.578   0.993  0.00  0.00    -0.165 F 
ATOM     18  F   UNL d   1      -4.934   3.038  -0.605  0.00  0.00    -0.165 F 
ENDBRANCH   9  15
ENDBRANCH   5   7
ENDBRANCH   4   5
ENDBRANCH   3   4
ENDBRANCH   1   3
BRANCH   1  19
ATOM     19  C   UNL d   1      -4.686  -5.088  -6.094  0.00  0.00     0.303 C 
BRANCH  19  20
ATOM     20  C   UNL d   1      -5.118  -6.487  -6.587  0.00  0.00     0.170 C 
BRANCH  20  21
ATOM     21  C   UNL d   1      -5.530  -7.392  -5.415  0.00  0.00     0.209 C 
BRANCH  21  22
ATOM     22  O   UNL d   1      -5.968  -8.665  -5.897  0.00  0.00    -0.349 OA
BRANCH  22  23
ATOM     23  C   UNL d   1      -6.415  -9.533  -4.938  0.00  0.00     0.069 A 
ATOM     24  C   UNL d   1      -7.292 -10.515  -5.389  0.00  0.00     0.039 A 
ATOM     25  C   UNL d   1      -7.795 -11.471  -4.504  0.00  0.00     0.040 A 
ATOM     26  C   UNL d   1      -7.405 -11.473  -3.162  0.00  0.00     0.078 A 
ATOM     27  C   UNL d   1      -6.552 -10.473  -2.703  0.00  0.00     0.040 A 
ATOM     28  C   UNL d   1      -6.043  -9.518  -3.592  0.00  0.00     0.039 A 
BRANCH  26  29
ATOM     29  O   UNL d   1      -7.954 -12.467  -2.412  0.00  0.00    -0.255 OA
BRANCH  29  30
ATOM     30  C   UNL d   1      -7.238 -12.978  -1.298  0.00  0.00     0.530 C 
ATOM     31  F   UNL d   1      -5.946 -12.588  -1.242  0.00  0.00    -0.144 F 
ATOM     32  F   UNL d   1      -7.855 -12.602  -0.157  0.00  0.00    -0.144 F 
ATOM     33  F   UNL d   1      -7.256 -14.328  -1.361  0.00  0.00    -0.144 F 
ENDBRANCH  29  30
ENDBRANCH  26  29
ENDBRANCH  22  23
ENDBRANCH  21  22
ENDBRANCH  20  21
BRANCH  20  34
ATOM     34  O   UNL d   1      -6.210  -6.313  -7.505  0.00  0.00    -0.392 OA
ATOM     35  H   UNL d   1      -7.001  -6.067  -6.996  0.00  0.00     0.210 HD
ENDBRANCH  20  34
ENDBRANCH  19  20
ENDBRANCH   1  19
TORSDOF 13
