REMARK  5 active torsions:
REMARK  status: ('A' for Active; 'I' for Inactive)
REMARK    1  A    between atoms: N_3  and  C_1 
REMARK    2  A    between atoms: N_5  and  C_1 
REMARK    3  A    between atoms: C_2  and  C_4 
REMARK    4  A    between atoms: C_6  and  N_3 
REMARK    5  A    between atoms: C_11  and  N_5 
ROOT
ATOM      1  N   UNL d   1       0.155  -1.167  -0.106  0.00  0.00    -0.333 N 
ATOM      2  H   UNL d   1       0.593  -2.067   0.091  0.00  0.00     0.168 HD
ENDROOT
BRANCH   1   3
ATOM      3  C   UNL d   1       0.995  -0.095   0.006  0.00  0.00     0.177 C 
ATOM      4  S   UNL d   1       0.825   1.377  -0.781  0.00  0.00    -0.040 SA
BRANCH   3   5
ATOM      5  N   UNL d   1       2.088  -0.240   0.816  0.00  0.00    -0.319 N 
ATOM      6  H   UNL d   1       2.660   0.591   0.876  0.00  0.00     0.169 HD
BRANCH   5   7
ATOM      7  C   UNL d   1       2.375  -1.282   1.710  0.00  0.00     0.106 A 
ATOM      8  N   UNL d   1       1.662  -2.429   1.670  0.00  0.00    -0.352 N 
ATOM      9  C   UNL d   1       1.924  -3.356   2.620  0.00  0.00     0.089 A 
ATOM     10  HN  UNL d   1       0.955  -2.590   0.952  1.00  0.00     0.166 HD
ATOM     11  C   UNL d   1       2.879  -3.198   3.609  0.00  0.00     0.017 A 
ATOM     12  C   UNL d   1       3.623  -2.027   3.616  0.00  0.00     0.005 A 
ATOM     13  C   UNL d   1       3.377  -1.057   2.648  0.00  0.00     0.048 A 
ENDBRANCH   5   7
ENDBRANCH   3   5
ENDBRANCH   1   3
BRANCH   1  14
ATOM     14  C   UNL d   1      -1.244  -1.184  -0.236  0.00  0.00     0.035 A 
ATOM     15  C   UNL d   1      -2.049  -0.174   0.304  0.00  0.00     0.045 A 
ATOM     16  C   UNL d   1      -3.447  -0.284   0.285  0.00  0.00     0.050 A 
ATOM     17  C   UNL d   1      -4.034  -1.397  -0.334  0.00  0.00     0.016 A 
ATOM     18  C   UNL d   1      -3.235  -2.403  -0.879  0.00  0.00     0.003 A 
ATOM     19  C   UNL d   1      -1.845  -2.310  -0.801  0.00  0.00     0.029 A 
BRANCH  16  20
ATOM     20  C   UNL d   1      -4.311   0.750   0.961  0.00  0.00     0.417 C 
ATOM     21  F   UNL d   1      -3.606   1.734   1.589  0.00  0.00    -0.166 F 
ATOM     22  F   UNL d   1      -5.146   1.383   0.092  0.00  0.00    -0.166 F 
ATOM     23  F   UNL d   1      -5.113   0.205   1.919  0.00  0.00    -0.166 F 
ENDBRANCH  16  20
ENDBRANCH   1  14
TORSDOF 5
