REMARK  5 active torsions:
REMARK  status: ('A' for Active; 'I' for Inactive)
REMARK    1  A    between atoms: C_9  and  N_1 
REMARK    2  A    between atoms: C_14  and  N_6 
REMARK    3  A    between atoms: C_11  and  C_8 
REMARK    4  A    between atoms: C_10  and  C_12 
REMARK    5  A    between atoms: O_22  and  C_11 
ROOT
ATOM      1  N   UNL d   1      -0.828  -1.069  -0.091  0.00  0.00    -0.257 N 
ATOM      2  C   UNL d   1      -1.217   0.259  -0.273  0.00  0.00     0.161 C 
ATOM      3  C   UNL d   1       1.011   0.090   0.868  0.00  0.00     0.082 C 
ATOM      4  C   UNL d   1       0.417  -1.230   0.523  0.00  0.00     0.271 C 
ATOM      5  S   UNL d   1      -0.160   1.306   0.659  0.00  0.00    -0.048 SA
ATOM      6  N   UNL d   1      -2.196   0.635  -1.035  0.00  0.00    -0.322 N 
ATOM      7  HN  UNL d   1      -2.763  -0.078  -1.494  1.00  0.00     0.169 HD
ATOM      8  C   UNL d   1       2.290   0.211   1.241  0.00  0.00     0.106 C 
ATOM      9  O   UNL d   1       1.009  -2.265   0.810  0.00  0.00    -0.266 OA
ENDROOT
BRANCH   1  10
ATOM     10  C   UNL d   1      -1.634  -2.203  -0.490  0.00  0.00     0.045 A 
ATOM     11  C   UNL d   1      -1.080  -3.486  -0.660  0.00  0.00     0.046 A 
ATOM     12  C   UNL d   1      -1.865  -4.612  -0.984  0.00  0.00     0.050 A 
ATOM     13  C   UNL d   1      -3.240  -4.450  -1.175  0.00  0.00     0.016 A 
ATOM     14  C   UNL d   1      -3.815  -3.194  -1.024  0.00  0.00     0.003 A 
ATOM     15  C   UNL d   1      -3.022  -2.093  -0.675  0.00  0.00     0.030 A 
BRANCH  12  16
ATOM     16  C   UNL d   1      -1.247  -5.984  -1.110  0.00  0.00     0.417 C 
ATOM     17  F   UNL d   1       0.096  -6.008  -0.885  0.00  0.00    -0.166 F 
ATOM     18  F   UNL d   1      -1.787  -6.876  -0.232  0.00  0.00    -0.166 F 
ATOM     19  F   UNL d   1      -1.427  -6.525  -2.346  0.00  0.00    -0.166 F 
ENDBRANCH  12  16
ENDBRANCH   1  10
BRANCH   6  20
ATOM     20  C   UNL d   1      -2.505   1.982  -1.249  0.00  0.00     0.106 A 
ATOM     21  N   UNL d   1      -1.484   2.834  -1.462  0.00  0.00    -0.352 N 
ATOM     22  C   UNL d   1      -1.779   4.142  -1.616  0.00  0.00     0.089 A 
ATOM     23  HN  UNL d   1      -0.520   2.502  -1.506  1.00  0.00     0.166 HD
ATOM     24  C   UNL d   1      -3.068   4.638  -1.650  0.00  0.00     0.017 A 
ATOM     25  C   UNL d   1      -4.116   3.736  -1.517  0.00  0.00     0.005 A 
ATOM     26  C   UNL d   1      -3.831   2.387  -1.308  0.00  0.00     0.048 A 
ENDBRANCH   6  20
BRANCH   8  27
ATOM     27  C   UNL d   1       2.945   1.494   1.555  0.00  0.00     0.283 C 
ATOM     28  O   UNL d   1       2.381   2.536   1.848  0.00  0.00    -0.260 OA
BRANCH  27  29
ATOM     29  O   UNL d   1       4.285   1.326   1.464  0.00  0.00    -0.323 OA
ATOM     30  C   UNL d   1       5.020   2.533   1.687  0.00  0.00     0.213 C 
ENDBRANCH  27  29
ENDBRANCH   8  27
TORSDOF 5
