REMARK  6 active torsions:
REMARK  status: ('A' for Active; 'I' for Inactive)
REMARK    1  A    between atoms: C_4  and  S_1 
REMARK    2  A    between atoms: C_5  and  S_1 
REMARK       I    between atoms: N_2  and  C_3 
REMARK    3  A    between atoms: C_3  and  C_16 
REMARK    4  A    between atoms: C_19  and  C_5 
REMARK    5  A    between atoms: S_14  and  C_19 
REMARK    6  A    between atoms: C_16  and  S_14 
ROOT
ATOM      1  C   UNL d   1       0.482   0.089   1.671  0.00  0.00     0.156 C 
ENDROOT
BRANCH   1   2
ATOM      2  S   UNL d   1       0.651  -0.281  -0.055  0.00  0.00     0.176 S 
ATOM      3  O   UNL d   1      -0.042   0.750  -0.806  0.00  0.00    -0.223 OA
ATOM      4  O   UNL d   1       2.050  -0.572  -0.312  0.00  0.00    -0.223 OA
BRANCH   2   5
ATOM      5  C   UNL d   1      -0.269  -1.783  -0.301  0.00  0.00     0.059 A 
ATOM      6  C   UNL d   1      -1.645  -1.793  -0.044  0.00  0.00     0.025 A 
ATOM      7  C   UNL d   1      -2.365  -2.977  -0.212  0.00  0.00     0.025 A 
ATOM      8  C   UNL d   1      -1.710  -4.132  -0.650  0.00  0.00     0.034 A 
ATOM      9  C   UNL d   1      -0.342  -4.114  -0.919  0.00  0.00     0.025 A 
ATOM     10 CL   UNL d   1      -2.602  -5.587  -0.865  0.00  0.00    -0.084 Cl
ATOM     11  C   UNL d   1       0.386  -2.935  -0.745  0.00  0.00     0.025 A 
ENDBRANCH   2   5
ENDBRANCH   1   2
BRANCH   1  12
ATOM     12  C   UNL d   1       0.971  -1.042   2.556  0.00  0.00     0.089 C 
BRANCH  12  13
ATOM     13  S   UNL d   1       0.821  -0.681   4.340  0.00  0.00    -0.159 SA
BRANCH  13  14
ATOM     14  C   UNL d   1      -0.972  -0.329   4.465  0.00  0.00     0.176 C 
BRANCH  14  15
ATOM     15  C   UNL d   1      -1.374  -0.027   5.900  0.00  0.00     0.229 C 
ATOM     16  N   UNL d   1      -0.972   1.170   6.457  0.00  0.00    -0.351 N 
ATOM     17  C   UNL d   1      -0.158   2.223   5.872  0.00  0.00     0.126 C 
ATOM     18  C   UNL d   1      -1.104   1.381   7.889  0.00  0.00     0.126 C 
ATOM     19  C   UNL d   1       0.824   2.527   6.989  0.00  0.00     0.021 C 
ATOM     20  C   UNL d   1      -0.053   2.436   8.236  0.00  0.00     0.021 C 
ATOM     21  O   UNL d   1      -2.065  -0.833   6.528  0.00  0.00    -0.273 OA
ENDBRANCH  14  15
ENDBRANCH  13  14
ENDBRANCH  12  13
ENDBRANCH   1  12
TORSDOF 6
