REMARK  5 active torsions:
REMARK  status: ('A' for Active; 'I' for Inactive)
REMARK    1  A    between atoms: O_6  and  C_1 
REMARK       I    between atoms: C_2  and  N_3 
REMARK    2  A    between atoms: C_5  and  C_2 
REMARK    3  A    between atoms: N_3  and  C_12 
REMARK    4  A    between atoms: C_4  and  C_5 
REMARK    5  A    between atoms: C_13  and  O_6 
ROOT
ATOM      1  C   UNL d   1       3.301   1.041  -6.441  0.00  0.00     0.226 C 
ATOM      2  N   UNL d   1       1.964   0.689  -6.314  0.00  0.00    -0.327 N 
ATOM      3  O   UNL d   1       4.120   1.123  -5.533  0.00  0.00    -0.273 OA
ATOM      4  H   UNL d   1       1.385   0.786  -7.140  0.00  0.00     0.169 HD
ENDROOT
BRANCH   2   5
ATOM      5  C   UNL d   1       1.295   0.293  -5.134  0.00  0.00     0.034 A 
ATOM      6  C   UNL d   1       1.936   0.099  -3.913  0.00  0.00     0.032 A 
ATOM      7  C   UNL d   1       1.212  -0.308  -2.788  0.00  0.00     0.039 A 
ATOM      8  C   UNL d   1      -0.162  -0.539  -2.859  0.00  0.00     0.078 A 
ATOM      9  C   UNL d   1      -0.817  -0.328  -4.071  0.00  0.00     0.039 A 
ATOM     10  C   UNL d   1      -0.087   0.076  -5.202  0.00  0.00     0.032 A 
BRANCH   8  11
ATOM     11  O   UNL d   1      -0.717  -0.956  -1.686  0.00  0.00    -0.255 OA
BRANCH  11  12
ATOM     12  C   UNL d   1      -2.022  -1.506  -1.719  0.00  0.00     0.530 C 
ATOM     13  F   UNL d   1      -2.171  -2.396  -2.723  0.00  0.00    -0.144 F 
ATOM     14  F   UNL d   1      -2.946  -0.530  -1.842  0.00  0.00    -0.144 F 
ATOM     15  F   UNL d   1      -2.243  -2.155  -0.553  0.00  0.00    -0.144 F 
ENDBRANCH  11  12
ENDBRANCH   8  11
ENDBRANCH   2   5
BRANCH   1  16
ATOM     16  C   UNL d   1       3.714   1.331  -7.876  0.00  0.00     0.143 C 
BRANCH  16  17
ATOM     17  C   UNL d   1       3.976   2.797  -8.127  0.00  0.00    -0.028 A 
ATOM     18  C   UNL d   1       2.948   3.714  -8.393  0.00  0.00     0.040 A 
ATOM     19 CL   UNL d   1       1.291   3.225  -8.467  0.00  0.00    -0.084 Cl
ATOM     20  C   UNL d   1       3.238   5.064  -8.616  0.00  0.00     0.024 A 
ATOM     21  C   UNL d   1       4.556   5.516  -8.572  0.00  0.00     0.002 A 
ATOM     22  C   UNL d   1       5.586   4.621  -8.297  0.00  0.00     0.001 A 
ATOM     23  C   UNL d   1       5.298   3.273  -8.071  0.00  0.00     0.009 A 
ENDBRANCH  16  17
ENDBRANCH   1  16
TORSDOF 5
