REMARK  4 active torsions:
REMARK  status: ('A' for Active; 'I' for Inactive)
REMARK    1  A    between atoms: N_3  and  C_1 
REMARK    2  A    between atoms: N_4  and  C_1 
REMARK    3  A    between atoms: C_2  and  C_5 
REMARK    4  A    between atoms: C_6  and  N_3 
ROOT
ATOM      1  C   UNL d   1       2.389  -2.120   4.503  0.00  0.00     0.049 A 
ATOM      2  C   UNL d   1       1.235  -1.152   2.110  0.00  0.00     0.056 A 
ATOM      3  C   UNL d   1       0.516  -2.014   2.954  0.00  0.00     0.061 A 
ATOM      4  C   UNL d   1       1.091  -2.504   4.132  0.00  0.00     0.042 A 
ATOM      5  C   UNL d   1       3.098  -1.245   3.667  0.00  0.00     0.018 A 
ATOM      6  C   UNL d   1       2.524  -0.764   2.488  0.00  0.00     0.032 A 
ATOM      7 CL   UNL d   1      -1.094  -2.506   2.560  0.00  0.00    -0.082 Cl
ENDROOT
BRANCH   2   8
ATOM      8  N   UNL d   1       0.620  -0.623   0.947  0.00  0.00    -0.332 N 
ATOM      9  H   UNL d   1      -0.364  -0.847   0.840  0.00  0.00     0.168 HD
BRANCH   8  10
ATOM     10  C   UNL d   1       1.242  -0.181  -0.208  0.00  0.00     0.174 C 
ATOM     11  S   UNL d   1       2.533  -1.026  -0.891  0.00  0.00    -0.041 SA
BRANCH  10  12
ATOM     12  N   UNL d   1       0.643   0.954  -0.776  0.00  0.00    -0.357 N 
ATOM     13  C   UNL d   1      -0.445   1.718  -0.132  0.00  0.00     0.135 C 
ATOM     14  C   UNL d   1      -1.696   1.808  -1.010  0.00  0.00     0.093 C 
ATOM     15  S   UNL d   1      -1.373   2.601  -2.621  0.00  0.00    -0.166 SA
ATOM     16  C   UNL d   1       0.080   1.613  -3.112  0.00  0.00     0.093 C 
ATOM     17  C   UNL d   1       1.141   1.589  -2.014  0.00  0.00     0.135 C 
ENDBRANCH  10  12
ENDBRANCH   8  10
ENDBRANCH   2   8
BRANCH   1  18
ATOM     18  C   UNL d   1       3.024  -2.612   5.780  0.00  0.00     0.417 C 
ATOM     19  F   UNL d   1       2.212  -3.425   6.512  0.00  0.00    -0.166 F 
ATOM     20  F   UNL d   1       4.163  -3.322   5.557  0.00  0.00    -0.166 F 
ATOM     21  F   UNL d   1       3.373  -1.591   6.609  0.00  0.00    -0.166 F 
ENDBRANCH   1  18
TORSDOF 4
