REMARK  6 active torsions:
REMARK  status: ('A' for Active; 'I' for Inactive)
REMARK    1  A    between atoms: C_8  and  C_1 
REMARK    2  A    between atoms: S_10  and  C_3 
REMARK    3  A    between atoms: C_12  and  C_7 
REMARK    4  A    between atoms: O_16  and  C_8 
REMARK    5  A    between atoms: C_15  and  S_10 
REMARK    6  A    between atoms: C_20  and  O_16 
ROOT
ATOM      1  C   UNL d   1      -0.789   1.442   0.098  0.00  0.00     0.086 A 
ATOM      2  C   UNL d   1      -1.493   0.226   0.173  0.00  0.00     0.096 A 
ATOM      3  C   UNL d   1      -0.766  -0.955   0.005  0.00  0.00     0.097 A 
ATOM      4  N   UNL d   1       0.589  -0.951  -0.104  0.00  0.00    -0.351 N 
ATOM      5  HN  UNL d   1       1.084  -1.837  -0.211  1.00  0.00     0.166 HD
ATOM      6  C   UNL d   1       0.623   1.443  -0.025  0.00  0.00     0.075 A 
ATOM      7  C   UNL d   1       1.297   0.212  -0.074  0.00  0.00     0.040 A 
ATOM      8  C   UNL d   1      -2.880   0.167   0.532  0.00  0.00     0.103 C 
ATOM      9  N   UNL d   1      -3.987   0.131   0.869  0.00  0.00    -0.191 NA
ATOM     10 CL   UNL d   1       1.488   2.944  -0.137  0.00  0.00    -0.081 Cl
ENDROOT
BRANCH   1  11
ATOM     11  C   UNL d   1      -1.502   2.748   0.226  0.00  0.00     0.296 C 
ATOM     12  O   UNL d   1      -1.052   3.715   0.815  0.00  0.00    -0.259 OA
BRANCH  11  13
ATOM     13  O   UNL d   1      -2.691   2.723  -0.424  0.00  0.00    -0.318 OA
BRANCH  13  14
ATOM     14  C   UNL d   1      -3.443   3.952  -0.372  0.00  0.00     0.174 C 
ATOM     15  C   UNL d   1      -4.016   4.222   1.012  0.00  0.00     0.034 C 
ENDBRANCH  13  14
ENDBRANCH  11  13
ENDBRANCH   1  11
BRANCH   3  16
ATOM     16  S   UNL d   1      -1.486  -2.595   0.067  0.00  0.00    -0.071 SA
BRANCH  16  17
ATOM     17  C   UNL d   1      -1.877  -2.937  -1.643  0.00  0.00     0.007 A 
ATOM     18  C   UNL d   1      -0.898  -2.953  -2.643  0.00  0.00     0.019 A 
ATOM     19  C   UNL d   1      -1.247  -3.213  -3.974  0.00  0.00     0.001 A 
ATOM     20  C   UNL d   1      -2.572  -3.478  -4.314  0.00  0.00     0.000 A 
ATOM     21  C   UNL d   1      -3.545  -3.519  -3.319  0.00  0.00     0.001 A 
ATOM     22  C   UNL d   1      -3.197  -3.259  -1.989  0.00  0.00     0.019 A 
ENDBRANCH  16  17
ENDBRANCH   3  16
BRANCH   7  23
ATOM     23  C   UNL d   1       2.835   0.037  -0.042  0.00  0.00    -0.007 C 
ATOM     24  C   UNL d   1       3.220  -1.470  -0.076  0.00  0.00     0.021 C 
ATOM     25  C   UNL d   1       3.526   0.683  -1.259  0.00  0.00     0.021 C 
ATOM     26  C   UNL d   1       3.445   0.587   1.267  0.00  0.00     0.021 C 
ENDBRANCH   7  23
TORSDOF 6
