REMARK  1 active torsions:
REMARK  status: ('A' for Active; 'I' for Inactive)
REMARK    1  A    between atoms: C_7  and  C_4 
ROOT
ATOM      1  C   UNL d   1       1.755  -0.086  -0.003  0.00  0.00     0.067 A 
ATOM      2  C   UNL d   1       0.848  -1.261   0.090  0.00  0.00     0.197 A 
ATOM      3  C   UNL d   1       0.929   1.151  -0.038  0.00  0.00     0.197 A 
ATOM      4  C   UNL d   1       3.093  -0.077  -0.072  0.00  0.00     0.035 C 
ATOM      5  C   UNL d   1      -0.509  -0.704   0.057  0.00  0.00     0.029 A 
ATOM      6  C   UNL d   1      -0.466   0.686  -0.006  0.00  0.00     0.029 A 
ATOM      7  O   UNL d   1       1.306   2.304  -0.090  0.00  0.00    -0.286 OA
ATOM      8  O   UNL d   1       1.128  -2.438   0.182  0.00  0.00    -0.286 OA
ATOM      9  C   UNL d   1      -1.707  -1.397   0.074  0.00  0.00     0.016 A 
ATOM     10  C   UNL d   1      -1.623   1.443  -0.045  0.00  0.00     0.016 A 
ATOM     11  C   UNL d   1      -2.844   0.759  -0.027  0.00  0.00     0.001 A 
ATOM     12  C   UNL d   1      -2.885  -0.649   0.029  0.00  0.00     0.001 A 
ENDROOT
BRANCH   4  13
ATOM     13  C   UNL d   1       3.902  -1.302  -0.069  0.00  0.00     0.025 A 
ATOM     14  C   UNL d   1       4.197  -1.931  -1.285  0.00  0.00     0.128 A 
ATOM     15  F   UNL d   1       3.805  -1.374  -2.442  0.00  0.00    -0.205 F 
ATOM     16  C   UNL d   1       4.887  -3.141  -1.335  0.00  0.00     0.043 A 
ATOM     17  C   UNL d   1       5.305  -3.747  -0.153  0.00  0.00     0.005 A 
ATOM     18  C   UNL d   1       5.044  -3.128   1.071  0.00  0.00     0.025 A 
ATOM     19  C   UNL d   1       4.347  -1.914   1.114  0.00  0.00     0.047 A 
ATOM     20 CL   UNL d   1       4.056  -1.205   2.666  0.00  0.00    -0.083 Cl
ENDBRANCH   4  13
TORSDOF 1
