REMARK  7 active torsions:
REMARK  status: ('A' for Active; 'I' for Inactive)
REMARK    1  A    between atoms: C_7  and  C_1 
REMARK    2  A    between atoms: C_8  and  C_2 
REMARK    3  A    between atoms: C_10  and  C_3 
REMARK    4  A    between atoms: C_11  and  C_6 
REMARK       I    between atoms: N_13  and  C_7 
REMARK    5  A    between atoms: N_12  and  C_9 
REMARK    6  A    between atoms: O_25  and  C_11 
REMARK    7  A    between atoms: C_16  and  N_13 
ROOT
ATOM      1  C   UNL d   1       2.489   1.505  -0.581  0.00  0.00     0.259 C 
ATOM      2  N   UNL d   1       3.566   0.795  -0.084  0.00  0.00    -0.323 N 
ATOM      3  O   UNL d   1       1.518   1.007  -1.152  0.00  0.00    -0.267 OA
ATOM      4  H   UNL d   1       4.207   1.285   0.527  0.00  0.00     0.169 HD
ENDROOT
BRANCH   1   5
ATOM      5  C   UNL d   1       2.513   2.936  -0.325  0.00  0.00     0.073 A 
ATOM      6  C   UNL d   1       1.812   3.892  -1.051  0.00  0.00     0.175 A 
ATOM      7  O   UNL d   1       1.957   5.127  -0.458  0.00  0.00    -0.304 OA
ATOM      8  C   UNL d   1       2.802   4.981   0.607  0.00  0.00     0.089 A 
ATOM      9  C   UNL d   1       3.191   3.661   0.696  0.00  0.00     0.058 A 
BRANCH   6  10
ATOM     10  C   UNL d   1       0.998   3.847  -2.302  0.00  0.00     0.440 C 
ATOM     11  F   UNL d   1       1.021   2.651  -2.941  0.00  0.00    -0.164 F 
ATOM     12  F   UNL d   1      -0.307   4.152  -2.080  0.00  0.00    -0.164 F 
ATOM     13  F   UNL d   1       1.457   4.750  -3.213  0.00  0.00    -0.164 F 
ENDBRANCH   6  10
BRANCH   8  14
ATOM     14  C   UNL d   1       3.073   6.163   1.426  0.00  0.00     0.019 A 
ATOM     15  C   UNL d   1       4.332   6.392   2.021  0.00  0.00     0.047 A 
ATOM     16 CL   UNL d   1       5.729   5.426   1.677  0.00  0.00    -0.083 Cl
ATOM     17  C   UNL d   1       4.516   7.446   2.922  0.00  0.00     0.025 A 
ATOM     18  C   UNL d   1       3.464   8.304   3.229  0.00  0.00     0.002 A 
ATOM     19  C   UNL d   1       2.227   8.120   2.619  0.00  0.00     0.001 A 
ATOM     20  C   UNL d   1       2.034   7.062   1.725  0.00  0.00     0.016 A 
ENDBRANCH   8  14
ENDBRANCH   1   5
BRANCH   2  21
ATOM     21  C   UNL d   1       3.752  -0.603  -0.192  0.00  0.00     0.036 A 
ATOM     22  C   UNL d   1       3.045  -1.397  -1.095  0.00  0.00     0.049 A 
ATOM     23  C   UNL d   1       3.141  -2.799  -1.051  0.00  0.00     0.068 A 
ATOM     24  C   UNL d   1       4.024  -3.443  -0.155  0.00  0.00     0.046 A 
ATOM     25  C   UNL d   1       4.777  -2.617   0.698  0.00  0.00     0.032 A 
ATOM     26  C   UNL d   1       4.650  -1.220   0.681  0.00  0.00     0.032 A 
BRANCH  23  27
ATOM     27  C   UNL d   1       2.133  -3.582  -1.825  0.00  0.00     0.295 C 
ATOM     28  O   UNL d   1       1.602  -4.601  -1.429  0.00  0.00    -0.259 OA
BRANCH  27  29
ATOM     29  O   UNL d   1       1.875  -2.995  -3.025  0.00  0.00    -0.322 OA
ATOM     30  C   UNL d   1       0.836  -3.653  -3.754  0.00  0.00     0.213 C 
ENDBRANCH  27  29
ENDBRANCH  23  27
BRANCH  24  31
ATOM     31  N   UNL d   1       4.138  -4.824  -0.097  0.00  0.00    -0.376 N 
ATOM     32  C   UNL d   1       4.419  -5.527   1.161  0.00  0.00     0.149 C 
ATOM     33  C   UNL d   1       3.900  -6.974   1.047  0.00  0.00     0.187 C 
ATOM     34  O   UNL d   1       4.484  -7.655  -0.079  0.00  0.00    -0.388 OA
ATOM     35  C   UNL d   1       4.147  -6.966  -1.298  0.00  0.00     0.187 C 
ATOM     36  C   UNL d   1       4.672  -5.521  -1.283  0.00  0.00     0.149 C 
ENDBRANCH  24  31
ENDBRANCH   2  21
TORSDOF 7
