REMARK  3 active torsions:
REMARK  status: ('A' for Active; 'I' for Inactive)
REMARK    1  A    between atoms: C_7  and  C_3 
REMARK    2  A    between atoms: C_12  and  C_4 
REMARK    3  A    between atoms: C_8  and  C_7 
ROOT
ATOM      1  N   UNL d   1       1.543  -0.072   0.071  0.00  0.00    -0.331 N 
ATOM      2  HN  UNL d   1       2.486  -0.461   0.066  1.00  0.00     0.168 HD
ATOM      3  C   UNL d   1       0.341  -0.738   0.102  0.00  0.00     0.112 A 
ATOM      4  C   UNL d   1       1.182   1.170   0.052  0.00  0.00     0.162 A 
ATOM      5  O   UNL d   1      -0.142   1.443   0.098  0.00  0.00    -0.256 OA
ATOM      6  C   UNL d   1      -0.783   0.243   0.149  0.00  0.00     0.316 A 
ATOM      7  O   UNL d   1      -1.983   0.078   0.231  0.00  0.00    -0.257 OA
ENDROOT
BRANCH   3   8
ATOM      8  C   UNL d   1       0.245  -2.072   0.049  0.00  0.00     0.055 C 
BRANCH   8   9
ATOM      9  C   UNL d   1      -0.991  -2.766  -0.005  0.00  0.00     0.013 A 
ATOM     10  C   UNL d   1      -1.806  -3.213   1.027  0.00  0.00    -0.044 A 
ATOM     11  C   UNL d   1      -2.954  -3.908   0.519  0.00  0.00     0.015 A 
ATOM     12  C   UNL d   1      -1.559  -3.014   2.488  0.00  0.00     0.049 C 
ATOM     13  C   UNL d   1      -2.984  -3.956  -0.854  0.00  0.00     0.051 A 
ATOM     14  S   UNL d   1      -1.629  -3.193  -1.546  0.00  0.00    -0.102 SA
ENDBRANCH   8   9
ENDBRANCH   3   8
BRANCH   4  15
ATOM     15  C   UNL d   1       2.059   2.346  -0.041  0.00  0.00     0.015 A 
ATOM     16  C   UNL d   1       3.443   2.153  -0.128  0.00  0.00     0.016 A 
ATOM     17  C   UNL d   1       4.293   3.251  -0.274  0.00  0.00     0.001 A 
ATOM     18  C   UNL d   1       3.763   4.540  -0.329  0.00  0.00     0.000 A 
ATOM     19  C   UNL d   1       2.386   4.737  -0.227  0.00  0.00     0.001 A 
ATOM     20  C   UNL d   1       1.532   3.643  -0.081  0.00  0.00     0.016 A 
ENDBRANCH   4  15
TORSDOF 3
