REMARK  6 active torsions:
REMARK  status: ('A' for Active; 'I' for Inactive)
REMARK    1  A    between atoms: O_15  and  C_3 
REMARK    2  A    between atoms: S_12  and  C_4 
REMARK    3  A    between atoms: C_9  and  C_8 
REMARK    4  A    between atoms: C_11  and  C_16 
REMARK    5  A    between atoms: C_17  and  S_12 
REMARK    6  A    between atoms: C_20  and  C_17 
ROOT
ATOM      1  C   UNL d   1       2.682   7.752   0.041  0.00  0.00    -0.036 A 
ATOM      2  C   UNL d   1       1.299   5.277   0.060  0.00  0.00    -0.048 A 
ATOM      3  C   UNL d   1       1.283   7.715   0.022  0.00  0.00     0.012 A 
ATOM      4  C   UNL d   1       3.380   6.538   0.026  0.00  0.00     0.012 A 
ATOM      5  C   UNL d   1       2.699   5.316   0.034  0.00  0.00     0.009 A 
ATOM      6  C   UNL d   1       0.599   6.492   0.037  0.00  0.00     0.009 A 
ENDROOT
BRANCH   2   7
ATOM      7  C   UNL d   1       0.557   3.958   0.072  0.00  0.00     0.121 C 
BRANCH   7   8
ATOM      8  S   UNL d   1       0.897   2.971   1.569  0.00  0.00    -0.089 SA
BRANCH   8   9
ATOM      9  C   UNL d   1      -0.119   1.553   1.236  0.00  0.00     0.146 A 
ATOM     10  N   UNL d   1      -0.101   0.562   2.137  0.00  0.00    -0.317 N 
ATOM     11  C   UNL d   1      -0.894  -0.478   1.855  0.00  0.00     0.149 A 
ATOM     12  HN  UNL d   1       0.476   0.598   2.978  1.00  0.00     0.170 HD
ATOM     13  C   UNL d   1      -1.703  -0.606   0.746  0.00  0.00     0.011 A 
ATOM     14  C   UNL d   1      -2.570  -1.792   0.498  0.00  0.00     0.055 C 
ATOM     15  C   UNL d   1      -1.639   0.474  -0.120  0.00  0.00     0.017 A 
ATOM     16  N   UNL d   1      -0.856   1.549   0.114  0.00  0.00    -0.340 N 
ATOM     17  C   UNL d   1      -2.445   0.527  -1.384  0.00  0.00     0.069 C 
ATOM     18  HN  UNL d   1      -0.825   2.331  -0.539  1.00  0.00     0.167 HD
BRANCH  11  19
ATOM     19  O   UNL d   1      -0.847  -1.458   2.797  0.00  0.00    -0.346 OA
ATOM     20  H   UNL d   1      -0.208  -1.074   3.425  0.00  0.00     0.219 HD
ENDBRANCH  11  19
ENDBRANCH   8   9
ENDBRANCH   7   8
ENDBRANCH   2   7
BRANCH   1  21
ATOM     21  C   UNL d   1       3.454   9.006   0.025  0.00  0.00     0.012 C 
ATOM     22  C   UNL d   1       3.061  10.154   0.601  0.00  0.00     0.017 C 
BRANCH  22  23
ATOM     23  C   UNL d   1       3.911  11.354   0.580  0.00  0.00     0.024 A 
ATOM     24  C   UNL d   1       4.779  11.595   1.655  0.00  0.00     0.128 A 
ATOM     25  F   UNL d   1       4.824  10.744   2.691  0.00  0.00    -0.205 F 
ATOM     26  C   UNL d   1       5.613  12.713   1.687  0.00  0.00     0.043 A 
ATOM     27  C   UNL d   1       5.594  13.621   0.632  0.00  0.00     0.005 A 
ATOM     28  C   UNL d   1       4.738  13.403  -0.448  0.00  0.00     0.025 A 
ATOM     29  C   UNL d   1       3.902  12.279  -0.475  0.00  0.00     0.047 A 
ATOM     30 CL   UNL d   1       2.860  12.090  -1.844  0.00  0.00    -0.083 Cl
ENDBRANCH  22  23
ENDBRANCH   1  21
TORSDOF 6
