REMARK  4 active torsions:
REMARK  status: ('A' for Active; 'I' for Inactive)
REMARK    1  A    between atoms: C_2  and  C_1 
REMARK    2  A    between atoms: O_8  and  C_9 
REMARK    3  A    between atoms: C_10  and  O_8 
REMARK    4  A    between atoms: C_13  and  C_10 
ROOT
ATOM      1  C   UNL d   1       0.396  -0.659  -1.241  0.00  0.00     0.048 A 
ATOM      2  C   UNL d   1       0.555   0.511  -1.995  0.00  0.00     0.019 A 
ATOM      3  C   UNL d   1      -0.307  -1.734  -1.805  0.00  0.00     0.019 A 
ATOM      4  C   UNL d   1      -0.607  -0.504  -3.866  0.00  0.00     0.069 A 
ATOM      5  C   UNL d   1       0.050   0.588  -3.297  0.00  0.00     0.037 A 
ATOM      6  C   UNL d   1      -0.812  -1.654  -3.106  0.00  0.00     0.037 A 
ENDROOT
BRANCH   4   7
ATOM      7  O   UNL d   1      -1.003  -0.333  -5.165  0.00  0.00    -0.347 OA
BRANCH   7   8
ATOM      8  C   UNL d   1      -1.238  -1.534  -5.903  0.00  0.00     0.214 C 
BRANCH   8   9
ATOM      9  C   UNL d   1      -1.146  -1.254  -7.383  0.00  0.00    -0.034 A 
ATOM     10  C   UNL d   1       0.007  -0.659  -7.920  0.00  0.00     0.009 A 
ATOM     11  C   UNL d   1       0.128  -0.463  -9.296  0.00  0.00     0.001 A 
ATOM     12  C   UNL d   1      -0.899  -0.861 -10.149  0.00  0.00     0.000 A 
ATOM     13  C   UNL d   1      -2.049  -1.451  -9.628  0.00  0.00     0.001 A 
ATOM     14  C   UNL d   1      -2.172  -1.649  -8.251  0.00  0.00     0.009 A 
ENDBRANCH   8   9
ENDBRANCH   7   8
ENDBRANCH   4   7
BRANCH   1  15
ATOM     15  C   UNL d   1       0.976  -0.787   0.146  0.00  0.00     0.417 C 
ATOM     16  F   UNL d   1       1.604   0.339   0.584  0.00  0.00    -0.166 F 
ATOM     17  F   UNL d   1       1.899  -1.786   0.229  0.00  0.00    -0.166 F 
ATOM     18  F   UNL d   1       0.030  -1.077   1.082  0.00  0.00    -0.166 F 
ENDBRANCH   1  15
TORSDOF 4
