REMARK  4 active torsions:
REMARK  status: ('A' for Active; 'I' for Inactive)
REMARK    1  A    between atoms: O_6  and  C_1 
REMARK    2  A    between atoms: O_7  and  C_1 
REMARK    3  A    between atoms: C_4  and  O_6 
REMARK    4  A    between atoms: C_5  and  O_7 
ROOT
ATOM      1  C   UNL d   1       0.987   0.062   0.077  0.00  0.00     0.351 C 
ENDROOT
BRANCH   1   2
ATOM      2  O   UNL d   1       0.493  -0.327   1.365  0.00  0.00    -0.326 OA
BRANCH   2   3
ATOM      3  C   UNL d   1      -0.871  -0.409   1.459  0.00  0.00     0.071 A 
ATOM      4  C   UNL d   1      -1.355  -1.341   2.383  0.00  0.00     0.040 A 
ATOM      5  C   UNL d   1      -2.730  -1.499   2.571  0.00  0.00     0.045 A 
ATOM      6  C   UNL d   1      -3.613  -0.711   1.844  0.00  0.00     0.116 A 
ATOM      7  C   UNL d   1      -3.147   0.232   0.936  0.00  0.00     0.045 A 
ATOM      8  F   UNL d   1      -4.932  -0.856   2.025  0.00  0.00    -0.206 F 
ATOM      9  C   UNL d   1      -1.772   0.387   0.744  0.00  0.00     0.040 A 
ENDBRANCH   2   3
ENDBRANCH   1   2
BRANCH   1  10
ATOM     10  O   UNL d   1       2.417  -0.021   0.054  0.00  0.00    -0.326 OA
BRANCH  10  11
ATOM     11  C   UNL d   1       3.003   0.461  -1.087  0.00  0.00     0.071 A 
ATOM     12  C   UNL d   1       4.282   1.002  -0.924  0.00  0.00     0.040 A 
ATOM     13  C   UNL d   1       4.979   1.509  -2.022  0.00  0.00     0.045 A 
ATOM     14  C   UNL d   1       4.398   1.457  -3.283  0.00  0.00     0.116 A 
ATOM     15  C   UNL d   1       3.134   0.904  -3.464  0.00  0.00     0.045 A 
ATOM     16  F   UNL d   1       5.065   1.936  -4.340  0.00  0.00    -0.206 F 
ATOM     17  C   UNL d   1       2.435   0.402  -2.364  0.00  0.00     0.040 A 
ENDBRANCH  10  11
ENDBRANCH   1  10
TORSDOF 4
