REMARK  7 active torsions:
REMARK  status: ('A' for Active; 'I' for Inactive)
REMARK    1  A    between atoms: C_2  and  C_1 
REMARK       I    between atoms: N_4  and  C_1 
REMARK    2  A    between atoms: C_20  and  N_4 
REMARK    3  A    between atoms: C_11  and  C_22 
REMARK    4  A    between atoms: S_12  and  C_21 
REMARK    5  A    between atoms: C_22  and  S_12 
REMARK    6  A    between atoms: C_19  and  C_20 
REMARK    7  A    between atoms: C_21  and  C_19 
ROOT
ATOM      1  C   UNL d   1       3.251   0.378   1.340  0.00  0.00     0.123 C 
ENDROOT
BRANCH   1   2
ATOM      2  C   UNL d   1       4.735   0.255   1.004  0.00  0.00     0.030 C 
BRANCH   2   3
ATOM      3  C   UNL d   1       5.600   0.634   2.205  0.00  0.00     0.076 C 
BRANCH   3   4
ATOM      4  S   UNL d   1       7.352   0.533   1.729  0.00  0.00    -0.164 SA
BRANCH   4   5
ATOM      5  C   UNL d   1       8.120   0.989   3.318  0.00  0.00     0.112 C 
BRANCH   5   6
ATOM      6  C   UNL d   1       9.625   0.934   3.200  0.00  0.00    -0.049 A 
ATOM      7  C   UNL d   1      10.349   2.066   2.789  0.00  0.00     0.011 A 
ATOM      8  C   UNL d   1      11.730   1.990   2.601  0.00  0.00     0.043 A 
ATOM      9  C   UNL d   1      12.387   0.786   2.821  0.00  0.00     0.116 A 
ATOM     10  C   UNL d   1      11.692  -0.344   3.234  0.00  0.00     0.043 A 
ATOM     11  F   UNL d   1      13.710   0.710   2.620  0.00  0.00    -0.206 F 
ATOM     12  C   UNL d   1      10.311  -0.271   3.424  0.00  0.00     0.011 A 
ENDBRANCH   5   6
ENDBRANCH   4   5
ENDBRANCH   3   4
ENDBRANCH   2   3
ENDBRANCH   1   2
BRANCH   1  13
ATOM     13  N   UNL d   1       2.416   0.094   0.191  0.00  0.00    -0.357 N 
ATOM     14  C   UNL d   1       1.948  -1.178  -0.080  0.00  0.00     0.251 C 
ATOM     15  O   UNL d   1       2.203  -2.161   0.604  0.00  0.00    -0.268 OA
ATOM     16  H   UNL d   1       2.347   0.803  -0.526  0.00  0.00     0.162 HD
BRANCH  14  17
ATOM     17  C   UNL d   1       1.105  -1.310  -1.303  0.00  0.00     0.032 A 
ATOM     18  C   UNL d   1       0.301  -0.255  -1.759  0.00  0.00     0.018 A 
ATOM     19  C   UNL d   1      -0.476  -0.411  -2.911  0.00  0.00     0.025 A 
ATOM     20  C   UNL d   1      -0.459  -1.623  -3.600  0.00  0.00     0.034 A 
ATOM     21  C   UNL d   1       0.319  -2.686  -3.142  0.00  0.00     0.025 A 
ATOM     22 CL   UNL d   1      -1.411  -1.808  -5.021  0.00  0.00    -0.084 Cl
ATOM     23  C   UNL d   1       1.096  -2.532  -1.989  0.00  0.00     0.018 A 
ENDBRANCH  14  17
ENDBRANCH   1  13
TORSDOF 7
