REMARK  8 active torsions:
REMARK  status: ('A' for Active; 'I' for Inactive)
REMARK    1  A    between atoms: N_5  and  S_1 
REMARK    2  A    between atoms: C_14  and  S_1 
REMARK    3  A    between atoms: C_10  and  C_2 
REMARK    4  A    between atoms: C_4  and  C_3 
REMARK    5  A    between atoms: N_9  and  N_5 
REMARK    6  A    between atoms: C_8  and  N_9 
REMARK    7  A    between atoms: O_23  and  C_10 
REMARK    8  A    between atoms: C_28  and  O_23 
ROOT
ATOM      1  C   UNL d   1      -0.048  -2.318   6.131  0.00  0.00     0.087 A 
ATOM      2  C   UNL d   1       1.219  -2.510   5.619  0.00  0.00     0.150 A 
ATOM      3  N   UNL d   1       1.486  -2.250   4.300  0.00  0.00    -0.184 N 
ATOM      4  HN  UNL d   1       2.407  -2.454   3.912  1.00  0.00     0.184 HD
ATOM      5  C   UNL d   1       0.530  -1.727   3.526  0.00  0.00     0.697 A 
ATOM      6  N   UNL d   1      -0.708  -1.474   3.958  0.00  0.00    -0.199 N 
ATOM      7  HN  UNL d   1      -1.418  -1.068   3.348  1.00  0.00     0.183 HD
ATOM      8  C   UNL d   1      -0.972  -1.784   5.248  0.00  0.00     0.126 A 
ENDROOT
BRANCH   5   9
ATOM      9  N   UNL d   1       0.898  -1.429   2.223  0.00  0.00    -0.122 N 
ATOM     10  H   UNL d   1       1.877  -1.622   2.022  0.00  0.00     0.206 HD
BRANCH   9  11
ATOM     11  N   UNL d   1       0.158  -0.608   1.285  0.00  0.00    -0.208 N 
ATOM     12  H   UNL d   1      -0.733  -0.176   1.542  0.00  0.00     0.201 HD
BRANCH  11  13
ATOM     13  S   UNL d   1       0.847  -0.205  -0.195  0.00  0.00     0.276 S 
ATOM     14  O   UNL d   1       2.270  -0.046   0.006  0.00  0.00    -0.199 OA
ATOM     15  O   UNL d   1       0.031   0.826  -0.802  0.00  0.00    -0.199 OA
BRANCH  13  16
ATOM     16  C   UNL d   1       0.591  -1.717  -1.099  0.00  0.00     0.081 A 
ATOM     17  C   UNL d   1      -0.620  -1.924  -1.768  0.00  0.00     0.027 A 
ATOM     18  C   UNL d   1      -0.813  -3.103  -2.490  0.00  0.00     0.020 A 
ATOM     19  C   UNL d   1       0.203  -4.059  -2.543  0.00  0.00     0.011 A 
ATOM     20  C   UNL d   1       1.413  -3.851  -1.879  0.00  0.00     0.020 A 
ATOM     21 BR   UNL d   1      -0.056  -5.645  -3.538  0.00  0.00    -0.051 Br
ATOM     22  C   UNL d   1       1.613  -2.673  -1.156  0.00  0.00     0.027 A 
ENDBRANCH  13  16
ENDBRANCH  11  13
ENDBRANCH   9  11
ENDBRANCH   5   9
BRANCH   2  23
ATOM     23  C   UNL d   1       2.422  -2.954   6.425  0.00  0.00     0.434 C 
ATOM     24  F   UNL d   1       2.310  -2.859   7.775  0.00  0.00    -0.165 F 
ATOM     25  F   UNL d   1       2.781  -4.242   6.157  0.00  0.00    -0.165 F 
ATOM     26  F   UNL d   1       3.526  -2.201   6.130  0.00  0.00    -0.165 F 
ENDBRANCH   2  23
BRANCH   1  27
ATOM     27  C   UNL d   1      -0.515  -2.550   7.502  0.00  0.00     0.296 C 
ATOM     28  O   UNL d   1      -1.378  -1.860   8.018  0.00  0.00    -0.259 OA
BRANCH  27  29
ATOM     29  O   UNL d   1       0.070  -3.640   8.043  0.00  0.00    -0.318 OA
BRANCH  29  30
ATOM     30  C   UNL d   1      -0.277  -3.904   9.418  0.00  0.00     0.174 C 
ATOM     31  C   UNL d   1       0.408  -2.925  10.361  0.00  0.00     0.034 C 
ENDBRANCH  29  30
ENDBRANCH  27  29
ENDBRANCH   1  27
TORSDOF 8
