REMARK  7 active torsions:
REMARK  status: ('A' for Active; 'I' for Inactive)
REMARK    1  A    between atoms: N_3  and  S_1 
REMARK    2  A    between atoms: C_11  and  S_1 
REMARK    3  A    between atoms: C_2  and  N_3 
REMARK    4  A    between atoms: C_10  and  C_6 
REMARK    5  A    between atoms: C_9  and  C_12 
REMARK    6  A    between atoms: C_13  and  C_10 
REMARK    7  A    between atoms: O_21  and  C_13 
ROOT
ATOM      1  N   UNL d   1       0.820   1.688  -0.491  0.00  0.00    -0.160 NA
ATOM      2  H   UNL d   1       1.622   1.086  -0.326  0.00  0.00     0.148 HD
ENDROOT
BRANCH   1   3
ATOM      3  C   UNL d   1       0.850   2.821   0.354  0.00  0.00     0.137 A 
ATOM      4  N   UNL d   1       1.967   3.137   0.968  0.00  0.00    -0.343 N 
ATOM      5  C   UNL d   1       1.790   4.327   1.672  0.00  0.00     0.033 A 
ATOM      6  HN  UNL d   1       2.830   2.596   0.935  1.00  0.00     0.167 HD
ATOM      7  C   UNL d   1       0.475   4.787   1.673  0.00  0.00     0.005 A 
ATOM      8  S   UNL d   1      -0.497   3.804   0.666  0.00  0.00    -0.062 SA
ATOM      9  C   UNL d   1      -0.135   5.922   2.414  0.00  0.00     0.058 C 
BRANCH   5  10
ATOM     10  C   UNL d   1       2.907   4.934   2.466  0.00  0.00     0.169 C 
BRANCH  10  11
ATOM     11  C   UNL d   1       4.287   4.908   1.862  0.00  0.00     0.264 C 
ATOM     12  O   UNL d   1       5.175   4.143   2.229  0.00  0.00    -0.265 OA
BRANCH  11  13
ATOM     13  O   UNL d   1       4.468   5.948   0.993  0.00  0.00    -0.326 OA
ATOM     14  C   UNL d   1       5.838   6.223   0.647  0.00  0.00     0.213 C 
ENDBRANCH  11  13
ENDBRANCH  10  11
ENDBRANCH   5  10
ENDBRANCH   1   3
BRANCH   1  15
ATOM     15  S   UNL d   1       0.776   2.112  -2.135  0.00  0.00     0.247 S 
ATOM     16  O   UNL d   1      -0.477   2.774  -2.439  0.00  0.00    -0.205 OA
ATOM     17  O   UNL d   1       1.218   0.952  -2.877  0.00  0.00    -0.205 OA
BRANCH  15  18
ATOM     18  C   UNL d   1       2.088   3.310  -2.254  0.00  0.00     0.075 A 
ATOM     19  C   UNL d   1       3.372   2.880  -1.901  0.00  0.00     0.041 A 
ATOM     20  C   UNL d   1       4.444   3.772  -1.905  0.00  0.00     0.049 A 
ATOM     21  C   UNL d   1       4.197   5.112  -2.248  0.00  0.00     0.016 A 
ATOM     22  C   UNL d   1       2.908   5.540  -2.597  0.00  0.00     0.002 A 
ATOM     23  C   UNL d   1       1.844   4.631  -2.611  0.00  0.00     0.025 A 
BRANCH  20  24
ATOM     24  C   UNL d   1       5.810   3.250  -1.524  0.00  0.00     0.417 C 
ATOM     25  F   UNL d   1       5.978   1.938  -1.853  0.00  0.00    -0.166 F 
ATOM     26  F   UNL d   1       6.825   3.923  -2.130  0.00  0.00    -0.166 F 
ATOM     27  F   UNL d   1       6.053   3.318  -0.191  0.00  0.00    -0.166 F 
ENDBRANCH  20  24
ENDBRANCH  15  18
ENDBRANCH   1  15
TORSDOF 7
