REMARK  8 active torsions:
REMARK  status: ('A' for Active; 'I' for Inactive)
REMARK    1  A    between atoms: O_4  and  C_1 
REMARK    2  A    between atoms: C_5  and  O_4 
REMARK       I    between atoms: N_11  and  C_5 
REMARK    3  A    between atoms: S_13  and  C_6 
REMARK    4  A    between atoms: C_18  and  C_7 
REMARK    5  A    between atoms: C_12  and  C_16 
REMARK    6  A    between atoms: C_15  and  C_12 
REMARK    7  A    between atoms: C_16  and  S_13 
REMARK    8  A    between atoms: C_25  and  C_18 
ROOT
ATOM      1  C   UNL d   1       0.958  -1.172  -0.589  0.00  0.00     0.163 A 
ATOM      2  N   UNL d   1       1.745  -0.118  -0.282  0.00  0.00    -0.316 N 
ATOM      3  HN  UNL d   1       2.763  -0.172  -0.316  1.00  0.00     0.170 HD
ATOM      4  C   UNL d   1       1.104   0.996   0.066  0.00  0.00     0.146 A 
ATOM      5  C   UNL d   1      -0.429  -1.145  -0.672  0.00  0.00     0.016 A 
ATOM      6  N   UNL d   1      -0.228   1.140   0.042  0.00  0.00    -0.340 N 
ATOM      7  HN  UNL d   1      -0.663   2.025   0.304  1.00  0.00     0.167 HD
ATOM      8  C   UNL d   1      -0.984   0.084  -0.340  0.00  0.00     0.018 A 
ATOM      9  C   UNL d   1      -2.460   0.349  -0.363  0.00  0.00     0.069 C 
ENDROOT
BRANCH   4  10
ATOM     10  S   UNL d   1       2.011   2.432   0.589  0.00  0.00    -0.086 SA
BRANCH  10  11
ATOM     11  C   UNL d   1       3.723   1.905   0.315  0.00  0.00     0.161 C 
BRANCH  11  12
ATOM     12  C   UNL d   1       4.674   2.818   1.076  0.00  0.00     0.144 C 
ATOM     13  O   UNL d   1       5.033   2.498   2.219  0.00  0.00    -0.296 OA
BRANCH  12  14
ATOM     14  C   UNL d   1       5.144   4.166   0.472  0.00  0.00     0.010 C 
ATOM     15  C   UNL d   1       4.213   5.293   0.939  0.00  0.00     0.022 C 
ATOM     16  C   UNL d   1       6.564   4.459   1.002  0.00  0.00     0.022 C 
ATOM     17  C   UNL d   1       5.209   4.150  -1.060  0.00  0.00     0.022 C 
ENDBRANCH  12  14
ENDBRANCH  11  12
ENDBRANCH  10  11
ENDBRANCH   4  10
BRANCH   1  18
ATOM     18  O   UNL d   1       1.621  -2.332  -1.030  0.00  0.00    -0.243 OA
BRANCH  18  19
ATOM     19  C   UNL d   1       2.547  -2.823  -0.119  0.00  0.00     0.368 C 
ATOM     20  N   UNL d   1       3.458  -3.700  -0.710  0.00  0.00    -0.336 N 
ATOM     21  C   UNL d   1       4.653  -4.017   0.050  0.00  0.00     0.154 C 
ATOM     22  C   UNL d   1       3.511  -3.898  -2.146  0.00  0.00     0.154 C 
ATOM     23  O   UNL d   1       2.569  -2.543   1.076  0.00  0.00    -0.238 OA
ENDBRANCH  18  19
ENDBRANCH   1  18
BRANCH   5  24
ATOM     24  C   UNL d   1      -1.242  -2.323  -1.145  0.00  0.00     0.044 C 
BRANCH  24  25
ATOM     25  C   UNL d   1      -1.269  -3.541  -0.216  0.00  0.00     0.000 C 
ATOM     26  C   UNL d   1      -1.946  -3.277   1.121  0.00  0.00     0.005 C 
ENDBRANCH  24  25
ENDBRANCH   5  24
TORSDOF 8
