REMARK  4 active torsions:
REMARK  status: ('A' for Active; 'I' for Inactive)
REMARK    1  A    between atoms: C_10  and  C_1 
REMARK    2  A    between atoms: C_3  and  C_13 
REMARK    3  A    between atoms: S_9  and  C_10 
REMARK    4  A    between atoms: C_13  and  S_9 
ROOT
ATOM      1  S   UNL d   1      -1.990   2.744  -0.294  0.00  0.00    -0.158 SA
ENDROOT
BRANCH   1   2
ATOM      2  C   UNL d   1      -0.255   2.189  -0.261  0.00  0.00     0.116 C 
BRANCH   2   3
ATOM      3  C   UNL d   1      -0.163   0.676  -0.287  0.00  0.00    -0.005 A 
ATOM      4  C   UNL d   1      -0.061  -0.035  -1.499  0.00  0.00     0.042 A 
ATOM      5 CL   UNL d   1      -0.006   0.762  -3.035  0.00  0.00    -0.084 Cl
ATOM      6  C   UNL d   1       0.004  -1.437  -1.519  0.00  0.00     0.024 A 
ATOM      7  C   UNL d   1      -0.041  -2.160  -0.332  0.00  0.00     0.003 A 
ATOM      8  C   UNL d   1      -0.153  -1.481   0.877  0.00  0.00     0.024 A 
ATOM      9  C   UNL d   1      -0.215  -0.081   0.901  0.00  0.00     0.042 A 
ATOM     10 CL   UNL d   1      -0.358   0.660   2.460  0.00  0.00    -0.084 Cl
ENDBRANCH   2   3
ENDBRANCH   1   2
BRANCH   1  11
ATOM     11  C   UNL d   1      -1.735   4.542  -0.099  0.00  0.00     0.139 C 
BRANCH  11  12
ATOM     12  C   UNL d   1      -3.048   5.244  -0.063  0.00  0.00     0.064 A 
ATOM     13  O   UNL d   1      -3.276   6.183  -1.032  0.00  0.00    -0.314 OA
ATOM     14  C   UNL d   1      -4.537   6.666  -0.836  0.00  0.00     0.086 A 
ATOM     15  C   UNL d   1      -5.173   7.626  -1.620  0.00  0.00     0.038 A 
ATOM     16  C   UNL d   1      -5.120   6.056   0.268  0.00  0.00     0.000 A 
ATOM     17  C   UNL d   1      -6.481   7.968  -1.254  0.00  0.00     0.003 A 
ATOM     18  C   UNL d   1      -7.103   7.371  -0.153  0.00  0.00     0.001 A 
ATOM     19  C   UNL d   1      -6.434   6.413   0.621  0.00  0.00     0.014 A 
ATOM     20  C   UNL d   1      -4.145   5.157   0.771  0.00  0.00     0.047 A 
ENDBRANCH  11  12
ENDBRANCH   1  11
TORSDOF 4
