REMARK  4 active torsions:
REMARK  status: ('A' for Active; 'I' for Inactive)
REMARK    1  A    between atoms: C_11  and  O_16 
REMARK    2  A    between atoms: C_15  and  C_12 
REMARK    3  A    between atoms: O_22  and  N_13 
REMARK    4  A    between atoms: O_16  and  C_18 
ROOT
ATOM      1  C   UNL d   1      -1.211   0.965   0.013  0.00  0.00     0.025 A 
ATOM      2  C   UNL d   1      -0.771  -0.350   0.028  0.00  0.00     0.071 A 
ATOM      3  C   UNL d   1      -0.007   1.823  -0.002  0.00  0.00     0.078 A 
ATOM      4  N   UNL d   1      -1.604  -1.394   0.051  0.00  0.00    -0.299 N 
ATOM      5  HN  UNL d   1      -1.253  -2.352   0.071  1.00  0.00     0.187 HD
ATOM      6  C   UNL d   1       1.156   0.909   0.003  0.00  0.00     0.006 A 
ATOM      7  C   UNL d   1       0.665  -0.405   0.019  0.00  0.00     0.005 A 
ATOM      8  N   UNL d   1      -2.954  -1.129   0.046  0.00  0.00    -0.299 N 
ATOM      9  HN  UNL d   1      -3.616  -1.904   0.066  1.00  0.00     0.187 HD
ATOM     10  C   UNL d   1      -2.556   1.242   0.009  0.00  0.00     0.048 A 
ATOM     11  C   UNL d   1      -3.425   0.155   0.014  0.00  0.00     0.059 A 
ATOM     12  N   UNL d   1       0.125   3.111  -0.014  0.00  0.00    -0.268 N 
ATOM     13  HN  UNL d   1       1.027   3.588  -0.022  1.00  0.00     0.194 HD
ATOM     14  C   UNL d   1       2.505   1.210  -0.009  0.00  0.00     0.014 A 
ATOM     15  C   UNL d   1       1.546  -1.472   0.021  0.00  0.00     0.014 A 
ATOM     16  C   UNL d   1       2.918  -1.193   0.008  0.00  0.00     0.001 A 
ATOM     17  C   UNL d   1       3.394   0.132  -0.005  0.00  0.00     0.001 A 
ENDROOT
BRANCH  11  18
ATOM     18  C   UNL d   1      -4.890   0.322  -0.013  0.00  0.00    -0.005 A 
ATOM     19  C   UNL d   1      -5.482   1.421  -0.669  0.00  0.00     0.051 A 
ATOM     20  C   UNL d   1      -6.857   1.649  -0.625  0.00  0.00     0.079 A 
ATOM     21  C   UNL d   1      -7.680   0.708  -0.009  0.00  0.00     0.037 A 
ATOM     22  C   UNL d   1      -7.130  -0.413   0.610  0.00  0.00     0.004 A 
ATOM     23  C   UNL d   1      -5.745  -0.596   0.619  0.00  0.00     0.014 A 
BRANCH  20  24
ATOM     24  O   UNL d   1      -7.497   2.700  -1.206  0.00  0.00    -0.255 OA
BRANCH  24  25
ATOM     25  C   UNL d   1      -6.863   3.975  -1.237  0.00  0.00     0.530 C 
ATOM     26  F   UNL d   1      -5.635   4.010  -0.679  0.00  0.00    -0.144 F 
ATOM     27  F   UNL d   1      -6.759   4.381  -2.522  0.00  0.00    -0.144 F 
ATOM     28  F   UNL d   1      -7.639   4.863  -0.576  0.00  0.00    -0.144 F 
ENDBRANCH  24  25
ENDBRANCH  20  24
ENDBRANCH  11  18
BRANCH  12  29
ATOM     29  O   UNL d   1      -1.101   3.775  -0.016  0.00  0.00    -0.289 OA
ATOM     30  H   UNL d   1      -0.831   4.713  -0.005  0.00  0.00     0.244 HD
ENDBRANCH  12  29
TORSDOF 4
