REMARK  5 active torsions:
REMARK  status: ('A' for Active; 'I' for Inactive)
REMARK    1  A    between atoms: C_2  and  S_1 
REMARK    2  A    between atoms: C_5  and  S_1 
REMARK    3  A    between atoms: C_3  and  C_2 
REMARK    4  A    between atoms: N_4  and  C_3 
REMARK    5  A    between atoms: C_8  and  C_3 
ROOT
ATOM      1  C   UNL d   1       1.056  -1.458   2.078  0.00  0.00     0.270 C 
ENDROOT
BRANCH   1   2
ATOM      2  C   UNL d   1       0.651  -0.031   1.619  0.00  0.00     0.186 C 
BRANCH   2   3
ATOM      3  S   UNL d   1       0.953   0.409  -0.083  0.00  0.00     0.177 S 
ATOM      4  O   UNL d   1       0.316  -0.583  -0.938  0.00  0.00    -0.223 OA
ATOM      5  O   UNL d   1       2.330   0.803  -0.304  0.00  0.00    -0.223 OA
BRANCH   3   6
ATOM      6  C   UNL d   1       0.081   1.943  -0.295  0.00  0.00     0.059 A 
ATOM      7  C   UNL d   1       0.500   3.045   0.465  0.00  0.00     0.025 A 
ATOM      8  C   UNL d   1      -0.122   4.276   0.288  0.00  0.00     0.025 A 
ATOM      9  C   UNL d   1      -1.143   4.404  -0.654  0.00  0.00     0.034 A 
ATOM     10  C   UNL d   1      -1.522   3.314  -1.445  0.00  0.00     0.025 A 
ATOM     11 CL   UNL d   1      -1.920   5.922  -0.859  0.00  0.00    -0.084 Cl
ATOM     12  C   UNL d   1      -0.908   2.074  -1.267  0.00  0.00     0.025 A 
ENDBRANCH   3   6
ENDBRANCH   2   3
ENDBRANCH   1   2
BRANCH   1  13
ATOM     13  N   UNL d   1       2.518  -1.759   2.248  0.00  0.00     0.102 N 
ATOM     14  C   UNL d   1       2.774  -3.114   2.829  0.00  0.00     0.299 C 
ATOM     15  C   UNL d   1       2.438  -4.277   1.872  0.00  0.00     0.198 C 
ATOM     16  O   UNL d   1       3.101  -4.159   0.606  0.00  0.00    -0.388 OA
ATOM     17  C   UNL d   1       2.888  -2.869   0.016  0.00  0.00     0.198 C 
ATOM     18  C   UNL d   1       3.315  -1.773   1.000  0.00  0.00     0.299 C 
ENDBRANCH   1  13
BRANCH   1  19
ATOM     19  C   UNL d   1       0.359  -1.683   3.451  0.00  0.00    -0.024 A 
ATOM     20  C   UNL d   1      -0.508  -2.775   3.645  0.00  0.00     0.009 A 
ATOM     21  C   UNL d   1      -0.961  -3.105   4.926  0.00  0.00     0.001 A 
ATOM     22  C   UNL d   1      -0.578  -2.342   6.028  0.00  0.00     0.000 A 
ATOM     23  C   UNL d   1       0.243  -1.231   5.848  0.00  0.00     0.001 A 
ATOM     24  C   UNL d   1       0.710  -0.905   4.572  0.00  0.00     0.009 A 
ENDBRANCH   1  19
TORSDOF 5
