REMARK  3 active torsions:
REMARK  status: ('A' for Active; 'I' for Inactive)
REMARK    1  A    between atoms: N_5  and  C_4 
REMARK    2  A    between atoms: C_8  and  N_5 
REMARK    3  A    between atoms: C_20  and  C_14 
ROOT
ATOM      1  C   UNL d   1      -2.716  -1.601  -0.847  0.00  0.00     0.098 A 
ATOM      2  C   UNL d   1      -2.028  -2.328  -1.947  0.00  0.00     0.199 A 
ATOM      3  C   UNL d   1      -1.700  -1.240   0.178  0.00  0.00     0.199 A 
ATOM      4  C   UNL d   1      -4.006  -1.232  -0.840  0.00  0.00     0.112 C 
ATOM      5  C   UNL d   1      -0.600  -2.254  -1.630  0.00  0.00     0.029 A 
ATOM      6  C   UNL d   1      -0.410  -1.637  -0.399  0.00  0.00     0.029 A 
ATOM      7  C   UNL d   1      -4.936  -1.730  -1.815  0.00  0.00     0.113 C 
ATOM      8  N   UNL d   1      -5.753  -2.096  -2.558  0.00  0.00    -0.190 NA
ATOM      9  O   UNL d   1      -2.507  -2.831  -2.940  0.00  0.00    -0.286 OA
ATOM     10  O   UNL d   1      -1.856  -0.777   1.287  0.00  0.00    -0.286 OA
ATOM     11  C   UNL d   1       0.466  -2.668  -2.410  0.00  0.00     0.016 A 
ATOM     12  C   UNL d   1       0.855  -1.438   0.124  0.00  0.00     0.016 A 
ATOM     13  C   UNL d   1       1.944  -1.853  -0.647  0.00  0.00     0.001 A 
ATOM     14  C   UNL d   1       1.753  -2.457  -1.906  0.00  0.00     0.001 A 
ENDROOT
BRANCH   4  15
ATOM     15  N   UNL d   1      -4.603  -0.353   0.057  0.00  0.00    -0.249 NA
ATOM     16  H   UNL d   1      -5.513  -0.711   0.343  0.00  0.00     0.134 HD
BRANCH  15  17
ATOM     17  C   UNL d   1      -4.736   1.069  -0.116  0.00  0.00     0.025 A 
ATOM     18  C   UNL d   1      -4.056   1.844  -1.097  0.00  0.00    -0.040 A 
ATOM     19  C   UNL d   1      -4.139   3.255  -1.051  0.00  0.00     0.008 A 
ATOM     20  C   UNL d   1      -3.202   1.331  -2.229  0.00  0.00     0.050 C 
ATOM     21  C   UNL d   1      -4.892   3.914  -0.093  0.00  0.00     0.001 A 
ATOM     22  C   UNL d   1      -5.590   3.174   0.844  0.00  0.00     0.009 A 
ATOM     23  C   UNL d   1      -5.532   1.765   0.849  0.00  0.00    -0.036 A 
BRANCH  23  24
ATOM     24  C   UNL d   1      -6.348   1.080   1.932  0.00  0.00     0.036 C 
ATOM     25  C   UNL d   1      -5.589   0.936   3.240  0.00  0.00     0.010 C 
ENDBRANCH  23  24
ENDBRANCH  15  17
ENDBRANCH   4  15
TORSDOF 3
