REMARK  2 active torsions:
REMARK  status: ('A' for Active; 'I' for Inactive)
REMARK    1  A    between atoms: C_12  and  C_2 
REMARK    2  A    between atoms: O_20  and  C_12 
ROOT
ATOM      1  N   UNL d   1       0.647  -1.214  -0.019  0.00  0.00    -0.349 N 
ATOM      2  C   UNL d   1      -1.459  -2.461  -0.050  0.00  0.00     0.104 A 
ATOM      3  C   UNL d   1      -0.008   0.032   0.011  0.00  0.00     0.066 A 
ATOM      4  C   UNL d   1       0.662   1.261   0.025  0.00  0.00     0.079 A 
ATOM      5  C   UNL d   1      -1.426   0.074   0.013  0.00  0.00     0.046 A 
ATOM      6  C   UNL d   1      -0.120  -2.376  -0.072  0.00  0.00     0.114 A 
ATOM      7  C   UNL d   1      -2.201  -1.191   0.004  0.00  0.00     0.202 A 
ATOM      8  C   UNL d   1       2.130   1.289   0.017  0.00  0.00     0.167 C 
ATOM      9  C   UNL d   1      -0.051   2.470   0.029  0.00  0.00     0.171 A 
ATOM     10  C   UNL d   1      -2.139   1.277   0.021  0.00  0.00     0.063 A 
ATOM     11  C   UNL d   1       2.126  -1.296   0.034  0.00  0.00     0.093 C 
ATOM     12  C   UNL d   1       2.888   0.008  -0.143  0.00  0.00     0.109 C 
ATOM     13  C   UNL d   1      -1.439   2.469   0.026  0.00  0.00     0.157 A 
ATOM     14  O   UNL d   1      -3.427  -1.194   0.035  0.00  0.00    -0.286 OA
ATOM     15  O   UNL d   1       2.741   2.352   0.089  0.00  0.00    -0.292 OA
ATOM     16  F   UNL d   1       0.574   3.656   0.022  0.00  0.00    -0.202 F 
ATOM     17  F   UNL d   1      -2.115   3.625   0.024  0.00  0.00    -0.203 F 
ATOM     18  C   UNL d   1       2.577  -2.006   1.320  0.00  0.00     0.033 C 
ENDROOT
BRANCH   2  19
ATOM     19  C   UNL d   1      -2.104  -3.789  -0.067  0.00  0.00     0.181 C 
ATOM     20  O   UNL d   1      -1.476  -4.838  -0.101  0.00  0.00    -0.646 OA
BRANCH  19  21
ATOM     21  O   UNL d   1      -3.454  -3.758  -0.035  0.00  0.00    -0.773 OA
ATOM     22  H   UNL d   1      -3.840  -2.849  -0.002  0.00  0.00     0.167 HD
ENDBRANCH  19  21
ENDBRANCH   2  19
TORSDOF 2
