REMARK  7 active torsions:
REMARK  status: ('A' for Active; 'I' for Inactive)
REMARK    1  A    between atoms: C_8  and  N_1 
REMARK    2  A    between atoms: C_12  and  C_5 
REMARK    3  A    between atoms: C_11  and  C_8 
REMARK    4  A    between atoms: C_9  and  C_14 
REMARK    5  A    between atoms: C_10  and  C_13 
REMARK       I    between atoms: N_16  and  C_11 
REMARK       I    between atoms: C_15  and  N_17 
REMARK    6  A    between atoms: C_21  and  C_15 
REMARK    7  A    between atoms: N_17  and  N_16 
ROOT
ATOM      1  N   UNL d   1      -0.055  -1.206  -0.105  0.00  0.00    -0.203 N 
ATOM      2  N   UNL d   1       0.646  -0.719  -1.145  0.00  0.00    -0.268 N 
ATOM      3  HN  UNL d   1       0.920  -1.174  -2.015  1.00  0.00     0.190 HD
ATOM      4  N   UNL d   1      -0.267  -0.340   0.900  0.00  0.00    -0.002 NA
ATOM      5  C   UNL d   1       0.885   0.532  -0.720  0.00  0.00     0.144 A 
ATOM      6  N   UNL d   1       0.328   0.781   0.514  0.00  0.00    -0.266 N 
ATOM      7  HN  UNL d   1       0.365   1.659   1.032  1.00  0.00     0.186 HD
ENDROOT
BRANCH   1   8
ATOM      8  C   UNL d   1      -0.408  -2.611  -0.007  0.00  0.00     0.214 C 
ATOM      9  C   UNL d   1       0.821  -3.434   0.373  0.00  0.00     0.046 C 
BRANCH   8  10
ATOM     10  C   UNL d   1      -1.101  -3.169  -1.251  0.00  0.00     0.262 C 
ATOM     11  N   UNL d   1      -1.495  -2.272  -2.224  0.00  0.00    -0.266 N 
ATOM     12  H   UNL d   1      -0.982  -1.394  -2.371  0.00  0.00     0.190 HD
ATOM     13  O   UNL d   1      -1.389  -4.368  -1.340  0.00  0.00    -0.269 OA
BRANCH  11  14
ATOM     14  N   UNL d   1      -2.180  -2.741  -3.361  0.00  0.00    -0.267 N 
ATOM     15  C   UNL d   1      -2.216  -1.918  -4.468  0.00  0.00     0.243 C 
ATOM     16  O   UNL d   1      -1.637  -0.826  -4.454  0.00  0.00    -0.271 OA
ATOM     17  H   UNL d   1      -2.552  -3.688  -3.322  0.00  0.00     0.190 HD
BRANCH  15  18
ATOM     18  C   UNL d   1      -3.084  -2.382  -5.654  0.00  0.00     0.032 C 
ATOM     19  C   UNL d   1      -4.566  -2.239  -5.282  0.00  0.00     0.025 C 
ATOM     20  C   UNL d   1      -2.785  -1.480  -6.866  0.00  0.00     0.025 C 
ATOM     21  C   UNL d   1      -2.788  -3.836  -6.045  0.00  0.00     0.025 C 
ENDBRANCH  15  18
ENDBRANCH  11  14
ENDBRANCH   8  10
ENDBRANCH   1   8
BRANCH   5  22
ATOM     22  C   UNL d   1       1.675   1.500  -1.468  0.00  0.00     0.012 A 
ATOM     23  C   UNL d   1       2.216   1.136  -2.712  0.00  0.00     0.031 A 
ATOM     24  C   UNL d   1       2.996   2.029  -3.459  0.00  0.00     0.049 A 
ATOM     25  C   UNL d   1       3.231   3.311  -2.943  0.00  0.00     0.032 A 
ATOM     26  C   UNL d   1       2.698   3.705  -1.702  0.00  0.00     0.049 A 
ATOM     27  C   UNL d   1       1.921   2.787  -0.971  0.00  0.00     0.031 A 
BRANCH  24  28
ATOM     28  C   UNL d   1       3.575   1.616  -4.792  0.00  0.00     0.417 C 
ATOM     29  F   UNL d   1       3.246   0.348  -5.162  0.00  0.00    -0.166 F 
ATOM     30  F   UNL d   1       3.166   2.423  -5.806  0.00  0.00    -0.166 F 
ATOM     31  F   UNL d   1       4.936   1.663  -4.798  0.00  0.00    -0.166 F 
ENDBRANCH  24  28
BRANCH  26  32
ATOM     32  C   UNL d   1       2.967   5.097  -1.180  0.00  0.00     0.417 C 
ATOM     33  F   UNL d   1       2.372   5.359   0.016  0.00  0.00    -0.166 F 
ATOM     34  F   UNL d   1       4.296   5.332  -0.998  0.00  0.00    -0.166 F 
ATOM     35  F   UNL d   1       2.530   6.062  -2.036  0.00  0.00    -0.166 F 
ENDBRANCH  26  32
ENDBRANCH   5  22
TORSDOF 7
