REMARK  5 active torsions:
REMARK  status: ('A' for Active; 'I' for Inactive)
REMARK    1  A    between atoms: N_3  and  C_1 
REMARK    2  A    between atoms: N_9  and  C_2 
REMARK    3  A    between atoms: C_16  and  N_9 
REMARK    4  A    between atoms: C_10  and  C_12 
REMARK    5  A    between atoms: C_19  and  C_16 
ROOT
ATOM      1  C   UNL d   1      -0.663   1.342   0.030  0.00  0.00     0.146 C 
ATOM      2  C   UNL d   1       0.693   1.324   0.114  0.00  0.00     0.128 C 
ATOM      3  C   UNL d   1      -1.373   0.092  -0.130  0.00  0.00     0.120 C 
ATOM      4  C   UNL d   1       1.422   0.089  -0.010  0.00  0.00     0.114 C 
ATOM      5  N   UNL d   1       2.052  -0.876  -0.134  0.00  0.00    -0.190 NA
ATOM      6  N   UNL d   1      -1.984  -0.888  -0.260  0.00  0.00    -0.190 NA
ENDROOT
BRANCH   1   7
ATOM      7  N   UNL d   1      -1.364   2.534   0.224  0.00  0.00    -0.354 N 
ATOM      8  C   UNL d   1      -2.512   2.660  -0.363  0.00  0.00     0.107 C 
ATOM      9  HN  UNL d   1      -0.985   3.280   0.807  1.00  0.00     0.166 HD
BRANCH   8  10
ATOM     10  C   UNL d   1      -3.331   3.832  -0.163  0.00  0.00     0.020 A 
ATOM     11  S   UNL d   1      -4.859   3.910  -0.931  0.00  0.00    -0.101 SA
ATOM     12  C   UNL d   1      -5.200   5.437  -0.242  0.00  0.00     0.050 A 
ATOM     13  C   UNL d   1      -4.168   5.886   0.551  0.00  0.00     0.008 A 
ATOM     14  C   UNL d   1      -3.085   4.959   0.597  0.00  0.00     0.021 A 
ENDBRANCH   8  10
ENDBRANCH   1   7
BRANCH   2  15
ATOM     15  N   UNL d   1       1.518   2.428   0.374  0.00  0.00    -0.277 NA
ATOM     16  H   UNL d   1       2.336   2.158   0.922  0.00  0.00     0.128 HD
BRANCH  15  17
ATOM     17  C   UNL d   1       1.958   3.318  -0.704  0.00  0.00     0.131 C 
BRANCH  17  18
ATOM     18  C   UNL d   1       2.225   4.704  -0.164  0.00  0.00    -0.043 A 
ATOM     19  C   UNL d   1       3.259   5.490  -0.698  0.00  0.00     0.032 A 
ATOM     20  C   UNL d   1       3.478   6.785  -0.220  0.00  0.00     0.034 A 
ATOM     21 CL   UNL d   1       4.749   7.737  -0.883  0.00  0.00    -0.084 Cl
ATOM     22  C   UNL d   1       2.673   7.316   0.785  0.00  0.00     0.024 A 
ATOM     23  C   UNL d   1       1.633   6.553   1.310  0.00  0.00     0.002 A 
ATOM     24  C   UNL d   1       1.406   5.262   0.831  0.00  0.00     0.008 A 
ENDBRANCH  17  18
ENDBRANCH  15  17
ENDBRANCH   2  15
TORSDOF 5
