REMARK  5 active torsions:
REMARK  status: ('A' for Active; 'I' for Inactive)
REMARK    1  A    between atoms: C_3  and  C_1 
REMARK    2  A    between atoms: N_6  and  C_2 
REMARK    3  A    between atoms: C_19  and  N_7 
REMARK    4  A    between atoms: C_21  and  C_19 
REMARK    5  A    between atoms: O_20  and  C_21 
ROOT
ATOM      1  C   UNL d   1      -1.460  -1.228   0.646  0.00  0.00     0.087 A 
ATOM      2  C   UNL d   1      -2.366  -0.321   0.081  0.00  0.00     0.097 A 
ATOM      3  N   UNL d   1      -1.920   0.847  -0.451  0.00  0.00    -0.354 N 
ATOM      4  HN  UNL d   1      -2.578   1.506  -0.867  1.00  0.00     0.166 HD
ATOM      5  C   UNL d   1      -0.089  -0.889   0.678  0.00  0.00     0.044 A 
ATOM      6  C   UNL d   1      -0.594   1.132  -0.427  0.00  0.00     0.113 A 
ATOM      7  C   UNL d   1       0.353   0.299   0.124  0.00  0.00     0.050 A 
ATOM      8 CL   UNL d   1       2.018   0.698   0.101  0.00  0.00    -0.083 Cl
ENDROOT
BRANCH   2   9
ATOM      9  N   UNL d   1      -3.717  -0.609  -0.069  0.00  0.00    -0.265 NA
ATOM     10  C   UNL d   1      -4.539  -0.735   1.150  0.00  0.00     0.127 C 
ATOM     11  C   UNL d   1      -5.854  -1.463   0.780  0.00  0.00     0.287 C 
ATOM     12  N   UNL d   1      -6.659  -0.816  -0.286  0.00  0.00     0.092 N 
ATOM     13  C   UNL d   1      -5.776  -0.496  -1.436  0.00  0.00     0.287 C 
ATOM     14  C   UNL d   1      -4.425   0.186  -1.097  0.00  0.00     0.127 C 
BRANCH  12  15
ATOM     15  C   UNL d   1      -7.388   0.351   0.231  0.00  0.00     0.298 C 
BRANCH  15  16
ATOM     16  C   UNL d   1      -8.518   0.812  -0.701  0.00  0.00     0.194 C 
BRANCH  16  17
ATOM     17  O   UNL d   1      -9.300   1.809  -0.047  0.00  0.00    -0.399 OA
ATOM     18  H   UNL d   1     -10.061   1.990  -0.625  0.00  0.00     0.209 HD
ENDBRANCH  16  17
ENDBRANCH  15  16
ENDBRANCH  12  15
ENDBRANCH   2   9
BRANCH   1  19
ATOM     19  C   UNL d   1      -1.860  -2.562   1.206  0.00  0.00     0.420 C 
ATOM     20  F   UNL d   1      -2.917  -3.169   0.602  0.00  0.00    -0.166 F 
ATOM     21  F   UNL d   1      -0.847  -3.479   1.141  0.00  0.00    -0.166 F 
ATOM     22  F   UNL d   1      -2.175  -2.487   2.533  0.00  0.00    -0.166 F 
ENDBRANCH   1  19
TORSDOF 5
