REMARK  3 active torsions:
REMARK  status: ('A' for Active; 'I' for Inactive)
REMARK    1  A    between atoms: C_2  and  C_1 
REMARK       I    between atoms: N_3  and  C_1 
REMARK    2  A    between atoms: N_6  and  N_3 
REMARK    3  A    between atoms: C_11  and  N_6 
ROOT
ATOM      1  C   UNL d   1       0.917   0.095  -0.134  0.00  0.00     0.266 C 
ATOM      2  N   UNL d   1       0.324   1.182   0.489  0.00  0.00    -0.283 N 
ATOM      3  O   UNL d   1       0.332  -0.970  -0.316  0.00  0.00    -0.266 OA
ATOM      4  H   UNL d   1       0.883   1.868   0.984  0.00  0.00     0.184 HD
ENDROOT
BRANCH   2   5
ATOM      5  N   UNL d   1      -0.956   0.958   1.036  0.00  0.00    -0.203 NA
ATOM      6  H   UNL d   1      -1.299   0.028   0.761  0.00  0.00     0.153 HD
BRANCH   5   7
ATOM      7  C   UNL d   1      -1.907   1.964   0.722  0.00  0.00     0.027 A 
ATOM      8  C   UNL d   1      -3.268   1.620   0.698  0.00  0.00     0.026 A 
ATOM      9  C   UNL d   1      -4.260   2.591   0.506  0.00  0.00     0.020 A 
ATOM     10  C   UNL d   1      -3.896   3.926   0.360  0.00  0.00     0.006 A 
ATOM     11  C   UNL d   1      -2.555   4.296   0.407  0.00  0.00     0.020 A 
ATOM     12  I   UNL d   1      -5.361   5.377   0.104  0.00  0.00    -0.045 I 
ATOM     13  C   UNL d   1      -1.569   3.319   0.600  0.00  0.00     0.026 A 
ENDBRANCH   5   7
ENDBRANCH   2   5
BRANCH   1  14
ATOM     14  C   UNL d   1       2.333   0.262  -0.570  0.00  0.00     0.036 A 
ATOM     15  C   UNL d   1       2.913   1.524  -0.746  0.00  0.00     0.041 A 
ATOM     16  C   UNL d   1       4.229   1.622  -1.202  0.00  0.00     0.036 A 
ATOM     17 CL   UNL d   1       4.934   3.177  -1.420  0.00  0.00    -0.084 Cl
ATOM     18  C   UNL d   1       4.973   0.482  -1.494  0.00  0.00     0.047 A 
ATOM     19  C   UNL d   1       4.389  -0.770  -1.324  0.00  0.00     0.036 A 
ATOM     20  C   UNL d   1       3.078  -0.889  -0.866  0.00  0.00     0.041 A 
ATOM     21 CL   UNL d   1       5.295  -2.186  -1.695  0.00  0.00    -0.084 Cl
ENDBRANCH   1  14
TORSDOF 3
