REMARK  7 active torsions:
REMARK  status: ('A' for Active; 'I' for Inactive)
REMARK    1  A    between atoms: N_2  and  S_1 
REMARK    2  A    between atoms: C_10  and  S_1 
REMARK    3  A    between atoms: C_3  and  N_2 
REMARK    4  A    between atoms: C_7  and  N_15 
REMARK    5  A    between atoms: N_8  and  C_7 
REMARK    6  A    between atoms: C_12  and  N_8 
REMARK    7  A    between atoms: N_15  and  C_22 
ROOT
ATOM      1  C   UNL d   1      -0.208  -1.527  -0.374  0.00  0.00     0.075 A 
ATOM      2  C   UNL d   1       0.443  -2.422  -1.229  0.00  0.00     0.027 A 
ATOM      3  C   UNL d   1      -1.259  -1.963   0.434  0.00  0.00     0.027 A 
ATOM      4  C   UNL d   1      -0.953  -4.228  -0.396  0.00  0.00     0.034 A 
ATOM      5  C   UNL d   1      -1.638  -3.311   0.411  0.00  0.00     0.031 A 
ATOM      6  C   UNL d   1       0.074  -3.771  -1.229  0.00  0.00     0.031 A 
ENDROOT
BRANCH   4   7
ATOM      7  N   UNL d   1      -1.136  -5.623  -0.277  0.00  0.00    -0.333 N 
ATOM      8  H   UNL d   1      -0.388  -6.213  -0.621  0.00  0.00     0.168 HD
BRANCH   7   9
ATOM      9  C   UNL d   1      -2.226  -6.310   0.185  0.00  0.00     0.176 C 
ATOM     10  S   UNL d   1      -3.822  -5.939  -0.164  0.00  0.00    -0.041 SA
BRANCH   9  11
ATOM     11  N   UNL d   1      -1.987  -7.475   0.868  0.00  0.00    -0.333 N 
ATOM     12  H   UNL d   1      -2.821  -8.047   0.934  0.00  0.00     0.168 HD
BRANCH  11  13
ATOM     13  C   UNL d   1      -0.953  -7.815   1.779  0.00  0.00     0.040 A 
ATOM     14  C   UNL d   1      -0.978  -9.082   2.407  0.00  0.00    -0.034 A 
ATOM     15  C   UNL d   1      -0.058  -9.363   3.440  0.00  0.00     0.032 A 
ATOM     16  C   UNL d   1      -1.974 -10.168   2.090  0.00  0.00     0.050 C 
ATOM     17  C   UNL d   1       0.892  -8.422   3.824  0.00  0.00     0.034 A 
ATOM     18  C   UNL d   1       0.948  -7.194   3.183  0.00  0.00     0.026 A 
ATOM     19 CL   UNL d   1       1.977  -8.772   5.112  0.00  0.00    -0.084 Cl
ATOM     20  C   UNL d   1       0.029  -6.892   2.172  0.00  0.00     0.032 A 
ENDBRANCH  11  13
ENDBRANCH   9  11
ENDBRANCH   7   9
ENDBRANCH   4   7
BRANCH   1  21
ATOM     21  S   UNL d   1       0.476   0.103  -0.142  0.00  0.00     0.247 S 
ATOM     22  O   UNL d   1       0.085   0.550   1.175  0.00  0.00    -0.205 OA
ATOM     23  O   UNL d   1       1.871   0.032  -0.535  0.00  0.00    -0.205 OA
BRANCH  21  24
ATOM     24  N   UNL d   1      -0.411   1.035  -1.242  0.00  0.00    -0.165 NA
ATOM     25  H   UNL d   1      -0.927   1.700  -0.660  0.00  0.00     0.147 HD
BRANCH  24  26
ATOM     26  C   UNL d   1       0.326   1.728  -2.196  0.00  0.00     0.117 A 
ATOM     27  N   UNL d   1       0.635   3.014  -2.039  0.00  0.00    -0.249 N 
ATOM     28  O   UNL d   1       1.334   3.368  -3.183  0.00  0.00    -0.241 OA
ATOM     29  HN  UNL d   1       0.406   3.612  -1.245  1.00  0.00     0.196 HD
ATOM     30  C   UNL d   1       1.369   2.307  -4.035  0.00  0.00     0.075 A 
ATOM     31  C   UNL d   1       0.737   1.237  -3.449  0.00  0.00     0.079 A 
ATOM     32  C   UNL d   1       2.022   2.534  -5.335  0.00  0.00     0.079 C 
ENDBRANCH  24  26
ENDBRANCH  21  24
ENDBRANCH   1  21
TORSDOF 7
