REMARK  3 active torsions:
REMARK  status: ('A' for Active; 'I' for Inactive)
REMARK    1  A    between atoms: C_2  and  N_1 
REMARK    2  A    between atoms: C_6  and  C_3 
REMARK    3  A    between atoms: C_12  and  C_6 
ROOT
ATOM      1  C   UNL d   1       0.067   2.306  -0.098  0.00  0.00     0.060 A 
ATOM      2  C   UNL d   1      -0.645   2.984   0.917  0.00  0.00     0.042 A 
ATOM      3  C   UNL d   1       0.833   3.058  -1.006  0.00  0.00     0.031 A 
ATOM      4  C   UNL d   1      -0.521   4.383   1.024  0.00  0.00     0.018 A 
ATOM      5  C   UNL d   1       0.889   4.449  -0.927  0.00  0.00     0.002 A 
ATOM      6  C   UNL d   1       0.222   5.111   0.095  0.00  0.00     0.001 A 
ENDROOT
BRANCH   2   7
ATOM      7  C   UNL d   1      -1.373   2.259   2.001  0.00  0.00     0.194 C 
ATOM      8  O   UNL d   1      -0.921   1.196   2.424  0.00  0.00    -0.287 OA
BRANCH   7   9
ATOM      9  C   UNL d   1      -2.586   2.843   2.647  0.00  0.00     0.015 A 
ATOM     10  C   UNL d   1      -2.833   2.550   3.995  0.00  0.00     0.015 A 
ATOM     11  C   UNL d   1      -3.926   3.122   4.651  0.00  0.00     0.001 A 
ATOM     12  C   UNL d   1      -4.779   3.985   3.964  0.00  0.00     0.000 A 
ATOM     13  C   UNL d   1      -4.553   4.261   2.616  0.00  0.00     0.001 A 
ATOM     14  C   UNL d   1      -3.468   3.681   1.953  0.00  0.00     0.015 A 
ENDBRANCH   7   9
ENDBRANCH   2   7
BRANCH   1  15
ATOM     15  N   UNL d   1       0.048   0.902  -0.240  0.00  0.00    -0.244 N 
ATOM     16  C   UNL d   1      -1.081   0.144  -0.323  0.00  0.00     0.255 A 
ATOM     17  C   UNL d   1      -0.645  -1.250  -0.502  0.00  0.00     0.080 A 
ATOM     18  O   UNL d   1      -2.250   0.486  -0.391  0.00  0.00    -0.268 OA
ATOM     19  C   UNL d   1       0.682  -1.256  -0.595  0.00  0.00     0.080 A 
ATOM     20  C   UNL d   1       1.148   0.132  -0.484  0.00  0.00     0.255 A 
ATOM     21  O   UNL d   1       2.320   0.439  -0.607  0.00  0.00    -0.268 OA
ENDBRANCH   1  15
TORSDOF 3
