REMARK  21 active torsions:
REMARK  status: ('A' for Active; 'I' for Inactive)
REMARK    1  A    between atoms: C_1  and  O_14 
REMARK    2  A    between atoms: C_2  and  O_15 
REMARK    3  A    between atoms: C_3  and  O_16 
REMARK    4  A    between atoms: C_4  and  O_17 
REMARK    5  A    between atoms: C_5  and  O_13 
REMARK    6  A    between atoms: C_6  and  O_18 
REMARK    7  A    between atoms: C_7  and  O_19 
REMARK    8  A    between atoms: C_8  and  O_22 
REMARK    9  A    between atoms: C_11  and  C_31 
REMARK   10  A    between atoms: C_12  and  C_32 
REMARK   11  A    between atoms: C_23  and  O_13 
REMARK   12  A    between atoms: C_26  and  O_14 
REMARK   13  A    between atoms: C_24  and  O_15 
REMARK   14  A    between atoms: C_27  and  O_16 
REMARK   15  A    between atoms: C_25  and  O_17 
REMARK   16  A    between atoms: C_28  and  O_18 
REMARK   17  A    between atoms: C_29  and  O_19 
REMARK   18  A    between atoms: O_22  and  C_31 
REMARK   19  A    between atoms: C_41  and  C_23 
REMARK   20  A    between atoms: C_30  and  O_33 
REMARK   21  A    between atoms: O_33  and  C_32 
ROOT
ATOM      1  N   UNL d   1      -4.153  -0.013  -0.822  0.00  0.00    -0.194 NA
ATOM      2  C   UNL d   1      -3.532  -0.893  -0.389  0.00  0.00     0.096 C 
ATOM      3  C   UNL d   1      -2.758  -1.997   0.249  0.00  0.00     0.264 C 
ENDROOT
BRANCH   3   4
ATOM      4  O   UNL d   1      -1.406  -2.171  -0.244  0.00  0.00    -0.334 OA
BRANCH   4   5
ATOM      5  C   UNL d   1      -0.566  -1.068   0.074  0.00  0.00     0.294 C 
ATOM      6  C   UNL d   1       0.912  -1.387  -0.265  0.00  0.00     0.219 C 
ATOM      7  C   UNL d   1       1.786  -0.122  -0.085  0.00  0.00     0.198 C 
ATOM      8  C   UNL d   1       1.127   1.190  -0.590  0.00  0.00     0.195 C 
ATOM      9  C   UNL d   1      -0.382   1.247  -0.310  0.00  0.00     0.180 C 
ATOM     10  O   UNL d   1      -0.984   0.027  -0.723  0.00  0.00    -0.348 OA
BRANCH   6  11
ATOM     11  O   UNL d   1       1.452  -2.522   0.475  0.00  0.00    -0.308 OA
BRANCH  11  12
ATOM     12  C   UNL d   1       1.438  -2.492   1.832  0.00  0.00     0.255 C 
ATOM     13  O   UNL d   1       0.992  -1.579   2.510  0.00  0.00    -0.266 OA
ATOM     14  C   UNL d   1       1.996  -3.757   2.405  0.00  0.00     0.126 C 
ENDBRANCH  11  12
ENDBRANCH   6  11
BRANCH   7  15
ATOM     15  O   UNL d   1       3.138  -0.229  -0.629  0.00  0.00    -0.311 OA
BRANCH  15  16
ATOM     16  C   UNL d   1       3.293  -0.304  -1.977  0.00  0.00     0.255 C 
ATOM     17  O   UNL d   1       2.433  -0.650  -2.773  0.00  0.00    -0.266 OA
ATOM     18  C   UNL d   1       4.603   0.303  -2.378  0.00  0.00     0.126 C 
ENDBRANCH  15  16
ENDBRANCH   7  15
BRANCH   8  19
ATOM     19  O   UNL d   1       1.865   2.345  -0.096  0.00  0.00    -0.311 OA
BRANCH  19  20
ATOM     20  C   UNL d   1       1.829   2.632   1.234  0.00  0.00     0.255 C 
ATOM     21  O   UNL d   1       1.187   2.010   2.065  0.00  0.00    -0.266 OA
ATOM     22  C   UNL d   1       2.721   3.785   1.573  0.00  0.00     0.126 C 
ENDBRANCH  19  20
ENDBRANCH   8  19
BRANCH   9  23
ATOM     23  C   UNL d   1      -1.116   2.392  -1.018  0.00  0.00     0.205 C 
BRANCH  23  24
ATOM     24  O   UNL d   1      -1.065   2.298  -2.457  0.00  0.00    -0.356 OA
BRANCH  24  25
ATOM     25  C   UNL d   1      -1.827   3.364  -3.040  0.00  0.00     0.292 C 
ATOM     26  C   UNL d   1      -2.050   3.234  -4.572  0.00  0.00     0.219 C 
ATOM     27  C   UNL d   1      -0.841   3.711  -5.404  0.00  0.00     0.198 C 
ATOM     28  C   UNL d   1      -0.249   5.029  -4.861  0.00  0.00     0.195 C 
ATOM     29  C   UNL d   1      -0.008   4.927  -3.344  0.00  0.00     0.181 C 
ATOM     30  O   UNL d   1      -1.244   4.619  -2.681  0.00  0.00    -0.348 OA
BRANCH  26  31
ATOM     31  O   UNL d   1      -3.178   4.095  -4.912  0.00  0.00    -0.308 OA
BRANCH  31  32
ATOM     32  C   UNL d   1      -4.233   3.535  -5.558  0.00  0.00     0.255 C 
ATOM     33  O   UNL d   1      -4.332   2.360  -5.873  0.00  0.00    -0.266 OA
ATOM     34  C   UNL d   1      -5.307   4.557  -5.790  0.00  0.00     0.126 C 
ENDBRANCH  31  32
ENDBRANCH  26  31
BRANCH  27  35
ATOM     35  O   UNL d   1       0.209   2.716  -5.393  0.00  0.00    -0.311 OA
BRANCH  35  36
ATOM     36  C   UNL d   1       0.124   1.702  -6.286  0.00  0.00     0.255 C 
ATOM     37  O   UNL d   1      -0.727   1.601  -7.157  0.00  0.00    -0.266 OA
ATOM     38  C   UNL d   1       1.238   0.719  -6.070  0.00  0.00     0.126 C 
ENDBRANCH  35  36
ENDBRANCH  27  35
BRANCH  28  39
ATOM     39  O   UNL d   1      -1.193   6.102  -5.124  0.00  0.00    -0.311 OA
BRANCH  39  40
ATOM     40  C   UNL d   1      -0.733   7.365  -4.920  0.00  0.00     0.255 C 
ATOM     41  O   UNL d   1       0.428   7.659  -4.669  0.00  0.00    -0.266 OA
ATOM     42  C   UNL d   1      -1.840   8.367  -5.053  0.00  0.00     0.126 C 
ENDBRANCH  39  40
ENDBRANCH  28  39
BRANCH  29  43
ATOM     43  C   UNL d   1       1.161   4.006  -2.956  0.00  0.00     0.213 C 
BRANCH  43  44
ATOM     44  O   UNL d   1       2.394   4.436  -3.546  0.00  0.00    -0.319 OA
BRANCH  44  45
ATOM     45  C   UNL d   1       3.146   5.256  -2.765  0.00  0.00     0.254 C 
ATOM     46  O   UNL d   1       2.827   5.673  -1.661  0.00  0.00    -0.266 OA
ATOM     47  C   UNL d   1       4.437   5.585  -3.444  0.00  0.00     0.126 C 
ENDBRANCH  44  45
ENDBRANCH  43  44
ENDBRANCH  29  43
ENDBRANCH  24  25
ENDBRANCH  23  24
ENDBRANCH   9  23
ENDBRANCH   4   5
ENDBRANCH   3   4
BRANCH   3  48
ATOM     48  C   UNL d   1      -3.473  -3.321   0.053  0.00  0.00    -0.016 A 
ATOM     49  C   UNL d   1      -3.304  -4.057  -1.133  0.00  0.00     0.011 A 
ATOM     50  C   UNL d   1      -3.959  -5.273  -1.312  0.00  0.00     0.001 A 
ATOM     51  C   UNL d   1      -4.801  -5.762  -0.316  0.00  0.00     0.000 A 
ATOM     52  C   UNL d   1      -5.001  -5.030   0.854  0.00  0.00     0.001 A 
ATOM     53  C   UNL d   1      -4.345  -3.813   1.037  0.00  0.00     0.011 A 
ENDBRANCH   3  48
TORSDOF 21
