REMARK  8 active torsions:
REMARK  status: ('A' for Active; 'I' for Inactive)
REMARK    1  A    between atoms: N_2  and  C_1 
REMARK    2  A    between atoms: N_3  and  C_1 
REMARK    3  A    between atoms: C_5  and  N_2 
REMARK    4  A    between atoms: N_6  and  N_3 
REMARK    5  A    between atoms: C_7  and  N_3 
REMARK    6  A    between atoms: C_15  and  C_7 
REMARK    7  A    between atoms: O_13  and  C_8 
REMARK    8  A    between atoms: O_14  and  C_15 
ROOT
ATOM      1  C   UNL d   1       1.036   0.057  -0.143  0.00  0.00     0.189 C 
ATOM      2  S   UNL d   1       2.509   0.146  -0.967  0.00  0.00    -0.039 SA
ENDROOT
BRANCH   1   3
ATOM      3  N   UNL d   1       0.421  -1.121   0.260  0.00  0.00    -0.332 N 
ATOM      4  H   UNL d   1      -0.587  -1.124   0.087  0.00  0.00     0.168 HD
BRANCH   3   5
ATOM      5  C   UNL d   1       1.016  -2.372   0.509  0.00  0.00     0.034 A 
ATOM      6  C   UNL d   1       2.256  -2.482   1.144  0.00  0.00     0.032 A 
ATOM      7  C   UNL d   1       2.813  -3.737   1.405  0.00  0.00     0.039 A 
ATOM      8  C   UNL d   1       2.139  -4.894   1.021  0.00  0.00     0.068 A 
ATOM      9  C   UNL d   1       0.878  -4.786   0.432  0.00  0.00     0.039 A 
ATOM     10  C   UNL d   1       0.311  -3.530   0.187  0.00  0.00     0.032 A 
BRANCH   8  11
ATOM     11  O   UNL d   1       2.599  -6.170   1.201  0.00  0.00    -0.356 OA
ATOM     12  C   UNL d   1       4.013  -6.301   1.325  0.00  0.00     0.210 C 
ENDBRANCH   8  11
ENDBRANCH   3   5
ENDBRANCH   1   3
BRANCH   1  13
ATOM     13  N   UNL d   1       0.267   1.207   0.147  0.00  0.00    -0.289 N 
BRANCH  13  14
ATOM     14  N   UNL d   1       0.609   2.464  -0.435  0.00  0.00    -0.245 NA
ATOM     15  H   UNL d   1       0.982   2.260  -1.370  0.00  0.00     0.143 HD
ATOM     16  H   UNL d   1       1.431   2.809   0.074  0.00  0.00     0.143 HD
ENDBRANCH  13  14
BRANCH  13  17
ATOM     17  C   UNL d   1      -0.829   1.241   1.130  0.00  0.00     0.171 C 
BRANCH  17  18
ATOM     18  C   UNL d   1      -2.191   0.959   0.500  0.00  0.00     0.185 C 
BRANCH  18  19
ATOM     19  O   UNL d   1      -2.286  -0.407   0.084  0.00  0.00    -0.399 OA
ATOM     20  H   UNL d   1      -3.171  -0.504  -0.314  0.00  0.00     0.209 HD
ENDBRANCH  18  19
ENDBRANCH  17  18
ENDBRANCH  13  17
ENDBRANCH   1  13
TORSDOF 8
