REMARK  6 active torsions:
REMARK  status: ('A' for Active; 'I' for Inactive)
REMARK    1  A    between atoms: N_3  and  C_1 
REMARK    2  A    between atoms: C_6  and  C_2 
REMARK    3  A    between atoms: S_10  and  C_4 
REMARK    4  A    between atoms: S_9  and  C_5 
REMARK    5  A    between atoms: C_16  and  S_9 
REMARK    6  A    between atoms: C_17  and  S_10 
ROOT
ATOM      1  C   UNL d   1       1.364  -0.127  -0.091  0.00  0.00     0.120 A 
ATOM      2  C   UNL d   1      -0.608   1.320   0.036  0.00  0.00     0.067 A 
ATOM      3  C   UNL d   1       0.581  -1.280  -0.104  0.00  0.00     0.040 A 
ATOM      4  C   UNL d   1      -1.416   0.176  -0.066  0.00  0.00     0.022 A 
ATOM      5  C   UNL d   1       0.794   1.152  -0.006  0.00  0.00     0.055 A 
ATOM      6  C   UNL d   1      -0.813  -1.103  -0.110  0.00  0.00     0.041 A 
ENDROOT
BRANCH   3   7
ATOM      7  S   UNL d   1       1.213  -2.948  -0.197  0.00  0.00    -0.088 SA
BRANCH   7   8
ATOM      8  C   UNL d   1       1.261  -3.402   1.534  0.00  0.00     0.005 A 
ATOM      9  C   UNL d   1       0.121  -3.883   2.184  0.00  0.00     0.020 A 
ATOM     10  C   UNL d   1       0.178  -4.258   3.531  0.00  0.00     0.025 A 
ATOM     11  C   UNL d   1       1.379  -4.154   4.231  0.00  0.00     0.034 A 
ATOM     12  C   UNL d   1       2.524  -3.690   3.590  0.00  0.00     0.025 A 
ATOM     13 CL   UNL d   1       1.447  -4.611   5.886  0.00  0.00    -0.084 Cl
ATOM     14  C   UNL d   1       2.465  -3.323   2.242  0.00  0.00     0.020 A 
ENDBRANCH   7   8
ENDBRANCH   3   7
BRANCH   1  15
ATOM     15  N   UNL d   1       2.808  -0.190  -0.214  0.00  0.00    -0.114 N 
ATOM     16  O   UNL d   1       3.444  -0.609   0.760  0.00  0.00    -0.532 OA
ATOM     17  O   UNL d   1       3.291   0.246  -1.265  0.00  0.00    -0.532 OA
ENDBRANCH   1  15
BRANCH   4  18
ATOM     18  S   UNL d   1      -3.205   0.201  -0.092  0.00  0.00    -0.090 SA
BRANCH  18  19
ATOM     19  C   UNL d   1      -3.558   0.474  -1.824  0.00  0.00     0.005 A 
ATOM     20  C   UNL d   1      -3.236  -0.482  -2.795  0.00  0.00     0.020 A 
ATOM     21  C   UNL d   1      -3.609  -0.290  -4.130  0.00  0.00     0.025 A 
ATOM     22  C   UNL d   1      -4.310   0.856  -4.498  0.00  0.00     0.034 A 
ATOM     23  C   UNL d   1      -4.630   1.818  -3.542  0.00  0.00     0.025 A 
ATOM     24 CL   UNL d   1      -4.800   1.073  -6.133  0.00  0.00    -0.084 Cl
ATOM     25  C   UNL d   1      -4.256   1.626  -2.209  0.00  0.00     0.020 A 
ENDBRANCH  18  19
ENDBRANCH   4  18
BRANCH   2  26
ATOM     26  C   UNL d   1      -1.109   2.737   0.218  0.00  0.00     0.418 C 
ATOM     27  F   UNL d   1      -2.453   2.913   0.250  0.00  0.00    -0.166 F 
ATOM     28  F   UNL d   1      -0.642   3.277   1.380  0.00  0.00    -0.166 F 
ATOM     29  F   UNL d   1      -0.654   3.561  -0.770  0.00  0.00    -0.166 F 
ENDBRANCH   2  26
TORSDOF 6
