REMARK  9 active torsions:
REMARK  status: ('A' for Active; 'I' for Inactive)
REMARK    1  A    between atoms: C_12  and  C_1 
REMARK    2  A    between atoms: C_11  and  C_2 
REMARK    3  A    between atoms: C_3  and  C_9 
REMARK    4  A    between atoms: C_10  and  C_4 
REMARK    5  A    between atoms: C_9  and  O_17 
REMARK    6  A    between atoms: O_18  and  C_10 
REMARK    7  A    between atoms: O_17  and  C_32 
REMARK    8  A    between atoms: C_31  and  O_18 
REMARK    9  A    between atoms: C_25  and  C_26 
ROOT
ATOM      1  C   UNL d   1      -5.928  -2.504  -0.170  0.00  0.00    -0.026 A 
ATOM      2  C   UNL d   1      -6.709  -2.117  -1.283  0.00  0.00     0.015 A 
ATOM      3  C   UNL d   1      -6.588  -2.556   1.069  0.00  0.00     0.015 A 
ATOM      4  C   UNL d   1      -8.711  -2.034   0.038  0.00  0.00     0.079 A 
ATOM      5  C   UNL d   1      -8.083  -1.893  -1.191  0.00  0.00     0.038 A 
ATOM      6  C   UNL d   1      -7.970  -2.305   1.180  0.00  0.00     0.038 A 
ENDROOT
BRANCH   1   7
ATOM      7  C   UNL d   1      -4.469  -2.781  -0.345  0.00  0.00    -0.026 C 
ATOM      8  C   UNL d   1      -3.952  -3.066  -1.626  0.00  0.00     0.015 C 
ATOM      9  C   UNL d   1      -2.586  -3.076  -1.888  0.00  0.00     0.038 C 
ATOM     10  C   UNL d   1      -1.688  -2.863  -0.845  0.00  0.00     0.079 C 
ATOM     11  C   UNL d   1      -2.150  -2.736   0.457  0.00  0.00     0.038 C 
ATOM     12  C   UNL d   1      -3.535  -2.700   0.705  0.00  0.00     0.015 C 
BRANCH  10  13
ATOM     13  O   UNL d   1      -0.346  -2.562  -1.103  0.00  0.00    -0.275 OA
BRANCH  13  14
ATOM     14  C   UNL d   1       0.225  -3.343  -2.093  0.00  0.00     0.303 C 
ATOM     15  O   UNL d   1       0.150  -4.568  -2.108  0.00  0.00    -0.259 OA
BRANCH  14  16
ATOM     16  C   UNL d   1       0.848  -2.570  -3.152  0.00  0.00     0.100 A 
ATOM     17  C   UNL d   1       1.211  -1.186  -3.260  0.00  0.00     0.087 A 
ATOM     18  N   UNL d   1       1.803  -0.953  -4.445  0.00  0.00    -0.259 N 
ATOM     19  O   UNL d   1       1.721  -2.119  -5.162  0.00  0.00    -0.241 OA
ATOM     20  HN  UNL d   1       2.230  -0.079  -4.752  1.00  0.00     0.195 HD
ATOM     21  C   UNL d   1       1.131  -3.077  -4.409  0.00  0.00     0.091 A 
ATOM     22  C   UNL d   1       0.881  -4.353  -5.108  0.00  0.00     0.080 C 
BRANCH  17  23
ATOM     23  C   UNL d   1       1.022  -0.060  -2.337  0.00  0.00     0.037 A 
ATOM     24  C   UNL d   1       1.608  -0.039  -1.062  0.00  0.00     0.048 A 
ATOM     25 CL   UNL d   1       2.602  -1.327  -0.469  0.00  0.00    -0.083 Cl
ATOM     26  C   UNL d   1       1.434   1.063  -0.208  0.00  0.00     0.025 A 
ATOM     27  C   UNL d   1       0.713   2.178  -0.627  0.00  0.00     0.003 A 
ATOM     28  C   UNL d   1       0.151   2.188  -1.899  0.00  0.00     0.025 A 
ATOM     29  C   UNL d   1       0.294   1.082  -2.745  0.00  0.00     0.048 A 
ATOM     30 CL   UNL d   1      -0.507   1.198  -4.283  0.00  0.00    -0.083 Cl
ENDBRANCH  17  23
ENDBRANCH  14  16
ENDBRANCH  13  14
ENDBRANCH  10  13
ENDBRANCH   1   7
BRANCH   4  31
ATOM     31  O   UNL d   1     -10.096  -1.831   0.031  0.00  0.00    -0.275 OA
BRANCH  31  32
ATOM     32  C   UNL d   1     -10.915  -2.798   0.612  0.00  0.00     0.303 C 
ATOM     33  O   UNL d   1     -10.539  -3.748   1.284  0.00  0.00    -0.259 OA
BRANCH  32  34
ATOM     34  C   UNL d   1     -12.307  -2.528   0.351  0.00  0.00     0.100 A 
ATOM     35  C   UNL d   1     -13.436  -2.661   1.218  0.00  0.00     0.087 A 
ATOM     36  N   UNL d   1     -14.549  -2.248   0.593  0.00  0.00    -0.259 N 
ATOM     37  O   UNL d   1     -14.187  -1.944  -0.698  0.00  0.00    -0.241 OA
ATOM     38  HN  UNL d   1     -15.482  -2.175   0.997  1.00  0.00     0.195 HD
ATOM     39  C   UNL d   1     -12.854  -2.122  -0.853  0.00  0.00     0.091 A 
ATOM     40  C   UNL d   1     -12.323  -1.913  -2.214  0.00  0.00     0.080 C 
BRANCH  35  41
ATOM     41  C   UNL d   1     -13.495  -3.138   2.602  0.00  0.00     0.037 A 
ATOM     42  C   UNL d   1     -12.713  -2.557   3.619  0.00  0.00     0.048 A 
ATOM     43 CL   UNL d   1     -11.679  -1.189   3.356  0.00  0.00    -0.083 Cl
ATOM     44  C   UNL d   1     -12.772  -3.038   4.936  0.00  0.00     0.025 A 
ATOM     45  C   UNL d   1     -13.635  -4.076   5.271  0.00  0.00     0.003 A 
ATOM     46  C   UNL d   1     -14.435  -4.645   4.288  0.00  0.00     0.025 A 
ATOM     47  C   UNL d   1     -14.361  -4.193   2.962  0.00  0.00     0.048 A 
ATOM     48 CL   UNL d   1     -15.358  -5.035   1.819  0.00  0.00    -0.083 Cl
ENDBRANCH  35  41
ENDBRANCH  32  34
ENDBRANCH  31  32
ENDBRANCH   4  31
TORSDOF 9
