REMARK  4 active torsions:
REMARK  status: ('A' for Active; 'I' for Inactive)
REMARK    1  A    between atoms: C_5  and  C_2 
REMARK    2  A    between atoms: O_12  and  C_2 
REMARK    3  A    between atoms: C_8  and  C_5 
REMARK    4  A    between atoms: O_17  and  C_11 
ROOT
ATOM      1  C   UNL d   1      -0.396   0.117   0.369  0.00  0.00     0.164 C 
ATOM      2  C   UNL d   1       2.561  -0.078   0.033  0.00  0.00     0.062 C 
ATOM      3  O   UNL d   1      -0.802  -0.352  -0.930  0.00  0.00    -0.353 OA
ATOM      4  O   UNL d   1      -1.563   0.423   1.148  0.00  0.00    -0.353 OA
ATOM      5  C   UNL d   1       0.407  -0.976   1.078  0.00  0.00     0.071 C 
ATOM      6  C   UNL d   1       0.458   1.374   0.194  0.00  0.00     0.071 C 
ATOM      7  C   UNL d   1       1.740   1.073  -0.587  0.00  0.00     0.043 C 
ATOM      8  C   UNL d   1       1.684  -1.316   0.306  0.00  0.00     0.043 C 
ATOM      9  C   UNL d   1      -2.656   0.306   0.236  0.00  0.00     0.197 C 
ATOM     10  C   UNL d   1      -2.176  -0.696  -0.775  0.00  0.00     0.197 C 
ENDROOT
BRANCH   2  11
ATOM     11  C   UNL d   1       3.820  -0.436  -0.807  0.00  0.00     0.076 C 
BRANCH  11  12
ATOM     12  C   UNL d   1       3.555  -0.865  -2.232  0.00  0.00    -0.055 A 
ATOM     13  C   UNL d   1       3.499   0.086  -3.260  0.00  0.00     0.010 A 
ATOM     14  C   UNL d   1       3.123  -0.283  -4.555  0.00  0.00     0.037 A 
ATOM     15  C   UNL d   1       2.810  -1.611  -4.843  0.00  0.00     0.068 A 
ATOM     16  C   UNL d   1       2.923  -2.570  -3.836  0.00  0.00     0.037 A 
ATOM     17  C   UNL d   1       3.298  -2.205  -2.542  0.00  0.00     0.010 A 
BRANCH  15  18
ATOM     18  O   UNL d   1       2.382  -2.090  -6.050  0.00  0.00    -0.356 OA
ATOM     19  C   UNL d   1       2.109  -1.124  -7.058  0.00  0.00     0.210 C 
ENDBRANCH  15  18
ENDBRANCH  11  12
ENDBRANCH   2  11
BRANCH   2  20
ATOM     20  O   UNL d   1       3.025   0.374   1.320  0.00  0.00    -0.390 OA
ATOM     21  H   UNL d   1       3.562   1.174   1.184  0.00  0.00     0.210 HD
ENDBRANCH   2  20
TORSDOF 4
