REMARK  2 active torsions:
REMARK  status: ('A' for Active; 'I' for Inactive)
REMARK    1  A    between atoms: C_3  and  C_1 
REMARK       I    between atoms: N_4  and  C_3 
REMARK    2  A    between atoms: C_15  and  C_8 
ROOT
ATOM      1  C   UNL d   1      -1.604  -5.900   0.904  0.00  0.00    -0.005 A 
ATOM      2  C   UNL d   1       0.088  -2.688   0.097  0.00  0.00     0.256 C 
ATOM      3  N   UNL d   1      -0.826  -3.747   0.001  0.00  0.00    -0.343 N 
ATOM      4  C   UNL d   1      -2.052  -6.257  -0.348  0.00  0.00     0.020 A 
ATOM      5  N   UNL d   1      -2.567  -7.517  -0.301  0.00  0.00    -0.358 N 
ATOM      6  C   UNL d   1      -1.887  -6.997   1.769  0.00  0.00     0.003 A 
ATOM      7  C   UNL d   1      -0.970  -4.581   1.213  0.00  0.00     0.167 C 
ATOM      8  C   UNL d   1      -2.490  -7.995   0.990  0.00  0.00     0.043 A 
ATOM      9  C   UNL d   1      -1.963  -5.398  -1.546  0.00  0.00     0.077 C 
ATOM     10  C   UNL d   1      -1.816  -3.935  -1.086  0.00  0.00     0.132 C 
ATOM     11  O   UNL d   1       0.913  -2.637   1.008  0.00  0.00    -0.267 OA
ATOM     12  C   UNL d   1      -1.694  -7.240   3.142  0.00  0.00     0.056 A 
ATOM     13  C   UNL d   1      -2.903  -9.224   1.516  0.00  0.00     0.033 A 
ATOM     14  C   UNL d   1      -2.109  -8.463   3.670  0.00  0.00     0.117 A 
ATOM     15  C   UNL d   1      -2.701  -9.440   2.881  0.00  0.00     0.044 A 
ATOM     16  F   UNL d   1      -1.931  -8.701   4.977  0.00  0.00    -0.206 F 
ATOM     17  H   UNL d   1      -2.953  -8.032  -1.081  0.00  0.00     0.166 HD
ENDROOT
BRANCH   2  18
ATOM     18  C   UNL d   1       0.044  -1.624  -0.903  0.00  0.00     0.064 C 
ATOM     19  C   UNL d   1      -1.084  -0.987  -1.495  0.00  0.00     0.057 C 
ATOM     20  C   UNL d   1      -0.618  -0.104  -2.445  0.00  0.00     0.087 C 
ATOM     21  O   UNL d   1       0.744  -0.056  -2.376  0.00  0.00    -0.314 OA
ATOM     22  C   UNL d   1       1.140  -0.944  -1.416  0.00  0.00     0.065 C 
ATOM     23  C   UNL d   1       2.597  -0.994  -1.161  0.00  0.00     0.077 C 
BRANCH  20  24
ATOM     24  C   UNL d   1      -1.277   0.713  -3.460  0.00  0.00    -0.002 A 
ATOM     25  C   UNL d   1      -2.675   0.658  -3.598  0.00  0.00     0.016 A 
ATOM     26  C   UNL d   1      -3.333   1.385  -4.593  0.00  0.00     0.024 A 
ATOM     27  C   UNL d   1      -2.597   2.180  -5.464  0.00  0.00     0.034 A 
ATOM     28  C   UNL d   1      -1.211   2.258  -5.342  0.00  0.00     0.024 A 
ATOM     29 CL   UNL d   1      -3.404   3.060  -6.702  0.00  0.00    -0.084 Cl
ATOM     30  C   UNL d   1      -0.555   1.528  -4.343  0.00  0.00     0.016 A 
ENDBRANCH  20  24
ENDBRANCH   2  18
TORSDOF 2
