REMARK  8 active torsions:
REMARK  status: ('A' for Active; 'I' for Inactive)
REMARK    1  A    between atoms: C_2  and  C_1 
REMARK    2  A    between atoms: N_3  and  C_1 
REMARK    3  A    between atoms: C_4  and  C_1 
REMARK    4  A    between atoms: C_6  and  C_1 
REMARK       I    between atoms: C_5  and  N_3 
REMARK    5  A    between atoms: O_15  and  C_4 
REMARK    6  A    between atoms: O_14  and  C_5 
REMARK    7  A    between atoms: C_20  and  O_14 
REMARK    8  A    between atoms: C_21  and  O_15 
ROOT
ATOM      1  C   UNL d   1       1.062   0.001   0.118  0.00  0.00     0.248 C 
ENDROOT
BRANCH   1   2
ATOM      2  C   UNL d   1       0.526   0.681   1.415  0.00  0.00     0.426 C 
ATOM      3  F   UNL d   1       0.370   2.021   1.234  0.00  0.00    -0.167 F 
ATOM      4  F   UNL d   1      -0.667   0.207   1.844  0.00  0.00    -0.167 F 
ATOM      5  F   UNL d   1       1.390   0.546   2.455  0.00  0.00    -0.167 F 
ENDBRANCH   1   2
BRANCH   1   6
ATOM      6  N   UNL d   1       0.631   0.686  -1.123  0.00  0.00    -0.307 N 
ATOM      7  C   UNL d   1      -0.679   0.921  -1.407  0.00  0.00     0.362 C 
ATOM      8  O   UNL d   1      -1.604   0.639  -0.667  0.00  0.00    -0.238 OA
ATOM      9  H   UNL d   1       1.281   0.855  -1.880  0.00  0.00     0.166 HD
BRANCH   7  10
ATOM     10  O   UNL d   1      -0.768   1.435  -2.652  0.00  0.00    -0.304 OA
BRANCH  10  11
ATOM     11  C   UNL d   1      -2.064   1.378  -3.262  0.00  0.00     0.176 C 
ATOM     12  C   UNL d   1      -2.065   0.190  -4.209  0.00  0.00     0.034 C 
ENDBRANCH  10  11
ENDBRANCH   7  10
ENDBRANCH   1   6
BRANCH   1  13
ATOM     13  C   UNL d   1       0.469  -1.427   0.107  0.00  0.00     0.301 C 
ATOM     14  O   UNL d   1       0.051  -2.001  -0.899  0.00  0.00    -0.262 OA
BRANCH  13  15
ATOM     15  O   UNL d   1       0.558  -2.028   1.328  0.00  0.00    -0.319 OA
BRANCH  15  16
ATOM     16  C   UNL d   1      -0.247  -3.205   1.503  0.00  0.00     0.174 C 
ATOM     17  C   UNL d   1       0.516  -4.464   1.146  0.00  0.00     0.034 C 
ENDBRANCH  15  16
ENDBRANCH  13  15
ENDBRANCH   1  13
BRANCH   1  18
ATOM     18  C   UNL d   1       2.612  -0.016   0.064  0.00  0.00    -0.011 A 
ATOM     19  C   UNL d   1       3.345  -1.194  -0.188  0.00  0.00     0.013 A 
ATOM     20  C   UNL d   1       4.741  -1.176  -0.234  0.00  0.00     0.043 A 
ATOM     21  C   UNL d   1       5.420   0.019  -0.051  0.00  0.00     0.116 A 
ATOM     22  C   UNL d   1       4.729   1.202   0.168  0.00  0.00     0.043 A 
ATOM     23  F   UNL d   1       6.759   0.032  -0.094  0.00  0.00    -0.206 F 
ATOM     24  C   UNL d   1       3.332   1.189   0.221  0.00  0.00     0.013 A 
ENDBRANCH   1  18
TORSDOF 8
