REMARK  12 active torsions:
REMARK  status: ('A' for Active; 'I' for Inactive)
REMARK    1  A    between atoms: N_2  and  C_1 
REMARK    2  A    between atoms: C_3  and  C_1 
REMARK    3  A    between atoms: C_4  and  C_1 
REMARK    4  A    between atoms: N_5  and  C_1 
REMARK       I    between atoms: C_6  and  N_2 
REMARK    5  A    between atoms: C_7  and  N_5 
REMARK    6  A    between atoms: O_17  and  C_6 
REMARK    7  A    between atoms: C_15  and  C_7 
REMARK    8  A    between atoms: C_16  and  C_15 
REMARK    9  A    between atoms: O_18  and  C_15 
REMARK   10  A    between atoms: C_21  and  O_17 
REMARK   11  A    between atoms: C_22  and  C_21 
REMARK   12  A    between atoms: C_23  and  C_22 
ROOT
ATOM      1  C   UNL d   1       0.921   0.109  -0.151  0.00  0.00     0.427 C 
ENDROOT
BRANCH   1   2
ATOM      2  N   UNL d   1       0.497   0.926  -1.294  0.00  0.00    -0.286 N 
ATOM      3  C   UNL d   1      -0.797   1.090  -1.628  0.00  0.00     0.363 C 
ATOM      4  O   UNL d   1      -1.724   0.607  -0.987  0.00  0.00    -0.238 OA
ATOM      5  H   UNL d   1       1.195   1.411  -1.835  0.00  0.00     0.168 HD
BRANCH   3   6
ATOM      6  O   UNL d   1      -0.878   1.773  -2.784  0.00  0.00    -0.304 OA
BRANCH   6   7
ATOM      7  C   UNL d   1      -2.133   1.689  -3.471  0.00  0.00     0.180 C 
BRANCH   7   8
ATOM      8  C   UNL d   1      -2.798   3.057  -3.545  0.00  0.00     0.026 C 
BRANCH   8   9
ATOM      9  C   UNL d   1      -4.136   2.942  -4.274  0.00  0.00    -0.002 C 
ATOM     10  C   UNL d   1      -4.849   4.276  -4.401  0.00  0.00     0.005 C 
ENDBRANCH   8   9
ENDBRANCH   7   8
ENDBRANCH   6   7
ENDBRANCH   3   6
ENDBRANCH   1   2
BRANCH   1  11
ATOM     11  C   UNL d   1       0.318  -1.353  -0.150  0.00  0.00     0.452 C 
ATOM     12  F   UNL d   1       0.013  -1.742  -1.419  0.00  0.00    -0.166 F 
ATOM     13  F   UNL d   1       1.247  -2.245   0.292  0.00  0.00    -0.166 F 
ATOM     14  F   UNL d   1      -0.787  -1.553   0.587  0.00  0.00    -0.166 F 
ENDBRANCH   1  11
BRANCH   1  15
ATOM     15  C   UNL d   1       0.512   0.762   1.234  0.00  0.00     0.452 C 
ATOM     16  F   UNL d   1       0.051   2.031   1.064  0.00  0.00    -0.166 F 
ATOM     17  F   UNL d   1      -0.406   0.107   1.964  0.00  0.00    -0.166 F 
ATOM     18  F   UNL d   1       1.611   0.877   2.035  0.00  0.00    -0.166 F 
ENDBRANCH   1  15
BRANCH   1  19
ATOM     19  N   UNL d   1       2.431   0.181  -0.333  0.00  0.00     0.134 N 
ATOM     20  H   UNL d   1       2.864  -0.144   0.540  0.00  0.00     0.320 HD
BRANCH  19  21
ATOM     21  C   UNL d   1       3.007  -0.585  -1.458  0.00  0.00     0.310 C 
BRANCH  21  22
ATOM     22  C   UNL d   1       4.569  -0.596  -1.392  0.00  0.00     0.179 C 
BRANCH  22  23
ATOM     23  C   UNL d   1       5.216  -1.241  -2.603  0.00  0.00    -0.028 A 
ATOM     24  C   UNL d   1       6.035  -0.518  -3.486  0.00  0.00     0.010 A 
ATOM     25  C   UNL d   1       6.655  -1.146  -4.570  0.00  0.00     0.001 A 
ATOM     26  C   UNL d   1       6.465  -2.507  -4.788  0.00  0.00     0.000 A 
ATOM     27  C   UNL d   1       5.652  -3.239  -3.927  0.00  0.00     0.001 A 
ATOM     28  C   UNL d   1       5.033  -2.613  -2.842  0.00  0.00     0.010 A 
ENDBRANCH  22  23
BRANCH  22  29
ATOM     29  O   UNL d   1       5.069   0.733  -1.206  0.00  0.00    -0.389 OA
ATOM     30  H   UNL d   1       4.513   1.322  -1.741  0.00  0.00     0.210 HD
ENDBRANCH  22  29
ENDBRANCH  21  22
ENDBRANCH  19  21
ENDBRANCH   1  19
TORSDOF 12
