REMARK  4 active torsions:
REMARK  status: ('A' for Active; 'I' for Inactive)
REMARK    1  A    between atoms: C_2  and  C_1 
REMARK       I    between atoms: N_4  and  C_1 
REMARK    2  A    between atoms: O_6  and  C_3 
REMARK    3  A    between atoms: C_10  and  N_4 
REMARK    4  A    between atoms: C_12  and  O_6 
ROOT
ATOM      1  C   UNL d   1       3.910   2.334  -1.527  0.00  0.00    -0.086 C 
ATOM      2  C   UNL d   1       4.701   3.225  -1.356  0.00  0.00     0.015 C 
ATOM      3  C   UNL d   1       2.935   1.236  -1.756  0.00  0.00     0.088 C 
ATOM      4  C   UNL d   1       3.686   0.036  -2.349  0.00  0.00     0.053 C 
ATOM      5  C   UNL d   1       1.869   1.740  -2.745  0.00  0.00     0.053 C 
ENDROOT
BRANCH   3   6
ATOM      6  N   UNL d   1       2.339   0.917  -0.456  0.00  0.00    -0.337 N 
ATOM      7  C   UNL d   1       1.370  -0.047  -0.255  0.00  0.00     0.257 C 
ATOM      8  O   UNL d   1       0.971  -0.801  -1.133  0.00  0.00    -0.267 OA
ATOM      9  H   UNL d   1       2.699   1.426   0.340  0.00  0.00     0.164 HD
BRANCH   7  10
ATOM     10  C   UNL d   1       0.762  -0.086   1.099  0.00  0.00     0.083 A 
ATOM     11  C   UNL d   1       0.315  -1.273   1.680  0.00  0.00     0.163 A 
ATOM     12  N   UNL d   1      -0.366  -1.300   2.860  0.00  0.00    -0.346 N 
ATOM     13  C   UNL d   1      -0.573  -0.134   3.500  0.00  0.00     0.090 A 
ATOM     14  HN  UNL d   1      -0.710  -2.179   3.247  1.00  0.00     0.167 HD
ATOM     15  C   UNL d   1      -0.131   1.085   3.022  0.00  0.00     0.018 A 
ATOM     16  C   UNL d   1       0.534   1.110   1.799  0.00  0.00     0.023 A 
BRANCH  11  17
ATOM     17  O   UNL d   1       0.587  -2.478   1.041  0.00  0.00    -0.293 OA
BRANCH  17  18
ATOM     18  C   UNL d   1       0.453  -3.648   1.756  0.00  0.00     0.077 A 
ATOM     19  C   UNL d   1      -0.183  -4.713   1.114  0.00  0.00     0.037 A 
ATOM     20  C   UNL d   1      -0.342  -5.935   1.774  0.00  0.00     0.003 A 
ATOM     21  C   UNL d   1       0.146  -6.098   3.071  0.00  0.00     0.000 A 
ATOM     22  C   UNL d   1       0.814  -5.049   3.700  0.00  0.00     0.003 A 
ATOM     23  C   UNL d   1       0.986  -3.833   3.036  0.00  0.00     0.037 A 
ENDBRANCH  17  18
ENDBRANCH  11  17
ENDBRANCH   7  10
ENDBRANCH   3   6
TORSDOF 4
