REMARK  7 active torsions:
REMARK  status: ('A' for Active; 'I' for Inactive)
REMARK    1  A    between atoms: N_2  and  S_1 
REMARK    2  A    between atoms: C_5  and  S_1 
REMARK    3  A    between atoms: C_6  and  N_2 
REMARK    4  A    between atoms: N_3  and  C_10 
REMARK    5  A    between atoms: O_7  and  C_4 
REMARK    6  A    between atoms: C_22  and  C_6 
REMARK    7  A    between atoms: C_14  and  O_7 
ROOT
ATOM      1  C   UNL d   1      -0.807   4.121   0.516  0.00  0.00     0.119 A 
ATOM      2  C   UNL d   1       0.331   1.573   0.216  0.00  0.00     0.083 A 
ATOM      3  C   UNL d   1       0.556   3.973   0.205  0.00  0.00     0.071 A 
ATOM      4  C   UNL d   1      -1.607   2.969   0.596  0.00  0.00     0.071 A 
ATOM      5  C   UNL d   1       1.129   2.706   0.049  0.00  0.00     0.052 A 
ATOM      6  C   UNL d   1      -1.031   1.700   0.492  0.00  0.00     0.052 A 
ATOM      7 CL   UNL d   1      -3.330   3.021   0.738  0.00  0.00    -0.081 Cl
ATOM      8 CL   UNL d   1       1.573   5.349  -0.044  0.00  0.00    -0.081 Cl
ENDROOT
BRANCH   2   9
ATOM      9  S   UNL d   1       0.995  -0.042  -0.109  0.00  0.00     0.264 S 
ATOM     10  O   UNL d   1       0.108  -0.667  -1.062  0.00  0.00    -0.200 OA
ATOM     11  O   UNL d   1       2.411   0.098  -0.343  0.00  0.00    -0.200 OA
BRANCH   9  12
ATOM     12  N   UNL d   1       0.853  -0.820   1.366  0.00  0.00    -0.265 N 
ATOM     13  H   UNL d   1       1.776  -0.945   1.780  0.00  0.00     0.180 HD
BRANCH  12  14
ATOM     14  C   UNL d   1      -0.189  -1.668   1.777  0.00  0.00     0.118 C 
ATOM     15  N   UNL d   1      -1.238  -1.873   1.070  0.00  0.00    -0.384 N 
ATOM     16  H   UNL d   1      -1.163  -1.418   0.149  0.00  0.00     0.157 HD
ATOM     17  HN  UNL d   1      -2.044  -2.417   1.379  1.00  0.00     0.157 HD
BRANCH  14  18
ATOM     18  C   UNL d   1      -0.027  -2.346   3.090  0.00  0.00     0.011 A 
ATOM     19  C   UNL d   1       0.820  -1.877   4.095  0.00  0.00     0.032 A 
ATOM     20  C   UNL d   1       0.887  -2.603   5.273  0.00  0.00     0.088 A 
ATOM     21  N   UNL d   1       0.196  -3.740   5.499  0.00  0.00    -0.375 N 
ATOM     22  C   UNL d   1      -0.610  -4.177   4.510  0.00  0.00     0.088 A 
ATOM     23  HN  UNL d   1       0.279  -4.248   6.379  1.00  0.00     0.164 HD
ATOM     24  C   UNL d   1      -0.753  -3.523   3.302  0.00  0.00     0.032 A 
ENDBRANCH  14  18
ENDBRANCH  12  14
ENDBRANCH   9  12
ENDBRANCH   2   9
BRANCH   1  25
ATOM     25  O   UNL d   1      -1.294   5.406   0.605  0.00  0.00    -0.306 OA
BRANCH  25  26
ATOM     26  C   UNL d   1      -2.056   5.803   1.686  0.00  0.00     0.098 A 
ATOM     27  C   UNL d   1      -2.833   6.964   1.525  0.00  0.00     0.070 A 
ATOM     28  C   UNL d   1      -3.674   7.413   2.546  0.00  0.00     0.062 A 
ATOM     29 CL   UNL d   1      -2.781   7.878   0.058  0.00  0.00    -0.081 Cl
ATOM     30  C   UNL d   1      -3.746   6.687   3.740  0.00  0.00     0.104 A 
ATOM     31  C   UNL d   1      -2.961   5.542   3.926  0.00  0.00     0.039 A 
ATOM     32  C   UNL d   1      -2.091   5.126   2.913  0.00  0.00     0.041 A 
BRANCH  30  33
ATOM     33  N   UNL d   1      -4.637   7.135   4.816  0.00  0.00    -0.116 N 
ATOM     34  O   UNL d   1      -5.252   8.198   4.649  0.00  0.00    -0.532 OA
ATOM     35  O   UNL d   1      -4.717   6.427   5.829  0.00  0.00    -0.532 OA
ENDBRANCH  30  33
ENDBRANCH  25  26
ENDBRANCH   1  25
TORSDOF 7
