REMARK  2 active torsions:
REMARK  status: ('A' for Active; 'I' for Inactive)
REMARK    1  A    between atoms: S_12  and  C_6 
REMARK    2  A    between atoms: C_15  and  S_12 
ROOT
ATOM      1  C   UNL d   1       1.152   0.593   0.016  0.00  0.00     0.089 A 
ATOM      2  C   UNL d   1       0.562  -0.666   0.063  0.00  0.00     0.039 A 
ATOM      3  S   UNL d   1       0.030   1.870  -0.019  0.00  0.00    -0.075 SA
ATOM      4  C   UNL d   1      -0.887  -0.536   0.034  0.00  0.00    -0.029 A 
ATOM      5  C   UNL d   1      -1.278   0.793   0.030  0.00  0.00    -0.008 A 
ATOM      6  C   UNL d   1       1.488  -1.725   0.136  0.00  0.00     0.084 A 
ATOM      7  N   UNL d   1       2.465   0.877   0.008  0.00  0.00    -0.346 N 
ATOM      8  HN  UNL d   1       2.837   1.825  -0.030  1.00  0.00     0.167 HD
ATOM      9  N   UNL d   1       2.817  -1.482   0.124  0.00  0.00    -0.346 N 
ATOM     10  HN  UNL d   1       3.490  -2.247   0.167  1.00  0.00     0.167 HD
ATOM     11  C   UNL d   1       3.226  -0.211   0.054  0.00  0.00     0.182 A 
ATOM     12  C   UNL d   1      -1.916  -1.637   0.056  0.00  0.00     0.040 C 
ATOM     13  C   UNL d   1      -2.689   1.296   0.033  0.00  0.00     0.047 C 
ATOM     14  C   UNL d   1      -3.339  -1.128  -0.248  0.00  0.00     0.005 C 
ATOM     15  C   UNL d   1      -3.647   0.186   0.478  0.00  0.00     0.005 C 
ENDROOT
BRANCH   6  16
ATOM     16  S   UNL d   1       0.968  -3.415   0.241  0.00  0.00    -0.112 SA
BRANCH  16  17
ATOM     17  C   UNL d   1       2.150  -4.045   1.482  0.00  0.00     0.076 C 
ATOM     18  C   UNL d   1       1.789  -3.566   2.878  0.00  0.00     0.016 C 
ENDBRANCH  16  17
ENDBRANCH   6  16
TORSDOF 2
