REMARK  2 active torsions:
REMARK  status: ('A' for Active; 'I' for Inactive)
REMARK    1  A    between atoms: C_5  and  C_4 
REMARK    2  A    between atoms: O_18  and  C_16 
ROOT
ATOM      1  C   UNL d   1      -2.077   0.356   0.058  0.00  0.00    -0.004 C 
ATOM      2  C   UNL d   1      -1.107  -0.787   0.011  0.00  0.00     0.189 C 
ATOM      3  C   UNL d   1       0.341  -0.422  -0.001  0.00  0.00     0.021 A 
ATOM      4  C   UNL d   1      -3.296   0.152  -0.471  0.00  0.00     0.048 C 
ATOM      5  C   UNL d   1       0.744   0.923  -0.049  0.00  0.00    -0.041 A 
ATOM      6  C   UNL d   1       1.308  -1.434   0.012  0.00  0.00     0.019 A 
ATOM      7  C   UNL d   1      -1.524   1.606   0.685  0.00  0.00     0.047 C 
ATOM      8  O   UNL d   1      -1.472  -1.956  -0.035  0.00  0.00    -0.287 OA
ATOM      9  C   UNL d   1       2.110   1.230  -0.117  0.00  0.00     0.044 A 
ATOM     10  C   UNL d   1      -0.271   2.037  -0.062  0.00  0.00     0.044 C 
ATOM     11  C   UNL d   1       3.075   0.220  -0.105  0.00  0.00     0.068 A 
ATOM     12  C   UNL d   1       2.670  -1.114  -0.034  0.00  0.00     0.038 A 
ENDROOT
BRANCH   4  13
ATOM     13  C   UNL d   1      -4.251   1.195  -0.628  0.00  0.00     0.076 A 
ATOM     14  O   UNL d   1      -3.912   2.508  -0.869  0.00  0.00    -0.316 OA
ATOM     15  C   UNL d   1      -5.044   3.243  -0.985  0.00  0.00     0.050 A 
ATOM     16  C   UNL d   1      -4.861   4.688  -1.225  0.00  0.00     0.076 C 
ATOM     17  C   UNL d   1      -6.144   2.431  -0.851  0.00  0.00     0.035 A 
ATOM     18  C   UNL d   1      -5.639   1.124  -0.635  0.00  0.00     0.040 A 
ENDBRANCH   4  13
BRANCH  11  19
ATOM     19  O   UNL d   1       4.364   0.672  -0.167  0.00  0.00    -0.356 OA
ATOM     20  C   UNL d   1       5.393  -0.307  -0.164  0.00  0.00     0.210 C 
ENDBRANCH  11  19
TORSDOF 2
