REMARK  4 active torsions:
REMARK  status: ('A' for Active; 'I' for Inactive)
REMARK    1  A    between atoms: N_3  and  C_1 
REMARK    2  A    between atoms: S_2  and  C_6 
REMARK    3  A    between atoms: N_13  and  S_2 
REMARK    4  A    between atoms: N_7  and  C_4 
ROOT
ATOM      1  C   UNL d   1       1.425  -0.140  -0.016  0.00  0.00     0.130 A 
ATOM      2  C   UNL d   1       0.651  -1.323  -0.052  0.00  0.00     0.063 A 
ATOM      3  C   UNL d   1       0.860   1.146   0.063  0.00  0.00     0.063 A 
ATOM      4  C   UNL d   1      -0.525   1.272   0.097  0.00  0.00     0.076 A 
ATOM      5  C   UNL d   1      -0.747  -1.131  -0.050  0.00  0.00     0.033 A 
ATOM      6  C   UNL d   1      -1.332   0.140   0.032  0.00  0.00     0.027 A 
ENDROOT
BRANCH   2   7
ATOM      7  N   UNL d   1       1.182  -2.605  -0.011  0.00  0.00    -0.375 N 
ATOM      8  C   UNL d   1       0.412  -3.720   0.581  0.00  0.00     0.149 C 
ATOM      9  C   UNL d   1       1.391  -4.770   1.131  0.00  0.00     0.187 C 
ATOM     10  O   UNL d   1       2.289  -5.238   0.110  0.00  0.00    -0.388 OA
ATOM     11  C   UNL d   1       3.050  -4.139  -0.425  0.00  0.00     0.187 C 
ATOM     12  C   UNL d   1       2.128  -3.073  -1.045  0.00  0.00     0.149 C 
ENDBRANCH   2   7
BRANCH   1  13
ATOM     13  N   UNL d   1       2.876  -0.188   0.015  0.00  0.00    -0.113 N 
ATOM     14  O   UNL d   1       3.423  -0.760   0.966  0.00  0.00    -0.532 OA
ATOM     15  O   UNL d   1       3.468   0.388  -0.908  0.00  0.00    -0.532 OA
ENDBRANCH   1  13
BRANCH   4  16
ATOM     16  S   UNL d   1      -1.253   2.864   0.331  0.00  0.00     0.239 S 
ATOM     17  O   UNL d   1      -2.606   2.699   0.810  0.00  0.00    -0.206 OA
ATOM     18  O   UNL d   1      -0.296   3.724   0.985  0.00  0.00    -0.206 OA
BRANCH  16  19
ATOM     19  N   UNL d   1      -1.382   3.418  -1.246  0.00  0.00    -0.225 NA
ATOM     20  H   UNL d   1      -2.365   3.555  -1.486  0.00  0.00     0.136 HD
ATOM     21  H   UNL d   1      -0.813   4.257  -1.367  0.00  0.00     0.136 HD
ENDBRANCH  16  19
ENDBRANCH   4  16
TORSDOF 4
