REMARK  3 active torsions:
REMARK  status: ('A' for Active; 'I' for Inactive)
REMARK    1  A    between atoms: N_8  and  C_1 
REMARK       I    between atoms: C_7  and  N_9 
REMARK    2  A    between atoms: C_12  and  C_7 
REMARK       I    between atoms: C_10  and  N_8 
REMARK    3  A    between atoms: N_9  and  C_13 
ROOT
ATOM      1  C   UNL d   1      -0.660  -1.801   0.005  0.00  0.00     0.053 C 
ATOM      2  C   UNL d   1      -1.884  -1.253   0.052  0.00  0.00     0.113 C 
ATOM      3  C   UNL d   1       0.498  -0.875  -0.076  0.00  0.00     0.027 A 
ATOM      4  C   UNL d   1      -2.143   0.190  -0.020  0.00  0.00     0.290 C 
ATOM      5  C   UNL d   1       0.246   0.484  -0.266  0.00  0.00     0.092 A 
ATOM      6  O   UNL d   1      -1.059   1.004  -0.277  0.00  0.00    -0.275 OA
ATOM      7  C   UNL d   1       1.849  -1.261   0.026  0.00  0.00     0.046 A 
ATOM      8  C   UNL d   1       2.899  -0.332  -0.089  0.00  0.00     0.036 A 
ATOM      9  O   UNL d   1      -3.277   0.637   0.102  0.00  0.00    -0.260 OA
ATOM     10  C   UNL d   1       1.267   1.421  -0.424  0.00  0.00     0.040 A 
ATOM     11  C   UNL d   1       2.593   1.008  -0.348  0.00  0.00     0.032 A 
ENDROOT
BRANCH   8  12
ATOM     12  N   UNL d   1       4.270  -0.660   0.052  0.00  0.00    -0.323 N 
ATOM     13  C   UNL d   1       4.789  -1.868   0.482  0.00  0.00     0.256 C 
ATOM     14  O   UNL d   1       4.136  -2.852   0.827  0.00  0.00    -0.267 OA
ATOM     15  H   UNL d   1       4.920   0.106  -0.065  0.00  0.00     0.169 HD
BRANCH  13  16
ATOM     16  C   UNL d   1       6.277  -1.965   0.561  0.00  0.00     0.032 A 
ATOM     17  C   UNL d   1       6.825  -2.835   1.520  0.00  0.00     0.020 A 
ATOM     18  C   UNL d   1       8.204  -3.039   1.584  0.00  0.00     0.043 A 
ATOM     19  C   UNL d   1       9.033  -2.376   0.688  0.00  0.00     0.116 A 
ATOM     20  C   UNL d   1       8.510  -1.501  -0.259  0.00  0.00     0.043 A 
ATOM     21  F   UNL d   1      10.354  -2.595   0.727  0.00  0.00    -0.206 F 
ATOM     22  C   UNL d   1       7.127  -1.292  -0.328  0.00  0.00     0.020 A 
ENDBRANCH  13  16
ENDBRANCH   8  12
BRANCH   1  23
ATOM     23  N   UNL d   1      -0.442  -3.174  -0.002  0.00  0.00    -0.326 N 
ATOM     24  C   UNL d   1      -1.388  -4.189  -0.027  0.00  0.00     0.218 C 
ATOM     25  O   UNL d   1      -2.606  -4.045  -0.018  0.00  0.00    -0.274 OA
ATOM     26  C   UNL d   1      -0.795  -5.575  -0.089  0.00  0.00     0.117 C 
ATOM     27  H   UNL d   1       0.521  -3.480  -0.046  0.00  0.00     0.169 HD
ENDBRANCH   1  23
TORSDOF 3
