REMARK  3 active torsions:
REMARK  status: ('A' for Active; 'I' for Inactive)
REMARK    1  A    between atoms: C_6  and  C_1 
REMARK    2  A    between atoms: C_7  and  C_9 
REMARK    3  A    between atoms: O_20  and  C_16 
ROOT
ATOM      1  C   UNL d   1       1.981   0.916  -0.035  0.00  0.00     0.050 A 
ATOM      2  N   UNL d   1       0.800   1.633  -0.030  0.00  0.00    -0.354 N 
ATOM      3  C   UNL d   1       1.629  -0.431   0.036  0.00  0.00    -0.022 A 
ATOM      4  C   UNL d   1       0.198  -0.500   0.022  0.00  0.00     0.001 A 
ATOM      5  C   UNL d   1      -0.292   0.802  -0.000  0.00  0.00     0.043 A 
ATOM      6  C   UNL d   1      -0.724  -1.570   0.029  0.00  0.00     0.051 A 
ATOM      7  C   UNL d   1      -1.657   1.097  -0.002  0.00  0.00     0.033 A 
ATOM      8  C   UNL d   1      -2.096  -1.304   0.005  0.00  0.00     0.069 A 
ATOM      9  C   UNL d   1       2.516  -1.626   0.109  0.00  0.00     0.051 C 
ATOM     10  C   UNL d   1      -2.548   0.017  -0.001  0.00  0.00     0.039 A 
ATOM     11  H   UNL d   1       0.742   2.636  -0.086  0.00  0.00     0.166 HD
ENDROOT
BRANCH   1  12
ATOM     12  C   UNL d   1       3.282   1.588  -0.129  0.00  0.00    -0.009 A 
ATOM     13  C   UNL d   1       3.508   2.825   0.484  0.00  0.00     0.014 A 
ATOM     14  C   UNL d   1       4.751   3.466   0.375  0.00  0.00     0.013 A 
ATOM     15  C   UNL d   1       5.812   2.897  -0.347  0.00  0.00    -0.023 A 
ATOM     16  C   UNL d   1       5.570   1.658  -0.962  0.00  0.00     0.013 A 
ATOM     17  C   UNL d   1       4.327   1.020  -0.863  0.00  0.00     0.014 A 
BRANCH  15  18
ATOM     18  C   UNL d   1       7.129   3.565  -0.462  0.00  0.00     0.013 A 
ATOM     19  C   UNL d   1       7.259   4.960  -0.570  0.00  0.00     0.127 A 
ATOM     20  F   UNL d   1       6.173   5.750  -0.587  0.00  0.00    -0.205 F 
ATOM     21  C   UNL d   1       8.504   5.584  -0.679  0.00  0.00     0.043 A 
ATOM     22  C   UNL d   1       9.665   4.817  -0.696  0.00  0.00     0.003 A 
ATOM     23  C   UNL d   1       9.575   3.433  -0.597  0.00  0.00     0.001 A 
ATOM     24  C   UNL d   1       8.324   2.817  -0.475  0.00  0.00     0.015 A 
ENDBRANCH  15  18
ENDBRANCH   1  12
BRANCH   8  25
ATOM     25  O   UNL d   1      -3.086  -2.251  -0.016  0.00  0.00    -0.356 OA
ATOM     26  C   UNL d   1      -2.663  -3.609  -0.067  0.00  0.00     0.210 C 
ENDBRANCH   8  25
TORSDOF 3
