REMARK  2 active torsions:
REMARK  status: ('A' for Active; 'I' for Inactive)
REMARK    1  A    between atoms: C_4  and  N_1 
REMARK    2  A    between atoms: C_12  and  C_8 
ROOT
ATOM      1  N   UNL d   1       0.003  -0.915  -0.046  0.00  0.00    -0.252 N 
ATOM      2  C   UNL d   1       1.256  -0.291  -0.035  0.00  0.00     0.231 C 
ATOM      3  C   UNL d   1      -1.209  -0.300   0.289  0.00  0.00     0.231 C 
ATOM      4  C   UNL d   1       1.272   1.194   0.210  0.00  0.00     0.113 C 
ATOM      5  C   UNL d   1      -1.187   1.191   0.505  0.00  0.00     0.113 C 
ATOM      6  C   UNL d   1      -0.026   1.869  -0.200  0.00  0.00     0.036 C 
ATOM      7  O   UNL d   1      -2.263  -0.905   0.523  0.00  0.00    -0.273 OA
ATOM      8  O   UNL d   1       2.337  -0.870  -0.168  0.00  0.00    -0.273 OA
ENDROOT
BRANCH   1   9
ATOM      9  C   UNL d   1      -0.023  -2.332  -0.277  0.00  0.00     0.052 A 
ATOM     10  C   UNL d   1      -0.765  -2.890  -1.346  0.00  0.00    -0.024 A 
ATOM     11  C   UNL d   1      -0.766  -4.293  -1.520  0.00  0.00    -0.050 A 
ATOM     12  C   UNL d   1      -1.545  -2.009  -2.301  0.00  0.00     0.041 C 
ATOM     13  C   UNL d   1      -1.489  -4.954  -2.670  0.00  0.00     0.039 C 
ATOM     14  C   UNL d   1      -0.015  -5.107  -0.658  0.00  0.00     0.008 A 
ATOM     15  C   UNL d   1      -2.533  -4.056  -3.323  0.00  0.00     0.005 C 
ATOM     16  C   UNL d   1      -1.931  -2.691  -3.610  0.00  0.00     0.005 C 
ATOM     17  C   UNL d   1       0.725  -4.551   0.380  0.00  0.00     0.003 A 
ATOM     18  C   UNL d   1       0.726  -3.171   0.566  0.00  0.00     0.031 A 
ENDBRANCH   1   9
BRANCH   6  19
ATOM     19  C   UNL d   1       0.029   3.352   0.127  0.00  0.00    -0.053 A 
ATOM     20  C   UNL d   1       0.175   3.796   1.454  0.00  0.00     0.007 A 
ATOM     21  C   UNL d   1       0.269   5.155   1.750  0.00  0.00     0.001 A 
ATOM     22  C   UNL d   1       0.215   6.092   0.725  0.00  0.00     0.000 A 
ATOM     23  C   UNL d   1       0.060   5.670  -0.595  0.00  0.00     0.001 A 
ATOM     24  C   UNL d   1      -0.033   4.309  -0.895  0.00  0.00     0.007 A 
ENDBRANCH   6  19
TORSDOF 2
