REMARK  3 active torsions:
REMARK  status: ('A' for Active; 'I' for Inactive)
REMARK    1  A    between atoms: N_6  and  C_1 
REMARK       I    between atoms: C_8  and  N_6 
REMARK    2  A    between atoms: C_10  and  C_8 
REMARK    3  A    between atoms: C_12  and  C_13 
ROOT
ATOM      1  N   UNL d   1       4.965  -1.133  -1.385  0.00  0.00    -0.303 N 
ATOM      2  C   UNL d   1       4.870  -0.550  -0.123  0.00  0.00     0.257 C 
ATOM      3  O   UNL d   1       4.735  -1.142   0.940  0.00  0.00    -0.267 OA
ATOM      4  H   UNL d   1       4.978  -0.518  -2.186  0.00  0.00     0.171 HD
ENDROOT
BRANCH   1   5
ATOM      5  C   UNL d   1       5.043  -2.455  -1.772  0.00  0.00     0.155 C 
ATOM      6  S   UNL d   1       4.964  -3.678  -0.555  0.00  0.00    -0.011 SA
ATOM      7  C   UNL d   1       5.942  -4.864  -1.356  0.00  0.00     0.228 C 
ATOM      8  O   UNL d   1       6.706  -5.593  -0.739  0.00  0.00    -0.279 OA
ATOM      9  C   UNL d   1       5.734  -5.039  -2.796  0.00  0.00     0.048 A 
ATOM     10  C   UNL d   1       5.301  -3.954  -3.560  0.00  0.00     0.048 A 
ATOM     11  C   UNL d   1       5.973  -6.294  -3.372  0.00  0.00     0.018 A 
ATOM     12  N   UNL d   1       5.155  -2.654  -3.045  0.00  0.00    -0.336 N 
ATOM     13  C   UNL d   1       5.083  -4.159  -4.928  0.00  0.00     0.030 A 
ATOM     14  HN  UNL d   1       5.138  -1.858  -3.683  1.00  0.00     0.168 HD
ATOM     15  C   UNL d   1       5.293  -5.416  -5.508  0.00  0.00     0.002 A 
ATOM     16  C   UNL d   1       5.745  -6.482  -4.732  0.00  0.00     0.001 A 
ENDBRANCH   1   5
BRANCH   2  17
ATOM     17  C   UNL d   1       4.853   0.935  -0.108  0.00  0.00     0.032 A 
ATOM     18  C   UNL d   1       4.059   1.572   0.848  0.00  0.00     0.017 A 
ATOM     19  C   UNL d   1       3.921   2.960   0.830  0.00  0.00     0.009 A 
ATOM     20  C   UNL d   1       4.568   3.748  -0.142  0.00  0.00    -0.051 A 
ATOM     21  C   UNL d   1       5.441   3.094  -1.029  0.00  0.00     0.009 A 
ATOM     22  C   UNL d   1       5.585   1.701  -1.016  0.00  0.00     0.017 A 
BRANCH  20  23
ATOM     23  C   UNL d   1       4.253   5.251  -0.241  0.00  0.00    -0.024 C 
ATOM     24  C   UNL d   1       4.973   5.958  -1.411  0.00  0.00     0.019 C 
ATOM     25  C   UNL d   1       2.734   5.423  -0.477  0.00  0.00     0.019 C 
ATOM     26  C   UNL d   1       4.651   5.977   1.059  0.00  0.00     0.019 C 
ENDBRANCH  20  23
ENDBRANCH   2  17
TORSDOF 3
