REMARK  1 active torsions:
REMARK  status: ('A' for Active; 'I' for Inactive)
REMARK    1  A    between atoms: C_3  and  N_1 
ROOT
ATOM      1  N   UNL d   1       0.563   1.144  -0.611  0.00  0.00    -0.251 N 
ATOM      2  C   UNL d   1       1.356   0.051  -0.238  0.00  0.00     0.239 C 
ATOM      3  C   UNL d   1      -0.776   1.247  -0.216  0.00  0.00     0.231 C 
ATOM      4  C   UNL d   1       0.631  -1.304  -0.283  0.00  0.00     0.035 C 
ATOM      5  O   UNL d   1       2.559   0.109   0.024  0.00  0.00    -0.272 OA
ATOM      6  C   UNL d   1      -1.548  -0.046  -0.148  0.00  0.00     0.105 C 
ATOM      7  O   UNL d   1      -1.353   2.307   0.037  0.00  0.00    -0.273 OA
ATOM      8  C   UNL d   1      -0.723  -1.176   0.421  0.00  0.00     0.028 C 
ATOM      9  C   UNL d   1       0.477  -1.706  -1.762  0.00  0.00     0.025 C 
ATOM     10  C   UNL d   1       1.451  -2.394   0.430  0.00  0.00     0.025 C 
ENDROOT
BRANCH   1  11
ATOM     11  C   UNL d   1       1.178   2.367  -1.043  0.00  0.00     0.052 A 
ATOM     12  C   UNL d   1       2.220   2.958  -0.316  0.00  0.00     0.054 A 
ATOM     13  C   UNL d   1       2.748   4.185  -0.722  0.00  0.00     0.036 A 
ATOM     14 CL   UNL d   1       3.997   4.929   0.201  0.00  0.00    -0.084 Cl
ATOM     15  C   UNL d   1       2.262   4.829  -1.857  0.00  0.00     0.024 A 
ATOM     16  C   UNL d   1       1.248   4.236  -2.605  0.00  0.00     0.011 A 
ATOM     17  C   UNL d   1       0.707   2.999  -2.222  0.00  0.00    -0.035 A 
ATOM     18  C   UNL d   1      -0.361   2.393  -3.096  0.00  0.00     0.050 C 
ENDBRANCH   1  11
TORSDOF 1
