REMARK  6 active torsions:
REMARK  status: ('A' for Active; 'I' for Inactive)
REMARK    1  A    between atoms: C_11  and  N_1 
REMARK    2  A    between atoms: C_5  and  C_4 
REMARK    3  A    between atoms: N_21  and  C_6 
REMARK    4  A    between atoms: C_20  and  C_9 
REMARK    5  A    between atoms: C_13  and  C_15 
REMARK    6  A    between atoms: C_14  and  C_16 
ROOT
ATOM      1  N   UNL d   1       0.878  -0.753   0.090  0.00  0.00    -0.240 N 
ATOM      2  N   UNL d   1       0.935   0.582   0.328  0.00  0.00    -0.291 N 
ATOM      3  HN  UNL d   1       1.746   1.136   0.603  1.00  0.00     0.187 HD
ATOM      4  C   UNL d   1      -0.311   1.003   0.120  0.00  0.00     0.065 C 
ATOM      5  C   UNL d   1      -0.444  -1.190  -0.055  0.00  0.00     0.123 C 
ATOM      6  C   UNL d   1      -1.216  -0.058  -0.070  0.00  0.00     0.081 C 
ENDROOT
BRANCH   1   7
ATOM      7  C   UNL d   1       2.074  -1.512   0.012  0.00  0.00     0.060 A 
ATOM      8  C   UNL d   1       3.220  -1.079   0.692  0.00  0.00     0.047 A 
ATOM      9  C   UNL d   1       4.386  -1.859   0.677  0.00  0.00     0.051 A 
ATOM     10  C   UNL d   1       4.404  -3.049  -0.079  0.00  0.00     0.032 A 
ATOM     11  C   UNL d   1       3.267  -3.477  -0.784  0.00  0.00     0.051 A 
ATOM     12  C   UNL d   1       2.113  -2.691  -0.740  0.00  0.00     0.047 A 
BRANCH   9  13
ATOM     13  C   UNL d   1       5.591  -1.466   1.499  0.00  0.00     0.417 C 
ATOM     14  F   UNL d   1       5.410  -0.335   2.234  0.00  0.00    -0.166 F 
ATOM     15  F   UNL d   1       5.933  -2.438   2.392  0.00  0.00    -0.166 F 
ATOM     16  F   UNL d   1       6.699  -1.251   0.739  0.00  0.00    -0.166 F 
ENDBRANCH   9  13
BRANCH  11  17
ATOM     17  C   UNL d   1       3.268  -4.776  -1.557  0.00  0.00     0.417 C 
ATOM     18  F   UNL d   1       2.061  -5.069  -2.118  0.00  0.00    -0.166 F 
ATOM     19  F   UNL d   1       4.168  -4.786  -2.575  0.00  0.00    -0.166 F 
ATOM     20  F   UNL d   1       3.573  -5.842  -0.767  0.00  0.00    -0.166 F 
ENDBRANCH  11  17
ENDBRANCH   1   7
BRANCH   5  21
ATOM     21  N   UNL d   1      -0.843  -2.486  -0.127  0.00  0.00    -0.384 N 
ATOM     22  H   UNL d   1      -0.251  -3.235   0.228  0.00  0.00     0.157 HD
ATOM     23  H   UNL d   1      -1.833  -2.709  -0.020  0.00  0.00     0.157 HD
ENDBRANCH   5  21
BRANCH   4  24
ATOM     24  C   UNL d   1      -0.700   2.407   0.086  0.00  0.00     0.024 A 
ATOM     25  C   UNL d   1      -1.804   2.909  -0.645  0.00  0.00     0.049 A 
ATOM     26  C   UNL d   1      -1.830   4.273  -0.446  0.00  0.00     0.061 A 
ATOM     27  O   UNL d   1      -0.790   4.635   0.369  0.00  0.00    -0.318 OA
ATOM     28  C   UNL d   1      -0.098   3.495   0.680  0.00  0.00     0.062 A 
ATOM     29  C   UNL d   1       1.082   3.658   1.555  0.00  0.00     0.077 C 
BRANCH  26  30
ATOM     30  C   UNL d   1      -2.737   5.368  -0.948  0.00  0.00    -0.002 C 
ATOM     31  C   UNL d   1      -3.850   4.775  -1.837  0.00  0.00     0.021 C 
ATOM     32  C   UNL d   1      -3.391   6.093   0.240  0.00  0.00     0.021 C 
ATOM     33  C   UNL d   1      -1.935   6.379  -1.784  0.00  0.00     0.021 C 
ENDBRANCH  26  30
ENDBRANCH   4  24
TORSDOF 6
