REMARK  4 active torsions:
REMARK  status: ('A' for Active; 'I' for Inactive)
REMARK    1  A    between atoms: C_7  and  C_1 
REMARK    2  A    between atoms: N_11  and  C_2 
REMARK    3  A    between atoms: O_12  and  C_7 
REMARK    4  A    between atoms: C_15  and  O_12 
ROOT
ATOM      1  C   UNL d   1      -2.890  -0.021   0.072  0.00  0.00     0.098 A 
ATOM      2  C   UNL d   1      -2.162  -1.338   0.084  0.00  0.00     0.117 A 
ATOM      3  N   UNL d   1      -0.894  -1.585   0.044  0.00  0.00    -0.340 N 
ATOM      4  HN  UNL d   1      -0.651  -2.575   0.029  1.00  0.00     0.167 HD
ATOM      5  C   UNL d   1      -2.250   1.159   0.062  0.00  0.00     0.110 A 
ATOM      6  N   UNL d   1      -0.936   1.509   0.057  0.00  0.00    -0.363 N 
ATOM      7  C   UNL d   1       0.197  -0.711   0.018  0.00  0.00     0.060 A 
ATOM      8  C   UNL d   1       0.205   0.690   0.018  0.00  0.00     0.059 A 
ATOM      9  C   UNL d   1       1.433  -1.389   0.002  0.00  0.00     0.032 A 
ATOM     10  C   UNL d   1       1.454   1.357   0.006  0.00  0.00     0.032 A 
ATOM     11  C   UNL d   1       2.655  -0.721  -0.006  0.00  0.00     0.002 A 
ATOM     12  C   UNL d   1       2.666   0.661  -0.004  0.00  0.00     0.002 A 
ATOM     13  H   UNL d   1      -0.746   2.505   0.021  0.00  0.00     0.165 HD
ENDROOT
BRANCH   1  14
ATOM     14  C   UNL d   1      -4.388  -0.038   0.010  0.00  0.00     0.298 C 
ATOM     15  O   UNL d   1      -5.047  -1.076  -0.013  0.00  0.00    -0.259 OA
BRANCH  14  16
ATOM     16  O   UNL d   1      -4.925   1.200  -0.147  0.00  0.00    -0.318 OA
BRANCH  16  17
ATOM     17  C   UNL d   1      -6.253   1.214  -0.694  0.00  0.00     0.174 C 
ATOM     18  C   UNL d   1      -6.126   1.240  -2.207  0.00  0.00     0.034 C 
ENDBRANCH  16  17
ENDBRANCH  14  16
ENDBRANCH   1  14
BRANCH   2  19
ATOM     19  N   UNL d   1      -2.878  -2.505   0.149  0.00  0.00    -0.385 N 
ATOM     20  H   UNL d   1      -3.887  -2.500  -0.026  0.00  0.00     0.157 HD
ATOM     21  H   UNL d   1      -2.370  -3.355  -0.053  0.00  0.00     0.157 HD
ENDBRANCH   2  19
TORSDOF 4
