REMARK  4 active torsions:
REMARK  status: ('A' for Active; 'I' for Inactive)
REMARK    1  A    between atoms: C_8  and  C_1 
REMARK    2  A    between atoms: C_12  and  N_2 
REMARK    3  A    between atoms: C_11  and  N_3 
REMARK    4  A    between atoms: N_4  and  C_7 
ROOT
ATOM      1  C   UNL d   1      -0.176  -1.187  -0.148  0.00  0.00     0.221 C 
ATOM      2  N   UNL d   1      -1.199  -0.130  -0.269  0.00  0.00    -0.354 N 
ATOM      3  N   UNL d   1       1.074  -0.475   0.175  0.00  0.00    -0.354 N 
ATOM      4  C   UNL d   1       0.884   0.961   0.015  0.00  0.00     0.145 C 
ATOM      5  C   UNL d   1      -0.625   1.156   0.118  0.00  0.00     0.145 C 
ENDROOT
BRANCH   1   6
ATOM      6  C   UNL d   1      -0.071  -1.934  -1.482  0.00  0.00    -0.016 A 
ATOM      7  C   UNL d   1       0.258  -1.257  -2.671  0.00  0.00     0.013 A 
ATOM      8  C   UNL d   1       0.304  -1.923  -3.897  0.00  0.00     0.037 A 
ATOM      9  C   UNL d   1       0.015  -3.288  -3.948  0.00  0.00     0.102 A 
ATOM     10  C   UNL d   1      -0.311  -3.989  -2.780  0.00  0.00     0.037 A 
ATOM     11  C   UNL d   1      -0.351  -3.312  -1.556  0.00  0.00     0.013 A 
BRANCH   9  12
ATOM     12  N   UNL d   1       0.041  -3.989  -5.237  0.00  0.00    -0.116 N 
ATOM     13  O   UNL d   1       0.338  -3.332  -6.247  0.00  0.00    -0.532 OA
ATOM     14  O   UNL d   1      -0.233  -5.196  -5.242  0.00  0.00    -0.532 OA
ENDBRANCH   9  12
ENDBRANCH   1   6
BRANCH   2  15
ATOM     15  C   UNL d   1      -2.568  -0.320  -0.165  0.00  0.00     0.032 A 
ATOM     16  C   UNL d   1      -3.155  -1.573   0.066  0.00  0.00     0.029 A 
ATOM     17  C   UNL d   1      -4.545  -1.739   0.146  0.00  0.00     0.002 A 
ATOM     18  C   UNL d   1      -5.392  -0.652  -0.015  0.00  0.00     0.000 A 
ATOM     19  C   UNL d   1      -4.848   0.602  -0.257  0.00  0.00     0.002 A 
ATOM     20  C   UNL d   1      -3.459   0.757  -0.331  0.00  0.00     0.029 A 
ENDBRANCH   2  15
BRANCH   3  21
ATOM     21  C   UNL d   1       2.272  -1.031   0.564  0.00  0.00     0.032 A 
ATOM     22  C   UNL d   1       2.437  -2.409   0.770  0.00  0.00     0.029 A 
ATOM     23  C   UNL d   1       3.664  -2.965   1.164  0.00  0.00     0.002 A 
ATOM     24  C   UNL d   1       4.768  -2.150   1.377  0.00  0.00     0.000 A 
ATOM     25  C   UNL d   1       4.642  -0.781   1.195  0.00  0.00     0.002 A 
ATOM     26  C   UNL d   1       3.415  -0.240   0.791  0.00  0.00     0.029 A 
ENDBRANCH   3  21
TORSDOF 4
