REMARK  5 active torsions:
REMARK  status: ('A' for Active; 'I' for Inactive)
REMARK    1  A    between atoms: C_6  and  C_1 
REMARK    2  A    between atoms: N_7  and  C_2 
REMARK    3  A    between atoms: C_12  and  C_4 
REMARK    4  A    between atoms: O_15  and  C_6 
REMARK       I    between atoms: C_9  and  N_7 
REMARK    5  A    between atoms: C_11  and  C_9 
ROOT
ATOM      1  N   UNL d   1       5.717   1.550  -1.623  0.00  0.00    -0.197 NA
ATOM      2  C   UNL d   1       5.148   2.237  -0.889  0.00  0.00     0.068 C 
ATOM      3  C   UNL d   1       4.393   3.033   0.085  0.00  0.00     0.226 C 
ENDROOT
BRANCH   3   4
ATOM      4  C   UNL d   1       2.894   2.745   0.097  0.00  0.00     0.235 C 
ATOM      5  N   UNL d   1       2.547   1.465  -0.273  0.00  0.00    -0.325 N 
ATOM      6  H   UNL d   1       3.305   0.799  -0.392  0.00  0.00     0.169 HD
ATOM      7  O   UNL d   1       2.119   3.587   0.546  0.00  0.00    -0.272 OA
BRANCH   5   8
ATOM      8  C   UNL d   1       1.289   0.859  -0.296  0.00  0.00     0.059 A 
ATOM      9  C   UNL d   1      -0.007   1.359  -0.295  0.00  0.00     0.107 A 
ATOM     10  S   UNL d   1      -1.161   0.059  -0.241  0.00  0.00    -0.081 SA
ATOM     11  C   UNL d   1       0.029  -1.154  -0.234  0.00  0.00     0.018 A 
ATOM     12  C   UNL d   1       1.280  -0.584  -0.300  0.00  0.00     0.051 A 
BRANCH   9  13
ATOM     13  C   UNL d   1      -0.627   2.676  -0.341  0.00  0.00     0.302 C 
ATOM     14  O   UNL d   1      -1.714   2.952   0.160  0.00  0.00    -0.259 OA
BRANCH  13  15
ATOM     15  O   UNL d   1       0.075   3.545  -1.125  0.00  0.00    -0.322 OA
ATOM     16  C   UNL d   1      -0.485   4.864  -1.186  0.00  0.00     0.213 C 
ENDBRANCH  13  15
ENDBRANCH   9  13
BRANCH  11  17
ATOM     17  C   UNL d   1      -0.319  -2.580  -0.123  0.00  0.00    -0.019 A 
ATOM     18  C   UNL d   1      -1.454  -3.122  -0.747  0.00  0.00     0.013 A 
ATOM     19  C   UNL d   1      -1.757  -4.482  -0.626  0.00  0.00     0.001 A 
ATOM     20  C   UNL d   1      -0.928  -5.322   0.115  0.00  0.00     0.000 A 
ATOM     21  C   UNL d   1       0.203  -4.803   0.737  0.00  0.00     0.001 A 
ATOM     22  C   UNL d   1       0.504  -3.444   0.620  0.00  0.00     0.013 A 
ENDBRANCH  11  17
ENDBRANCH   5   8
ENDBRANCH   3   4
TORSDOF 5
