REMARK  6 active torsions:
REMARK  status: ('A' for Active; 'I' for Inactive)
REMARK       I    between atoms: C_3  and  N_6 
REMARK       I    between atoms: N_9  and  C_3 
REMARK    1  A    between atoms: O_19  and  C_4 
REMARK    2  A    between atoms: C_5  and  O_10 
REMARK    3  A    between atoms: N_6  and  C_7 
REMARK    4  A    between atoms: O_20  and  C_8 
REMARK    5  A    between atoms: C_16  and  N_9 
REMARK    6  A    between atoms: O_10  and  C_17 
ROOT
ATOM      1  C   UNL d   1       2.851   2.352  -0.182  0.00  0.00     0.325 C 
ATOM      2  N   UNL d   1       1.494   2.267  -0.007  0.00  0.00    -0.305 N 
ATOM      3  N   UNL d   1       3.623   1.380   0.360  0.00  0.00    -0.309 N 
ATOM      4  O   UNL d   1       3.266   3.357  -0.768  0.00  0.00    -0.247 OA
ATOM      5  H   UNL d   1       1.072   3.148  -0.277  0.00  0.00     0.171 HD
ATOM      6  H   UNL d   1       3.120   0.584   0.725  0.00  0.00     0.170 HD
ENDROOT
BRANCH   2   7
ATOM      7  C   UNL d   1       0.627   1.302   0.555  0.00  0.00     0.087 A 
ATOM      8  C   UNL d   1       0.853  -0.070   0.731  0.00  0.00     0.171 A 
ATOM      9  N   UNL d   1       0.010  -0.891   1.391  0.00  0.00    -0.316 N 
ATOM     10  C   UNL d   1      -1.138  -0.365   1.852  0.00  0.00     0.143 A 
ATOM     11  HN  UNL d   1       0.235  -1.876   1.535  1.00  0.00     0.170 HD
ATOM     12  C   UNL d   1      -1.506   0.950   1.650  0.00  0.00     0.058 A 
ATOM     13  C   UNL d   1      -0.618   1.786   0.974  0.00  0.00     0.038 A 
BRANCH   8  14
ATOM     14  O   UNL d   1       2.014  -0.633   0.260  0.00  0.00    -0.339 OA
ATOM     15  C   UNL d   1       1.915  -2.011  -0.099  0.00  0.00     0.211 C 
ENDBRANCH   8  14
BRANCH  10  16
ATOM     16  O   UNL d   1      -2.002  -1.152   2.585  0.00  0.00    -0.341 OA
ATOM     17  C   UNL d   1      -1.630  -2.528   2.575  0.00  0.00     0.211 C 
ENDBRANCH  10  16
ENDBRANCH   2   7
BRANCH   3  18
ATOM     18  C   UNL d   1       5.017   1.214   0.279  0.00  0.00     0.036 A 
ATOM     19  C   UNL d   1       5.894   2.175  -0.220  0.00  0.00     0.032 A 
ATOM     20  C   UNL d   1       7.266   1.896  -0.346  0.00  0.00     0.039 A 
ATOM     21  C   UNL d   1       7.772   0.663   0.058  0.00  0.00     0.078 A 
ATOM     22  C   UNL d   1       6.892  -0.292   0.574  0.00  0.00     0.039 A 
ATOM     23  C   UNL d   1       5.531  -0.016   0.697  0.00  0.00     0.032 A 
BRANCH  21  24
ATOM     24  O   UNL d   1       9.067   0.246   0.019  0.00  0.00    -0.255 OA
BRANCH  24  25
ATOM     25  C   UNL d   1      10.101   1.174  -0.256  0.00  0.00     0.530 C 
ATOM     26  F   UNL d   1       9.862   2.401   0.252  0.00  0.00    -0.144 F 
ATOM     27  F   UNL d   1      11.239   0.712   0.312  0.00  0.00    -0.144 F 
ATOM     28  F   UNL d   1      10.303   1.268  -1.587  0.00  0.00    -0.144 F 
ENDBRANCH  24  25
ENDBRANCH  21  24
ENDBRANCH   3  18
TORSDOF 6
