REMARK  3 active torsions:
REMARK  status: ('A' for Active; 'I' for Inactive)
REMARK    1  A    between atoms: C_3  and  C_1 
REMARK    2  A    between atoms: C_13  and  N_2 
REMARK    3  A    between atoms: N_15  and  C_8 
ROOT
ATOM      1  C   UNL d   1      -0.471  -2.823   0.090  0.00  0.00     0.048 A 
ATOM      2  C   UNL d   1      -1.515  -3.456  -0.615  0.00  0.00     0.034 A 
ATOM      3  C   UNL d   1      -1.688  -4.868  -0.478  0.00  0.00     0.013 A 
ATOM      4  C   UNL d   1       0.253  -3.602   0.985  0.00  0.00     0.105 A 
ATOM      5  N   UNL d   1       0.095  -4.931   1.155  0.00  0.00    -0.364 N 
ATOM      6  HN  UNL d   1       0.675  -5.449   1.816  1.00  0.00     0.165 HD
ATOM      7  C   UNL d   1      -0.845  -5.547   0.430  0.00  0.00     0.044 A 
ATOM      8  C   UNL d   1      -2.656  -5.629  -1.182  0.00  0.00     0.015 A 
ATOM      9  C   UNL d   1      -0.979  -6.918   0.597  0.00  0.00     0.030 A 
ATOM     10  C   UNL d   1      -2.786  -7.005  -0.984  0.00  0.00     0.001 A 
ATOM     11  C   UNL d   1      -1.941  -7.652  -0.095  0.00  0.00     0.002 A 
ENDROOT
BRANCH   1  12
ATOM     12  C   UNL d   1      -0.203  -1.387  -0.023  0.00  0.00     0.152 C 
ATOM     13  N   UNL d   1       1.034  -0.749   0.021  0.00  0.00    -0.224 N 
ATOM     14  N   UNL d   1       0.817   0.569   0.245  0.00  0.00     0.001 NA
ATOM     15  N   UNL d   1      -0.488   0.748   0.124  0.00  0.00    -0.007 NA
ATOM     16  N   UNL d   1      -1.133  -0.444  -0.052  0.00  0.00    -0.269 N 
ATOM     17  HN  UNL d   1      -2.136  -0.581  -0.181  1.00  0.00     0.185 HD
BRANCH  13  18
ATOM     18  C   UNL d   1       2.347  -1.260  -0.125  0.00  0.00     0.056 A 
ATOM     19  C   UNL d   1       2.591  -2.410  -0.884  0.00  0.00     0.032 A 
ATOM     20  C   UNL d   1       3.889  -2.915  -0.988  0.00  0.00     0.009 A 
ATOM     21  C   UNL d   1       4.954  -2.283  -0.336  0.00  0.00    -0.062 A 
ATOM     22  C   UNL d   1       4.709  -1.118   0.401  0.00  0.00     0.009 A 
ATOM     23  C   UNL d   1       6.341  -2.840  -0.464  0.00  0.00     0.048 C 
ATOM     24  C   UNL d   1       3.415  -0.597   0.495  0.00  0.00     0.032 A 
ENDBRANCH  13  18
ENDBRANCH   1  12
BRANCH   2  25
ATOM     25  N   UNL d   1      -2.229  -2.737  -1.611  0.00  0.00    -0.301 NA
ATOM     26  H   UNL d   1      -2.252  -1.731  -1.423  0.00  0.00     0.124 HD
ATOM     27  H   UNL d   1      -3.172  -3.082  -1.763  0.00  0.00     0.124 HD
ENDBRANCH   2  25
TORSDOF 3
