REMARK  9 active torsions:
REMARK  status: ('A' for Active; 'I' for Inactive)
REMARK    1  A    between atoms: C_17  and  C_1 
REMARK    2  A    between atoms: C_10  and  C_3 
REMARK    3  A    between atoms: N_16  and  C_7 
REMARK    4  A    between atoms: C_9  and  N_15 
REMARK    5  A    between atoms: N_20  and  C_9 
REMARK    6  A    between atoms: C_12  and  C_18 
REMARK    7  A    between atoms: C_13  and  C_19 
REMARK    8  A    between atoms: O_40  and  C_17 
REMARK    9  A    between atoms: C_21  and  N_20 
ROOT
ATOM      1  N   UNL d   1       6.555   1.361   0.565  0.00  0.00    -0.355 N 
ATOM      2  N   UNL d   1       3.844   0.714  -0.020  0.00  0.00    -0.364 N 
ATOM      3  C   UNL d   1       5.514   1.497   1.598  0.00  0.00     0.145 C 
ATOM      4  C   UNL d   1       6.228   0.367  -0.471  0.00  0.00     0.145 C 
ATOM      5  C   UNL d   1       4.138   1.779   0.959  0.00  0.00     0.144 C 
ATOM      6  C   UNL d   1       4.842   0.603  -1.094  0.00  0.00     0.144 C 
ENDROOT
BRANCH   1   7
ATOM      7  C   UNL d   1       7.896   1.512   0.865  0.00  0.00     0.174 C 
ATOM      8  S   UNL d   1       8.647   0.935   2.243  0.00  0.00    -0.041 SA
BRANCH   7   9
ATOM      9  N   UNL d   1       8.660   2.103  -0.112  0.00  0.00    -0.333 N 
ATOM     10  H   UNL d   1       9.652   1.903  -0.035  0.00  0.00     0.168 HD
BRANCH   9  11
ATOM     11  C   UNL d   1       8.336   3.266  -0.851  0.00  0.00     0.035 A 
ATOM     12  C   UNL d   1       7.208   4.050  -0.589  0.00  0.00     0.045 A 
ATOM     13  C   UNL d   1       7.013   5.288  -1.225  0.00  0.00     0.050 A 
ATOM     14  C   UNL d   1       7.960   5.724  -2.160  0.00  0.00     0.032 A 
ATOM     15  C   UNL d   1       9.098   4.953  -2.440  0.00  0.00     0.050 A 
ATOM     16  C   UNL d   1       9.270   3.720  -1.784  0.00  0.00     0.045 A 
BRANCH  13  17
ATOM     17  C   UNL d   1       5.828   6.141  -0.838  0.00  0.00     0.417 C 
ATOM     18  F   UNL d   1       5.823   7.366  -1.431  0.00  0.00    -0.166 F 
ATOM     19  F   UNL d   1       4.640   5.560  -1.160  0.00  0.00    -0.166 F 
ATOM     20  F   UNL d   1       5.777   6.376   0.503  0.00  0.00    -0.166 F 
ENDBRANCH  13  17
BRANCH  15  21
ATOM     21  C   UNL d   1      10.159   5.443  -3.397  0.00  0.00     0.417 C 
ATOM     22  F   UNL d   1       9.985   6.738  -3.779  0.00  0.00    -0.166 F 
ATOM     23  F   UNL d   1      11.408   5.376  -2.859  0.00  0.00    -0.166 F 
ATOM     24  F   UNL d   1      10.202   4.712  -4.543  0.00  0.00    -0.166 F 
ENDBRANCH  15  21
ENDBRANCH   9  11
ENDBRANCH   7   9
ENDBRANCH   1   7
BRANCH   2  25
ATOM     25  C   UNL d   1       2.536   0.295  -0.150  0.00  0.00     0.104 A 
ATOM     26  N   UNL d   1       1.597   0.936   0.549  0.00  0.00    -0.341 N 
ATOM     27  C   UNL d   1       0.323   0.468   0.555  0.00  0.00     0.068 A 
ATOM     28  HN  UNL d   1       1.837   1.775   1.077  1.00  0.00     0.167 HD
ATOM     29  C   UNL d   1      -0.767   1.048   1.292  0.00  0.00     0.074 A 
ATOM     30  C   UNL d   1      -0.048  -0.672  -0.163  0.00  0.00     0.047 A 
ATOM     31  C   UNL d   1      -1.925   0.315   1.107  0.00  0.00     0.070 A 
ATOM     32  S   UNL d   1      -1.717  -1.015   0.071  0.00  0.00    -0.098 SA
ATOM     33  C   UNL d   1       0.911  -1.364  -0.918  0.00  0.00     0.070 A 
ATOM     34  C   UNL d   1       2.216  -0.832  -0.891  0.00  0.00     0.066 A 
BRANCH  29  35
ATOM     35  C   UNL d   1      -0.758   2.228   2.150  0.00  0.00     0.295 C 
ATOM     36  O   UNL d   1      -1.760   2.620   2.736  0.00  0.00    -0.259 OA
BRANCH  35  37
ATOM     37  O   UNL d   1       0.453   2.850   2.240  0.00  0.00    -0.322 OA
ATOM     38  C   UNL d   1       0.458   4.007   3.074  0.00  0.00     0.213 C 
ENDBRANCH  35  37
ENDBRANCH  29  35
BRANCH  33  39
ATOM     39  C   UNL d   1       0.676  -2.618  -1.713  0.00  0.00     0.418 C 
ATOM     40  F   UNL d   1      -0.578  -3.134  -1.637  0.00  0.00    -0.166 F 
ATOM     41  F   UNL d   1       0.921  -2.432  -3.042  0.00  0.00    -0.166 F 
ATOM     42  F   UNL d   1       1.512  -3.625  -1.329  0.00  0.00    -0.166 F 
ENDBRANCH  33  39
ENDBRANCH   2  25
TORSDOF 9
