REMARK  3 active torsions:
REMARK  status: ('A' for Active; 'I' for Inactive)
REMARK    1  A    between atoms: O_7  and  C_1 
REMARK    2  A    between atoms: C_8  and  O_7 
REMARK    3  A    between atoms: C_12  and  C_8 
ROOT
ATOM      1  C   UNL d   1      -2.090   1.451  -0.001  0.00  0.00     0.097 A 
ATOM      2  C   UNL d   1      -1.315   2.542   0.005  0.00  0.00     0.113 A 
ATOM      3  N   UNL d   1       0.743   1.227  -0.009  0.00  0.00    -0.313 N 
ATOM      4  C   UNL d   1       0.152   2.478   0.004  0.00  0.00     0.250 A 
ATOM      5  C   UNL d   1      -0.022   0.038  -0.006  0.00  0.00     0.056 A 
ATOM      6  C   UNL d   1      -1.438   0.121  -0.007  0.00  0.00     0.026 A 
ATOM      7  O   UNL d   1       0.786   3.534   0.023  0.00  0.00    -0.268 OA
ATOM      8  C   UNL d   1       0.612  -1.211   0.002  0.00  0.00    -0.030 A 
ATOM      9  C   UNL d   1       2.188   1.215   0.008  0.00  0.00     0.133 C 
ATOM     10  C   UNL d   1      -2.192  -1.060  -0.003  0.00  0.00     0.016 A 
ATOM     11  C   UNL d   1       2.921  -0.108  -0.081  0.00  0.00     0.025 C 
ATOM     12  C   UNL d   1      -1.560  -2.305  -0.003  0.00  0.00     0.002 A 
ATOM     13  C   UNL d   1      -0.169  -2.378   0.000  0.00  0.00     0.009 A 
ATOM     14  C   UNL d   1       2.099  -1.372   0.062  0.00  0.00     0.042 C 
ENDROOT
BRANCH   1  15
ATOM     15  O   UNL d   1      -3.519   1.458  -0.003  0.00  0.00    -0.274 OA
BRANCH  15  16
ATOM     16  C   UNL d   1      -4.248   2.607   0.093  0.00  0.00     0.298 C 
ATOM     17  O   UNL d   1      -3.839   3.755   0.194  0.00  0.00    -0.259 OA
BRANCH  16  18
ATOM     18  C   UNL d   1      -5.705   2.334   0.133  0.00  0.00     0.039 A 
ATOM     19  C   UNL d   1      -6.285   1.220  -0.483  0.00  0.00     0.017 A 
ATOM     20  C   UNL d   1      -7.675   1.058  -0.444  0.00  0.00     0.001 A 
ATOM     21  C   UNL d   1      -8.479   1.995   0.208  0.00  0.00     0.000 A 
ATOM     22  C   UNL d   1      -7.903   3.107   0.819  0.00  0.00     0.001 A 
ATOM     23  C   UNL d   1      -6.520   3.278   0.776  0.00  0.00     0.017 A 
ENDBRANCH  16  18
ENDBRANCH  15  16
ENDBRANCH   1  15
TORSDOF 3
