REMARK  3 active torsions:
REMARK  status: ('A' for Active; 'I' for Inactive)
REMARK    1  A    between atoms: C_10  and  N_1 
REMARK    2  A    between atoms: N_11  and  N_7 
REMARK    3  A    between atoms: C_12  and  N_11 
ROOT
ATOM      1  N   UNL d   1      -0.669  -1.346   0.045  0.00  0.00    -0.218 N 
ATOM      2  C   UNL d   1      -1.192  -0.065  -0.085  0.00  0.00     0.297 A 
ATOM      3  C   UNL d   1       0.040   0.780  -0.030  0.00  0.00     0.142 A 
ATOM      4  N   UNL d   1       0.733  -1.398   0.141  0.00  0.00    -0.293 N 
ATOM      5  HN  UNL d   1       1.301  -2.239   0.247  1.00  0.00     0.187 HD
ATOM      6  C   UNL d   1       1.171  -0.176   0.068  0.00  0.00     0.056 A 
ATOM      7  N   UNL d   1       0.164   2.069  -0.032  0.00  0.00    -0.293 N 
ATOM      8  HN  UNL d   1       1.075   2.527   0.008  1.00  0.00     0.187 HD
ATOM      9  O   UNL d   1      -2.313   0.387  -0.199  0.00  0.00    -0.264 OA
ATOM     10  C   UNL d   1       2.584   0.264   0.060  0.00  0.00     0.072 C 
ENDROOT
BRANCH   7  11
ATOM     11  N   UNL d   1      -0.998   2.771  -0.092  0.00  0.00    -0.300 N 
ATOM     12  H   UNL d   1      -1.902   2.329   0.105  0.00  0.00     0.187 HD
BRANCH  11  13
ATOM     13  C   UNL d   1      -0.977   4.173  -0.034  0.00  0.00     0.048 A 
ATOM     14  C   UNL d   1       0.218   4.904  -0.108  0.00  0.00     0.031 A 
ATOM     15  C   UNL d   1       0.209   6.299  -0.110  0.00  0.00     0.009 A 
ATOM     16  C   UNL d   1      -0.999   7.002  -0.039  0.00  0.00    -0.062 A 
ATOM     17  C   UNL d   1      -2.196   6.283   0.027  0.00  0.00     0.009 A 
ATOM     18  C   UNL d   1      -0.991   8.499  -0.040  0.00  0.00     0.048 C 
ATOM     19  C   UNL d   1      -2.182   4.884   0.023  0.00  0.00     0.031 A 
ENDBRANCH  11  13
ENDBRANCH   7  11
BRANCH   1  20
ATOM     20  C   UNL d   1      -1.387  -2.562  -0.004  0.00  0.00     0.060 A 
ATOM     21  C   UNL d   1      -2.749  -2.591  -0.335  0.00  0.00     0.031 A 
ATOM     22  C   UNL d   1      -3.438  -3.801  -0.429  0.00  0.00     0.002 A 
ATOM     23  C   UNL d   1      -2.782  -5.000  -0.170  0.00  0.00     0.000 A 
ATOM     24  C   UNL d   1      -1.434  -4.991   0.179  0.00  0.00     0.002 A 
ATOM     25  C   UNL d   1      -0.740  -3.780   0.255  0.00  0.00     0.031 A 
ENDBRANCH   1  20
TORSDOF 3
