REMARK  12 active torsions:
REMARK  status: ('A' for Active; 'I' for Inactive)
REMARK    1  A    between atoms: O_13  and  C_1 
REMARK    2  A    between atoms: C_2  and  O_14 
REMARK    3  A    between atoms: O_16  and  C_5 
REMARK    4  A    between atoms: O_15  and  C_6 
REMARK    5  A    between atoms: O_17  and  C_9 
REMARK    6  A    between atoms: O_18  and  C_10 
REMARK    7  A    between atoms: C_21  and  O_13 
REMARK    8  A    between atoms: O_14  and  C_20 
REMARK    9  A    between atoms: O_19  and  C_22 
REMARK   10  A    between atoms: C_23  and  O_19 
REMARK   11  A    between atoms: C_20  and  C_23 
REMARK   12  A    between atoms: C_22  and  C_21 
ROOT
ATOM      1  O   UNL d   1       5.207  -3.143   0.557  0.00  0.00    -0.387 OA
ENDROOT
BRANCH   1   2
ATOM      2  C   UNL d   1       4.675  -1.835   0.324  0.00  0.00     0.194 C 
BRANCH   2   3
ATOM      3  C   UNL d   1       5.296  -1.142  -0.885  0.00  0.00     0.201 C 
BRANCH   3   4
ATOM      4  O   UNL d   1       4.734   0.157  -1.054  0.00  0.00    -0.346 OA
BRANCH   4   5
ATOM      5  C   UNL d   1       5.261   0.925  -2.065  0.00  0.00     0.104 A 
ATOM      6  C   UNL d   1       6.194   0.435  -2.998  0.00  0.00     0.076 A 
ATOM      7  C   UNL d   1       6.650   1.226  -4.054  0.00  0.00     0.071 A 
ATOM      8  C   UNL d   1       6.165   2.525  -4.187  0.00  0.00     0.039 A 
ATOM      9  C   UNL d   1       5.246   3.029  -3.267  0.00  0.00     0.042 A 
ATOM     10  C   UNL d   1       4.805   2.247  -2.194  0.00  0.00     0.101 A 
BRANCH   7  11
ATOM     11  O   UNL d   1       7.545   0.840  -5.014  0.00  0.00    -0.356 OA
ATOM     12  C   UNL d   1       8.070  -0.480  -4.919  0.00  0.00     0.210 C 
ENDBRANCH   7  11
BRANCH  10  13
ATOM     13  O   UNL d   1       3.893   2.881  -1.389  0.00  0.00    -0.353 OA
ATOM     14  C   UNL d   1       3.988   2.597   0.003  0.00  0.00     0.210 C 
ENDBRANCH  10  13
ENDBRANCH   4   5
ENDBRANCH   3   4
ENDBRANCH   2   3
ENDBRANCH   1   2
BRANCH   1  15
ATOM     15  C   UNL d   1       6.617  -3.218   0.789  0.00  0.00     0.194 C 
BRANCH  15  16
ATOM     16  C   UNL d   1       7.060  -2.490   2.056  0.00  0.00     0.201 C 
BRANCH  16  17
ATOM     17  O   UNL d   1       8.485  -2.523   2.154  0.00  0.00    -0.346 OA
BRANCH  17  18
ATOM     18  C   UNL d   1       9.025  -1.830   3.212  0.00  0.00     0.104 A 
ATOM     19  C   UNL d   1       8.328  -1.633   4.417  0.00  0.00     0.076 A 
ATOM     20  C   UNL d   1       8.934  -1.007   5.508  0.00  0.00     0.071 A 
ATOM     21  C   UNL d   1      10.255  -0.580   5.401  0.00  0.00     0.039 A 
ATOM     22  C   UNL d   1      10.960  -0.767   4.212  0.00  0.00     0.042 A 
ATOM     23  C   UNL d   1      10.349  -1.376   3.109  0.00  0.00     0.101 A 
BRANCH  20  24
ATOM     24  O   UNL d   1       8.350  -0.779   6.724  0.00  0.00    -0.356 OA
ATOM     25  C   UNL d   1       7.007  -1.221   6.887  0.00  0.00     0.210 C 
ENDBRANCH  20  24
BRANCH  23  26
ATOM     26  O   UNL d   1      11.171  -1.508   2.019  0.00  0.00    -0.353 OA
ATOM     27  C   UNL d   1      10.559  -1.250   0.760  0.00  0.00     0.210 C 
ENDBRANCH  23  26
ENDBRANCH  17  18
ENDBRANCH  16  17
ENDBRANCH  15  16
ENDBRANCH   1  15
TORSDOF 12
