REMARK  3 active torsions:
REMARK  status: ('A' for Active; 'I' for Inactive)
REMARK    1  A    between atoms: S_11  and  C_5 
REMARK    2  A    between atoms: C_8  and  C_10 
REMARK    3  A    between atoms: C_10  and  S_11 
ROOT
ATOM      1  C   UNL d   1       0.509  -0.853   0.247  0.00  0.00     0.199 A 
ATOM      2  O   UNL d   1       0.718   0.467   0.571  0.00  0.00    -0.265 OA
ATOM      3  N   UNL d   1      -0.629  -1.022  -0.404  0.00  0.00    -0.275 N 
ATOM      4  HN  UNL d   1      -1.003  -1.903  -0.755  1.00  0.00     0.189 HD
ATOM      5  C   UNL d   1      -0.397   1.078   0.061  0.00  0.00     0.204 A 
ATOM      6  N   UNL d   1      -1.213   0.222  -0.518  0.00  0.00    -0.272 N 
ATOM      7  HN  UNL d   1      -2.105   0.438  -0.964  1.00  0.00     0.189 HD
ATOM      8  C   UNL d   1       1.412  -1.915   0.582  0.00  0.00     0.127 A 
ATOM      9  O   UNL d   1       2.540  -1.730   1.343  0.00  0.00    -0.318 OA
ATOM     10  C   UNL d   1       1.331  -3.256   0.236  0.00  0.00     0.043 A 
ATOM     11  C   UNL d   1       3.152  -2.934   1.476  0.00  0.00     0.142 A 
ATOM     12  C   UNL d   1       2.449  -3.907   0.811  0.00  0.00     0.027 A 
ENDROOT
BRANCH   5  13
ATOM     13  S   UNL d   1      -0.663   2.792   0.163  0.00  0.00    -0.080 SA
BRANCH  13  14
ATOM     14  C   UNL d   1      -2.473   2.847   0.015  0.00  0.00     0.126 C 
BRANCH  14  15
ATOM     15  C   UNL d   1      -2.997   4.260  -0.048  0.00  0.00     0.012 A 
ATOM     16  C   UNL d   1      -3.329   4.920   1.143  0.00  0.00     0.125 A 
ATOM     17  F   UNL d   1      -3.174   4.291   2.318  0.00  0.00    -0.205 F 
ATOM     18  C   UNL d   1      -3.832   6.220   1.153  0.00  0.00     0.043 A 
ATOM     19  C   UNL d   1      -4.012   6.898  -0.047  0.00  0.00     0.005 A 
ATOM     20  C   UNL d   1      -3.679   6.271  -1.247  0.00  0.00     0.024 A 
ATOM     21  C   UNL d   1      -3.169   4.965  -1.247  0.00  0.00     0.044 A 
ATOM     22 CL   UNL d   1      -2.776   4.270  -2.780  0.00  0.00    -0.084 Cl
ENDBRANCH  14  15
ENDBRANCH  13  14
ENDBRANCH   5  13
TORSDOF 3
