REMARK  3 active torsions:
REMARK  status: ('A' for Active; 'I' for Inactive)
REMARK    1  A    between atoms: C_3  and  N_1 
REMARK    2  A    between atoms: N_2  and  C_5 
REMARK    3  A    between atoms: C_10  and  C_4 
ROOT
ATOM      1  C   UNL d   1      -3.438  -2.020   1.256  0.00  0.00     0.102 A 
ATOM      2  C   UNL d   1      -1.886  -0.085  -0.033  0.00  0.00    -0.034 A 
ATOM      3  C   UNL d   1      -2.415  -1.369   1.958  0.00  0.00     0.037 A 
ATOM      4  C   UNL d   1      -3.701  -1.696  -0.082  0.00  0.00     0.037 A 
ATOM      5  C   UNL d   1      -2.922  -0.728  -0.722  0.00  0.00     0.014 A 
ATOM      6  C   UNL d   1      -1.642  -0.401   1.309  0.00  0.00     0.014 A 
ENDROOT
BRANCH   2   7
ATOM      7  C   UNL d   1      -1.042   0.891  -0.723  0.00  0.00     0.042 C 
ATOM      8  C   UNL d   1      -1.322   2.206  -0.780  0.00  0.00     0.077 C 
ATOM      9  C   UNL d   1      -2.470   2.935  -0.165  0.00  0.00     0.075 C 
BRANCH   8  10
ATOM     10  N   UNL d   1      -0.390   3.035  -1.542  0.00  0.00    -0.120 N 
ATOM     11  O   UNL d   1       0.793   2.675  -1.605  0.00  0.00    -0.532 OA
ATOM     12  O   UNL d   1      -0.849   4.051  -2.082  0.00  0.00    -0.532 OA
ENDBRANCH   8  10
ENDBRANCH   2   7
BRANCH   1  13
ATOM     13  N   UNL d   1      -4.231  -3.061   1.923  0.00  0.00    -0.116 N 
ATOM     14  O   UNL d   1      -3.954  -3.330   3.100  0.00  0.00    -0.532 OA
ATOM     15  O   UNL d   1      -5.128  -3.610   1.267  0.00  0.00    -0.532 OA
ENDBRANCH   1  13
TORSDOF 3
