REMARK  7 active torsions:
REMARK  status: ('A' for Active; 'I' for Inactive)
REMARK    1  A    between atoms: N_2  and  C_1 
REMARK    2  A    between atoms: N_7  and  C_1 
REMARK    3  A    between atoms: C_10  and  N_2 
REMARK    4  A    between atoms: N_3  and  N_7 
REMARK    5  A    between atoms: O_14  and  C_5 
REMARK    6  A    between atoms: O_16  and  C_8 
REMARK    7  A    between atoms: C_13  and  C_12 
ROOT
ATOM      1  N   UNL d   1       3.219  -0.521   1.062  0.00  0.00    -0.309 N 
ATOM      2  HN  UNL d   1       2.684  -0.927   1.830  1.00  0.00     0.186 HD
ATOM      3  C   UNL d   1       4.514  -0.500   1.038  0.00  0.00     0.118 C 
ENDROOT
BRANCH   1   4
ATOM      4  N   UNL d   1       2.629   0.049  -0.034  0.00  0.00    -0.277 N 
ATOM      5  H   UNL d   1       3.188   0.521  -0.738  0.00  0.00     0.189 HD
BRANCH   4   6
ATOM      6  C   UNL d   1       1.259   0.044  -0.210  0.00  0.00     0.187 C 
ATOM      7  S   UNL d   1       0.629   0.817  -1.543  0.00  0.00    -0.040 SA
BRANCH   6   8
ATOM      8  N   UNL d   1       0.603  -0.644   0.774  0.00  0.00    -0.358 N 
ATOM      9  H   UNL d   1       1.285  -1.016   1.431  0.00  0.00     0.162 HD
BRANCH   8  10
ATOM     10  C   UNL d   1      -0.796  -1.091   0.915  0.00  0.00     0.021 C 
ATOM     11  C   UNL d   1      -1.203  -2.000  -0.256  0.00  0.00     0.037 C 
ATOM     12  C   UNL d   1      -0.889  -1.920   2.212  0.00  0.00     0.037 C 
ATOM     13  C   UNL d   1      -1.770   0.089   1.046  0.00  0.00     0.037 C 
ENDBRANCH   8  10
ENDBRANCH   6   8
ENDBRANCH   4   6
ENDBRANCH   1   4
BRANCH   3  14
ATOM     14  C   UNL d   1       5.326  -0.996   2.167  0.00  0.00    -0.017 A 
ATOM     15  C   UNL d   1       4.718  -1.472   3.332  0.00  0.00     0.052 A 
ATOM     16  C   UNL d   1       5.515  -1.876   4.400  0.00  0.00     0.099 A 
ATOM     17  C   UNL d   1       6.908  -1.809   4.307  0.00  0.00     0.098 A 
ATOM     18  C   UNL d   1       7.515  -1.348   3.142  0.00  0.00     0.040 A 
ATOM     19  C   UNL d   1       6.722  -0.941   2.064  0.00  0.00     0.016 A 
BRANCH  16  20
ATOM     20  O   UNL d   1       4.945  -2.330   5.555  0.00  0.00    -0.358 OA
ATOM     21  H   UNL d   1       3.979  -2.297   5.472  0.00  0.00     0.217 HD
ENDBRANCH  16  20
BRANCH  17  22
ATOM     22  O   UNL d   1       7.668  -2.192   5.375  0.00  0.00    -0.358 OA
ATOM     23  H   UNL d   1       8.603  -2.018   5.185  0.00  0.00     0.217 HD
ENDBRANCH  17  22
ENDBRANCH   3  14
TORSDOF 7
