REMARK  4 active torsions:
REMARK  status: ('A' for Active; 'I' for Inactive)
REMARK    1  A    between atoms: C_4  and  C_1 
REMARK    2  A    between atoms: N_7  and  N_2 
REMARK    3  A    between atoms: N_9  and  C_4 
REMARK    4  A    between atoms: C_10  and  N_7 
ROOT
ATOM      1  C   UNL d   1       2.987  -1.094  -0.476  0.00  0.00     0.166 C 
ATOM      2  N   UNL d   1       2.346  -2.127  -0.961  0.00  0.00    -0.288 N 
ATOM      3  HN  UNL d   1       2.854  -2.979  -1.202  1.00  0.00     0.188 HD
ATOM      4  C   UNL d   1       2.209   0.075  -0.113  0.00  0.00     0.122 C 
ATOM      5  N   UNL d   1       1.546   0.996   0.135  0.00  0.00    -0.190 NA
ENDROOT
BRANCH   1   6
ATOM      6  C   UNL d   1       4.490  -1.196  -0.342  0.00  0.00     0.133 C 
ATOM      7  S   UNL d   1       5.371   0.056   0.296  0.00  0.00    -0.058 SA
BRANCH   6   8
ATOM      8  N   UNL d   1       5.087  -2.349  -0.780  0.00  0.00    -0.388 N 
ATOM      9  H   UNL d   1       4.533  -3.104  -1.176  0.00  0.00     0.157 HD
ATOM     10  H   UNL d   1       6.093  -2.462  -0.722  0.00  0.00     0.157 HD
ENDBRANCH   6   8
ENDBRANCH   1   6
BRANCH   2  11
ATOM     11  N   UNL d   1       0.988  -2.058  -1.143  0.00  0.00    -0.300 N 
ATOM     12  H   UNL d   1       0.561  -1.177  -1.442  0.00  0.00     0.187 HD
BRANCH  11  13
ATOM     13  C   UNL d   1       0.352  -3.184  -1.712  0.00  0.00     0.048 A 
ATOM     14  C   UNL d   1       0.827  -4.485  -1.500  0.00  0.00     0.032 A 
ATOM     15  C   UNL d   1       0.171  -5.589  -2.054  0.00  0.00     0.026 A 
ATOM     16  C   UNL d   1      -0.970  -5.398  -2.827  0.00  0.00     0.034 A 
ATOM     17  C   UNL d   1      -1.471  -4.116  -3.034  0.00  0.00     0.026 A 
ATOM     18 CL   UNL d   1      -1.767  -6.752  -3.527  0.00  0.00    -0.084 Cl
ATOM     19  C   UNL d   1      -0.819  -3.015  -2.466  0.00  0.00     0.032 A 
ENDBRANCH  11  13
ENDBRANCH   2  11
TORSDOF 4
