REMARK  3 active torsions:
REMARK  status: ('A' for Active; 'I' for Inactive)
REMARK    1  A    between atoms: C_11  and  C_4 
REMARK    2  A    between atoms: C_19  and  C_10 
REMARK    3  A    between atoms: C_20  and  C_19 
ROOT
ATOM      1  N   UNL d   1       0.257   0.606  -0.025  0.00  0.00    -0.257 N 
ATOM      2  C   UNL d   1      -0.423  -0.593   0.001  0.00  0.00     0.158 A 
ATOM      3  C   UNL d   1       1.634   0.604   0.010  0.00  0.00     0.256 A 
ATOM      4  C   UNL d   1      -0.569   1.721  -0.053  0.00  0.00     0.061 A 
ATOM      5  N   UNL d   1       0.094  -1.774   0.018  0.00  0.00    -0.340 N 
ATOM      6  HN  UNL d   1      -0.481  -2.616   0.050  1.00  0.00     0.168 HD
ATOM      7  C   UNL d   1       2.248  -0.738  -0.016  0.00  0.00     0.100 A 
ATOM      8  S   UNL d   1      -2.154  -0.290   0.005  0.00  0.00    -0.063 SA
ATOM      9  C   UNL d   1      -1.879   1.427  -0.043  0.00  0.00     0.084 A 
ATOM     10  C   UNL d   1       1.467  -1.829  -0.010  0.00  0.00     0.016 A 
ATOM     11  O   UNL d   1       2.377   1.578   0.070  0.00  0.00    -0.268 OA
ENDROOT
BRANCH   4  12
ATOM     12  C   UNL d   1      -0.063   3.091  -0.106  0.00  0.00    -0.008 A 
ATOM     13  C   UNL d   1       0.178   3.801   1.078  0.00  0.00     0.015 A 
ATOM     14  C   UNL d   1       0.736   5.082   1.028  0.00  0.00     0.024 A 
ATOM     15  C   UNL d   1       1.044   5.656  -0.204  0.00  0.00     0.034 A 
ATOM     16  C   UNL d   1       0.786   4.968  -1.389  0.00  0.00     0.024 A 
ATOM     17 CL   UNL d   1       1.760   7.219  -0.263  0.00  0.00    -0.084 Cl
ATOM     18  C   UNL d   1       0.228   3.688  -1.341  0.00  0.00     0.015 A 
ENDBRANCH   4  12
BRANCH  10  19
ATOM     19  C   UNL d   1       2.083  -3.212  -0.013  0.00  0.00     0.057 C 
BRANCH  19  20
ATOM     20  C   UNL d   1       1.671  -4.086  -1.203  0.00  0.00     0.002 C 
ATOM     21  C   UNL d   1       2.081  -3.511  -2.551  0.00  0.00     0.005 C 
ENDBRANCH  19  20
ENDBRANCH  10  19
TORSDOF 3
