REMARK  4 active torsions:
REMARK  status: ('A' for Active; 'I' for Inactive)
REMARK    1  A    between atoms: C_6  and  C_1 
REMARK    2  A    between atoms: C_10  and  N_2 
REMARK    3  A    between atoms: C_8  and  C_4 
REMARK       I    between atoms: N_7  and  C_6 
REMARK    4  A    between atoms: C_9  and  N_7 
ROOT
ATOM      1  C   UNL d   1      -0.254   1.053   0.177  0.00  0.00     0.057 C 
ATOM      2  N   UNL d   1       0.894  -0.895   0.376  0.00  0.00    -0.314 N 
ATOM      3  C   UNL d   1       0.973   0.497   0.547  0.00  0.00     0.029 C 
ATOM      4  C   UNL d   1      -0.469  -1.222   0.228  0.00  0.00     0.051 C 
ATOM      5  C   UNL d   1      -1.154  -0.032   0.043  0.00  0.00     0.050 C 
ATOM      6  C   UNL d   1       2.211   1.243   0.931  0.00  0.00     0.070 C 
ENDROOT
BRANCH   1   7
ATOM      7  C   UNL d   1      -0.526   2.480  -0.066  0.00  0.00     0.258 C 
ATOM      8  N   UNL d   1      -1.840   2.853   0.145  0.00  0.00    -0.322 N 
ATOM      9  H   UNL d   1      -2.407   2.222   0.692  0.00  0.00     0.169 HD
ATOM     10  O   UNL d   1       0.369   3.243  -0.420  0.00  0.00    -0.267 OA
BRANCH   8  11
ATOM     11  C   UNL d   1      -2.418   4.093  -0.229  0.00  0.00     0.041 A 
ATOM     12  C   UNL d   1      -3.591   4.550   0.403  0.00  0.00    -0.035 A 
ATOM     13  C   UNL d   1      -4.247   3.849   1.562  0.00  0.00     0.050 C 
ATOM     14  C   UNL d   1      -4.195   5.740  -0.050  0.00  0.00     0.009 A 
ATOM     15  C   UNL d   1      -3.640   6.480  -1.092  0.00  0.00     0.001 A 
ATOM     16  C   UNL d   1      -2.474   6.039  -1.701  0.00  0.00     0.002 A 
ATOM     17  C   UNL d   1      -1.871   4.854  -1.273  0.00  0.00     0.030 A 
ENDBRANCH   8  11
ENDBRANCH   1   7
BRANCH   2  18
ATOM     18  C   UNL d   1       1.993  -1.826   0.291  0.00  0.00     0.039 A 
ATOM     19  C   UNL d   1       3.139  -1.703   1.084  0.00  0.00     0.030 A 
ATOM     20  C   UNL d   1       4.155  -2.666   1.025  0.00  0.00     0.002 A 
ATOM     21  C   UNL d   1       4.035  -3.768   0.184  0.00  0.00     0.000 A 
ATOM     22  C   UNL d   1       2.914  -3.891  -0.630  0.00  0.00     0.002 A 
ATOM     23  C   UNL d   1       1.913  -2.916  -0.594  0.00  0.00     0.030 A 
ENDBRANCH   2  18
BRANCH   4  24
ATOM     24  C   UNL d   1      -1.065  -2.576   0.250  0.00  0.00    -0.009 A 
ATOM     25  C   UNL d   1      -2.120  -2.890  -0.623  0.00  0.00     0.015 A 
ATOM     26  C   UNL d   1      -2.675  -4.174  -0.648  0.00  0.00     0.024 A 
ATOM     27  C   UNL d   1      -2.171  -5.162   0.193  0.00  0.00     0.034 A 
ATOM     28  C   UNL d   1      -1.142  -4.866   1.082  0.00  0.00     0.024 A 
ATOM     29 CL   UNL d   1      -2.819  -6.753   0.129  0.00  0.00    -0.084 Cl
ATOM     30  C   UNL d   1      -0.611  -3.573   1.128  0.00  0.00     0.015 A 
ENDBRANCH   4  24
TORSDOF 4
