REMARK  6 active torsions:
REMARK  status: ('A' for Active; 'I' for Inactive)
REMARK    1  A    between atoms: C_13  and  N_1 
REMARK    2  A    between atoms: C_2  and  C_6 
REMARK    3  A    between atoms: C_3  and  C_16 
REMARK       I    between atoms: N_4  and  C_3 
REMARK    4  A    between atoms: C_5  and  N_4 
REMARK    5  A    between atoms: O_14  and  C_10 
REMARK    6  A    between atoms: C_11  and  O_14 
ROOT
ATOM      1  C   UNL d   1      -3.560  -2.238   3.599  0.00  0.00     0.070 C 
ATOM      2  C   UNL d   1      -5.364  -3.009   2.114  0.00  0.00     0.050 C 
ATOM      3  C   UNL d   1      -2.659  -3.074   2.908  0.00  0.00     0.102 C 
ATOM      4  C   UNL d   1      -4.919  -2.276   3.228  0.00  0.00     0.048 C 
ATOM      5  C   UNL d   1      -4.427  -3.719   1.360  0.00  0.00     0.019 C 
ATOM      6  C   UNL d   1      -3.090  -3.745   1.751  0.00  0.00     0.040 C 
ENDROOT
BRANCH   1   7
ATOM      7  N   UNL d   1      -3.250  -1.287   4.617  0.00  0.00    -0.320 N 
ATOM      8  C   UNL d   1      -2.032  -0.646   4.807  0.00  0.00     0.256 C 
ATOM      9  O   UNL d   1      -0.977  -0.918   4.249  0.00  0.00    -0.267 OA
ATOM     10  H   UNL d   1      -4.056  -0.849   5.031  0.00  0.00     0.169 HD
BRANCH   8  11
ATOM     11  C   UNL d   1      -2.031   0.584   5.684  0.00  0.00     0.032 A 
ATOM     12  C   UNL d   1      -3.112   1.014   6.470  0.00  0.00     0.019 A 
ATOM     13  C   UNL d   1      -3.046   2.238   7.159  0.00  0.00     0.037 A 
ATOM     14  C   UNL d   1      -1.893   3.032   7.076  0.00  0.00     0.102 A 
ATOM     15  C   UNL d   1      -0.794   2.596   6.335  0.00  0.00     0.037 A 
ATOM     16  C   UNL d   1      -0.870   1.381   5.649  0.00  0.00     0.019 A 
BRANCH  14  17
ATOM     17  N   UNL d   1      -1.844   4.338   7.748  0.00  0.00    -0.116 N 
ATOM     18  O   UNL d   1      -0.799   4.996   7.654  0.00  0.00    -0.532 OA
ATOM     19  O   UNL d   1      -2.856   4.708   8.358  0.00  0.00    -0.532 OA
ENDBRANCH  14  17
ENDBRANCH   8  11
ENDBRANCH   1   7
BRANCH   3  20
ATOM     20  O   UNL d   1      -1.365  -3.211   3.356  0.00  0.00    -0.308 OA
BRANCH  20  21
ATOM     21  C   UNL d   1      -0.695  -4.408   3.236  0.00  0.00     0.077 A 
ATOM     22  C   UNL d   1       0.685  -4.317   3.048  0.00  0.00     0.045 A 
ATOM     23  C   UNL d   1       1.483  -5.472   2.961  0.00  0.00    -0.037 A 
ATOM     24  C   UNL d   1       2.969  -5.320   2.789  0.00  0.00     0.050 C 
ATOM     25  C   UNL d   1       0.868  -6.737   3.059  0.00  0.00     0.046 A 
ATOM     26  C   UNL d   1      -0.523  -6.844   3.249  0.00  0.00    -0.037 A 
ATOM     27 CL   UNL d   1       1.854  -8.164   2.963  0.00  0.00    -0.083 Cl
ATOM     28  C   UNL d   1      -1.287  -5.666   3.367  0.00  0.00     0.045 A 
ATOM     29  C   UNL d   1      -1.263  -8.152   3.323  0.00  0.00     0.050 C 
ENDBRANCH  20  21
ENDBRANCH   3  20
BRANCH   2  30
ATOM     30  C   UNL d   1      -6.814  -3.001   1.695  0.00  0.00     0.417 C 
ATOM     31  F   UNL d   1      -7.614  -2.275   2.526  0.00  0.00    -0.166 F 
ATOM     32  F   UNL d   1      -6.993  -2.477   0.452  0.00  0.00    -0.166 F 
ATOM     33  F   UNL d   1      -7.351  -4.251   1.658  0.00  0.00    -0.166 F 
ENDBRANCH   2  30
TORSDOF 6
