REMARK  7 active torsions:
REMARK  status: ('A' for Active; 'I' for Inactive)
REMARK    1  A    between atoms: C_8  and  C_1 
REMARK    2  A    between atoms: O_13  and  C_3 
REMARK    3  A    between atoms: C_7  and  C_17 
REMARK    4  A    between atoms: C_18  and  N_9 
REMARK    5  A    between atoms: S_16  and  C_21 
REMARK    6  A    between atoms: C_17  and  S_16 
REMARK    7  A    between atoms: C_21  and  C_18 
ROOT
ATOM      1  C   UNL d   1      -0.154   3.465  -0.056  0.00  0.00     0.097 C 
ATOM      2  N   UNL d   1       0.873   4.249  -0.019  0.00  0.00    -0.397 N 
ATOM      3  HN  UNL d   1       1.837   3.916  -0.023  1.00  0.00     0.158 HD
ENDROOT
BRANCH   2   4
ATOM      4  C   UNL d   1       0.503   5.676   0.029  0.00  0.00     0.129 C 
BRANCH   4   5
ATOM      5  C   UNL d   1       1.772   6.537   0.059  0.00  0.00     0.093 C 
BRANCH   5   6
ATOM      6  S   UNL d   1       1.304   8.300   0.151  0.00  0.00    -0.163 SA
BRANCH   6   7
ATOM      7  C   UNL d   1       2.962   9.055   0.152  0.00  0.00     0.114 C 
BRANCH   7   8
ATOM      8  C   UNL d   1       2.869  10.565   0.173  0.00  0.00    -0.027 A 
ATOM      9  C   UNL d   1       2.800  11.342  -0.995  0.00  0.00     0.041 A 
ATOM     10 CL   UNL d   1       2.854  10.635  -2.572  0.00  0.00    -0.084 Cl
ATOM     11  C   UNL d   1       2.683  12.736  -0.921  0.00  0.00     0.024 A 
ATOM     12  C   UNL d   1       2.628  13.373   0.318  0.00  0.00     0.002 A 
ATOM     13  C   UNL d   1       2.686  12.617   1.485  0.00  0.00     0.001 A 
ATOM     14  C   UNL d   1       2.802  11.227   1.415  0.00  0.00     0.009 A 
ENDBRANCH   7   8
ENDBRANCH   6   7
ENDBRANCH   5   6
ENDBRANCH   4   5
ENDBRANCH   2   4
BRANCH   1  15
ATOM     15  C   UNL d   1       0.000   1.994  -0.103  0.00  0.00     0.015 A 
ATOM     16  C   UNL d   1      -1.119   1.155  -0.135  0.00  0.00     0.099 A 
ATOM     17  C   UNL d   1      -0.941  -0.233  -0.177  0.00  0.00     0.069 A 
ATOM     18 CL   UNL d   1      -2.309  -1.286  -0.216  0.00  0.00    -0.081 Cl
ATOM     19  C   UNL d   1       0.338  -0.787  -0.187  0.00  0.00     0.050 A 
ATOM     20  C   UNL d   1       1.446   0.057  -0.155  0.00  0.00     0.036 A 
ATOM     21  C   UNL d   1       1.286   1.441  -0.114  0.00  0.00     0.039 A 
ATOM     22 CL   UNL d   1       3.029  -0.616  -0.166  0.00  0.00    -0.084 Cl
BRANCH  16  23
ATOM     23  O   UNL d   1      -2.379   1.695  -0.124  0.00  0.00    -0.358 OA
ATOM     24  H   UNL d   1      -3.020   0.957  -0.153  0.00  0.00     0.217 HD
ENDBRANCH  16  23
ENDBRANCH   1  15
TORSDOF 7
