REMARK  4 active torsions:
REMARK  status: ('A' for Active; 'I' for Inactive)
REMARK    1  A    between atoms: N_7  and  C_1 
REMARK    2  A    between atoms: N_11  and  C_2 
REMARK    3  A    between atoms: C_10  and  C_18 
REMARK    4  A    between atoms: N_13  and  N_11 
ROOT
ATOM      1  C   UNL d   1      -0.729  -1.335   0.018  0.00  0.00     0.173 A 
ATOM      2  C   UNL d   1       0.656  -1.373  -0.070  0.00  0.00     0.172 A 
ATOM      3  N   UNL d   1       1.044  -0.049  -0.066  0.00  0.00    -0.278 N 
ATOM      4  N   UNL d   1       0.006   0.817  -0.044  0.00  0.00    -0.299 N 
ATOM      5  HN  UNL d   1       0.043   1.836  -0.057  1.00  0.00     0.187 HD
ATOM      6  C   UNL d   1      -1.080   0.038  -0.002  0.00  0.00     0.059 A 
ATOM      7  C   UNL d   1      -2.423   0.674   0.006  0.00  0.00     0.072 C 
ATOM      8  C   UNL d   1       2.371   0.523  -0.020  0.00  0.00     0.179 C 
ENDROOT
BRANCH   2   9
ATOM      9  N   UNL d   1       1.530  -2.421  -0.143  0.00  0.00    -0.283 N 
ATOM     10  H   UNL d   1       1.122  -3.363  -0.066  0.00  0.00     0.188 HD
BRANCH   9  11
ATOM     11  N   UNL d   1       2.673  -2.298  -0.872  0.00  0.00    -0.309 N 
ATOM     12  C   UNL d   1       3.490  -3.304  -0.881  0.00  0.00     0.126 C 
ATOM     13  HN  UNL d   1       2.879  -1.446  -1.393  1.00  0.00     0.186 HD
BRANCH  12  14
ATOM     14  C   UNL d   1       4.721  -3.190  -1.627  0.00  0.00     0.023 A 
ATOM     15  C   UNL d   1       5.166  -2.122  -2.385  0.00  0.00     0.040 A 
ATOM     16  C   UNL d   1       6.437  -2.377  -2.951  0.00  0.00     0.018 A 
ATOM     17 BR   UNL d   1       7.319  -1.107  -4.031  0.00  0.00    -0.051 Br
ATOM     18  C   UNL d   1       6.935  -3.614  -2.630  0.00  0.00     0.069 A 
ATOM     19  S   UNL d   1       5.846  -4.479  -1.626  0.00  0.00    -0.099 SA
ENDBRANCH  12  14
ENDBRANCH   9  11
ENDBRANCH   2   9
BRANCH   1  20
ATOM     20  N   UNL d   1      -1.605  -2.469   0.067  0.00  0.00    -0.110 N 
ATOM     21  O   UNL d   1      -1.074  -3.589   0.089  0.00  0.00    -0.532 OA
ATOM     22  O   UNL d   1      -2.820  -2.251   0.092  0.00  0.00    -0.532 OA
ENDBRANCH   1  20
TORSDOF 4
