REMARK  6 active torsions:
REMARK  status: ('A' for Active; 'I' for Inactive)
REMARK    1  A    between atoms: C_4  and  C_1 
REMARK       I    between atoms: N_12  and  C_4 
REMARK    2  A    between atoms: O_19  and  C_7 
REMARK    3  A    between atoms: C_8  and  C_9 
REMARK       I    between atoms: C_9  and  N_13 
REMARK    4  A    between atoms: O_20  and  C_10 
REMARK    5  A    between atoms: O_21  and  C_11 
REMARK    6  A    between atoms: N_13  and  N_12 
ROOT
ATOM      1  C   UNL d   1       4.662  -3.671   0.105  0.00  0.00     0.270 C 
ATOM      2  N   UNL d   1       4.080  -3.421   1.325  0.00  0.00    -0.263 N 
ATOM      3  O   UNL d   1       4.031  -3.865  -0.931  0.00  0.00    -0.266 OA
ATOM      4  H   UNL d   1       4.582  -3.588   2.197  0.00  0.00     0.190 HD
ENDROOT
BRANCH   2   5
ATOM      5  N   UNL d   1       2.678  -3.466   1.427  0.00  0.00    -0.262 N 
ATOM      6  C   UNL d   1       2.139  -3.845   2.641  0.00  0.00     0.278 C 
ATOM      7  O   UNL d   1       2.905  -4.181   3.553  0.00  0.00    -0.265 OA
ATOM      8  H   UNL d   1       2.139  -3.202   0.607  0.00  0.00     0.190 HD
BRANCH   6   9
ATOM      9  C   UNL d   1       0.689  -3.798   2.776  0.00  0.00     0.097 A 
ATOM     10  S   UNL d   1       0.048  -4.216   4.313  0.00  0.00    -0.082 SA
ATOM     11  C   UNL d   1      -1.569  -3.935   3.830  0.00  0.00     0.017 A 
ATOM     12  C   UNL d   1      -2.716  -4.073   4.637  0.00  0.00     0.020 A 
ATOM     13  C   UNL d   1      -1.644  -3.540   2.495  0.00  0.00     0.004 A 
ATOM     14  C   UNL d   1      -3.969  -3.816   4.082  0.00  0.00     0.001 A 
ATOM     15  C   UNL d   1      -4.081  -3.428   2.756  0.00  0.00     0.001 A 
ATOM     16  C   UNL d   1      -2.938  -3.286   1.962  0.00  0.00     0.014 A 
ATOM     17  C   UNL d   1      -0.327  -3.460   1.901  0.00  0.00     0.068 A 
ATOM     18 CL   UNL d   1      -0.124  -2.974   0.262  0.00  0.00    -0.082 Cl
ENDBRANCH   6   9
ENDBRANCH   2   5
BRANCH   1  19
ATOM     19  C   UNL d   1       6.151  -3.686   0.096  0.00  0.00     0.039 A 
ATOM     20  C   UNL d   1       6.815  -4.487  -0.828  0.00  0.00     0.057 A 
ATOM     21  C   UNL d   1       8.214  -4.459  -0.920  0.00  0.00     0.105 A 
ATOM     22  C   UNL d   1       8.967  -3.599  -0.075  0.00  0.00     0.135 A 
ATOM     23  C   UNL d   1       8.284  -2.819   0.882  0.00  0.00     0.105 A 
ATOM     24  C   UNL d   1       6.884  -2.871   0.954  0.00  0.00     0.057 A 
BRANCH  21  25
ATOM     25  O   UNL d   1       8.891  -5.301  -1.770  0.00  0.00    -0.353 OA
ATOM     26  C   UNL d   1       8.189  -5.751  -2.926  0.00  0.00     0.210 C 
ENDBRANCH  21  25
BRANCH  22  27
ATOM     27  O   UNL d   1      10.336  -3.499  -0.101  0.00  0.00    -0.351 OA
ATOM     28  C   UNL d   1      10.993  -3.711  -1.346  0.00  0.00     0.210 C 
ENDBRANCH  22  27
BRANCH  23  29
ATOM     29  O   UNL d   1       8.779  -1.940   1.811  0.00  0.00    -0.353 OA
ATOM     30  C   UNL d   1      10.166  -1.656   1.861  0.00  0.00     0.210 C 
ENDBRANCH  23  29
ENDBRANCH   1  19
TORSDOF 6
