REMARK  4 active torsions:
REMARK  status: ('A' for Active; 'I' for Inactive)
REMARK    1  A    between atoms: C_2  and  S_1 
REMARK    2  A    between atoms: N_5  and  S_1 
REMARK    3  A    between atoms: C_8  and  C_4 
REMARK    4  A    between atoms: O_18  and  C_8 
ROOT
ATOM      1  C   UNL d   1       0.225   0.372  -1.868  0.00  0.00     0.151 A 
ATOM      2  N   UNL d   1       0.519   1.560  -2.534  0.00  0.00    -0.336 N 
ATOM      3  C   UNL d   1      -0.062   1.579  -3.798  0.00  0.00     0.111 A 
ATOM      4  C   UNL d   1      -0.669  -0.300  -2.686  0.00  0.00     0.046 A 
ATOM      5  C   UNL d   1      -0.844   0.438  -3.876  0.00  0.00     0.039 A 
ATOM      6  C   UNL d   1       1.331   2.644  -2.009  0.00  0.00     0.157 C 
ENDROOT
BRANCH   1   7
ATOM      7  S   UNL d   1       0.956  -0.016  -0.278  0.00  0.00     0.276 S 
ATOM      8  O   UNL d   1       0.329   0.939   0.615  0.00  0.00    -0.199 OA
ATOM      9  O   UNL d   1       2.375   0.027  -0.554  0.00  0.00    -0.199 OA
BRANCH   7  10
ATOM     10  N   UNL d   1       0.565  -1.547   0.235  0.00  0.00    -0.302 N 
ATOM     11  C   UNL d   1      -0.686  -1.839   0.953  0.00  0.00     0.165 C 
ATOM     12  C   UNL d   1      -1.645  -2.661   0.078  0.00  0.00     0.292 C 
ATOM     13  N   UNL d   1      -1.036  -3.850  -0.554  0.00  0.00     0.087 N 
ATOM     14  C   UNL d   1       0.274  -3.561  -1.177  0.00  0.00     0.292 C 
ATOM     15  C   UNL d   1      -1.951  -4.418  -1.547  0.00  0.00     0.310 C 
ATOM     16  C   UNL d   1       1.234  -2.749  -0.291  0.00  0.00     0.165 C 
ENDBRANCH   7  10
ENDBRANCH   1   7
BRANCH   3  17
ATOM     17  C   UNL d   1       0.141   2.614  -4.798  0.00  0.00     0.309 C 
ATOM     18  O   UNL d   1       0.867   3.592  -4.680  0.00  0.00    -0.258 OA
BRANCH  17  19
ATOM     19  O   UNL d   1      -0.591   2.336  -5.918  0.00  0.00    -0.321 OA
ATOM     20  C   UNL d   1      -0.437   3.296  -6.963  0.00  0.00     0.213 C 
ENDBRANCH  17  19
ENDBRANCH   3  17
TORSDOF 4
