REMARK  5 active torsions:
REMARK  status: ('A' for Active; 'I' for Inactive)
REMARK    1  A    between atoms: C_9  and  C_5 
REMARK    2  A    between atoms: N_7  and  C_10 
REMARK    3  A    between atoms: N_8  and  C_15 
REMARK       I    between atoms: N_14  and  C_9 
REMARK    4  A    between atoms: C_22  and  N_14 
REMARK    5  A    between atoms: C_25  and  C_22 
ROOT
ATOM      1  C   UNL d   1      -0.465   0.537   0.539  0.00  0.00     0.005 A 
ATOM      2  C   UNL d   1      -0.995  -0.775   0.383  0.00  0.00     0.029 A 
ATOM      3  C   UNL d   1       1.340  -0.974   0.509  0.00  0.00     0.028 A 
ATOM      4  C   UNL d   1       0.994   0.388   0.677  0.00  0.00    -0.010 A 
ATOM      5  C   UNL d   1      -1.374   1.599   0.447  0.00  0.00     0.046 A 
ATOM      6  C   UNL d   1       0.109  -1.744   0.369  0.00  0.00     0.194 A 
ATOM      7  C   UNL d   1      -3.205  -0.042   0.089  0.00  0.00     0.104 A 
ATOM      8  C   UNL d   1      -2.325  -1.103   0.185  0.00  0.00     0.052 A 
ATOM      9  C   UNL d   1      -2.741   1.286   0.196  0.00  0.00     0.054 A 
ATOM     10  C   UNL d   1       2.627  -1.479   0.442  0.00  0.00     0.052 A 
ATOM     11  C   UNL d   1       3.655  -0.553   0.577  0.00  0.00     0.103 A 
ATOM     12  C   UNL d   1       2.033   1.275   0.907  0.00  0.00     0.016 A 
ATOM     13  O   UNL d   1       0.010  -2.945   0.241  0.00  0.00    -0.287 OA
ATOM     14  C   UNL d   1       3.368   0.805   0.852  0.00  0.00     0.037 A 
ENDROOT
BRANCH   5  15
ATOM     15  C   UNL d   1      -1.037   3.067   0.446  0.00  0.00     0.253 C 
ATOM     16  N   UNL d   1      -2.055   3.890   0.899  0.00  0.00    -0.349 N 
ATOM     17  H   UNL d   1      -2.800   3.475   1.442  0.00  0.00     0.163 HD
ATOM     18  O   UNL d   1       0.031   3.461   0.005  0.00  0.00    -0.268 OA
BRANCH  16  19
ATOM     19  C   UNL d   1      -2.168   5.347   0.792  0.00  0.00     0.114 C 
ATOM     20  C   UNL d   1      -1.784   5.932  -0.566  0.00  0.00     0.037 C 
BRANCH  19  21
ATOM     21  C   UNL d   1      -1.570   6.092   1.968  0.00  0.00    -0.036 A 
ATOM     22  C   UNL d   1      -0.324   5.749   2.510  0.00  0.00     0.009 A 
ATOM     23  C   UNL d   1       0.208   6.460   3.588  0.00  0.00     0.001 A 
ATOM     24  C   UNL d   1      -0.491   7.533   4.134  0.00  0.00     0.000 A 
ATOM     25  C   UNL d   1      -1.727   7.894   3.606  0.00  0.00     0.001 A 
ATOM     26  C   UNL d   1      -2.262   7.181   2.530  0.00  0.00     0.009 A 
ENDBRANCH  19  21
ENDBRANCH  16  19
ENDBRANCH   5  15
BRANCH   7  27
ATOM     27  N   UNL d   1      -4.630  -0.286  -0.159  0.00  0.00    -0.116 N 
ATOM     28  O   UNL d   1      -5.006  -1.467  -0.238  0.00  0.00    -0.532 OA
ATOM     29  O   UNL d   1      -5.381   0.695  -0.261  0.00  0.00    -0.532 OA
ENDBRANCH   7  27
BRANCH  11  30
ATOM     30  N   UNL d   1       5.042  -0.993   0.369  0.00  0.00    -0.116 N 
ATOM     31  O   UNL d   1       5.224  -2.141  -0.059  0.00  0.00    -0.532 OA
ATOM     32  O   UNL d   1       5.946  -0.182   0.616  0.00  0.00    -0.532 OA
ENDBRANCH  11  30
TORSDOF 5
