REMARK  7 active torsions:
REMARK  status: ('A' for Active; 'I' for Inactive)
REMARK    1  A    between atoms: C_2  and  S_1 
REMARK    2  A    between atoms: C_3  and  S_1 
REMARK    3  A    between atoms: C_18  and  C_3 
REMARK    4  A    between atoms: C_4  and  C_17 
REMARK       I    between atoms: N_7  and  C_4 
REMARK    5  A    between atoms: C_12  and  N_7 
REMARK    6  A    between atoms: S_15  and  C_18 
REMARK    7  A    between atoms: C_17  and  S_15 
ROOT
ATOM      1  S   UNL d   1       1.541  -3.648  -2.496  0.00  0.00    -0.159 SA
ENDROOT
BRANCH   1   2
ATOM      2  C   UNL d   1       1.317  -1.855  -2.148  0.00  0.00     0.089 C 
BRANCH   2   3
ATOM      3  C   UNL d   1       0.650  -1.622  -0.802  0.00  0.00     0.156 C 
BRANCH   3   4
ATOM      4  S   UNL d   1       0.469   0.119  -0.482  0.00  0.00     0.176 S 
ATOM      5  O   UNL d   1       1.783   0.682  -0.244  0.00  0.00    -0.223 OA
ATOM      6  O   UNL d   1      -0.413   0.677  -1.490  0.00  0.00    -0.223 OA
BRANCH   4   7
ATOM      7  C   UNL d   1      -0.416   0.148   1.065  0.00  0.00     0.059 A 
ATOM      8  C   UNL d   1       0.296   0.191   2.266  0.00  0.00     0.025 A 
ATOM      9  C   UNL d   1      -0.400   0.215   3.479  0.00  0.00     0.025 A 
ATOM     10  C   UNL d   1      -1.795   0.204   3.478  0.00  0.00     0.034 A 
ATOM     11  C   UNL d   1      -2.505   0.179   2.276  0.00  0.00     0.025 A 
ATOM     12 CL   UNL d   1      -2.649   0.229   4.972  0.00  0.00    -0.084 Cl
ATOM     13  C   UNL d   1      -1.814   0.157   1.062  0.00  0.00     0.025 A 
ENDBRANCH   4   7
ENDBRANCH   3   4
ENDBRANCH   2   3
ENDBRANCH   1   2
BRANCH   1  14
ATOM     14  C   UNL d   1      -0.199  -4.092  -2.774  0.00  0.00     0.177 C 
BRANCH  14  15
ATOM     15  C   UNL d   1      -0.480  -5.542  -3.133  0.00  0.00     0.231 C 
ATOM     16  N   UNL d   1       0.606  -6.386  -3.235  0.00  0.00    -0.327 N 
ATOM     17  H   UNL d   1       1.505  -5.984  -2.990  0.00  0.00     0.169 HD
ATOM     18  O   UNL d   1      -1.658  -5.874  -3.276  0.00  0.00    -0.272 OA
BRANCH  16  19
ATOM     19  C   UNL d   1       0.568  -7.772  -3.515  0.00  0.00     0.034 A 
ATOM     20  C   UNL d   1      -0.575  -8.435  -3.972  0.00  0.00     0.029 A 
ATOM     21  C   UNL d   1      -0.568  -9.818  -4.176  0.00  0.00     0.002 A 
ATOM     22  C   UNL d   1       0.585 -10.555  -3.930  0.00  0.00     0.000 A 
ATOM     23  C   UNL d   1       1.740  -9.903  -3.505  0.00  0.00     0.002 A 
ATOM     24  C   UNL d   1       1.736  -8.517  -3.308  0.00  0.00     0.029 A 
ENDBRANCH  16  19
ENDBRANCH  14  15
ENDBRANCH   1  14
TORSDOF 7
