REMARK  4 active torsions:
REMARK  status: ('A' for Active; 'I' for Inactive)
REMARK    1  A    between atoms: C_8  and  C_3 
REMARK    2  A    between atoms: C_10  and  C_7 
REMARK    3  A    between atoms: O_22  and  C_14 
REMARK    4  A    between atoms: C_23  and  O_22 
ROOT
ATOM      1  N   UNL d   1       1.577  -0.076   0.062  0.00  0.00    -0.331 N 
ATOM      2  HN  UNL d   1       2.525  -0.453   0.061  1.00  0.00     0.168 HD
ATOM      3  C   UNL d   1       1.200   1.161   0.048  0.00  0.00     0.162 A 
ATOM      4  C   UNL d   1       0.384  -0.758   0.079  0.00  0.00     0.111 A 
ATOM      5  O   UNL d   1      -0.127   1.415   0.059  0.00  0.00    -0.256 OA
ATOM      6  C   UNL d   1      -0.756   0.207   0.081  0.00  0.00     0.316 A 
ATOM      7  C   UNL d   1       0.298  -2.094   0.069  0.00  0.00     0.047 C 
ATOM      8  O   UNL d   1      -1.955   0.020   0.099  0.00  0.00    -0.257 OA
ENDROOT
BRANCH   7   9
ATOM      9  C   UNL d   1      -0.942  -2.866   0.014  0.00  0.00    -0.034 A 
ATOM     10  C   UNL d   1      -1.477  -3.219  -1.228  0.00  0.00     0.014 A 
ATOM     11  C   UNL d   1      -2.660  -3.961  -1.307  0.00  0.00     0.037 A 
ATOM     12  C   UNL d   1      -3.321  -4.358  -0.144  0.00  0.00     0.068 A 
ATOM     13  C   UNL d   1      -2.782  -4.008   1.097  0.00  0.00     0.037 A 
ATOM     14  C   UNL d   1      -1.598  -3.266   1.180  0.00  0.00     0.014 A 
BRANCH  12  15
ATOM     15  O   UNL d   1      -4.484  -5.080  -0.094  0.00  0.00    -0.352 OA
BRANCH  15  16
ATOM     16  C   UNL d   1      -5.067  -5.432  -1.348  0.00  0.00     0.171 C 
ATOM     17  C   UNL d   1      -6.354  -6.195  -1.091  0.00  0.00     0.034 C 
ENDBRANCH  15  16
ENDBRANCH  12  15
ENDBRANCH   7   9
BRANCH   3  18
ATOM     18  C   UNL d   1       2.063   2.354   0.013  0.00  0.00     0.015 A 
ATOM     19  C   UNL d   1       3.450   2.190  -0.105  0.00  0.00     0.017 A 
ATOM     20  C   UNL d   1       4.288   3.310  -0.133  0.00  0.00     0.025 A 
ATOM     21  C   UNL d   1       3.741   4.589  -0.040  0.00  0.00     0.034 A 
ATOM     22  C   UNL d   1       2.363   4.760   0.075  0.00  0.00     0.025 A 
ATOM     23 CL   UNL d   1       4.772   5.965  -0.064  0.00  0.00    -0.084 Cl
ATOM     24  C   UNL d   1       1.522   3.643   0.100  0.00  0.00     0.017 A 
ENDBRANCH   3  18
TORSDOF 4
