REMARK  10 active torsions:
REMARK  status: ('A' for Active; 'I' for Inactive)
REMARK    1  A    between atoms: C_15  and  C_3 
REMARK    2  A    between atoms: C_7  and  C_4 
REMARK    3  A    between atoms: C_12  and  C_4 
REMARK    4  A    between atoms: C_13  and  C_7 
REMARK    5  A    between atoms: N_8  and  N_14 
REMARK    6  A    between atoms: C_22  and  C_10 
REMARK    7  A    between atoms: O_24  and  C_12 
REMARK    8  A    between atoms: O_26  and  C_13 
REMARK       I    between atoms: N_14  and  C_16 
REMARK    9  A    between atoms: C_16  and  C_23 
REMARK   10  A    between atoms: C_23  and  C_22 
ROOT
ATOM      1  N   UNL d   1       2.388  -4.629   0.119  0.00  0.00    -0.270 N 
ATOM      2  C   UNL d   1       3.139  -3.481   0.066  0.00  0.00     0.236 C 
ATOM      3  O   UNL d   1       4.367  -3.562  -0.024  0.00  0.00    -0.272 OA
ATOM      4  H   UNL d   1       2.928  -5.482   0.092  0.00  0.00     0.190 HD
ENDROOT
BRANCH   2   5
ATOM      5  C   UNL d   1       2.439  -2.143   0.068  0.00  0.00     0.112 C 
BRANCH   5   6
ATOM      6  C   UNL d   1       2.206  -1.690  -1.364  0.00  0.00     0.096 C 
BRANCH   6   7
ATOM      7  C   UNL d   1       1.598  -0.341  -1.408  0.00  0.00     0.148 A 
ATOM      8  N   UNL d   1       0.332  -0.002  -1.366  0.00  0.00    -0.323 N 
ATOM      9  C   UNL d   1       0.382   1.372  -1.472  0.00  0.00     0.137 A 
ATOM     10  HN  UNL d   1      -0.486  -0.605  -1.277  1.00  0.00     0.169 HD
ATOM     11  N   UNL d   1       1.629   1.864  -1.562  0.00  0.00    -0.242 N 
ATOM     12  O   UNL d   1       2.438   0.726  -1.522  0.00  0.00    -0.223 OA
ATOM     13  HN  UNL d   1       1.917   2.839  -1.642  1.00  0.00     0.196 HD
BRANCH   9  14
ATOM     14  C   UNL d   1      -0.834   2.179  -1.490  0.00  0.00     0.010 A 
ATOM     15  C   UNL d   1      -2.086   1.547  -1.407  0.00  0.00     0.017 A 
ATOM     16  C   UNL d   1      -3.268   2.292  -1.430  0.00  0.00     0.025 A 
ATOM     17  C   UNL d   1      -3.207   3.678  -1.536  0.00  0.00     0.034 A 
ATOM     18  C   UNL d   1      -1.975   4.325  -1.620  0.00  0.00     0.025 A 
ATOM     19 CL   UNL d   1      -4.662   4.594  -1.567  0.00  0.00    -0.084 Cl
ATOM     20  C   UNL d   1      -0.791   3.578  -1.597  0.00  0.00     0.017 A 
ENDBRANCH   9  14
ENDBRANCH   6   7
ENDBRANCH   5   6
ENDBRANCH   2   5
BRANCH   1  21
ATOM     21  N   UNL d   1       1.032  -4.626   0.190  0.00  0.00    -0.296 N 
ATOM     22  C   UNL d   1       0.381  -5.755   0.281  0.00  0.00     0.110 C 
ATOM     23  HN  UNL d   1       0.522  -3.742   0.174  1.00  0.00     0.187 HD
BRANCH  22  24
ATOM     24  C   UNL d   1       0.946  -7.152   0.366  0.00  0.00     0.176 C 
BRANCH  24  25
ATOM     25  C   UNL d   1       0.464  -8.033  -0.750  0.00  0.00     0.264 C 
ATOM     26  O   UNL d   1      -0.204  -7.651  -1.701  0.00  0.00    -0.265 OA
BRANCH  25  27
ATOM     27  O   UNL d   1       0.916  -9.305  -0.567  0.00  0.00    -0.326 OA
ATOM     28  C   UNL d   1       0.528 -10.219  -1.597  0.00  0.00     0.213 C 
ENDBRANCH  25  27
ENDBRANCH  24  25
ENDBRANCH  22  24
BRANCH  22  29
ATOM     29  C   UNL d   1      -1.144  -5.692   0.372  0.00  0.00     0.307 C 
ATOM     30  O   UNL d   1      -1.769  -6.515   1.020  0.00  0.00    -0.258 OA
BRANCH  29  31
ATOM     31  O   UNL d   1      -1.630  -4.654  -0.331  0.00  0.00    -0.322 OA
ATOM     32  C   UNL d   1      -3.048  -4.516  -0.258  0.00  0.00     0.213 C 
ENDBRANCH  29  31
ENDBRANCH  22  29
ENDBRANCH   1  21
TORSDOF 10
