REMARK  5 active torsions:
REMARK  status: ('A' for Active; 'I' for Inactive)
REMARK    1  A    between atoms: S_2  and  C_1 
REMARK    2  A    between atoms: C_8  and  S_2 
REMARK    3  A    between atoms: C_7  and  C_4 
REMARK       I    between atoms: N_11  and  C_7 
REMARK    4  A    between atoms: C_20  and  N_11 
REMARK    5  A    between atoms: C_12  and  C_20 
ROOT
ATOM      1  C   UNL d   1       0.693   1.301   0.025  0.00  0.00     0.078 A 
ATOM      2  C   UNL d   1       1.261  -0.033  -0.016  0.00  0.00    -0.017 A 
ATOM      3  C   UNL d   1       0.256  -1.010  -0.015  0.00  0.00     0.080 A 
ATOM      4  S   UNL d   1      -1.309  -0.310  -0.008  0.00  0.00    -0.094 SA
ATOM      5  C   UNL d   1      -0.688   1.271   0.033  0.00  0.00     0.075 A 
ATOM      6  C   UNL d   1       2.720  -0.388  -0.032  0.00  0.00     0.051 C 
ENDROOT
BRANCH   1   7
ATOM      7  S   UNL d   1       1.543   2.830   0.058  0.00  0.00     0.207 S 
ATOM      8  O   UNL d   1       0.594   3.769   0.625  0.00  0.00    -0.217 OA
ATOM      9  O   UNL d   1       2.821   2.577   0.689  0.00  0.00    -0.217 OA
BRANCH   7  10
ATOM     10  C   UNL d   1       1.805   3.265  -1.643  0.00  0.00     0.064 A 
ATOM     11  C   UNL d   1       0.881   4.095  -2.291  0.00  0.00     0.025 A 
ATOM     12  C   UNL d   1       1.089   4.454  -3.626  0.00  0.00     0.025 A 
ATOM     13  C   UNL d   1       2.221   3.995  -4.298  0.00  0.00     0.034 A 
ATOM     14  C   UNL d   1       3.160   3.197  -3.643  0.00  0.00     0.025 A 
ATOM     15 CL   UNL d   1       2.464   4.421  -5.948  0.00  0.00    -0.084 Cl
ATOM     16  C   UNL d   1       2.959   2.836  -2.307  0.00  0.00     0.025 A 
ENDBRANCH   7  10
ENDBRANCH   1   7
BRANCH   3  17
ATOM     17  C   UNL d   1       0.424  -2.470  -0.011  0.00  0.00     0.259 C 
ATOM     18  N   UNL d   1      -0.725  -3.228   0.000  0.00  0.00    -0.350 N 
ATOM     19  H   UNL d   1      -1.627  -2.776  -0.087  0.00  0.00     0.163 HD
ATOM     20  O   UNL d   1       1.525  -3.021  -0.017  0.00  0.00    -0.267 OA
BRANCH  18  21
ATOM     21  C   UNL d   1      -0.674  -4.670  -0.045  0.00  0.00     0.187 C 
BRANCH  21  22
ATOM     22  C   UNL d   1      -2.047  -5.235  -0.067  0.00  0.00     0.070 A 
ATOM     23  O   UNL d   1      -3.016  -4.502  -0.697  0.00  0.00    -0.325 OA
ATOM     24  C   UNL d   1      -4.171  -5.212  -0.612  0.00  0.00     0.142 A 
ATOM     25  C   UNL d   1      -3.963  -6.392   0.061  0.00  0.00     0.027 A 
ATOM     26  C   UNL d   1      -2.591  -6.410   0.413  0.00  0.00     0.036 A 
ENDBRANCH  21  22
ENDBRANCH  18  21
ENDBRANCH   3  17
TORSDOF 5
