REMARK  3 active torsions:
REMARK  status: ('A' for Active; 'I' for Inactive)
REMARK    1  A    between atoms: C_2  and  S_1 
REMARK    2  A    between atoms: N_3  and  S_1 
REMARK    3  A    between atoms: N_5  and  C_8 
ROOT
ATOM      1  S   UNL d   1       1.023   0.036  -0.068  0.00  0.00     0.245 S 
ATOM      2  O   UNL d   1       0.951  -1.406  -0.172  0.00  0.00    -0.206 OA
ATOM      3  O   UNL d   1       0.331   0.857  -1.045  0.00  0.00    -0.206 OA
ENDROOT
BRANCH   1   4
ATOM      4  C   UNL d   1       2.727   0.515  -0.072  0.00  0.00     0.102 A 
ATOM      5  C   UNL d   1       3.595  -0.065   0.855  0.00  0.00     0.065 A 
ATOM      6  N   UNL d   1       3.186  -0.922   1.818  0.00  0.00    -0.364 N 
ATOM      7  C   UNL d   1       4.961   0.292   0.751  0.00  0.00    -0.008 A 
ATOM      8  C   UNL d   1       4.092  -1.456   2.663  0.00  0.00     0.088 A 
ATOM      9  HN  UNL d   1       2.198  -1.163   1.906  1.00  0.00     0.165 HD
ATOM     10  C   UNL d   1       5.439  -1.174   2.613  0.00  0.00     0.018 A 
ATOM     11  C   UNL d   1       5.876  -0.283   1.643  0.00  0.00     0.015 A 
ATOM     12  C   UNL d   1       5.402   1.201  -0.226  0.00  0.00     0.014 A 
ATOM     13  C   UNL d   1       4.505   1.772  -1.121  0.00  0.00     0.003 A 
ATOM     14  C   UNL d   1       3.163   1.425  -1.051  0.00  0.00     0.027 A 
ENDBRANCH   1   4
BRANCH   1  15
ATOM     15  N   UNL d   1       0.434   0.539   1.480  0.00  0.00    -0.206 NA
ATOM     16  C   UNL d   1       0.335   2.018   1.609  0.00  0.00     0.109 C 
ATOM     17  C   UNL d   1      -0.196   2.442   2.967  0.00  0.00     0.041 C 
ATOM     18  C   UNL d   1      -1.491   1.724   3.345  0.00  0.00     0.091 C 
ATOM     19  C   UNL d   1      -1.295   0.211   3.249  0.00  0.00     0.041 C 
ATOM     20  C   UNL d   1      -0.767  -0.237   1.895  0.00  0.00     0.109 C 
BRANCH  18  21
ATOM     21  N   UNL d   1      -2.681   2.223   2.654  0.00  0.00    -0.362 N 
ATOM     22  C   UNL d   1      -2.985   2.127   1.321  0.00  0.00     0.091 A 
ATOM     23  C   UNL d   1      -4.223   2.690   1.108  0.00  0.00     0.019 A 
ATOM     24  C   UNL d   1      -4.681   3.174   2.349  0.00  0.00     0.019 A 
ATOM     25  C   UNL d   1      -3.714   2.879   3.285  0.00  0.00     0.091 A 
ENDBRANCH  18  21
ENDBRANCH   1  15
TORSDOF 3
