REMARK  7 active torsions:
REMARK  status: ('A' for Active; 'I' for Inactive)
REMARK    1  A    between atoms: N_2  and  C_1 
REMARK    2  A    between atoms: C_4  and  C_1 
REMARK    3  A    between atoms: C_6  and  C_1 
REMARK    4  A    between atoms: O_11  and  C_1 
REMARK       I    between atoms: C_3  and  N_2 
REMARK    5  A    between atoms: C_5  and  C_3 
REMARK    6  A    between atoms: O_19  and  C_6 
REMARK    7  A    between atoms: C_21  and  O_19 
ROOT
ATOM      1  C   UNL d   1       0.915   0.152   0.032  0.00  0.00     0.325 C 
ENDROOT
BRANCH   1   2
ATOM      2  N   UNL d   1       0.600  -1.225  -0.362  0.00  0.00    -0.309 N 
ATOM      3  C   UNL d   1       0.891  -2.310   0.411  0.00  0.00     0.256 C 
ATOM      4  O   UNL d   1       1.533  -2.193   1.450  0.00  0.00    -0.268 OA
ATOM      5  H   UNL d   1       0.021  -1.327  -1.195  0.00  0.00     0.166 HD
BRANCH   3   6
ATOM      6  C   UNL d   1       0.347  -3.624  -0.027  0.00  0.00     0.053 A 
ATOM      7  C   UNL d   1       0.130  -3.995  -1.364  0.00  0.00     0.051 A 
ATOM      8  C   UNL d   1      -0.479  -5.219  -1.665  0.00  0.00     0.048 A 
ATOM      9 CL   UNL d   1       0.613  -3.029  -2.715  0.00  0.00    -0.083 Cl
ATOM     10  C   UNL d   1      -0.851  -6.082  -0.638  0.00  0.00     0.035 A 
ATOM     11  C   UNL d   1      -0.598  -5.749   0.690  0.00  0.00     0.025 A 
ATOM     12 CL   UNL d   1      -1.626  -7.569  -1.015  0.00  0.00    -0.084 Cl
ATOM     13  C   UNL d   1       0.003  -4.526   0.995  0.00  0.00     0.020 A 
ENDBRANCH   3   6
ENDBRANCH   1   2
BRANCH   1  14
ATOM     14  C   UNL d   1       0.137   0.698   1.265  0.00  0.00     0.448 C 
ATOM     15  F   UNL d   1      -0.628  -0.260   1.851  0.00  0.00    -0.166 F 
ATOM     16  F   UNL d   1       0.978   1.162   2.223  0.00  0.00    -0.166 F 
ATOM     17  F   UNL d   1      -0.705   1.716   0.961  0.00  0.00    -0.166 F 
ENDBRANCH   1  14
BRANCH   1  18
ATOM     18  C   UNL d   1       0.471   1.008  -1.164  0.00  0.00     0.325 C 
ATOM     19  O   UNL d   1      -0.381   0.645  -1.973  0.00  0.00    -0.259 OA
BRANCH  18  20
ATOM     20  O   UNL d   1       1.191   2.161  -1.260  0.00  0.00    -0.318 OA
BRANCH  20  21
ATOM     21  C   UNL d   1       1.127   2.823  -2.531  0.00  0.00     0.174 C 
ATOM     22  C   UNL d   1       2.154   2.196  -3.458  0.00  0.00     0.034 C 
ENDBRANCH  20  21
ENDBRANCH  18  20
ENDBRANCH   1  18
BRANCH   1  23
ATOM     23  O   UNL d   1       2.336   0.179   0.181  0.00  0.00    -0.356 OA
ATOM     24  H   UNL d   1       2.525  -0.503   0.858  0.00  0.00     0.213 HD
ENDBRANCH   1  23
TORSDOF 7
