REMARK  6 active torsions:
REMARK  status: ('A' for Active; 'I' for Inactive)
REMARK    1  A    between atoms: C_6  and  C_1 
REMARK    2  A    between atoms: N_5  and  C_2 
REMARK       I    between atoms: C_3  and  N_5 
REMARK       I    between atoms: N_11  and  C_3 
REMARK    3  A    between atoms: O_19  and  C_6 
REMARK    4  A    between atoms: C_8  and  N_11 
REMARK    5  A    between atoms: O_22  and  C_9 
REMARK    6  A    between atoms: O_23  and  C_10 
ROOT
ATOM      1  C   UNL d   1       1.140  -0.978   0.762  0.00  0.00     0.069 C 
ATOM      2  C   UNL d   1       0.469  -1.824  -0.123  0.00  0.00     0.055 C 
ATOM      3  C   UNL d   1       0.564   0.268   1.045  0.00  0.00     0.059 C 
ATOM      4  C   UNL d   1      -0.903  -1.601  -0.342  0.00  0.00     0.070 C 
ATOM      5  C   UNL d   1      -0.726   0.598   0.606  0.00  0.00     0.102 C 
ATOM      6  C   UNL d   1      -1.517  -0.392   0.011  0.00  0.00     0.103 C 
ENDROOT
BRANCH   2   7
ATOM      7  N   UNL d   1       1.214  -2.716  -0.972  0.00  0.00    -0.308 N 
ATOM      8  C   UNL d   1       0.879  -2.793  -2.294  0.00  0.00     0.325 C 
ATOM      9  N   UNL d   1       1.782  -3.078  -3.255  0.00  0.00    -0.309 N 
ATOM     10  O   UNL d   1      -0.219  -2.500  -2.759  0.00  0.00    -0.247 OA
ATOM     11  H   UNL d   1       1.286  -2.889  -4.114  0.00  0.00     0.170 HD
ATOM     12  H   UNL d   1       2.196  -2.815  -0.730  0.00  0.00     0.170 HD
BRANCH   9  13
ATOM     13  C   UNL d   1       3.113  -3.456  -3.434  0.00  0.00     0.039 A 
ATOM     14  C   UNL d   1       4.020  -3.867  -2.468  0.00  0.00     0.053 A 
ATOM     15  C   UNL d   1       5.316  -4.250  -2.867  0.00  0.00     0.037 A 
ATOM     16 CL   UNL d   1       6.449  -4.791  -1.688  0.00  0.00    -0.084 Cl
ATOM     17  C   UNL d   1       5.714  -4.220  -4.204  0.00  0.00     0.048 A 
ATOM     18  C   UNL d   1       4.807  -3.799  -5.167  0.00  0.00     0.037 A 
ATOM     19  C   UNL d   1       3.523  -3.426  -4.782  0.00  0.00     0.053 A 
ATOM     20 CL   UNL d   1       5.254  -3.754  -6.823  0.00  0.00    -0.084 Cl
ENDBRANCH   9  13
ENDBRANCH   2   7
BRANCH   1  21
ATOM     21  C   UNL d   1       2.429  -1.375   1.385  0.00  0.00     0.295 C 
ATOM     22  O   UNL d   1       3.107  -2.314   1.002  0.00  0.00    -0.259 OA
BRANCH  21  23
ATOM     23  O   UNL d   1       2.630  -0.621   2.494  0.00  0.00    -0.322 OA
ATOM     24  C   UNL d   1       3.690  -0.997   3.377  0.00  0.00     0.213 C 
ENDBRANCH  21  23
ENDBRANCH   1  21
BRANCH   6  25
ATOM     25  O   UNL d   1      -2.831  -0.112  -0.244  0.00  0.00    -0.353 OA
ATOM     26  C   UNL d   1      -3.671  -1.152  -0.728  0.00  0.00     0.210 C 
ENDBRANCH   6  25
BRANCH   5  27
ATOM     27  O   UNL d   1      -1.034   1.909   0.849  0.00  0.00    -0.353 OA
ATOM     28  C   UNL d   1      -2.280   2.417   0.395  0.00  0.00     0.210 C 
ENDBRANCH   5  27
TORSDOF 6
