REMARK  5 active torsions:
REMARK  status: ('A' for Active; 'I' for Inactive)
REMARK    1  A    between atoms: C_3  and  C_1 
REMARK    2  A    between atoms: N_4  and  C_2 
REMARK       I    between atoms: C_5  and  N_12 
REMARK       I    between atoms: N_13  and  C_5 
REMARK    3  A    between atoms: C_7  and  N_6 
REMARK    4  A    between atoms: N_12  and  C_24 
REMARK    5  A    between atoms: C_25  and  N_13 
ROOT
ATOM      1  C   UNL d   1      -3.384   6.053   0.904  0.00  0.00     0.103 A 
ATOM      2  N   UNL d   1      -4.067   6.252   2.055  0.00  0.00    -0.350 N 
ATOM      3  HN  UNL d   1      -3.914   5.645   2.860  1.00  0.00     0.166 HD
ATOM      4  C   UNL d   1      -3.532   6.958  -0.141  0.00  0.00     0.051 A 
ATOM      5  C   UNL d   1      -4.961   7.273   2.119  0.00  0.00     0.119 A 
ATOM      6  C   UNL d   1      -5.243   8.142   1.075  0.00  0.00     0.051 A 
ATOM      7  C   UNL d   1      -4.451   8.004  -0.053  0.00  0.00     0.035 A 
ENDROOT
BRANCH   1   8
ATOM      8  N   UNL d   1      -2.666   4.881   0.737  0.00  0.00    -0.365 N 
ATOM      9  C   UNL d   1      -2.616   3.953   1.885  0.00  0.00     0.139 C 
ATOM     10  C   UNL d   1      -2.335   2.513   1.387  0.00  0.00     0.117 C 
ATOM     11  N   UNL d   1      -1.085   2.503   0.588  0.00  0.00    -0.266 NA
ATOM     12  C   UNL d   1      -1.225   3.366  -0.603  0.00  0.00     0.117 C 
ATOM     13  C   UNL d   1      -1.480   4.822  -0.142  0.00  0.00     0.139 C 
BRANCH  11  14
ATOM     14  C   UNL d   1      -0.588   1.228   0.332  0.00  0.00     0.097 A 
ATOM     15  C   UNL d   1       0.139   0.542   1.306  0.00  0.00     0.086 A 
ATOM     16  C   UNL d   1       0.648  -0.732   0.982  0.00  0.00     0.021 A 
ATOM     17  C   UNL d   1       0.441  -1.271  -0.276  0.00  0.00     0.018 A 
ATOM     18  C   UNL d   1      -0.277  -0.520  -1.181  0.00  0.00     0.089 A 
ATOM     19  N   UNL d   1      -0.784   0.702  -0.899  0.00  0.00    -0.356 N 
ATOM     20  HN  UNL d   1      -1.308   1.219  -1.605  1.00  0.00     0.166 HD
BRANCH  15  21
ATOM     21  C   UNL d   1       0.455   1.101   2.661  0.00  0.00     0.420 C 
ATOM     22  F   UNL d   1       0.024   2.361   2.947  0.00  0.00    -0.166 F 
ATOM     23  F   UNL d   1      -0.067   0.318   3.655  0.00  0.00    -0.166 F 
ATOM     24  F   UNL d   1       1.801   1.125   2.901  0.00  0.00    -0.166 F 
ENDBRANCH  15  21
ENDBRANCH  11  14
ENDBRANCH   1   8
BRANCH   6  25
ATOM     25  N   UNL d   1      -6.345   9.027   1.165  0.00  0.00    -0.307 N 
ATOM     26  C   UNL d   1      -6.896   9.720   0.094  0.00  0.00     0.325 C 
ATOM     27  N   UNL d   1      -8.140  10.241   0.408  0.00  0.00    -0.309 N 
ATOM     28  O   UNL d   1      -6.375   9.822  -1.011  0.00  0.00    -0.247 OA
ATOM     29  H   UNL d   1      -8.344  10.398   1.382  0.00  0.00     0.170 HD
ATOM     30  H   UNL d   1      -6.904   8.962   2.002  0.00  0.00     0.170 HD
BRANCH  27  31
ATOM     31  C   UNL d   1      -9.113  10.671  -0.525  0.00  0.00     0.036 A 
ATOM     32  C   UNL d   1      -9.024  10.425  -1.898  0.00  0.00     0.030 A 
ATOM     33  C   UNL d   1     -10.067  10.780  -2.759  0.00  0.00     0.009 A 
ATOM     34  C   UNL d   1     -11.224  11.381  -2.261  0.00  0.00    -0.062 A 
ATOM     35  C   UNL d   1     -11.299  11.669  -0.895  0.00  0.00     0.009 A 
ATOM     36  C   UNL d   1     -12.361  11.682  -3.191  0.00  0.00     0.048 C 
ATOM     37  C   UNL d   1     -10.255  11.311  -0.033  0.00  0.00     0.030 A 
ENDBRANCH  27  31
ENDBRANCH   6  25
TORSDOF 5
