REMARK  1 active torsions:
REMARK  status: ('A' for Active; 'I' for Inactive)
REMARK    1  A    between atoms: S_11  and  C_5 
ROOT
ATOM      1  N   UNL d   1       1.649  -1.096  -0.000  0.00  0.00    -0.329 N 
ATOM      2  HN  UNL d   1       2.012  -2.049  -0.001  1.00  0.00     0.168 HD
ATOM      3  C   UNL d   1       0.339  -0.689  -0.000  0.00  0.00     0.072 A 
ATOM      4  C   UNL d   1       0.278   0.695  -0.000  0.00  0.00     0.126 A 
ATOM      5  C   UNL d   1       2.331   0.034  -0.001  0.00  0.00     0.185 A 
ATOM      6  O   UNL d   1       1.560   1.165  -0.001  0.00  0.00    -0.284 OA
ATOM      7  C   UNL d   1      -0.909   1.419   0.001  0.00  0.00     0.071 A 
ATOM      8  C   UNL d   1      -0.853  -1.427   0.001  0.00  0.00     0.056 A 
ATOM      9  C   UNL d   1      -2.095   0.681   0.001  0.00  0.00     0.050 A 
ATOM     10  C   UNL d   1      -2.061  -0.717   0.002  0.00  0.00     0.038 A 
ATOM     11 CL   UNL d   1      -0.929   3.131   0.001  0.00  0.00    -0.081 Cl
ATOM     12 CL   UNL d   1      -3.546  -1.592   0.003  0.00  0.00    -0.084 Cl
ENDROOT
BRANCH   5  13
ATOM     13  S   UNL d   1       4.065   0.088  -0.000  0.00  0.00    -0.099 SA
ATOM     14  H   UNL d   1       4.252  -1.238   0.001  0.00  0.00     0.110 HD
ENDBRANCH   5  13
TORSDOF 1
