REMARK  3 active torsions:
REMARK  status: ('A' for Active; 'I' for Inactive)
REMARK    1  A    between atoms: N_2  and  C_1 
REMARK    2  A    between atoms: S_4  and  C_3 
REMARK    3  A    between atoms: C_7  and  S_4 
ROOT
ATOM      1  C   UNL d   1       1.648   1.302  -0.137  0.00  0.00     0.121 A 
ATOM      2  C   UNL d   1       2.482   0.179  -0.030  0.00  0.00     0.040 A 
ATOM      3  C   UNL d   1       0.246   1.198  -0.118  0.00  0.00     0.061 A 
ATOM      4  C   UNL d   1       1.861  -1.077   0.079  0.00  0.00     0.023 A 
ATOM      5  C   UNL d   1      -0.333  -0.061  -0.009  0.00  0.00     0.036 A 
ATOM      6  C   UNL d   1       0.466  -1.198   0.086  0.00  0.00     0.025 A 
ATOM      7 CL   UNL d   1      -2.046  -0.218  -0.019  0.00  0.00    -0.084 Cl
ENDROOT
BRANCH   2   8
ATOM      8  S   UNL d   1       4.266   0.191  -0.099  0.00  0.00    -0.070 SA
BRANCH   8   9
ATOM      9  C   UNL d   1       4.745   0.935   1.451  0.00  0.00     0.074 A 
ATOM     10  N   UNL d   1       3.853   0.963   2.468  0.00  0.00    -0.360 N 
ATOM     11  C   UNL d   1       4.278   1.491   3.641  0.00  0.00     0.089 A 
ATOM     12  HN  UNL d   1       2.905   0.604   2.356  1.00  0.00     0.166 HD
ATOM     13  C   UNL d   1       5.554   1.993   3.851  0.00  0.00     0.017 A 
ATOM     14  C   UNL d   1       6.451   1.962   2.793  0.00  0.00     0.004 A 
ATOM     15  C   UNL d   1       6.043   1.424   1.575  0.00  0.00     0.037 A 
ENDBRANCH   8   9
ENDBRANCH   2   8
BRANCH   1  16
ATOM     16  N   UNL d   1       2.198   2.628  -0.339  0.00  0.00    -0.114 N 
ATOM     17  O   UNL d   1       2.897   2.810  -1.344  0.00  0.00    -0.532 OA
ATOM     18  O   UNL d   1       1.859   3.507   0.467  0.00  0.00    -0.532 OA
ENDBRANCH   1  16
TORSDOF 3
