REMARK  3 active torsions:
REMARK  status: ('A' for Active; 'I' for Inactive)
REMARK    1  A    between atoms: C_6  and  N_1 
REMARK    2  A    between atoms: C_5  and  C_2 
REMARK    3  A    between atoms: C_11  and  C_6 
ROOT
ATOM      1  N   UNL d   1      -0.533  -1.167   0.163  0.00  0.00    -0.330 N 
ATOM      2  C   UNL d   1       0.844  -1.382  -0.232  0.00  0.00     0.184 C 
ATOM      3  S   UNL d   1       1.622   0.248  -0.156  0.00  0.00    -0.129 SA
ATOM      4  C   UNL d   1      -1.044   0.096  -0.107  0.00  0.00     0.230 C 
ATOM      5  C   UNL d   1       0.047   1.109  -0.377  0.00  0.00     0.179 C 
ATOM      6  O   UNL d   1      -2.233   0.385  -0.110  0.00  0.00    -0.272 OA
ENDROOT
BRANCH   1   7
ATOM      7  C   UNL d   1      -1.437  -2.272   0.462  0.00  0.00     0.166 C 
BRANCH   7   8
ATOM      8  C   UNL d   1      -1.861  -2.338   1.917  0.00  0.00    -0.040 A 
ATOM      9  C   UNL d   1      -1.512  -1.362   2.861  0.00  0.00     0.009 A 
ATOM     10  C   UNL d   1      -1.820  -1.516   4.211  0.00  0.00     0.007 A 
ATOM     11  C   UNL d   1      -2.520  -2.642   4.650  0.00  0.00    -0.062 A 
ATOM     12  C   UNL d   1      -2.943  -3.585   3.707  0.00  0.00     0.007 A 
ATOM     13  C   UNL d   1      -2.716  -2.874   6.117  0.00  0.00     0.048 C 
ATOM     14  C   UNL d   1      -2.623  -3.434   2.355  0.00  0.00     0.009 A 
ENDBRANCH   7   8
ENDBRANCH   1   7
BRANCH   2  15
ATOM     15  C   UNL d   1       1.602  -2.443   0.519  0.00  0.00    -0.010 A 
ATOM     16  C   UNL d   1       2.201  -3.489  -0.182  0.00  0.00     0.097 A 
ATOM     17  N   UNL d   1       2.831  -4.539   0.391  0.00  0.00    -0.375 N 
ATOM     18  C   UNL d   1       2.886  -4.549   1.739  0.00  0.00     0.087 A 
ATOM     19  HN  UNL d   1       3.244  -5.286  -0.167  1.00  0.00     0.164 HD
ATOM     20  C   UNL d   1       2.363  -3.545   2.534  0.00  0.00     0.018 A 
ATOM     21  C   UNL d   1       1.725  -2.473   1.912  0.00  0.00     0.013 A 
ENDBRANCH   2  15
TORSDOF 3
