REMARK  4 active torsions:
REMARK  status: ('A' for Active; 'I' for Inactive)
REMARK    1  A    between atoms: C_2  and  N_1 
REMARK    2  A    between atoms: C_3  and  C_6 
REMARK    3  A    between atoms: N_4  and  C_5 
REMARK    4  A    between atoms: O_10  and  C_9 
ROOT
ATOM      1  C   UNL d   1      -0.713   0.786  -2.317  0.00  0.00     0.146 A 
ATOM      2  C   UNL d   1       0.615   1.040  -1.923  0.00  0.00     0.001 A 
ATOM      3  C   UNL d   1      -1.806   1.264  -1.578  0.00  0.00     0.102 A 
ATOM      4  C   UNL d   1      -0.238   2.301  -0.033  0.00  0.00     0.004 A 
ATOM      5  C   UNL d   1       0.836   1.800  -0.767  0.00  0.00     0.014 A 
ATOM      6  C   UNL d   1      -1.546   2.038  -0.441  0.00  0.00     0.039 A 
ENDROOT
BRANCH   2   7
ATOM      7  C   UNL d   1       1.801   0.569  -2.652  0.00  0.00     0.031 C 
ATOM      8  C   UNL d   1       2.463  -0.528  -2.259  0.00  0.00     0.086 C 
BRANCH   8   9
ATOM      9  N   UNL d   1       3.596  -1.095  -2.797  0.00  0.00    -0.390 N 
ATOM     10  C   UNL d   1       4.366  -0.589  -3.930  0.00  0.00     0.122 C 
ATOM     11  C   UNL d   1       4.958  -1.848  -4.547  0.00  0.00     0.021 C 
ATOM     12  C   UNL d   1       5.248  -2.722  -3.340  0.00  0.00     0.021 C 
ATOM     13  C   UNL d   1       4.126  -2.390  -2.358  0.00  0.00     0.122 C 
ENDBRANCH   8   9
ENDBRANCH   2   7
BRANCH   1  14
ATOM     14  N   UNL d   1      -0.934   0.079  -3.554  0.00  0.00    -0.112 N 
ATOM     15  O   UNL d   1      -0.858  -1.156  -3.520  0.00  0.00    -0.532 OA
ATOM     16  O   UNL d   1      -1.214   0.760  -4.551  0.00  0.00    -0.532 OA
ENDBRANCH   1  14
BRANCH   3  17
ATOM     17  O   UNL d   1      -3.138   1.154  -1.871  0.00  0.00    -0.353 OA
ATOM     18  C   UNL d   1      -3.611  -0.137  -2.247  0.00  0.00     0.210 C 
ENDBRANCH   3  17
TORSDOF 4
