REMARK  4 active torsions:
REMARK  status: ('A' for Active; 'I' for Inactive)
REMARK    1  A    between atoms: C_4  and  C_3 
REMARK    2  A    between atoms: C_12  and  C_5 
REMARK       I    between atoms: C_9  and  N_11 
REMARK    3  A    between atoms: C_13  and  C_9 
REMARK    4  A    between atoms: N_11  and  C_10 
ROOT
ATOM      1  C   UNL d   1       0.247   2.540  -0.921  0.00  0.00     0.038 A 
ATOM      2  C   UNL d   1      -0.377   3.238   0.138  0.00  0.00     0.049 A 
ATOM      3  C   UNL d   1       1.206   3.213  -1.713  0.00  0.00     0.041 A 
ATOM      4  C   UNL d   1       0.026   4.564   0.391  0.00  0.00     0.032 A 
ATOM      5  C   UNL d   1       1.559   4.537  -1.458  0.00  0.00     0.035 A 
ATOM      6  C   UNL d   1       0.974   5.214  -0.403  0.00  0.00     0.026 A 
ATOM      7 CL   UNL d   1       2.706   5.331  -2.457  0.00  0.00    -0.084 Cl
ENDROOT
BRANCH   1   8
ATOM      8  C   UNL d   1      -0.054   1.153  -1.276  0.00  0.00     0.140 A 
ATOM      9  N   UNL d   1      -1.270   0.539  -1.035  0.00  0.00    -0.322 N 
ATOM     10  C   UNL d   1      -1.142  -0.604  -1.681  0.00  0.00     0.156 A 
ATOM     11  HN  UNL d   1      -2.063   0.883  -0.494  1.00  0.00     0.169 HD
ATOM     12  O   UNL d   1       0.097  -0.770  -2.228  0.00  0.00    -0.222 OA
ATOM     13  N   UNL d   1       0.814   0.378  -1.948  0.00  0.00    -0.242 N 
ATOM     14  HN  UNL d   1       1.781   0.588  -2.195  1.00  0.00     0.196 HD
BRANCH  10  15
ATOM     15  C   UNL d   1      -2.151  -1.671  -2.002  0.00  0.00     0.016 C 
ATOM     16  C   UNL d   1      -3.412  -1.499  -1.143  0.00  0.00     0.023 C 
ATOM     17  C   UNL d   1      -2.541  -1.561  -3.489  0.00  0.00     0.023 C 
ATOM     18  C   UNL d   1      -1.558  -3.068  -1.741  0.00  0.00     0.023 C 
ENDBRANCH  10  15
ENDBRANCH   1   8
BRANCH   2  19
ATOM     19  N   UNL d   1      -1.343   2.610   0.976  0.00  0.00    -0.326 N 
ATOM     20  C   UNL d   1      -2.157   3.264   1.886  0.00  0.00     0.229 C 
ATOM     21  O   UNL d   1      -2.378   4.476   1.856  0.00  0.00    -0.272 OA
ATOM     22  H   UNL d   1      -1.521   1.624   0.795  0.00  0.00     0.169 HD
BRANCH  20  23
ATOM     23  C   UNL d   1      -2.862   2.381   2.935  0.00  0.00     0.030 C 
ATOM     24  C   UNL d   1      -1.926   1.308   3.506  0.00  0.00     0.025 C 
ATOM     25  C   UNL d   1      -3.307   3.292   4.100  0.00  0.00     0.025 C 
ATOM     26  C   UNL d   1      -4.096   1.729   2.305  0.00  0.00     0.025 C 
ENDBRANCH  20  23
ENDBRANCH   2  19
TORSDOF 4
