REMARK  5 active torsions:
REMARK  status: ('A' for Active; 'I' for Inactive)
REMARK    1  A    between atoms: C_9  and  N_1 
REMARK    2  A    between atoms: C_11  and  C_4 
REMARK    3  A    between atoms: C_8  and  C_12 
REMARK    4  A    between atoms: C_10  and  C_9 
REMARK    5  A    between atoms: C_14  and  C_10 
ROOT
ATOM      1  N   UNL d   1      -0.413  -0.998  -0.213  0.00  0.00    -0.209 N 
ATOM      2  N   UNL d   1       0.633  -0.366  -0.795  0.00  0.00    -0.268 N 
ATOM      3  HN  UNL d   1       1.288  -0.705  -1.500  1.00  0.00     0.190 HD
ATOM      4  C   UNL d   1       0.570   0.834  -0.187  0.00  0.00     0.144 A 
ATOM      5  N   UNL d   1      -0.509   0.936   0.656  0.00  0.00    -0.266 N 
ATOM      6  HN  UNL d   1      -0.777   1.756   1.201  1.00  0.00     0.186 HD
ATOM      7  N   UNL d   1      -1.134  -0.229   0.628  0.00  0.00    -0.002 NA
ENDROOT
BRANCH   4   8
ATOM      8  C   UNL d   1       1.595   1.863  -0.278  0.00  0.00     0.011 A 
ATOM      9  C   UNL d   1       1.864   2.680   0.832  0.00  0.00     0.031 A 
ATOM     10  C   UNL d   1       2.894   3.635   0.802  0.00  0.00     0.048 A 
ATOM     11  C   UNL d   1       3.640   3.785  -0.379  0.00  0.00     0.016 A 
ATOM     12  C   UNL d   1       3.372   2.990  -1.491  0.00  0.00     0.002 A 
ATOM     13  C   UNL d   1       2.358   2.027  -1.442  0.00  0.00     0.015 A 
BRANCH  10  14
ATOM     14  C   UNL d   1       3.214   4.478   2.010  0.00  0.00     0.417 C 
ATOM     15  F   UNL d   1       2.431   4.204   3.089  0.00  0.00    -0.166 F 
ATOM     16  F   UNL d   1       4.499   4.312   2.433  0.00  0.00    -0.166 F 
ATOM     17  F   UNL d   1       3.069   5.811   1.770  0.00  0.00    -0.166 F 
ENDBRANCH  10  14
ENDBRANCH   4   8
BRANCH   1  18
ATOM     18  C   UNL d   1      -0.410  -2.437  -0.042  0.00  0.00     0.246 C 
BRANCH  18  19
ATOM     19  C   UNL d   1      -1.273  -3.186  -1.018  0.00  0.00     0.155 C 
ATOM     20  O   UNL d   1      -0.728  -3.844  -1.915  0.00  0.00    -0.295 OA
BRANCH  19  21
ATOM     21  C   UNL d   1      -2.815  -3.163  -0.919  0.00  0.00     0.011 C 
ATOM     22  C   UNL d   1      -3.331  -2.124  -1.922  0.00  0.00     0.022 C 
ATOM     23  C   UNL d   1      -3.344  -4.557  -1.323  0.00  0.00     0.022 C 
ATOM     24  C   UNL d   1      -3.366  -2.867   0.481  0.00  0.00     0.022 C 
ENDBRANCH  19  21
ENDBRANCH  18  19
ENDBRANCH   1  18
TORSDOF 5
