REMARK  6 active torsions:
REMARK  status: ('A' for Active; 'I' for Inactive)
REMARK       I    between atoms: N_4  and  C_1 
REMARK    1  A    between atoms: C_5  and  C_1 
REMARK    2  A    between atoms: C_2  and  O_10 
REMARK    3  A    between atoms: C_3  and  C_5 
REMARK    4  A    between atoms: C_15  and  N_4 
REMARK    5  A    between atoms: O_10  and  C_19 
REMARK    6  A    between atoms: O_26  and  C_20 
ROOT
ATOM      1  C   UNL d   1       0.975  -0.030  -0.259  0.00  0.00     0.230 C 
ATOM      2  N   UNL d   1       0.602   0.877   0.716  0.00  0.00    -0.327 N 
ATOM      3  O   UNL d   1       1.985   0.056  -0.966  0.00  0.00    -0.272 OA
ATOM      4  H   UNL d   1      -0.183   0.626   1.307  0.00  0.00     0.169 HD
ENDROOT
BRANCH   1   5
ATOM      5  C   UNL d   1       0.068  -1.258  -0.402  0.00  0.00     0.107 C 
ATOM      6  C   UNL d   1      -1.425  -0.924  -0.374  0.00  0.00     0.025 C 
BRANCH   5   7
ATOM      7  C   UNL d   1       0.402  -2.402   0.546  0.00  0.00    -0.044 A 
ATOM      8  C   UNL d   1       0.918  -2.205   1.837  0.00  0.00     0.020 A 
ATOM      9  C   UNL d   1       1.180  -3.285   2.698  0.00  0.00    -0.025 A 
ATOM     10  C   UNL d   1       1.696  -3.084   3.987  0.00  0.00     0.015 A 
ATOM     11  C   UNL d   1       0.921  -4.599   2.261  0.00  0.00    -0.023 A 
ATOM     12  C   UNL d   1       1.943  -4.165   4.841  0.00  0.00     0.037 A 
ATOM     13  C   UNL d   1       1.679  -5.464   4.416  0.00  0.00     0.069 A 
ATOM     14  C   UNL d   1       1.175  -5.675   3.129  0.00  0.00     0.049 A 
ATOM     15  C   UNL d   1       0.413  -4.802   0.971  0.00  0.00     0.013 A 
ATOM     16  C   UNL d   1       0.156  -3.719   0.127  0.00  0.00     0.009 A 
BRANCH  13  17
ATOM     17  O   UNL d   1       1.866  -6.605   5.148  0.00  0.00    -0.356 OA
ATOM     18  C   UNL d   1       2.350  -6.441   6.476  0.00  0.00     0.210 C 
ENDBRANCH  13  17
ENDBRANCH   5   7
ENDBRANCH   1   5
BRANCH   2  19
ATOM     19  C   UNL d   1       1.294   2.054   1.083  0.00  0.00     0.034 A 
ATOM     20  C   UNL d   1       2.355   2.592   0.348  0.00  0.00     0.032 A 
ATOM     21  C   UNL d   1       3.018   3.750   0.776  0.00  0.00     0.039 A 
ATOM     22  C   UNL d   1       2.611   4.407   1.932  0.00  0.00     0.078 A 
ATOM     23  C   UNL d   1       1.566   3.861   2.682  0.00  0.00     0.039 A 
ATOM     24  C   UNL d   1       0.905   2.704   2.259  0.00  0.00     0.032 A 
BRANCH  22  25
ATOM     25  O   UNL d   1       3.134   5.556   2.442  0.00  0.00    -0.255 OA
BRANCH  25  26
ATOM     26  C   UNL d   1       3.862   6.426   1.590  0.00  0.00     0.530 C 
ATOM     27  F   UNL d   1       3.500   6.339   0.292  0.00  0.00    -0.144 F 
ATOM     28  F   UNL d   1       3.632   7.697   1.992  0.00  0.00    -0.144 F 
ATOM     29  F   UNL d   1       5.184   6.181   1.702  0.00  0.00    -0.144 F 
ENDBRANCH  25  26
ENDBRANCH  22  25
ENDBRANCH   2  19
TORSDOF 6
