REMARK  3 active torsions:
REMARK  status: ('A' for Active; 'I' for Inactive)
REMARK    1  A    between atoms: C_2  and  C_1 
REMARK    2  A    between atoms: C_13  and  C_7 
REMARK    3  A    between atoms: C_12  and  C_16 
ROOT
ATOM      1  C   UNL d   1       3.635   0.154  -0.031  0.00  0.00     0.057 A 
ATOM      2  N   UNL d   1       4.336   0.849   0.936  0.00  0.00    -0.348 N 
ATOM      3  HN  UNL d   1       3.904   1.342   1.718  1.00  0.00     0.166 HD
ATOM      4  C   UNL d   1       5.634   0.792   0.720  0.00  0.00     0.084 A 
ATOM      5  S   UNL d   1       6.087  -0.124  -0.666  0.00  0.00    -0.081 SA
ATOM      6  C   UNL d   1       4.436  -0.456  -0.978  0.00  0.00     0.082 A 
ENDROOT
BRANCH   4   7
ATOM      7  C   UNL d   1       6.640   1.389   1.611  0.00  0.00    -0.002 A 
ATOM      8  C   UNL d   1       6.353   1.505   2.980  0.00  0.00     0.015 A 
ATOM      9  C   UNL d   1       7.291   2.033   3.874  0.00  0.00     0.010 A 
ATOM     10  C   UNL d   1       8.543   2.474   3.421  0.00  0.00    -0.035 A 
ATOM     11  C   UNL d   1       8.818   2.387   2.046  0.00  0.00     0.010 A 
ATOM     12  C   UNL d   1       7.879   1.856   1.155  0.00  0.00     0.015 A 
BRANCH  10  13
ATOM     13  C   UNL d   1       9.557   3.012   4.412  0.00  0.00     0.141 C 
ATOM     14  S   UNL d   1      10.026   4.739   4.057  0.00  0.00    -0.148 SA
ATOM     15  C   UNL d   1      11.796   4.544   4.379  0.00  0.00     0.085 C 
ATOM     16  C   UNL d   1      12.213   3.186   3.854  0.00  0.00     0.085 C 
ATOM     17  S   UNL d   1      11.049   1.963   4.504  0.00  0.00    -0.148 SA
ENDBRANCH  10  13
ENDBRANCH   4   7
BRANCH   1  18
ATOM     18  C   UNL d   1       2.126   0.071  -0.018  0.00  0.00     0.039 A 
ATOM     19  S   UNL d   1       1.268  -0.926  -1.113  0.00  0.00    -0.087 SA
ATOM     20  C   UNL d   1      -0.256  -0.508  -0.458  0.00  0.00     0.016 A 
ATOM     21  C   UNL d   1      -1.515  -0.991  -0.868  0.00  0.00     0.019 A 
ATOM     22  C   UNL d   1      -0.122   0.414   0.577  0.00  0.00    -0.012 A 
ATOM     23  C   UNL d   1      -2.663  -0.525  -0.226  0.00  0.00     0.001 A 
ATOM     24  C   UNL d   1      -2.564   0.403   0.800  0.00  0.00     0.001 A 
ATOM     25  C   UNL d   1      -1.312   0.872   1.205  0.00  0.00     0.013 A 
ATOM     26  C   UNL d   1       1.270   0.752   0.838  0.00  0.00    -0.031 A 
ATOM     27  C   UNL d   1       1.631   1.730   1.918  0.00  0.00     0.050 C 
ENDBRANCH   1  18
TORSDOF 3
