REMARK  5 active torsions:
REMARK  status: ('A' for Active; 'I' for Inactive)
REMARK    1  A    between atoms: C_8  and  C_3 
REMARK    2  A    between atoms: N_11  and  C_4 
REMARK    3  A    between atoms: C_14  and  N_11 
REMARK    4  A    between atoms: N_12  and  C_19 
REMARK    5  A    between atoms: C_19  and  C_14 
ROOT
ATOM      1  N   UNL d   1      -1.202   1.379   0.017  0.00  0.00    -0.355 N 
ATOM      2  HN  UNL d   1      -1.209   2.399   0.013  1.00  0.00     0.166 HD
ATOM      3  C   UNL d   1      -2.358   0.685   0.047  0.00  0.00     0.046 A 
ATOM      4  C   UNL d   1      -1.183  -1.428  -0.137  0.00  0.00     0.023 A 
ATOM      5  C   UNL d   1      -2.370  -0.702  -0.006  0.00  0.00     0.054 A 
ATOM      6  C   UNL d   1      -0.043   0.703  -0.009  0.00  0.00     0.044 A 
ATOM      7  C   UNL d   1       0.040  -0.711  -0.066  0.00  0.00     0.012 A 
ATOM      8  C   UNL d   1       1.330  -1.302  -0.060  0.00  0.00     0.015 A 
ATOM      9  C   UNL d   1       1.124   1.454   0.017  0.00  0.00     0.030 A 
ATOM     10  C   UNL d   1       2.489  -0.522  -0.020  0.00  0.00     0.001 A 
ATOM     11  C   UNL d   1       2.386   0.861   0.011  0.00  0.00     0.002 A 
ENDROOT
BRANCH   3  12
ATOM     12  C   UNL d   1      -3.602   1.469   0.069  0.00  0.00     0.006 A 
ATOM     13  C   UNL d   1      -4.772   1.008   0.679  0.00  0.00     0.101 A 
ATOM     14  N   UNL d   1      -5.967   1.648   0.669  0.00  0.00    -0.374 N 
ATOM     15  C   UNL d   1      -6.005   2.836   0.034  0.00  0.00     0.087 A 
ATOM     16  HN  UNL d   1      -6.793   1.253   1.119  1.00  0.00     0.164 HD
ATOM     17  C   UNL d   1      -4.907   3.407  -0.588  0.00  0.00     0.018 A 
ATOM     18  C   UNL d   1      -3.698   2.716  -0.564  0.00  0.00     0.016 A 
ENDBRANCH   3  12
BRANCH   4  19
ATOM     19  N   UNL d   1      -1.240  -2.839  -0.242  0.00  0.00    -0.290 NA
ATOM     20  H   UNL d   1      -0.386  -3.274  -0.579  0.00  0.00     0.127 HD
BRANCH  19  21
ATOM     21  C   UNL d   1      -2.446  -3.405  -0.871  0.00  0.00     0.122 C 
BRANCH  21  22
ATOM     22  C   UNL d   1      -2.212  -4.780  -1.529  0.00  0.00     0.285 C 
BRANCH  22  23
ATOM     23  N   UNL d   1      -1.728  -5.863  -0.653  0.00  0.00     0.081 N 
ATOM     24  C   UNL d   1      -2.662  -6.130   0.445  0.00  0.00     0.309 C 
ATOM     25  C   UNL d   1      -1.541  -7.081  -1.446  0.00  0.00     0.309 C 
ENDBRANCH  22  23
ENDBRANCH  21  22
ENDBRANCH  19  21
ENDBRANCH   4  19
TORSDOF 5
