REMARK  6 active torsions:
REMARK  status: ('A' for Active; 'I' for Inactive)
REMARK    1  A    between atoms: C_9  and  C_3 
REMARK    2  A    between atoms: O_12  and  C_4 
REMARK    3  A    between atoms: S_11  and  C_5 
REMARK    4  A    between atoms: C_14  and  C_8 
REMARK    5  A    between atoms: C_10  and  C_9 
REMARK    6  A    between atoms: O_15  and  C_14 
ROOT
ATOM      1  N   UNL d   1      -0.461   1.324  -0.224  0.00  0.00    -0.317 N 
ATOM      2  HN  UNL d   1      -0.866   2.258  -0.287  1.00  0.00     0.170 HD
ATOM      3  C   UNL d   1      -0.736  -1.075  -0.082  0.00  0.00     0.021 A 
ATOM      4  C   UNL d   1      -1.216   0.221  -0.202  0.00  0.00     0.150 A 
ATOM      5  C   UNL d   1       0.857   1.125  -0.159  0.00  0.00     0.143 A 
ATOM      6  N   UNL d   1       1.451  -0.071  -0.112  0.00  0.00    -0.338 N 
ATOM      7  HN  UNL d   1       2.468  -0.158  -0.107  1.00  0.00     0.168 HD
ATOM      8  C   UNL d   1       0.651  -1.166  -0.071  0.00  0.00     0.045 A 
ENDROOT
BRANCH   3   9
ATOM      9  C   UNL d   1      -1.650  -2.258   0.096  0.00  0.00     0.078 C 
BRANCH   9  10
ATOM     10  C   UNL d   1      -2.222  -2.932  -1.133  0.00  0.00    -0.089 C 
ATOM     11  C   UNL d   1      -1.982  -2.594  -2.412  0.00  0.00     0.014 C 
ATOM     12  C   UNL d   1      -3.119  -4.110  -0.835  0.00  0.00     0.043 C 
ENDBRANCH   9  10
ENDBRANCH   3   9
BRANCH   4  13
ATOM     13  O   UNL d   1      -2.552   0.482  -0.303  0.00  0.00    -0.346 OA
ATOM     14  H   UNL d   1      -2.947  -0.238  -0.820  0.00  0.00     0.219 HD
ENDBRANCH   4  13
BRANCH   8  15
ATOM     15  C   UNL d   1       1.387  -2.487  -0.040  0.00  0.00     0.224 C 
BRANCH  15  16
ATOM     16  O   UNL d   1       1.116  -3.305  -1.181  0.00  0.00    -0.390 OA
ATOM     17  C   UNL d   1       1.672  -2.773  -2.380  0.00  0.00     0.201 C 
ENDBRANCH  15  16
ENDBRANCH   8  15
BRANCH   5  18
ATOM     18  S   UNL d   1       1.885   2.560  -0.111  0.00  0.00    -0.107 SA
ATOM     19  H   UNL d   1       0.849   3.403  -0.038  0.00  0.00     0.110 HD
ENDBRANCH   5  18
TORSDOF 6
