REMARK  1 active torsions:
REMARK  status: ('A' for Active; 'I' for Inactive)
REMARK    1  A    between atoms: C_4  and  N_1 
ROOT
ATOM      1  N   UNL d   1       1.938  -0.086   0.006  0.00  0.00    -0.227 N 
ATOM      2  C   UNL d   1       1.136  -1.133  -0.389  0.00  0.00     0.267 A 
ATOM      3  C   UNL d   1       1.202   1.030   0.331  0.00  0.00     0.267 A 
ATOM      4  C   UNL d   1      -0.241  -0.679  -0.206  0.00  0.00     0.048 A 
ATOM      5  C   UNL d   1      -0.203   0.640   0.203  0.00  0.00     0.048 A 
ATOM      6  O   UNL d   1       1.542   2.161   0.622  0.00  0.00    -0.267 OA
ATOM      7  O   UNL d   1       1.408  -2.246  -0.804  0.00  0.00    -0.267 OA
ATOM      8  C   UNL d   1      -1.433  -1.352  -0.389  0.00  0.00     0.018 A 
ATOM      9  C   UNL d   1      -1.354   1.376   0.409  0.00  0.00     0.018 A 
ATOM     10  C   UNL d   1      -2.614  -0.636  -0.167  0.00  0.00     0.001 A 
ATOM     11  C   UNL d   1      -2.574   0.720   0.218  0.00  0.00     0.001 A 
ENDROOT
BRANCH   1  12
ATOM     12  C   UNL d   1       3.320  -0.113  -0.093  0.00  0.00     0.135 A 
ATOM     13  N   UNL d   1       4.209   0.648   0.641  0.00  0.00    -0.281 N 
ATOM     14  N   UNL d   1       5.494   0.489   0.247  0.00  0.00    -0.308 N 
ATOM     15  C   UNL d   1       3.987   1.363   1.878  0.00  0.00     0.179 C 
ATOM     16  C   UNL d   1       5.430  -0.458  -0.687  0.00  0.00     0.111 A 
ATOM     17  HN  UNL d   1       6.320   0.980   0.587  1.00  0.00     0.186 HD
ATOM     18  C   UNL d   1       4.117  -0.900  -0.905  0.00  0.00     0.069 A 
ENDBRANCH   1  12
TORSDOF 1
