REMARK  5 active torsions:
REMARK  status: ('A' for Active; 'I' for Inactive)
REMARK    1  A    between atoms: C_2  and  S_1 
REMARK    2  A    between atoms: C_4  and  S_1 
REMARK    3  A    between atoms: N_13  and  C_6 
REMARK    4  A    between atoms: C_9  and  C_14 
REMARK    5  A    between atoms: N_10  and  N_13 
ROOT
ATOM      1  C   UNL d   1       0.305   1.393   1.036  0.00  0.00     0.156 C 
ATOM      2  C   UNL d   1      -0.502   2.425   0.472  0.00  0.00     0.113 C 
ATOM      3  N   UNL d   1      -1.197   3.287   0.104  0.00  0.00    -0.191 NA
ATOM      4  C   UNL d   1       0.594   1.330   2.349  0.00  0.00     0.142 C 
ENDROOT
BRANCH   1   5
ATOM      5  S   UNL d   1       0.951   0.151  -0.012  0.00  0.00     0.194 S 
ATOM      6  O   UNL d   1       2.133  -0.441   0.597  0.00  0.00    -0.221 OA
ATOM      7  O   UNL d   1       1.065   0.699  -1.353  0.00  0.00    -0.221 OA
BRANCH   5   8
ATOM      8  C   UNL d   1      -0.325  -1.162  -0.065  0.00  0.00     0.058 C 
ATOM      9  C   UNL d   1      -1.639  -0.615  -0.632  0.00  0.00     0.031 C 
ATOM     10  C   UNL d   1       0.176  -2.288  -0.996  0.00  0.00     0.031 C 
ATOM     11  C   UNL d   1      -0.569  -1.763   1.328  0.00  0.00     0.031 C 
ENDBRANCH   5   8
ENDBRANCH   1   5
BRANCH   4  12
ATOM     12  N   UNL d   1       0.147   2.156   3.353  0.00  0.00    -0.310 N 
ATOM     13  H   UNL d   1      -0.384   2.982   3.072  0.00  0.00     0.186 HD
BRANCH  12  14
ATOM     14  N   UNL d   1       0.494   1.988   4.646  0.00  0.00    -0.311 N 
ATOM     15  C   UNL d   1      -0.308   2.551   5.499  0.00  0.00     0.120 C 
ATOM     16  HN  UNL d   1       1.319   1.460   4.931  1.00  0.00     0.186 HD
BRANCH  15  17
ATOM     17  C   UNL d   1      -0.039   2.512   6.952  0.00  0.00     0.002 A 
ATOM     18  C   UNL d   1      -0.960   2.990   7.893  0.00  0.00     0.045 A 
ATOM     19 CL   UNL d   1      -2.508   3.622   7.457  0.00  0.00    -0.083 Cl
ATOM     20  C   UNL d   1      -0.641   2.955   9.255  0.00  0.00     0.024 A 
ATOM     21  C   UNL d   1       0.587   2.445   9.681  0.00  0.00     0.002 A 
ATOM     22  C   UNL d   1       1.501   1.962   8.748  0.00  0.00     0.001 A 
ATOM     23  C   UNL d   1       1.190   1.994   7.388  0.00  0.00     0.014 A 
ENDBRANCH  15  17
ENDBRANCH  12  14
ENDBRANCH   4  12
TORSDOF 5
