REMARK  4 active torsions:
REMARK  status: ('A' for Active; 'I' for Inactive)
REMARK    1  A    between atoms: C_2  and  C_1 
REMARK       I    between atoms: N_6  and  C_1 
REMARK    2  A    between atoms: N_4  and  N_6 
REMARK    3  A    between atoms: C_12  and  C_11 
REMARK    4  A    between atoms: O_18  and  C_13 
ROOT
ATOM      1  N   UNL d   1      -1.251   0.164  -1.206  0.00  0.00    -0.308 N 
ATOM      2  HN  UNL d   1      -1.778  -0.037  -0.356  1.00  0.00     0.186 HD
ATOM      3  C   UNL d   1      -1.841   0.490  -2.311  0.00  0.00     0.118 C 
ENDROOT
BRANCH   1   4
ATOM      4  N   UNL d   1       0.112   0.102  -1.237  0.00  0.00    -0.265 N 
ATOM      5  C   UNL d   1       0.890  -0.011  -0.089  0.00  0.00     0.286 C 
ATOM      6  O   UNL d   1       2.110   0.130  -0.186  0.00  0.00    -0.264 OA
ATOM      7  H   UNL d   1       0.619   0.346  -2.079  0.00  0.00     0.190 HD
BRANCH   5   8
ATOM      8  C   UNL d   1       0.216  -0.268   1.172  0.00  0.00     0.102 A 
ATOM      9  N   UNL d   1      -1.065  -0.757   1.293  0.00  0.00    -0.361 N 
ATOM     10  C   UNL d   1      -1.425  -0.856   2.608  0.00  0.00     0.088 A 
ATOM     11  H   UNL d   1      -1.646  -0.956   0.487  0.00  0.00     0.165 HD
ATOM     12  C   UNL d   1      -0.352  -0.445   3.364  0.00  0.00     0.019 A 
ATOM     13  C   UNL d   1       0.688  -0.098   2.464  0.00  0.00     0.036 A 
ENDBRANCH   5   8
ENDBRANCH   1   4
BRANCH   3  14
ATOM     14  C   UNL d   1      -3.312   0.626  -2.352  0.00  0.00    -0.019 A 
ATOM     15  C   UNL d   1      -4.062   0.511  -1.177  0.00  0.00     0.015 A 
ATOM     16  C   UNL d   1      -5.453   0.630  -1.214  0.00  0.00     0.037 A 
ATOM     17  C   UNL d   1      -6.100   0.869  -2.426  0.00  0.00     0.068 A 
ATOM     18  C   UNL d   1      -5.342   0.999  -3.595  0.00  0.00     0.037 A 
ATOM     19  C   UNL d   1      -3.949   0.880  -3.565  0.00  0.00     0.015 A 
BRANCH  17  20
ATOM     20  O   UNL d   1      -7.451   0.996  -2.597  0.00  0.00    -0.356 OA
ATOM     21  C   UNL d   1      -8.260   0.846  -1.435  0.00  0.00     0.210 C 
ENDBRANCH  17  20
ENDBRANCH   3  14
TORSDOF 4
