REMARK  7 active torsions:
REMARK  status: ('A' for Active; 'I' for Inactive)
REMARK    1  A    between atoms: C_8  and  C_3 
REMARK    2  A    between atoms: C_10  and  N_4 
REMARK    3  A    between atoms: C_9  and  N_14 
REMARK    4  A    between atoms: N_12  and  C_9 
REMARK    5  A    between atoms: C_11  and  C_10 
REMARK       I    between atoms: N_15  and  C_11 
REMARK    6  A    between atoms: C_13  and  N_12 
REMARK    7  A    between atoms: N_14  and  N_15 
ROOT
ATOM      1  C   UNL d   1      -3.013  -1.378   0.198  0.00  0.00     0.257 C 
ATOM      2  N   UNL d   1      -2.179  -2.432   0.542  0.00  0.00    -0.266 N 
ATOM      3  O   UNL d   1      -4.233  -1.486   0.125  0.00  0.00    -0.270 OA
ATOM      4  H   UNL d   1      -1.224  -2.277   0.857  0.00  0.00     0.190 HD
ENDROOT
BRANCH   1   5
ATOM      5  C   UNL d   1      -2.271  -0.110  -0.131  0.00  0.00     0.271 C 
BRANCH   5   6
ATOM      6  N   UNL d   1      -2.323   0.881   0.918  0.00  0.00    -0.207 N 
ATOM      7  N   UNL d   1      -2.969   0.726   2.089  0.00  0.00    -0.268 N 
ATOM      8  C   UNL d   1      -2.826   1.957   2.611  0.00  0.00     0.144 A 
ATOM      9  HN  UNL d   1      -3.436  -0.095   2.472  1.00  0.00     0.190 HD
ATOM     10  N   UNL d   1      -2.035   2.768   1.831  0.00  0.00    -0.266 N 
ATOM     11  N   UNL d   1      -1.704   2.065   0.759  0.00  0.00    -0.002 NA
ATOM     12  HN  UNL d   1      -1.756   3.726   2.039  1.00  0.00     0.186 HD
BRANCH   8  13
ATOM     13  C   UNL d   1      -3.487   2.424   3.821  0.00  0.00     0.014 A 
ATOM     14  C   UNL d   1      -4.251   1.545   4.604  0.00  0.00     0.039 A 
ATOM     15  C   UNL d   1      -4.945   2.019   5.718  0.00  0.00     0.036 A 
ATOM     16 CL   UNL d   1      -5.896   0.932   6.654  0.00  0.00    -0.084 Cl
ATOM     17  C   UNL d   1      -4.888   3.364   6.072  0.00  0.00     0.047 A 
ATOM     18  C   UNL d   1      -4.120   4.235   5.306  0.00  0.00     0.036 A 
ATOM     19  C   UNL d   1      -3.418   3.776   4.191  0.00  0.00     0.039 A 
ATOM     20 CL   UNL d   1      -4.051   5.902   5.728  0.00  0.00    -0.084 Cl
ENDBRANCH   8  13
ENDBRANCH   5   6
ENDBRANCH   1   5
BRANCH   2  21
ATOM     21  N   UNL d   1      -2.760  -3.614   1.000  0.00  0.00    -0.273 N 
ATOM     22  H   UNL d   1      -3.720  -3.553   1.337  0.00  0.00     0.189 HD
BRANCH  21  23
ATOM     23  C   UNL d   1      -2.207  -4.842   0.737  0.00  0.00     0.191 C 
ATOM     24  S   UNL d   1      -1.048  -5.149  -0.432  0.00  0.00    -0.039 SA
BRANCH  23  25
ATOM     25  N   UNL d   1      -2.688  -5.886   1.482  0.00  0.00    -0.330 N 
ATOM     26  H   UNL d   1      -2.534  -6.804   1.076  0.00  0.00     0.168 HD
BRANCH  25  27
ATOM     27  C   UNL d   1      -3.023  -5.876   2.861  0.00  0.00     0.073 A 
ATOM     28  C   UNL d   1      -2.648  -4.868   3.761  0.00  0.00     0.143 A 
ATOM     29  F   UNL d   1      -1.891  -3.826   3.380  0.00  0.00    -0.204 F 
ATOM     30  C   UNL d   1      -2.959  -4.956   5.117  0.00  0.00     0.044 A 
ATOM     31  C   UNL d   1      -3.643  -6.066   5.600  0.00  0.00     0.003 A 
ATOM     32  C   UNL d   1      -4.005  -7.086   4.726  0.00  0.00     0.002 A 
ATOM     33  C   UNL d   1      -3.687  -7.000   3.364  0.00  0.00     0.033 A 
ENDBRANCH  25  27
ENDBRANCH  23  25
ENDBRANCH  21  23
ENDBRANCH   2  21
TORSDOF 7
