REMARK  6 active torsions:
REMARK  status: ('A' for Active; 'I' for Inactive)
REMARK    1  A    between atoms: O_7  and  C_1 
REMARK    2  A    between atoms: N_4  and  C_2 
REMARK    3  A    between atoms: N_5  and  C_3 
REMARK    4  A    between atoms: C_6  and  C_8 
REMARK    5  A    between atoms: C_11  and  O_7 
REMARK    6  A    between atoms: O_20  and  C_16 
ROOT
ATOM      1  C   UNL d   1       1.249  -0.424   0.461  0.00  0.00     0.142 A 
ATOM      2  C   UNL d   1       0.234  -1.371   0.640  0.00  0.00     0.140 A 
ATOM      3  C   UNL d   1       0.849   0.891   0.182  0.00  0.00     0.140 A 
ATOM      4  C   UNL d   1      -1.502   0.272   0.125  0.00  0.00     0.052 A 
ATOM      5  C   UNL d   1      -0.501   1.245   0.002  0.00  0.00     0.055 A 
ATOM      6  C   UNL d   1      -1.124  -1.038   0.455  0.00  0.00     0.055 A 
ENDROOT
BRANCH   1   7
ATOM      7  O   UNL d   1       2.596  -0.670   0.581  0.00  0.00    -0.303 OA
BRANCH   7   8
ATOM      8  C   UNL d   1       3.203  -1.651  -0.175  0.00  0.00     0.109 A 
ATOM      9  C   UNL d   1       4.417  -2.195   0.277  0.00  0.00     0.102 A 
ATOM     10  C   UNL d   1       4.988  -3.262  -0.431  0.00  0.00     0.039 A 
ATOM     11  C   UNL d   1       4.382  -3.779  -1.575  0.00  0.00     0.003 A 
ATOM     12  C   UNL d   1       3.213  -3.204  -2.052  0.00  0.00     0.003 A 
ATOM     13  C   UNL d   1       2.640  -2.127  -1.374  0.00  0.00     0.040 A 
BRANCH   9  14
ATOM     14  O   UNL d   1       5.157  -1.859   1.378  0.00  0.00    -0.353 OA
ATOM     15  C   UNL d   1       4.862  -0.668   2.090  0.00  0.00     0.210 C 
ENDBRANCH   9  14
ENDBRANCH   7   8
ENDBRANCH   1   7
BRANCH   2  16
ATOM     16  N   UNL d   1       0.524  -2.742   1.045  0.00  0.00    -0.113 N 
ATOM     17  O   UNL d   1       1.314  -2.905   1.984  0.00  0.00    -0.532 OA
ATOM     18  O   UNL d   1      -0.093  -3.640   0.457  0.00  0.00    -0.532 OA
ENDBRANCH   2  16
BRANCH   3  19
ATOM     19  N   UNL d   1       1.841   1.946   0.064  0.00  0.00    -0.113 N 
ATOM     20  O   UNL d   1       2.603   2.122   1.022  0.00  0.00    -0.532 OA
ATOM     21  O   UNL d   1       1.808   2.626  -0.970  0.00  0.00    -0.532 OA
ENDBRANCH   3  19
BRANCH   4  22
ATOM     22  C   UNL d   1      -2.963   0.607  -0.089  0.00  0.00     0.417 C 
ATOM     23  F   UNL d   1      -3.186   1.932  -0.291  0.00  0.00    -0.166 F 
ATOM     24  F   UNL d   1      -3.479  -0.037  -1.168  0.00  0.00    -0.166 F 
ATOM     25  F   UNL d   1      -3.731   0.250   0.973  0.00  0.00    -0.166 F 
ENDBRANCH   4  22
TORSDOF 6
