REMARK  7 active torsions:
REMARK  status: ('A' for Active; 'I' for Inactive)
REMARK    1  A    between atoms: N_2  and  S_1 
REMARK    2  A    between atoms: C_10  and  S_1 
REMARK    3  A    between atoms: C_3  and  N_2 
REMARK    4  A    between atoms: C_7  and  N_16 
REMARK    5  A    between atoms: N_8  and  C_7 
REMARK    6  A    between atoms: C_12  and  N_8 
REMARK    7  A    between atoms: N_16  and  C_23 
ROOT
ATOM      1  C   UNL d   1       0.840  -0.031  -1.841  0.00  0.00     0.075 A 
ATOM      2  C   UNL d   1       1.447  -1.133  -2.454  0.00  0.00     0.027 A 
ATOM      3  C   UNL d   1      -0.178   0.668  -2.494  0.00  0.00     0.027 A 
ATOM      4  C   UNL d   1      -0.080  -0.918  -4.330  0.00  0.00     0.034 A 
ATOM      5  C   UNL d   1      -0.625   0.229  -3.747  0.00  0.00     0.031 A 
ATOM      6  C   UNL d   1       0.978  -1.579  -3.692  0.00  0.00     0.031 A 
ENDROOT
BRANCH   4   7
ATOM      7  N   UNL d   1      -0.669  -1.558  -5.438  0.00  0.00    -0.333 N 
ATOM      8  H   UNL d   1      -0.431  -2.532  -5.581  0.00  0.00     0.168 HD
BRANCH   7   9
ATOM      9  C   UNL d   1      -1.478  -1.037  -6.410  0.00  0.00     0.176 C 
ATOM     10  S   UNL d   1      -1.258   0.439  -7.168  0.00  0.00    -0.041 SA
BRANCH   9  11
ATOM     11  N   UNL d   1      -2.454  -1.869  -6.894  0.00  0.00    -0.331 N 
ATOM     12  H   UNL d   1      -2.816  -1.596  -7.806  0.00  0.00     0.168 HD
BRANCH  11  13
ATOM     13  C   UNL d   1      -3.266  -2.808  -6.209  0.00  0.00     0.073 A 
ATOM     14  C   UNL d   1      -4.246  -3.474  -6.964  0.00  0.00     0.145 A 
ATOM     15  C   UNL d   1      -5.170  -4.332  -6.378  0.00  0.00     0.086 A 
ATOM     16  F   UNL d   1      -4.316  -3.261  -8.288  0.00  0.00    -0.204 F 
ATOM     17  C   UNL d   1      -5.119  -4.527  -5.007  0.00  0.00     0.119 A 
ATOM     18  C   UNL d   1      -4.158  -3.889  -4.230  0.00  0.00     0.044 A 
ATOM     19  F   UNL d   1      -6.019  -5.325  -4.419  0.00  0.00    -0.206 F 
ATOM     20  C   UNL d   1      -3.230  -3.028  -4.829  0.00  0.00     0.036 A 
ENDBRANCH  11  13
ENDBRANCH   9  11
ENDBRANCH   7   9
ENDBRANCH   4   7
BRANCH   1  21
ATOM     21  S   UNL d   1       1.170   0.274  -0.116  0.00  0.00     0.247 S 
ATOM     22  O   UNL d   1       0.042   1.010   0.415  0.00  0.00    -0.205 OA
ATOM     23  O   UNL d   1       1.581  -0.990   0.461  0.00  0.00    -0.205 OA
BRANCH  21  24
ATOM     24  N   UNL d   1       2.467   1.361  -0.156  0.00  0.00    -0.165 NA
ATOM     25  H   UNL d   1       2.100   2.213   0.274  0.00  0.00     0.147 HD
BRANCH  24  26
ATOM     26  C   UNL d   1       3.618   0.957   0.516  0.00  0.00     0.117 A 
ATOM     27  N   UNL d   1       3.888   1.374   1.754  0.00  0.00    -0.249 N 
ATOM     28  O   UNL d   1       5.086   0.764   2.094  0.00  0.00    -0.241 OA
ATOM     29  HN  UNL d   1       3.331   2.007   2.328  1.00  0.00     0.196 HD
ATOM     30  C   UNL d   1       5.547   0.052   1.030  0.00  0.00     0.075 A 
ATOM     31  C   UNL d   1       4.651   0.157  -0.005  0.00  0.00     0.079 A 
ATOM     32  C   UNL d   1       6.840  -0.633   1.206  0.00  0.00     0.079 C 
ENDBRANCH  24  26
ENDBRANCH  21  24
ENDBRANCH   1  21
TORSDOF 7
