REMARK  5 active torsions:
REMARK  status: ('A' for Active; 'I' for Inactive)
REMARK    1  A    between atoms: N_7  and  C_1 
REMARK    2  A    between atoms: N_8  and  C_1 
REMARK    3  A    between atoms: C_2  and  C_3 
REMARK       I    between atoms: C_3  and  N_6 
REMARK    4  A    between atoms: N_6  and  N_7 
REMARK    5  A    between atoms: C_10  and  N_8 
ROOT
ATOM      1  C   UNL d   1       0.925   0.109   0.041  0.00  0.00     0.191 C 
ATOM      2  S   UNL d   1       2.583  -0.044  -0.100  0.00  0.00    -0.039 SA
ENDROOT
BRANCH   1   3
ATOM      3  N   UNL d   1       0.254   1.263   0.385  0.00  0.00    -0.274 N 
ATOM      4  H   UNL d   1      -0.516   1.170   1.049  0.00  0.00     0.189 HD
BRANCH   3   5
ATOM      5  N   UNL d   1       0.892   2.503   0.387  0.00  0.00    -0.268 N 
ATOM      6  C   UNL d   1       0.505   3.453   1.309  0.00  0.00     0.240 C 
ATOM      7  O   UNL d   1      -0.240   3.234   2.252  0.00  0.00    -0.271 OA
ATOM      8  H   UNL d   1       1.402   2.749  -0.455  0.00  0.00     0.190 HD
BRANCH   6   9
ATOM      9  C   UNL d   1       1.059   4.809   1.027  0.00  0.00     0.080 A 
ATOM     10  C   UNL d   1       1.451   5.724   2.160  0.00  0.00     0.015 A 
ATOM     11  C   UNL d   1       0.243   6.044   1.327  0.00  0.00     0.015 A 
ENDBRANCH   6   9
ENDBRANCH   3   5
ENDBRANCH   1   3
BRANCH   1  12
ATOM     12  N   UNL d   1       0.127  -0.987  -0.181  0.00  0.00    -0.332 N 
ATOM     13  H   UNL d   1       0.594  -1.885  -0.118  0.00  0.00     0.168 HD
BRANCH  12  14
ATOM     14  C   UNL d   1      -1.198  -0.988  -0.671  0.00  0.00     0.035 A 
ATOM     15  C   UNL d   1      -1.729   0.083  -1.402  0.00  0.00     0.053 A 
ATOM     16  C   UNL d   1      -3.048   0.040  -1.849  0.00  0.00     0.036 A 
ATOM     17 CL   UNL d   1      -3.686   1.360  -2.751  0.00  0.00    -0.084 Cl
ATOM     18  C   UNL d   1      -3.848  -1.063  -1.576  0.00  0.00     0.024 A 
ATOM     19  C   UNL d   1      -3.309  -2.152  -0.890  0.00  0.00     0.004 A 
ATOM     20  C   UNL d   1      -1.980  -2.124  -0.458  0.00  0.00     0.029 A 
ENDBRANCH  12  14
ENDBRANCH   1  12
TORSDOF 5
