REMARK  8 active torsions:
REMARK  status: ('A' for Active; 'I' for Inactive)
REMARK    1  A    between atoms: N_2  and  C_1 
REMARK    2  A    between atoms: N_3  and  C_5 
REMARK    3  A    between atoms: N_15  and  C_6 
REMARK    4  A    between atoms: C_11  and  C_17 
REMARK    5  A    between atoms: O_16  and  C_11 
REMARK    6  A    between atoms: C_18  and  N_15 
REMARK    7  A    between atoms: C_17  and  C_19 
REMARK    8  A    between atoms: C_19  and  C_18 
ROOT
ATOM      1  C   UNL d   1      -0.266   0.763  -0.374  0.00  0.00     0.126 A 
ATOM      2  C   UNL d   1      -0.934  -0.469  -0.172  0.00  0.00     0.074 A 
ATOM      3  C   UNL d   1      -0.230  -1.560   0.341  0.00  0.00     0.105 A 
ATOM      4  C   UNL d   1       1.116   0.913  -0.077  0.00  0.00     0.041 A 
ATOM      5  C   UNL d   1       1.122  -1.439   0.652  0.00  0.00     0.038 A 
ATOM      6  C   UNL d   1       1.771  -0.215   0.455  0.00  0.00     0.028 A 
ENDROOT
BRANCH   4   7
ATOM      7  N   UNL d   1       1.793   2.146  -0.143  0.00  0.00    -0.291 NA
ATOM      8  H   UNL d   1       1.293   2.823  -0.737  0.00  0.00     0.127 HD
BRANCH   7   9
ATOM      9  C   UNL d   1       3.237   2.163  -0.385  0.00  0.00     0.093 C 
BRANCH   9  10
ATOM     10  C   UNL d   1       3.773   3.593  -0.395  0.00  0.00     0.025 C 
BRANCH  10  11
ATOM     11  C   UNL d   1       3.583   4.285   0.955  0.00  0.00     0.111 C 
BRANCH  11  12
ATOM     12  C   UNL d   1       4.233   5.647   0.984  0.00  0.00     0.139 C 
ATOM     13  O   UNL d   1       4.893   6.134   0.081  0.00  0.00    -0.650 OA
BRANCH  12  14
ATOM     14  O   UNL d   1       4.016   6.290   2.156  0.00  0.00    -0.776 OA
ATOM     15  H   UNL d   1       3.466   5.786   2.784  0.00  0.00     0.167 HD
ENDBRANCH  12  14
ENDBRANCH  11  12
ENDBRANCH  10  11
ENDBRANCH   9  10
ENDBRANCH   7   9
ENDBRANCH   4   7
BRANCH   1  16
ATOM     16  N   UNL d   1      -1.063   1.868  -0.945  0.00  0.00    -0.114 N 
ATOM     17  O   UNL d   1      -2.258   1.648  -1.191  0.00  0.00    -0.532 OA
ATOM     18  O   UNL d   1      -0.498   2.950  -1.172  0.00  0.00    -0.532 OA
ENDBRANCH   1  16
BRANCH   3  19
ATOM     19  N   UNL d   1      -0.913  -2.840   0.572  0.00  0.00    -0.116 N 
ATOM     20  O   UNL d   1      -2.121  -2.901   0.309  0.00  0.00    -0.532 OA
ATOM     21  O   UNL d   1      -0.238  -3.778   1.018  0.00  0.00    -0.532 OA
ENDBRANCH   3  19
TORSDOF 8
