REMARK  7 active torsions:
REMARK  status: ('A' for Active; 'I' for Inactive)
REMARK    1  A    between atoms: C_4  and  C_1 
REMARK       I    between atoms: N_14  and  C_1 
REMARK    2  A    between atoms: C_8  and  N_2 
REMARK    3  A    between atoms: C_17  and  C_8 
REMARK    4  A    between atoms: C_15  and  O_16 
REMARK    5  A    between atoms: O_16  and  C_18 
REMARK    6  A    between atoms: C_18  and  C_17 
REMARK    7  A    between atoms: O_20  and  C_17 
ROOT
ATOM      1  C   UNL d   1      -0.533   3.224  -4.649  0.00  0.00     0.170 C 
ENDROOT
BRANCH   1   2
ATOM      2  C   UNL d   1      -0.209   1.806  -4.120  0.00  0.00     0.306 C 
BRANCH   2   3
ATOM      3  N   UNL d   1      -0.240   1.580  -2.659  0.00  0.00     0.091 N 
ATOM      4  C   UNL d   1       0.164   0.184  -2.387  0.00  0.00     0.273 C 
ATOM      5  C   UNL d   1       0.201  -0.123  -0.888  0.00  0.00     0.044 C 
ATOM      6  C   UNL d   1      -1.125   0.208  -0.196  0.00  0.00     0.081 C 
ATOM      7  C   UNL d   1      -1.566   1.623  -0.576  0.00  0.00     0.044 C 
ATOM      8  C   UNL d   1      -1.573   1.835  -2.093  0.00  0.00     0.273 C 
BRANCH   6   9
ATOM      9  C   UNL d   1      -2.199  -0.834  -0.500  0.00  0.00     0.219 C 
ATOM     10  O   UNL d   1      -2.027  -1.824  -1.207  0.00  0.00    -0.273 OA
ATOM     11  N   UNL d   1      -3.404  -0.632   0.105  0.00  0.00    -0.370 N 
ATOM     12  H   UNL d   1      -3.568   0.097   0.786  0.00  0.00     0.159 HD
ATOM     13  H   UNL d   1      -4.119  -1.332  -0.034  0.00  0.00     0.159 HD
ENDBRANCH   6   9
ENDBRANCH   2   3
ENDBRANCH   1   2
BRANCH   1  14
ATOM     14  C   UNL d   1       0.350   4.317  -4.018  0.00  0.00     0.209 C 
BRANCH  14  15
ATOM     15  O   UNL d   1       0.040   5.582  -4.626  0.00  0.00    -0.349 OA
BRANCH  15  16
ATOM     16  C   UNL d   1       0.470   6.713  -3.988  0.00  0.00     0.069 A 
ATOM     17  C   UNL d   1       0.070   7.920  -4.574  0.00  0.00     0.044 A 
ATOM     18  C   UNL d   1       0.387   9.161  -3.990  0.00  0.00    -0.053 A 
ATOM     19  C   UNL d   1      -0.039  10.435  -4.670  0.00  0.00     0.049 C 
ATOM     20  C   UNL d   1       1.083   9.184  -2.768  0.00  0.00    -0.056 A 
ATOM     21  C   UNL d   1       1.533   7.975  -2.220  0.00  0.00     0.010 A 
ATOM     22  C   UNL d   1       1.354  10.470  -2.035  0.00  0.00     0.049 C 
ATOM     23  C   UNL d   1       1.241   6.752  -2.831  0.00  0.00     0.037 A 
ENDBRANCH  15  16
ENDBRANCH  14  15
ENDBRANCH   1  14
BRANCH   1  24
ATOM     24  O   UNL d   1      -0.375   3.196  -6.079  0.00  0.00    -0.392 OA
ATOM     25  H   UNL d   1       0.565   3.346  -6.278  0.00  0.00     0.210 HD
ENDBRANCH   1  24
TORSDOF 7
