REMARK  6 active torsions:
REMARK  status: ('A' for Active; 'I' for Inactive)
REMARK    1  A    between atoms: N_2  and  C_1 
REMARK       I    between atoms: C_4  and  N_2 
REMARK    2  A    between atoms: C_3  and  C_9 
REMARK    3  A    between atoms: O_12  and  C_3 
REMARK    4  A    between atoms: C_11  and  C_4 
REMARK    5  A    between atoms: S_5  and  C_11 
REMARK    6  A    between atoms: C_9  and  S_5 
ROOT
ATOM      1  N   UNL d   1       0.204   2.523  -0.065  0.00  0.00    -0.326 N 
ATOM      2  C   UNL d   1       1.259   3.265  -0.569  0.00  0.00     0.231 C 
ATOM      3  O   UNL d   1       2.139   2.832  -1.317  0.00  0.00    -0.272 OA
ATOM      4  H   UNL d   1      -0.630   3.042   0.177  0.00  0.00     0.169 HD
ENDROOT
BRANCH   1   5
ATOM      5  C   UNL d   1       0.020   1.147  -0.353  0.00  0.00     0.046 A 
ATOM      6  C   UNL d   1       1.013   0.186  -0.058  0.00  0.00    -0.035 A 
ATOM      7  C   UNL d   1       0.747  -1.174  -0.306  0.00  0.00     0.009 A 
ATOM      8  C   UNL d   1       2.345   0.487   0.573  0.00  0.00     0.050 C 
ATOM      9  C   UNL d   1      -0.480  -1.589  -0.808  0.00  0.00     0.001 A 
ATOM     10  C   UNL d   1      -1.460  -0.645  -1.089  0.00  0.00     0.009 A 
ATOM     11  C   UNL d   1      -1.222   0.726  -0.885  0.00  0.00    -0.035 A 
ATOM     12  C   UNL d   1      -2.314   1.674  -1.302  0.00  0.00     0.050 C 
ENDBRANCH   1   5
BRANCH   2  13
ATOM     13  C   UNL d   1       1.277   4.716  -0.120  0.00  0.00     0.177 C 
BRANCH  13  14
ATOM     14  S   UNL d   1       2.279   4.923   1.392  0.00  0.00    -0.145 SA
BRANCH  14  15
ATOM     15  C   UNL d   1       3.945   4.420   0.779  0.00  0.00     0.143 C 
ATOM     16  C   UNL d   1       4.936   4.541   1.933  0.00  0.00     0.032 C 
BRANCH  15  17
ATOM     17  C   UNL d   1       4.423   5.277  -0.385  0.00  0.00     0.272 C 
ATOM     18  O   UNL d   1       4.124   6.446  -0.585  0.00  0.00    -0.264 OA
BRANCH  17  19
ATOM     19  O   UNL d   1       5.287   4.558  -1.165  0.00  0.00    -0.326 OA
ATOM     20  C   UNL d   1       5.781   5.267  -2.302  0.00  0.00     0.213 C 
ENDBRANCH  17  19
ENDBRANCH  15  17
ENDBRANCH  14  15
ENDBRANCH  13  14
ENDBRANCH   2  13
TORSDOF 6
