REMARK  1 active torsions:
REMARK  status: ('A' for Active; 'I' for Inactive)
REMARK    1  A    between atoms: C_6  and  C_3 
ROOT
ATOM      1  N   UNL d   1      -2.281   0.315  -0.035  0.00  0.00    -0.308 N 
ATOM      2  HN  UNL d   1      -3.281   0.118  -0.073  1.00  0.00     0.170 HD
ATOM      3  C   UNL d   1      -1.860   1.546  -0.037  0.00  0.00     0.126 A 
ATOM      4  C   UNL d   1      -1.376  -0.722   0.016  0.00  0.00     0.259 A 
ATOM      5  N   UNL d   1      -0.527   1.888   0.021  0.00  0.00    -0.340 N 
ATOM      6  C   UNL d   1       0.080  -0.432   0.011  0.00  0.00     0.059 A 
ATOM      7  C   UNL d   1       0.461   0.911   0.014  0.00  0.00     0.049 A 
ATOM      8  O   UNL d   1      -1.730  -1.897   0.058  0.00  0.00    -0.267 OA
ATOM      9  C   UNL d   1       1.037  -1.451   0.002  0.00  0.00     0.019 A 
ATOM     10  C   UNL d   1       1.819   1.234   0.016  0.00  0.00     0.030 A 
ATOM     11  C   UNL d   1       2.392  -1.120  -0.003  0.00  0.00     0.001 A 
ATOM     12  C   UNL d   1       2.782   0.220   0.005  0.00  0.00     0.002 A 
ATOM     13  H   UNL d   1      -0.266   2.864  -0.006  0.00  0.00     0.167 HD
ENDROOT
BRANCH   3  14
ATOM     14  C   UNL d   1      -2.908   2.566  -0.114  0.00  0.00     0.050 A 
ATOM     15  C   UNL d   1      -4.281   2.393  -0.133  0.00  0.00     0.042 A 
ATOM     16  C   UNL d   1      -4.967   3.627  -0.238  0.00  0.00     0.018 A 
ATOM     17 BR   UNL d   1      -6.849   3.724  -0.295  0.00  0.00    -0.051 Br
ATOM     18  C   UNL d   1      -4.129   4.711  -0.296  0.00  0.00     0.069 A 
ATOM     19  S   UNL d   1      -2.489   4.230  -0.214  0.00  0.00    -0.097 SA
ENDBRANCH   3  14
TORSDOF 1
