REMARK  3 active torsions:
REMARK  status: ('A' for Active; 'I' for Inactive)
REMARK    1  A    between atoms: C_5  and  C_1 
REMARK    2  A    between atoms: N_9  and  C_2 
REMARK       I    between atoms: C_8  and  N_9 
REMARK       I    between atoms: N_10  and  C_8 
REMARK    3  A    between atoms: C_17  and  N_10 
ROOT
ATOM      1  C   UNL d   1      -1.635  -0.755  -0.164  0.00  0.00     0.097 A 
ATOM      2  C   UNL d   1      -0.243  -1.081  -0.256  0.00  0.00     0.097 A 
ATOM      3  N   UNL d   1      -1.811   0.572  -0.240  0.00  0.00    -0.258 N 
ATOM      4  HN  UNL d   1      -2.696   1.077  -0.182  1.00  0.00     0.195 HD
ATOM      5  C   UNL d   1       0.385   0.132  -0.422  0.00  0.00     0.101 A 
ATOM      6  O   UNL d   1      -0.556   1.116  -0.414  0.00  0.00    -0.240 OA
ATOM      7  C   UNL d   1       1.783   0.598  -0.490  0.00  0.00     0.081 C 
ENDROOT
BRANCH   2   8
ATOM      8  N   UNL d   1       0.295  -2.347  -0.120  0.00  0.00    -0.305 N 
ATOM      9  C   UNL d   1       1.323  -2.968  -0.752  0.00  0.00     0.321 C 
ATOM     10  N   UNL d   1       1.800  -2.381  -1.887  0.00  0.00    -0.339 N 
ATOM     11  O   UNL d   1       1.667  -4.075  -0.350  0.00  0.00    -0.247 OA
ATOM     12  H   UNL d   1       1.213  -1.650  -2.261  0.00  0.00     0.164 HD
ATOM     13  H   UNL d   1      -0.207  -2.990   0.483  0.00  0.00     0.171 HD
BRANCH  10  14
ATOM     14  C   UNL d   1       2.565  -3.135  -2.882  0.00  0.00     0.078 C 
ATOM     15  C   UNL d   1       3.869  -3.712  -2.336  0.00  0.00     0.032 C 
ATOM     16  C   UNL d   1       1.710  -4.222  -3.540  0.00  0.00     0.032 C 
ENDBRANCH  10  14
ENDBRANCH   2   8
BRANCH   1  17
ATOM     17  C   UNL d   1      -2.762  -1.691  -0.136  0.00  0.00     0.038 A 
ATOM     18  C   UNL d   1      -2.887  -2.662   0.877  0.00  0.00     0.048 A 
ATOM     19 CL   UNL d   1      -1.843  -2.717   2.259  0.00  0.00    -0.083 Cl
ATOM     20  C   UNL d   1      -3.877  -3.651   0.809  0.00  0.00     0.025 A 
ATOM     21  C   UNL d   1      -4.784  -3.668  -0.245  0.00  0.00     0.003 A 
ATOM     22  C   UNL d   1      -4.705  -2.693  -1.234  0.00  0.00     0.025 A 
ATOM     23  C   UNL d   1      -3.699  -1.718  -1.191  0.00  0.00     0.048 A 
ATOM     24 CL   UNL d   1      -3.647  -0.622  -2.534  0.00  0.00    -0.083 Cl
ENDBRANCH   1  17
TORSDOF 3
