REMARK  4 active torsions:
REMARK  status: ('A' for Active; 'I' for Inactive)
REMARK    1  A    between atoms: C_4  and  C_1 
REMARK       I    between atoms: N_7  and  C_4 
REMARK    2  A    between atoms: C_12  and  N_7 
REMARK    3  A    between atoms: O_15  and  C_11 
REMARK    4  A    between atoms: C_14  and  C_12 
ROOT
ATOM      1  C   UNL d   1      -2.360  -0.185  -0.098  0.00  0.00     0.102 A 
ATOM      2  N   UNL d   1      -1.567   0.946  -0.068  0.00  0.00    -0.351 N 
ATOM      3  C   UNL d   1      -1.495  -1.264  -0.030  0.00  0.00     0.049 A 
ATOM      4  C   UNL d   1      -0.160  -0.770  -0.009  0.00  0.00    -0.004 A 
ATOM      5  C   UNL d   1      -0.233   0.619  -0.036  0.00  0.00     0.043 A 
ATOM      6  C   UNL d   1       1.110  -1.378   0.022  0.00  0.00     0.050 A 
ATOM      7  C   UNL d   1       0.906   1.433  -0.032  0.00  0.00     0.033 A 
ATOM      8  C   UNL d   1       2.268  -0.588   0.008  0.00  0.00     0.069 A 
ATOM      9  C   UNL d   1       2.160   0.803  -0.014  0.00  0.00     0.039 A 
ATOM     10  H   UNL d   1      -1.940   1.886  -0.095  0.00  0.00     0.166 HD
ENDROOT
BRANCH   1  11
ATOM     11  C   UNL d   1      -3.800  -0.082  -0.184  0.00  0.00     0.268 C 
ATOM     12  N   UNL d   1      -4.486  -1.270  -0.274  0.00  0.00    -0.351 N 
ATOM     13  H   UNL d   1      -3.983  -2.143  -0.211  0.00  0.00     0.163 HD
ATOM     14  O   UNL d   1      -4.364   1.010  -0.180  0.00  0.00    -0.266 OA
BRANCH  12  15
ATOM     15  C   UNL d   1      -5.931  -1.319  -0.256  0.00  0.00     0.161 C 
BRANCH  15  16
ATOM     16  C   UNL d   1      -6.540  -2.120  -1.383  0.00  0.00    -0.041 A 
ATOM     17  C   UNL d   1      -7.767  -2.772  -1.171  0.00  0.00     0.009 A 
ATOM     18  C   UNL d   1      -8.423  -3.426  -2.217  0.00  0.00     0.001 A 
ATOM     19  C   UNL d   1      -7.864  -3.435  -3.492  0.00  0.00     0.000 A 
ATOM     20  C   UNL d   1      -6.647  -2.794  -3.719  0.00  0.00     0.001 A 
ATOM     21  C   UNL d   1      -5.992  -2.135  -2.673  0.00  0.00     0.009 A 
ENDBRANCH  15  16
ENDBRANCH  12  15
ENDBRANCH   1  11
BRANCH   8  22
ATOM     22  O   UNL d   1       3.433  -1.307   0.016  0.00  0.00    -0.356 OA
ATOM     23  C   UNL d   1       4.650  -0.576  -0.047  0.00  0.00     0.210 C 
ENDBRANCH   8  22
TORSDOF 4
