REMARK  8 active torsions:
REMARK  status: ('A' for Active; 'I' for Inactive)
REMARK    1  A    between atoms: C_8  and  C_1 
REMARK    2  A    between atoms: N_4  and  C_2 
REMARK       I    between atoms: C_3  and  N_4 
REMARK    3  A    between atoms: C_5  and  C_3 
REMARK    4  A    between atoms: C_10  and  C_7 
REMARK    5  A    between atoms: O_19  and  C_8 
REMARK    6  A    between atoms: O_18  and  C_10 
REMARK    7  A    between atoms: O_20  and  C_11 
REMARK    8  A    between atoms: O_21  and  C_12 
ROOT
ATOM      1  C   UNL d   1       1.093  -0.589   0.734  0.00  0.00     0.069 C 
ATOM      2  C   UNL d   1       0.533  -1.175  -0.406  0.00  0.00     0.053 C 
ATOM      3  C   UNL d   1       0.471   0.527   1.309  0.00  0.00     0.059 C 
ATOM      4  C   UNL d   1      -0.741  -0.775  -0.820  0.00  0.00     0.070 C 
ATOM      5  C   UNL d   1      -0.729   1.028   0.783  0.00  0.00     0.102 C 
ATOM      6  C   UNL d   1      -1.378   0.331  -0.242  0.00  0.00     0.103 C 
ENDROOT
BRANCH   2   7
ATOM      7  N   UNL d   1       1.156  -2.157  -1.188  0.00  0.00    -0.326 N 
ATOM      8  C   UNL d   1       2.350  -2.041  -1.876  0.00  0.00     0.227 C 
ATOM      9  O   UNL d   1       2.637  -2.992  -2.617  0.00  0.00    -0.273 OA
ATOM     10  H   UNL d   1       0.567  -2.859  -1.624  0.00  0.00     0.169 HD
BRANCH   8  11
ATOM     11  C   UNL d   1       3.200  -0.731  -1.812  0.00  0.00     0.092 C 
ATOM     12  C   UNL d   1       2.652   0.555  -2.531  0.00  0.00     0.096 C 
ATOM     13  C   UNL d   1       4.082   0.796  -3.073  0.00  0.00     0.017 C 
ATOM     14  C   UNL d   1       4.383  -0.683  -2.832  0.00  0.00     0.016 C 
BRANCH  12  15
ATOM     15  C   UNL d   1       2.106   1.716  -1.648  0.00  0.00     0.144 C 
ATOM     16  O   UNL d   1       2.520   2.035  -0.540  0.00  0.00    -0.650 OA
BRANCH  15  17
ATOM     17  O   UNL d   1       1.092   2.416  -2.223  0.00  0.00    -0.776 OA
ATOM     18  H   UNL d   1       0.868   2.122  -3.126  0.00  0.00     0.167 HD
ENDBRANCH  15  17
ENDBRANCH  12  15
ENDBRANCH   8  11
ENDBRANCH   2   7
BRANCH   1  19
ATOM     19  C   UNL d   1       2.238  -1.169   1.473  0.00  0.00     0.295 C 
ATOM     20  O   UNL d   1       3.088  -0.511   2.047  0.00  0.00    -0.259 OA
BRANCH  19  21
ATOM     21  O   UNL d   1       2.081  -2.514   1.523  0.00  0.00    -0.322 OA
ATOM     22  C   UNL d   1       2.990  -3.240   2.353  0.00  0.00     0.213 C 
ENDBRANCH  19  21
ENDBRANCH   1  19
BRANCH   6  23
ATOM     23  O   UNL d   1      -2.593   0.583  -0.821  0.00  0.00    -0.353 OA
ATOM     24  C   UNL d   1      -3.228   1.821  -0.550  0.00  0.00     0.210 C 
ENDBRANCH   6  23
BRANCH   5  25
ATOM     25  O   UNL d   1      -1.289   2.150   1.329  0.00  0.00    -0.353 OA
ATOM     26  C   UNL d   1      -0.382   3.257   1.358  0.00  0.00     0.210 C 
ENDBRANCH   5  25
TORSDOF 8
