REMARK  3 active torsions:
REMARK  status: ('A' for Active; 'I' for Inactive)
REMARK    1  A    between atoms: C_7  and  C_3 
REMARK    2  A    between atoms: N_15  and  C_4 
REMARK    3  A    between atoms: C_14  and  C_6 
ROOT
ATOM      1  C   UNL d   1      -0.443   1.377  -0.078  0.00  0.00     0.066 C 
ATOM      2  C   UNL d   1      -0.867  -1.142  -0.082  0.00  0.00     0.081 C 
ATOM      3  C   UNL d   1       0.880   1.106  -0.021  0.00  0.00     0.077 C 
ATOM      4  C   UNL d   1       0.474  -1.300  -0.029  0.00  0.00     0.138 C 
ATOM      5  O   UNL d   1       1.333  -0.211   0.090  0.00  0.00    -0.300 OA
ATOM      6  C   UNL d   1      -1.470   0.256   0.012  0.00  0.00     0.112 C 
ATOM      7  C   UNL d   1      -0.886   2.732  -0.237  0.00  0.00     0.099 C 
ATOM      8  C   UNL d   1      -1.744  -2.283  -0.222  0.00  0.00     0.100 C 
ATOM      9  N   UNL d   1      -1.222   3.838  -0.387  0.00  0.00    -0.192 NA
ATOM     10  N   UNL d   1      -2.424  -3.209  -0.366  0.00  0.00    -0.191 NA
ENDROOT
BRANCH   3  11
ATOM     11  C   UNL d   1       1.929   2.154  -0.095  0.00  0.00     0.044 A 
ATOM     12  C   UNL d   1       3.240   2.031   0.637  0.00  0.00     0.012 A 
ATOM     13  C   UNL d   1       2.193   2.977   1.145  0.00  0.00     0.012 A 
ENDBRANCH   3  11
BRANCH   6  14
ATOM     14  C   UNL d   1      -2.594   0.456  -0.996  0.00  0.00    -0.044 A 
ATOM     15  C   UNL d   1      -3.888   0.744  -0.540  0.00  0.00     0.009 A 
ATOM     16  C   UNL d   1      -4.923   0.953  -1.449  0.00  0.00     0.007 A 
ATOM     17  C   UNL d   1      -4.686   0.878  -2.825  0.00  0.00    -0.062 A 
ATOM     18  C   UNL d   1      -3.397   0.590  -3.282  0.00  0.00     0.007 A 
ATOM     19  C   UNL d   1      -5.811   1.118  -3.787  0.00  0.00     0.048 C 
ATOM     20  C   UNL d   1      -2.356   0.381  -2.377  0.00  0.00     0.009 A 
ENDBRANCH   6  14
BRANCH   4  21
ATOM     21  N   UNL d   1       1.139  -2.504  -0.080  0.00  0.00    -0.282 NA
ATOM     22  H   UNL d   1       0.642  -3.271  -0.528  0.00  0.00     0.126 HD
ATOM     23  H   UNL d   1       2.099  -2.408  -0.406  0.00  0.00     0.126 HD
ENDBRANCH   4  21
TORSDOF 3
