REMARK  7 active torsions:
REMARK  status: ('A' for Active; 'I' for Inactive)
REMARK    1  A    between atoms: C_5  and  S_1 
REMARK    2  A    between atoms: C_8  and  S_1 
REMARK       I    between atoms: C_2  and  N_3 
REMARK    3  A    between atoms: C_4  and  C_2 
REMARK    4  A    between atoms: N_3  and  C_7 
REMARK    5  A    between atoms: C_19  and  C_8 
REMARK    6  A    between atoms: C_14  and  S_18 
REMARK    7  A    between atoms: S_18  and  C_19 
ROOT
ATOM      1  C   UNL d   1       1.807   0.985  -6.580  0.00  0.00     0.051 A 
ATOM      2  C   UNL d   1       1.620   1.526  -5.295  0.00  0.00     0.027 A 
ATOM      3  C   UNL d   1       1.669   1.808  -7.700  0.00  0.00     0.031 A 
ATOM      4  C   UNL d   1       1.131   2.828  -5.157  0.00  0.00     0.021 A 
ATOM      5  C   UNL d   1       1.242   3.132  -7.551  0.00  0.00     0.002 A 
ATOM      6  C   UNL d   1       0.933   3.626  -6.285  0.00  0.00     0.002 A 
ENDROOT
BRANCH   2   7
ATOM      7  S   UNL d   1       2.229   0.692  -3.826  0.00  0.00    -0.127 SA
BRANCH   7   8
ATOM      8  C   UNL d   1       4.053   0.751  -4.158  0.00  0.00     0.095 C 
BRANCH   8   9
ATOM      9  C   UNL d   1       4.594   2.167  -4.281  0.00  0.00     0.156 C 
BRANCH   9  10
ATOM     10  S   UNL d   1       6.364   2.164  -4.537  0.00  0.00     0.176 S 
ATOM     11  O   UNL d   1       7.002   1.672  -3.333  0.00  0.00    -0.223 OA
ATOM     12  O   UNL d   1       6.657   1.574  -5.830  0.00  0.00    -0.223 OA
BRANCH  10  13
ATOM     13  C   UNL d   1       6.736   3.907  -4.662  0.00  0.00     0.059 A 
ATOM     14  C   UNL d   1       7.111   4.621  -3.518  0.00  0.00     0.025 A 
ATOM     15  C   UNL d   1       7.334   5.998  -3.610  0.00  0.00     0.025 A 
ATOM     16  C   UNL d   1       7.195   6.645  -4.838  0.00  0.00     0.034 A 
ATOM     17  C   UNL d   1       6.859   5.924  -5.985  0.00  0.00     0.025 A 
ATOM     18 CL   UNL d   1       7.430   8.347  -4.937  0.00  0.00    -0.084 Cl
ATOM     19  C   UNL d   1       6.637   4.547  -5.902  0.00  0.00     0.025 A 
ENDBRANCH  10  13
ENDBRANCH   9  10
ENDBRANCH   8   9
ENDBRANCH   7   8
ENDBRANCH   2   7
BRANCH   1  20
ATOM     20  N   UNL d   1       2.018  -0.399  -6.730  0.00  0.00    -0.321 N 
ATOM     21  C   UNL d   1       2.955  -0.960  -7.574  0.00  0.00     0.263 C 
ATOM     22  O   UNL d   1       3.815  -0.279  -8.143  0.00  0.00    -0.267 OA
ATOM     23  H   UNL d   1       1.594  -1.010  -6.042  0.00  0.00     0.169 HD
BRANCH  21  24
ATOM     24  C   UNL d   1       2.905  -2.407  -7.714  0.00  0.00     0.072 A 
ATOM     25  S   UNL d   1       1.568  -3.340  -7.179  0.00  0.00    -0.097 SA
ATOM     26  C   UNL d   1       2.198  -4.769  -7.878  0.00  0.00     0.050 A 
ATOM     27  C   UNL d   1       3.433  -4.564  -8.448  0.00  0.00     0.009 A 
ATOM     28  C   UNL d   1       3.853  -3.208  -8.327  0.00  0.00     0.025 A 
ENDBRANCH  21  24
ENDBRANCH   1  20
TORSDOF 7
