REMARK  5 active torsions:
REMARK  status: ('A' for Active; 'I' for Inactive)
REMARK    1  A    between atoms: O_6  and  C_1 
REMARK    2  A    between atoms: N_4  and  C_2 
REMARK    3  A    between atoms: N_5  and  C_3 
REMARK    4  A    between atoms: C_8  and  O_6 
REMARK    5  A    between atoms: C_9  and  C_10 
ROOT
ATOM      1  C   UNL d   1       1.284  -0.398   0.225  0.00  0.00     0.142 A 
ATOM      2  C   UNL d   1       0.282  -1.223   0.750  0.00  0.00     0.140 A 
ATOM      3  C   UNL d   1       0.858   0.757  -0.442  0.00  0.00     0.140 A 
ATOM      4  C   UNL d   1      -1.490   0.195  -0.146  0.00  0.00     0.052 A 
ATOM      5  C   UNL d   1      -1.087  -0.955   0.549  0.00  0.00     0.055 A 
ATOM      6  C   UNL d   1      -0.502   1.064  -0.631  0.00  0.00     0.055 A 
ENDROOT
BRANCH   1   7
ATOM      7  O   UNL d   1       2.629  -0.572   0.422  0.00  0.00    -0.304 OA
BRANCH   7   8
ATOM      8  C   UNL d   1       3.268  -1.736   0.035  0.00  0.00     0.099 A 
ATOM      9  C   UNL d   1       4.550  -1.965   0.573  0.00  0.00     0.075 A 
ATOM     10  C   UNL d   1       5.273  -3.133   0.254  0.00  0.00    -0.015 A 
ATOM     11 CL   UNL d   1       5.211  -0.774   1.655  0.00  0.00    -0.081 Cl
ATOM     12  C   UNL d   1       6.679  -3.366   0.753  0.00  0.00     0.052 C 
ATOM     13  C   UNL d   1       4.645  -4.110  -0.554  0.00  0.00     0.047 A 
ATOM     14  C   UNL d   1       3.378  -3.878  -1.122  0.00  0.00    -0.037 A 
ATOM     15 CL   UNL d   1       5.452  -5.623  -0.840  0.00  0.00    -0.083 Cl
ATOM     16  C   UNL d   1       2.724  -2.663  -0.856  0.00  0.00     0.047 A 
ATOM     17  C   UNL d   1       2.643  -4.871  -1.984  0.00  0.00     0.050 C 
ENDBRANCH   7   8
ENDBRANCH   1   7
BRANCH   2  18
ATOM     18  N   UNL d   1       0.610  -2.392   1.545  0.00  0.00    -0.113 N 
ATOM     19  O   UNL d   1       1.272  -2.214   2.570  0.00  0.00    -0.532 OA
ATOM     20  O   UNL d   1       0.165  -3.476   1.141  0.00  0.00    -0.532 OA
ENDBRANCH   2  18
BRANCH   3  21
ATOM     21  N   UNL d   1       1.836   1.688  -0.973  0.00  0.00    -0.113 N 
ATOM     22  O   UNL d   1       2.613   1.258  -1.833  0.00  0.00    -0.532 OA
ATOM     23  O   UNL d   1       1.771   2.855  -0.568  0.00  0.00    -0.532 OA
ENDBRANCH   3  21
BRANCH   4  24
ATOM     24  C   UNL d   1      -2.956   0.512  -0.355  0.00  0.00     0.417 C 
ATOM     25  F   UNL d   1      -3.785  -0.454   0.123  0.00  0.00    -0.166 F 
ATOM     26  F   UNL d   1      -3.323   1.667   0.257  0.00  0.00    -0.166 F 
ATOM     27  F   UNL d   1      -3.263   0.659  -1.671  0.00  0.00    -0.166 F 
ENDBRANCH   4  24
TORSDOF 5
