REMARK  6 active torsions:
REMARK  status: ('A' for Active; 'I' for Inactive)
REMARK       I    between atoms: N_2  and  C_1 
REMARK    1  A    between atoms: C_3  and  C_1 
REMARK    2  A    between atoms: C_7  and  N_2 
REMARK    3  A    between atoms: O_17  and  C_9 
REMARK    4  A    between atoms: C_19  and  O_17 
REMARK    5  A    between atoms: O_18  and  C_20 
REMARK    6  A    between atoms: C_20  and  C_19 
ROOT
ATOM      1  C   UNL d   1       1.046   1.935   1.616  0.00  0.00     0.035 A 
ATOM      2  C   UNL d   1       2.121   4.069   3.107  0.00  0.00     0.069 A 
ATOM      3  C   UNL d   1       2.166   2.633   1.153  0.00  0.00     0.032 A 
ATOM      4  C   UNL d   1       0.452   2.335   2.811  0.00  0.00     0.032 A 
ATOM      5  C   UNL d   1       0.989   3.387   3.555  0.00  0.00     0.039 A 
ATOM      6  C   UNL d   1       2.699   3.693   1.897  0.00  0.00     0.039 A 
ENDROOT
BRANCH   1   7
ATOM      7  N   UNL d   1       0.463   0.841   0.947  0.00  0.00    -0.323 N 
ATOM      8  C   UNL d   1       1.009   0.132  -0.104  0.00  0.00     0.256 C 
ATOM      9  O   UNL d   1       2.122   0.295  -0.592  0.00  0.00    -0.267 OA
ATOM     10  H   UNL d   1      -0.380   0.471   1.368  0.00  0.00     0.169 HD
BRANCH   8  11
ATOM     11  C   UNL d   1       0.162  -0.968  -0.642  0.00  0.00     0.032 A 
ATOM     12  C   UNL d   1      -1.238  -0.896  -0.663  0.00  0.00     0.018 A 
ATOM     13  C   UNL d   1      -1.982  -1.939  -1.225  0.00  0.00     0.025 A 
ATOM     14  C   UNL d   1      -1.328  -3.047  -1.768  0.00  0.00     0.034 A 
ATOM     15  C   UNL d   1       0.063  -3.126  -1.751  0.00  0.00     0.025 A 
ATOM     16 CL   UNL d   1      -2.246  -4.314  -2.483  0.00  0.00    -0.084 Cl
ATOM     17  C   UNL d   1       0.807  -2.086  -1.190  0.00  0.00     0.018 A 
ENDBRANCH   8  11
ENDBRANCH   1   7
BRANCH   2  18
ATOM     18  O   UNL d   1       2.732   5.108   3.769  0.00  0.00    -0.349 OA
BRANCH  18  19
ATOM     19  C   UNL d   1       2.144   5.435   5.027  0.00  0.00     0.201 C 
BRANCH  19  20
ATOM     20  C   UNL d   1       2.881   6.572   5.718  0.00  0.00     0.193 C 
BRANCH  20  21
ATOM     21  O   UNL d   1       2.199   6.819   6.950  0.00  0.00    -0.394 OA
ATOM     22  C   UNL d   1       2.789   7.873   7.692  0.00  0.00     0.201 C 
ENDBRANCH  20  21
ENDBRANCH  19  20
ENDBRANCH  18  19
ENDBRANCH   2  18
TORSDOF 6
