REMARK  3 active torsions:
REMARK  status: ('A' for Active; 'I' for Inactive)
REMARK    1  A    between atoms: C_3  and  C_1 
REMARK    2  A    between atoms: C_9  and  C_2 
REMARK    3  A    between atoms: C_14  and  C_6 
ROOT
ATOM      1  C   UNL d   1       1.178   0.662  -0.034  0.00  0.00     0.058 A 
ATOM      2  C   UNL d   1      -0.131   1.100  -0.021  0.00  0.00     0.174 A 
ATOM      3  O   UNL d   1      -0.963   0.008  -0.019  0.00  0.00    -0.304 OA
ATOM      4  C   UNL d   1       1.138  -0.756  -0.092  0.00  0.00     0.056 A 
ATOM      5  C   UNL d   1      -0.192  -1.119  -0.036  0.00  0.00     0.087 A 
ENDROOT
BRANCH   1   6
ATOM      6  C   UNL d   1       2.404   1.494   0.041  0.00  0.00     0.177 A 
ATOM      7  N   UNL d   1       3.626   0.999  -0.030  0.00  0.00    -0.277 N 
ATOM      8  N   UNL d   1       4.500   2.055   0.136  0.00  0.00    -0.281 N 
ATOM      9  HN  UNL d   1       3.877   0.022  -0.179  1.00  0.00     0.189 HD
ATOM     10  C   UNL d   1       3.752   3.121   0.307  0.00  0.00     0.136 A 
ATOM     11  HN  UNL d   1       5.519   2.015   0.128  1.00  0.00     0.189 HD
ATOM     12  O   UNL d   1       2.417   2.849   0.247  0.00  0.00    -0.278 OA
ATOM     13  C   UNL d   1       4.145   4.517   0.569  0.00  0.00     0.099 C 
ENDBRANCH   1   6
BRANCH   2  14
ATOM     14  C   UNL d   1      -0.807   2.420   0.010  0.00  0.00     0.440 C 
ATOM     15  F   UNL d   1       0.033   3.468  -0.174  0.00  0.00    -0.164 F 
ATOM     16  F   UNL d   1      -1.754   2.523  -0.960  0.00  0.00    -0.164 F 
ATOM     17  F   UNL d   1      -1.437   2.632   1.194  0.00  0.00    -0.164 F 
ENDBRANCH   2  14
BRANCH   5  18
ATOM     18  C   UNL d   1      -0.901  -2.394   0.049  0.00  0.00    -0.002 A 
ATOM     19  C   UNL d   1      -0.194  -3.607   0.011  0.00  0.00     0.016 A 
ATOM     20  C   UNL d   1      -0.858  -4.831   0.153  0.00  0.00     0.024 A 
ATOM     21  C   UNL d   1      -2.238  -4.854   0.332  0.00  0.00     0.034 A 
ATOM     22  C   UNL d   1      -2.961  -3.665   0.358  0.00  0.00     0.024 A 
ATOM     23 CL   UNL d   1      -3.051  -6.356   0.532  0.00  0.00    -0.084 Cl
ATOM     24  C   UNL d   1      -2.295  -2.443   0.215  0.00  0.00     0.016 A 
ENDBRANCH   5  18
TORSDOF 3
