REMARK  4 active torsions:
REMARK  status: ('A' for Active; 'I' for Inactive)
REMARK    1  A    between atoms: N_4  and  C_1 
REMARK    2  A    between atoms: C_2  and  C_7 
REMARK       I    between atoms: C_3  and  N_4 
REMARK    3  A    between atoms: C_8  and  C_3 
REMARK    4  A    between atoms: N_5  and  C_6 
ROOT
ATOM      1  C   UNL d   1      -1.695   3.307  -0.913  0.00  0.00     0.256 C 
ATOM      2  N   UNL d   1      -1.720   2.421   0.143  0.00  0.00    -0.321 N 
ATOM      3  O   UNL d   1      -2.114   4.450  -0.727  0.00  0.00    -0.267 OA
ATOM      4  H   UNL d   1      -2.078   2.834   0.996  0.00  0.00     0.169 HD
ENDROOT
BRANCH   2   5
ATOM      5  C   UNL d   1      -1.133   1.154   0.252  0.00  0.00     0.062 A 
ATOM      6  C   UNL d   1      -1.904  -0.026   0.196  0.00  0.00     0.065 A 
ATOM      7  C   UNL d   1      -1.240  -1.263   0.128  0.00  0.00     0.033 A 
ATOM      8  C   UNL d   1       0.155  -1.326   0.170  0.00  0.00     0.009 A 
ATOM      9  C   UNL d   1       0.920  -0.160   0.273  0.00  0.00    -0.060 A 
ATOM     10  C   UNL d   1       0.266   1.078   0.297  0.00  0.00     0.038 A 
ATOM     11  C   UNL d   1       2.415  -0.255   0.322  0.00  0.00     0.048 C 
BRANCH   6  12
ATOM     12  N   UNL d   1      -3.328  -0.009   0.085  0.00  0.00    -0.331 N 
ATOM     13  C   UNL d   1      -4.205   0.921   0.609  0.00  0.00     0.097 A 
ATOM     14  C   UNL d   1      -5.490   0.611   0.222  0.00  0.00     0.019 A 
ATOM     15  C   UNL d   1      -5.418  -0.564  -0.550  0.00  0.00     0.019 A 
ATOM     16  C   UNL d   1      -4.093  -0.938  -0.601  0.00  0.00     0.097 A 
ENDBRANCH   6  12
ENDBRANCH   2   5
BRANCH   1  17
ATOM     17  C   UNL d   1      -1.182   2.938  -2.269  0.00  0.00     0.033 A 
ATOM     18  C   UNL d   1      -1.185   1.637  -2.783  0.00  0.00     0.033 A 
ATOM     19  C   UNL d   1      -0.609   1.343  -4.030  0.00  0.00     0.048 A 
ATOM     20  C   UNL d   1      -0.105   2.393  -4.807  0.00  0.00     0.016 A 
ATOM     21  C   UNL d   1      -0.169   3.706  -4.342  0.00  0.00     0.002 A 
ATOM     22  C   UNL d   1      -0.699   3.974  -3.078  0.00  0.00     0.017 A 
BRANCH  19  23
ATOM     23  C   UNL d   1      -0.503  -0.084  -4.512  0.00  0.00     0.417 C 
ATOM     24  F   UNL d   1      -1.079  -0.991  -3.674  0.00  0.00    -0.166 F 
ATOM     25  F   UNL d   1      -1.088  -0.275  -5.727  0.00  0.00    -0.166 F 
ATOM     26  F   UNL d   1       0.792  -0.483  -4.654  0.00  0.00    -0.166 F 
ENDBRANCH  19  23
ENDBRANCH   1  17
TORSDOF 4
