REMARK  5 active torsions:
REMARK  status: ('A' for Active; 'I' for Inactive)
REMARK    1  A    between atoms: C_2  and  N_1 
REMARK    2  A    between atoms: C_8  and  C_4 
REMARK    3  A    between atoms: C_6  and  C_15 
REMARK    4  A    between atoms: O_14  and  C_9 
REMARK    5  A    between atoms: C_15  and  O_14 
ROOT
ATOM      1  C   UNL d   1       0.117   1.773  -3.224  0.00  0.00    -0.035 A 
ATOM      2  C   UNL d   1      -1.205   2.858  -5.461  0.00  0.00     0.069 A 
ATOM      3  C   UNL d   1      -0.976   2.632  -3.058  0.00  0.00     0.014 A 
ATOM      4  C   UNL d   1       0.581   1.521  -4.520  0.00  0.00     0.014 A 
ATOM      5  C   UNL d   1      -0.070   2.065  -5.631  0.00  0.00     0.037 A 
ATOM      6  C   UNL d   1      -1.631   3.170  -4.171  0.00  0.00     0.037 A 
ENDROOT
BRANCH   1   7
ATOM      7  C   UNL d   1       0.827   1.150  -2.096  0.00  0.00     0.035 C 
ATOM      8  C   UNL d   1       0.228   0.815  -0.947  0.00  0.00     0.168 C 
BRANCH   8   9
ATOM      9  N   UNL d   1       0.987   0.166   0.096  0.00  0.00    -0.127 N 
ATOM     10  O   UNL d   1       0.362  -0.087   1.133  0.00  0.00    -0.532 OA
ATOM     11  O   UNL d   1       2.180  -0.095  -0.101  0.00  0.00    -0.532 OA
ENDBRANCH   8   9
ENDBRANCH   1   7
BRANCH   2  12
ATOM     12  O   UNL d   1      -1.959   3.377  -6.479  0.00  0.00    -0.348 OA
BRANCH  12  13
ATOM     13  C   UNL d   1      -1.880   2.660  -7.713  0.00  0.00     0.202 C 
BRANCH  13  14
ATOM     14  C   UNL d   1      -3.110   2.961  -8.514  0.00  0.00    -0.011 C 
ATOM     15  C   UNL d   1      -3.998   2.033  -8.894  0.00  0.00     0.009 C 
ENDBRANCH  13  14
ENDBRANCH  12  13
ENDBRANCH   2  12
TORSDOF 5
