REMARK  4 active torsions:
REMARK  status: ('A' for Active; 'I' for Inactive)
REMARK       I    between atoms: N_2  and  C_1 
REMARK    1  A    between atoms: C_3  and  C_1 
REMARK       I    between atoms: C_4  and  N_2 
REMARK       I    between atoms: N_5  and  C_4 
REMARK    2  A    between atoms: C_9  and  N_5 
REMARK    3  A    between atoms: O_6  and  C_10 
REMARK    4  A    between atoms: C_7  and  O_6 
ROOT
ATOM      1  C   UNL d   1      -0.784   0.992   1.449  0.00  0.00     0.265 C 
ATOM      2  N   UNL d   1       0.387   1.210   0.737  0.00  0.00    -0.275 N 
ATOM      3  C   UNL d   1       0.951   2.435   0.484  0.00  0.00     0.327 C 
ATOM      4  N   UNL d   1       2.258   2.445   0.052  0.00  0.00    -0.306 N 
ATOM      5  O   UNL d   1      -1.470   1.882   1.934  0.00  0.00    -0.267 OA
ATOM      6  O   UNL d   1       0.422   3.526   0.681  0.00  0.00    -0.247 OA
ATOM      7  H   UNL d   1       0.911   0.406   0.440  0.00  0.00     0.173 HD
ATOM      8  H   UNL d   1       2.683   3.341   0.258  0.00  0.00     0.171 HD
ENDROOT
BRANCH   4   9
ATOM      9  C   UNL d   1       3.105   1.355  -0.206  0.00  0.00     0.070 C 
ATOM     10  C   UNL d   1       2.777   0.297  -1.071  0.00  0.00     0.102 C 
ATOM     11  C   UNL d   1       3.585  -0.837  -1.124  0.00  0.00     0.039 C 
ATOM     12  C   UNL d   1       4.765  -0.888  -0.380  0.00  0.00     0.003 C 
ATOM     13  C   UNL d   1       5.158   0.215   0.376  0.00  0.00     0.002 C 
ATOM     14  C   UNL d   1       4.340   1.344   0.448  0.00  0.00     0.032 C 
BRANCH  10  15
ATOM     15  O   UNL d   1       1.653   0.280  -1.867  0.00  0.00    -0.307 OA
BRANCH  15  16
ATOM     16  C   UNL d   1       1.400   1.334  -2.730  0.00  0.00     0.098 A 
ATOM     17  C   UNL d   1       0.078   1.476  -3.186  0.00  0.00     0.069 A 
ATOM     18  C   UNL d   1      -0.270   2.512  -4.058  0.00  0.00     0.050 A 
ATOM     19 CL   UNL d   1      -1.160   0.375  -2.689  0.00  0.00    -0.081 Cl
ATOM     20  C   UNL d   1       0.702   3.415  -4.474  0.00  0.00     0.035 A 
ATOM     21  C   UNL d   1       2.020   3.283  -4.043  0.00  0.00     0.026 A 
ATOM     22 CL   UNL d   1       0.279   4.697  -5.542  0.00  0.00    -0.084 Cl
ATOM     23  C   UNL d   1       2.374   2.231  -3.190  0.00  0.00     0.041 A 
ENDBRANCH  15  16
ENDBRANCH  10  15
ENDBRANCH   4   9
BRANCH   1  24
ATOM     24  C   UNL d   1      -1.191  -0.433   1.653  0.00  0.00     0.109 A 
ATOM     25  C   UNL d   1      -0.375  -1.509   1.296  0.00  0.00     0.135 A 
ATOM     26  F   UNL d   1       0.834  -1.304   0.750  0.00  0.00    -0.205 F 
ATOM     27  C   UNL d   1      -0.768  -2.834   1.502  0.00  0.00     0.043 A 
ATOM     28  C   UNL d   1      -2.003  -3.109   2.081  0.00  0.00     0.006 A 
ATOM     29  C   UNL d   1      -2.831  -2.054   2.452  0.00  0.00     0.043 A 
ATOM     30  C   UNL d   1      -2.426  -0.732   2.239  0.00  0.00     0.135 A 
ATOM     31  F   UNL d   1      -3.277   0.231   2.620  0.00  0.00    -0.205 F 
ENDBRANCH   1  24
TORSDOF 4
