REMARK  5 active torsions:
REMARK  status: ('A' for Active; 'I' for Inactive)
REMARK    1  A    between atoms: C_8  and  C_1 
REMARK    2  A    between atoms: C_12  and  C_3 
REMARK    3  A    between atoms: C_9  and  N_4 
REMARK    4  A    between atoms: N_7  and  C_10 
REMARK    5  A    between atoms: O_19  and  C_8 
ROOT
ATOM      1  C   UNL d   1      -0.078  -1.227   0.025  0.00  0.00     0.149 C 
ATOM      2  N   UNL d   1      -0.199   0.947   0.187  0.00  0.00    -0.014 NA
ATOM      3  C   UNL d   1       1.238  -0.779  -0.034  0.00  0.00     0.100 C 
ATOM      4  N   UNL d   1       1.097   0.611  -0.025  0.00  0.00    -0.237 N 
ATOM      5  N   UNL d   1      -0.928  -0.155   0.131  0.00  0.00    -0.275 N 
ATOM      6  HN  UNL d   1      -1.946  -0.200   0.161  1.00  0.00     0.184 HD
ENDROOT
BRANCH   4   7
ATOM      7  C   UNL d   1       2.075   1.632  -0.178  0.00  0.00     0.055 A 
ATOM      8  C   UNL d   1       3.201   1.434  -0.992  0.00  0.00     0.034 A 
ATOM      9  C   UNL d   1       4.223   2.384  -1.016  0.00  0.00     0.038 A 
ATOM     10  C   UNL d   1       4.114   3.538  -0.229  0.00  0.00     0.103 A 
ATOM     11  C   UNL d   1       2.961   3.774   0.533  0.00  0.00     0.038 A 
ATOM     12  C   UNL d   1       1.931   2.828   0.541  0.00  0.00     0.034 A 
BRANCH  10  13
ATOM     13  N   UNL d   1       5.231   4.489  -0.179  0.00  0.00    -0.116 N 
ATOM     14  O   UNL d   1       5.115   5.474   0.562  0.00  0.00    -0.532 OA
ATOM     15  O   UNL d   1       6.231   4.240  -0.868  0.00  0.00    -0.532 OA
ENDBRANCH  10  13
ENDBRANCH   4   7
BRANCH   3  16
ATOM     16  C   UNL d   1       2.518  -1.504  -0.018  0.00  0.00    -0.005 A 
ATOM     17  C   UNL d   1       2.738  -2.595  -0.867  0.00  0.00     0.014 A 
ATOM     18  C   UNL d   1       3.978  -3.240  -0.896  0.00  0.00     0.001 A 
ATOM     19  C   UNL d   1       5.022  -2.790  -0.095  0.00  0.00     0.000 A 
ATOM     20  C   UNL d   1       4.817  -1.718   0.769  0.00  0.00     0.001 A 
ATOM     21  C   UNL d   1       3.566  -1.101   0.829  0.00  0.00     0.014 A 
ENDBRANCH   3  16
BRANCH   1  22
ATOM     22  C   UNL d   1      -0.616  -2.581   0.038  0.00  0.00     0.197 C 
ATOM     23  O   UNL d   1       0.043  -3.605   0.136  0.00  0.00    -0.645 OA
BRANCH  22  24
ATOM     24  O   UNL d   1      -1.972  -2.611  -0.091  0.00  0.00    -0.772 OA
ATOM     25  H   UNL d   1      -2.326  -1.698  -0.153  0.00  0.00     0.167 HD
ENDBRANCH  22  24
ENDBRANCH   1  22
TORSDOF 5
