REMARK  5 active torsions:
REMARK  status: ('A' for Active; 'I' for Inactive)
REMARK    1  A    between atoms: C_7  and  C_1 
REMARK    2  A    between atoms: N_14  and  C_3 
REMARK    3  A    between atoms: C_9  and  C_7 
REMARK    4  A    between atoms: C_12  and  C_7 
REMARK    5  A    between atoms: N_8  and  C_9 
ROOT
ATOM      1  C   UNL d   1      -0.032   1.650  -0.010  0.00  0.00     0.059 C 
ATOM      2  N   UNL d   1      -1.244  -0.337  -0.464  0.00  0.00    -0.294 N 
ATOM      3  C   UNL d   1      -1.146   1.047  -0.499  0.00  0.00     0.096 C 
ATOM      4  N   UNL d   1       0.946  -0.560   0.367  0.00  0.00    -0.270 N 
ATOM      5  C   UNL d   1      -0.219  -1.177  -0.035  0.00  0.00     0.332 C 
ATOM      6  C   UNL d   1       1.057   0.793   0.532  0.00  0.00     0.261 C 
ATOM      7  O   UNL d   1      -0.347  -2.404   0.005  0.00  0.00    -0.246 OA
ATOM      8  O   UNL d   1       2.009   1.312   1.112  0.00  0.00    -0.267 OA
ATOM      9  C   UNL d   1      -2.449  -1.048  -0.884  0.00  0.00     0.162 C 
ATOM     10  C   UNL d   1       2.022  -1.421   0.821  0.00  0.00     0.164 C 
ENDROOT
BRANCH   1  11
ATOM     11  C   UNL d   1       0.162   3.179   0.082  0.00  0.00     0.084 C 
BRANCH  11  12
ATOM     12  C   UNL d   1       1.570   3.801  -0.033  0.00  0.00     0.215 C 
BRANCH  12  13
ATOM     13  N   UNL d   1       2.206   3.442  -1.341  0.00  0.00    -0.155 N 
ATOM     14  O   UNL d   1       3.421   3.208  -1.331  0.00  0.00    -0.537 OA
ATOM     15  O   UNL d   1       1.495   3.471  -2.354  0.00  0.00    -0.537 OA
ENDBRANCH  12  13
ENDBRANCH  11  12
BRANCH  11  16
ATOM     16  C   UNL d   1      -0.532   3.729   1.339  0.00  0.00    -0.048 A 
ATOM     17  C   UNL d   1      -0.152   3.317   2.625  0.00  0.00     0.008 A 
ATOM     18  C   UNL d   1      -0.824   3.791   3.755  0.00  0.00     0.007 A 
ATOM     19  C   UNL d   1      -1.879   4.699   3.628  0.00  0.00    -0.062 A 
ATOM     20  C   UNL d   1      -2.255   5.123   2.351  0.00  0.00     0.007 A 
ATOM     21  C   UNL d   1      -2.599   5.184   4.852  0.00  0.00     0.048 C 
ATOM     22  C   UNL d   1      -1.586   4.649   1.218  0.00  0.00     0.008 A 
ENDBRANCH  11  16
ENDBRANCH   1  11
BRANCH   3  23
ATOM     23  N   UNL d   1      -2.196   1.795  -1.011  0.00  0.00    -0.288 NA
ATOM     24  H   UNL d   1      -3.105   1.424  -0.764  0.00  0.00     0.125 HD
ATOM     25  H   UNL d   1      -2.176   2.784  -0.803  0.00  0.00     0.125 HD
ENDBRANCH   3  23
TORSDOF 5
