REMARK  2 active torsions:
REMARK  status: ('A' for Active; 'I' for Inactive)
REMARK    1  A    between atoms: C_2  and  C_1 
REMARK       I    between atoms: N_3  and  C_1 
REMARK    2  A    between atoms: C_10  and  N_3 
ROOT
ATOM      1  C   UNL d   1       1.002  -0.208   2.264  0.00  0.00     0.274 C 
ATOM      2  N   UNL d   1       0.157  -0.397   1.182  0.00  0.00    -0.322 N 
ATOM      3  O   UNL d   1       0.695  -0.234   3.450  0.00  0.00    -0.266 OA
ATOM      4  H   UNL d   1       0.618  -0.464   0.280  0.00  0.00     0.169 HD
ENDROOT
BRANCH   2   5
ATOM      5  C   UNL d   1      -1.250  -0.474   1.219  0.00  0.00     0.037 A 
ATOM      6  C   UNL d   1      -1.999  -0.148   2.356  0.00  0.00     0.069 A 
ATOM      7  C   UNL d   1      -3.375  -0.193   2.267  0.00  0.00     0.107 A 
ATOM      8  O   UNL d   1      -4.242   0.132   3.264  0.00  0.00    -0.323 OA
ATOM      9  C   UNL d   1      -4.018  -0.565   1.112  0.00  0.00     0.105 A 
ATOM     10  C   UNL d   1      -5.504  -0.046   2.592  0.00  0.00     0.352 A 
ATOM     11  O   UNL d   1      -5.371  -0.531   1.239  0.00  0.00    -0.323 OA
ATOM     12  C   UNL d   1      -3.317  -0.911  -0.021  0.00  0.00     0.042 A 
ATOM     13  C   UNL d   1      -1.917  -0.852   0.033  0.00  0.00     0.032 A 
ENDBRANCH   2   5
BRANCH   1  14
ATOM     14  C   UNL d   1       2.422   0.042   1.891  0.00  0.00     0.116 A 
ATOM     15  N   UNL d   1       2.720   0.153   0.563  0.00  0.00    -0.359 N 
ATOM     16  C   UNL d   1       4.014   0.458   0.301  0.00  0.00     0.105 A 
ATOM     17  HN  UNL d   1       2.025   0.017  -0.172  1.00  0.00     0.165 HD
ATOM     18  C   UNL d   1       4.965   0.627   1.299  0.00  0.00     0.104 A 
ATOM     19  N   UNL d   1       4.670   0.495   2.612  0.00  0.00    -0.372 N 
ATOM     20  C   UNL d   1       3.374   0.203   2.888  0.00  0.00     0.122 A 
ATOM     21  HN  UNL d   1       5.373   0.606   3.344  1.00  0.00     0.164 HD
ENDBRANCH   1  14
TORSDOF 2
