REMARK  6 active torsions:
REMARK  status: ('A' for Active; 'I' for Inactive)
REMARK    1  A    between atoms: N_12  and  C_7 
REMARK    2  A    between atoms: N_15  and  N_12 
REMARK       I    between atoms: C_14  and  N_15 
REMARK    3  A    between atoms: C_19  and  C_14 
REMARK    4  A    between atoms: C_16  and  C_20 
REMARK    5  A    between atoms: O_21  and  C_16 
REMARK    6  A    between atoms: C_20  and  C_19 
ROOT
ATOM      1  C   UNL d   1      -2.227   0.208  -0.198  0.00  0.00     0.066 A 
ATOM      2  C   UNL d   1      -1.493  -0.944  -0.425  0.00  0.00     0.137 A 
ATOM      3  N   UNL d   1      -3.690  -1.532  -0.491  0.00  0.00    -0.307 N 
ATOM      4  HN  UNL d   1      -4.544  -2.084  -0.579  1.00  0.00     0.186 HD
ATOM      5  N   UNL d   1      -2.407  -1.948  -0.598  0.00  0.00    -0.281 N 
ATOM      6  C   UNL d   1      -3.569  -0.223  -0.241  0.00  0.00     0.126 A 
ATOM      7  C   UNL d   1      -1.514   1.399  -0.000  0.00  0.00     0.115 A 
ATOM      8  N   UNL d   1      -0.153  -1.050  -0.467  0.00  0.00    -0.337 N 
ATOM      9  HN  UNL d   1       0.351  -1.920  -0.636  1.00  0.00     0.168 HD
ATOM     10  N   UNL d   1      -0.152   1.333  -0.047  0.00  0.00    -0.341 N 
ATOM     11  HN  UNL d   1       0.411   2.174   0.076  1.00  0.00     0.167 HD
ATOM     12  C   UNL d   1       0.436   0.139  -0.259  0.00  0.00     0.183 A 
ATOM     13  C   UNL d   1      -2.131  -3.334  -0.880  0.00  0.00     0.179 C 
ENDROOT
BRANCH   7  14
ATOM     14  N   UNL d   1      -2.136   2.633   0.257  0.00  0.00    -0.187 NA
ATOM     15  H   UNL d   1      -3.115   2.689  -0.016  0.00  0.00     0.154 HD
BRANCH  14  16
ATOM     16  N   UNL d   1      -1.368   3.728  -0.183  0.00  0.00    -0.286 N 
ATOM     17  C   UNL d   1      -1.942   4.981  -0.102  0.00  0.00     0.232 C 
ATOM     18  O   UNL d   1      -3.104   5.189   0.239  0.00  0.00    -0.272 OA
ATOM     19  H   UNL d   1      -0.359   3.606  -0.068  0.00  0.00     0.184 HD
BRANCH  17  20
ATOM     20  C   UNL d   1      -1.022   6.105  -0.533  0.00  0.00     0.114 C 
BRANCH  20  21
ATOM     21  C   UNL d   1      -0.783   7.085   0.606  0.00  0.00     0.119 C 
BRANCH  21  22
ATOM     22  C   UNL d   1      -0.017   6.429   1.724  0.00  0.00     0.139 C 
ATOM     23  O   UNL d   1       0.733   5.476   1.566  0.00  0.00    -0.650 OA
BRANCH  22  24
ATOM     24  O   UNL d   1      -0.195   7.023   2.920  0.00  0.00    -0.776 OA
ATOM     25  H   UNL d   1      -0.837   7.760   2.910  0.00  0.00     0.167 HD
ENDBRANCH  22  24
ENDBRANCH  21  22
ENDBRANCH  20  21
ENDBRANCH  17  20
ENDBRANCH  14  16
ENDBRANCH   7  14
TORSDOF 6
