REMARK  7 active torsions:
REMARK  status: ('A' for Active; 'I' for Inactive)
REMARK    1  A    between atoms: C_2  and  S_1 
REMARK    2  A    between atoms: C_3  and  S_1 
REMARK    3  A    between atoms: C_13  and  C_3 
REMARK    4  A    between atoms: S_11  and  C_13 
REMARK    5  A    between atoms: C_15  and  S_11 
REMARK    6  A    between atoms: O_14  and  C_16 
REMARK    7  A    between atoms: C_16  and  C_15 
ROOT
ATOM      1  S   UNL d   1       1.015  -0.160  -0.053  0.00  0.00     0.176 S 
ATOM      2  O   UNL d   1       2.387  -0.023   0.398  0.00  0.00    -0.223 OA
ATOM      3  O   UNL d   1       0.685  -0.099  -1.464  0.00  0.00    -0.223 OA
ENDROOT
BRANCH   1   4
ATOM      4  C   UNL d   1       0.058   1.102   0.766  0.00  0.00     0.059 A 
ATOM      5  C   UNL d   1       0.523   1.658   1.962  0.00  0.00     0.025 A 
ATOM      6  C   UNL d   1      -0.230   2.651   2.596  0.00  0.00     0.025 A 
ATOM      7  C   UNL d   1      -1.428   3.086   2.027  0.00  0.00     0.034 A 
ATOM      8  C   UNL d   1      -1.879   2.544   0.823  0.00  0.00     0.025 A 
ATOM      9 CL   UNL d   1      -2.354   4.303   2.815  0.00  0.00    -0.084 Cl
ATOM     10  C   UNL d   1      -1.132   1.551   0.183  0.00  0.00     0.025 A 
ENDBRANCH   1   4
BRANCH   1  11
ATOM     11  C   UNL d   1       0.352  -1.668   0.616  0.00  0.00     0.156 C 
BRANCH  11  12
ATOM     12  C   UNL d   1       1.014  -2.876  -0.025  0.00  0.00     0.089 C 
BRANCH  12  13
ATOM     13  S   UNL d   1       0.290  -4.389   0.698  0.00  0.00    -0.166 SA
BRANCH  13  14
ATOM     14  C   UNL d   1       1.246  -5.643  -0.217  0.00  0.00     0.100 C 
BRANCH  14  15
ATOM     15  C   UNL d   1       0.821  -7.045   0.213  0.00  0.00     0.174 C 
BRANCH  15  16
ATOM     16  O   UNL d   1       1.581  -8.015  -0.501  0.00  0.00    -0.400 OA
ATOM     17  H   UNL d   1       1.282  -8.890  -0.195  0.00  0.00     0.209 HD
ENDBRANCH  15  16
ENDBRANCH  14  15
ENDBRANCH  13  14
ENDBRANCH  12  13
ENDBRANCH  11  12
ENDBRANCH   1  11
TORSDOF 7
