REMARK  5 active torsions:
REMARK  status: ('A' for Active; 'I' for Inactive)
REMARK    1  A    between atoms: N_5  and  C_1 
REMARK    2  A    between atoms: N_6  and  C_1 
REMARK       I    between atoms: C_4  and  N_9 
REMARK    3  A    between atoms: C_8  and  C_4 
REMARK    4  A    between atoms: N_9  and  N_5 
REMARK    5  A    between atoms: C_11  and  N_6 
ROOT
ATOM      1  N   UNL d   1       0.532  -0.878  -5.638  0.00  0.00    -0.197 NA
ATOM      2  C   UNL d   1       0.681   0.199  -5.245  0.00  0.00     0.068 C 
ATOM      3  C   UNL d   1       0.888   1.538  -4.689  0.00  0.00     0.228 C 
ENDROOT
BRANCH   3   4
ATOM      4  C   UNL d   1       0.479   1.619  -3.235  0.00  0.00     0.249 C 
ATOM      5  N   UNL d   1       0.816   0.537  -2.442  0.00  0.00    -0.267 N 
ATOM      6  H   UNL d   1       1.091  -0.364  -2.832  0.00  0.00     0.190 HD
ATOM      7  O   UNL d   1      -0.063   2.624  -2.772  0.00  0.00    -0.271 OA
BRANCH   5   8
ATOM      8  N   UNL d   1       0.261   0.475  -1.158  0.00  0.00    -0.274 N 
ATOM      9  H   UNL d   1      -0.376   1.237  -0.913  0.00  0.00     0.189 HD
BRANCH   8  10
ATOM     10  C   UNL d   1       0.902  -0.162  -0.120  0.00  0.00     0.191 C 
ATOM     11  S   UNL d   1       2.485  -0.696  -0.142  0.00  0.00    -0.039 SA
BRANCH  10  12
ATOM     12  N   UNL d   1       0.146  -0.342   1.012  0.00  0.00    -0.332 N 
ATOM     13  H   UNL d   1       0.677  -0.524   1.859  0.00  0.00     0.168 HD
BRANCH  12  14
ATOM     14  C   UNL d   1      -1.234  -0.644   1.075  0.00  0.00     0.034 A 
ATOM     15  C   UNL d   1      -1.960  -1.099  -0.035  0.00  0.00     0.032 A 
ATOM     16  C   UNL d   1      -3.304  -1.454   0.091  0.00  0.00     0.044 A 
ATOM     17  C   UNL d   1      -3.923  -1.349   1.328  0.00  0.00     0.116 A 
ATOM     18  C   UNL d   1      -3.218  -0.912   2.444  0.00  0.00     0.044 A 
ATOM     19  F   UNL d   1      -5.213  -1.688   1.450  0.00  0.00    -0.206 F 
ATOM     20  C   UNL d   1      -1.866  -0.575   2.322  0.00  0.00     0.032 A 
ENDBRANCH  12  14
ENDBRANCH  10  12
ENDBRANCH   8  10
ENDBRANCH   5   8
ENDBRANCH   3   4
TORSDOF 5
