REMARK  5 active torsions:
REMARK  status: ('A' for Active; 'I' for Inactive)
REMARK    1  A    between atoms: C_6  and  N_1 
REMARK    2  A    between atoms: S_7  and  C_5 
REMARK    3  A    between atoms: C_12  and  S_7 
REMARK    4  A    between atoms: C_14  and  C_12 
REMARK    5  A    between atoms: O_23  and  C_15 
ROOT
ATOM      1  N   UNL d   1       0.029   0.867  -0.035  0.00  0.00    -0.251 N 
ATOM      2  C   UNL d   1      -1.088   0.069   0.006  0.00  0.00     0.232 C 
ATOM      3  C   UNL d   1       1.177   0.122   0.085  0.00  0.00     0.245 C 
ATOM      4  C   UNL d   1      -0.671  -1.374  -0.005  0.00  0.00     0.128 C 
ATOM      5  C   UNL d   1       0.846  -1.339  -0.068  0.00  0.00     0.149 C 
ATOM      6  O   UNL d   1      -2.267   0.399   0.057  0.00  0.00    -0.273 OA
ATOM      7  O   UNL d   1       2.308   0.520   0.347  0.00  0.00    -0.271 OA
ENDROOT
BRANCH   5   8
ATOM      8  S   UNL d   1       1.486  -1.990  -1.654  0.00  0.00    -0.150 SA
BRANCH   8   9
ATOM      9  C   UNL d   1       3.280  -1.739  -1.398  0.00  0.00     0.113 C 
BRANCH   9  10
ATOM     10  C   UNL d   1       4.079  -2.266  -2.564  0.00  0.00    -0.049 A 
ATOM     11  C   UNL d   1       4.379  -1.425  -3.648  0.00  0.00     0.009 A 
ATOM     12  C   UNL d   1       5.110  -1.904  -4.737  0.00  0.00     0.024 A 
ATOM     13  C   UNL d   1       5.541  -3.228  -4.750  0.00  0.00     0.034 A 
ATOM     14  C   UNL d   1       5.252  -4.075  -3.682  0.00  0.00     0.024 A 
ATOM     15 CL   UNL d   1       6.434  -3.822  -6.096  0.00  0.00    -0.084 Cl
ATOM     16  C   UNL d   1       4.521  -3.596  -2.591  0.00  0.00     0.009 A 
ENDBRANCH   9  10
ENDBRANCH   8   9
ENDBRANCH   5   8
BRANCH   1  17
ATOM     17  C   UNL d   1       0.029   2.290  -0.066  0.00  0.00     0.045 A 
ATOM     18  C   UNL d   1      -1.043   3.045   0.423  0.00  0.00     0.033 A 
ATOM     19  C   UNL d   1      -1.006   4.449   0.413  0.00  0.00     0.039 A 
ATOM     20  C   UNL d   1       0.090   5.122  -0.120  0.00  0.00     0.068 A 
ATOM     21  C   UNL d   1       1.146   4.381  -0.643  0.00  0.00     0.039 A 
ATOM     22  C   UNL d   1       1.121   2.983  -0.608  0.00  0.00     0.033 A 
BRANCH  20  23
ATOM     23  O   UNL d   1       0.250   6.477  -0.197  0.00  0.00    -0.356 OA
ATOM     24  C   UNL d   1      -0.764   7.277   0.398  0.00  0.00     0.210 C 
ENDBRANCH  20  23
ENDBRANCH   1  17
TORSDOF 5
