REMARK  6 active torsions:
REMARK  status: ('A' for Active; 'I' for Inactive)
REMARK    1  A    between atoms: N_4  and  C_1 
REMARK    2  A    between atoms: N_5  and  C_1 
REMARK    3  A    between atoms: N_3  and  C_7 
REMARK    4  A    between atoms: C_11  and  N_5 
REMARK    5  A    between atoms: C_7  and  C_8 
REMARK    6  A    between atoms: C_8  and  C_11 
ROOT
ATOM      1  C   UNL d   1       4.699  -0.528  -0.724  0.00  0.00     0.050 C 
ENDROOT
BRANCH   1   2
ATOM      2  C   UNL d   1       5.508  -1.313  -1.763  0.00  0.00     0.274 C 
BRANCH   2   3
ATOM      3  N   UNL d   1       6.967  -1.266  -1.573  0.00  0.00     0.092 N 
ATOM      4  C   UNL d   1       7.648  -2.011  -2.665  0.00  0.00     0.298 C 
ATOM      5  C   UNL d   1       7.488  -3.542  -2.569  0.00  0.00     0.198 C 
ATOM      6  O   UNL d   1       7.915  -4.043  -1.295  0.00  0.00    -0.388 OA
ATOM      7  C   UNL d   1       7.227  -3.384  -0.225  0.00  0.00     0.198 C 
ATOM      8  C   UNL d   1       7.422  -1.861  -0.297  0.00  0.00     0.298 C 
ENDBRANCH   2   3
ENDBRANCH   1   2
BRANCH   1   9
ATOM      9  C   UNL d   1       3.211  -0.704  -1.015  0.00  0.00     0.123 C 
BRANCH   9  10
ATOM     10  N   UNL d   1       2.367  -0.035  -0.033  0.00  0.00    -0.367 N 
ATOM     11  H   UNL d   1       2.847   0.588   0.585  0.00  0.00     0.161 HD
BRANCH  10  12
ATOM     12  C   UNL d   1       0.980  -0.049  -0.033  0.00  0.00     0.169 C 
ATOM     13  S   UNL d   1       0.122  -0.925  -1.196  0.00  0.00    -0.041 SA
BRANCH  12  14
ATOM     14  N   UNL d   1       0.372   0.689   0.994  0.00  0.00    -0.367 N 
ATOM     15  C   UNL d   1       1.067   1.440   2.043  0.00  0.00     0.151 C 
ATOM     16  C   UNL d   1      -1.085   0.780   1.130  0.00  0.00     0.151 C 
ENDBRANCH  12  14
ENDBRANCH  10  12
ENDBRANCH   9  10
ENDBRANCH   1   9
TORSDOF 6
