REMARK  8 active torsions:
REMARK  status: ('A' for Active; 'I' for Inactive)
REMARK    1  A    between atoms: C_3  and  C_1 
REMARK    2  A    between atoms: N_2  and  C_4 
REMARK    3  A    between atoms: C_16  and  N_7 
REMARK    4  A    between atoms: C_20  and  C_16 
REMARK    5  A    between atoms: O_19  and  C_21 
REMARK    6  A    between atoms: C_22  and  O_19 
REMARK    7  A    between atoms: C_21  and  C_20 
REMARK    8  A    between atoms: O_23  and  C_20 
ROOT
ATOM      1  N   UNL d   1      -1.028  -5.130   0.682  0.00  0.00    -0.364 N 
ATOM      2  N   UNL d   1      -2.003  -7.885   1.134  0.00  0.00     0.094 N 
ATOM      3  C   UNL d   1      -0.178  -6.084   1.408  0.00  0.00     0.154 C 
ATOM      4  C   UNL d   1      -2.463  -5.348   0.927  0.00  0.00     0.154 C 
ATOM      5  C   UNL d   1      -0.566  -7.519   0.954  0.00  0.00     0.292 C 
ATOM      6  C   UNL d   1      -2.833  -6.806   0.536  0.00  0.00     0.292 C 
ENDROOT
BRANCH   2   7
ATOM      7  C   UNL d   1      -2.278  -8.120   2.559  0.00  0.00     0.306 C 
BRANCH   7   8
ATOM      8  C   UNL d   1      -3.691  -8.592   2.967  0.00  0.00     0.170 C 
BRANCH   8   9
ATOM      9  C   UNL d   1      -4.155  -9.886   2.273  0.00  0.00     0.209 C 
BRANCH   9  10
ATOM     10  O   UNL d   1      -5.454 -10.203   2.795  0.00  0.00    -0.349 OA
BRANCH  10  11
ATOM     11  C   UNL d   1      -6.101 -11.290   2.279  0.00  0.00     0.068 A 
ATOM     12  C   UNL d   1      -6.989 -11.926   3.156  0.00  0.00     0.037 A 
ATOM     13  C   UNL d   1      -7.762 -13.005   2.729  0.00  0.00     0.003 A 
ATOM     14  C   UNL d   1      -7.660 -13.454   1.415  0.00  0.00     0.000 A 
ATOM     15  C   UNL d   1      -6.786 -12.819   0.534  0.00  0.00     0.003 A 
ATOM     16  C   UNL d   1      -6.006 -11.740   0.965  0.00  0.00     0.037 A 
ENDBRANCH  10  11
ENDBRANCH   9  10
ENDBRANCH   8   9
BRANCH   8  17
ATOM     17  O   UNL d   1      -3.676  -8.762   4.398  0.00  0.00    -0.392 OA
ATOM     18  H   UNL d   1      -3.232  -9.606   4.591  0.00  0.00     0.210 HD
ENDBRANCH   8  17
ENDBRANCH   7   8
ENDBRANCH   2   7
BRANCH   1  19
ATOM     19  C   UNL d   1      -0.597  -3.803   0.690  0.00  0.00     0.103 A 
ATOM     20  C   UNL d   1      -1.047  -2.950  -0.319  0.00  0.00     0.049 A 
ATOM     21  C   UNL d   1      -0.536  -1.657  -0.423  0.00  0.00     0.021 A 
ATOM     22  C   UNL d   1       0.413  -1.218   0.496  0.00  0.00     0.063 A 
ATOM     23  C   UNL d   1       0.795  -2.115   1.480  0.00  0.00     0.106 A 
ATOM     24  N   UNL d   1       0.323  -3.384   1.585  0.00  0.00    -0.352 N 
ATOM     25  HN  UNL d   1       0.655  -4.006   2.322  1.00  0.00     0.166 HD
BRANCH  22  26
ATOM     26  C   UNL d   1       1.020   0.146   0.399  0.00  0.00     0.418 C 
ATOM     27  F   UNL d   1       1.858   0.450   1.429  0.00  0.00    -0.166 F 
ATOM     28  F   UNL d   1       0.084   1.135   0.378  0.00  0.00    -0.166 F 
ATOM     29  F   UNL d   1       1.754   0.308  -0.737  0.00  0.00    -0.166 F 
ENDBRANCH  22  26
ENDBRANCH   1  19
TORSDOF 8
