REMARK  3 active torsions:
REMARK  status: ('A' for Active; 'I' for Inactive)
REMARK    1  A    between atoms: C_4  and  C_2 
REMARK    2  A    between atoms: C_8  and  C_3 
REMARK       I    between atoms: N_7  and  C_4 
REMARK    3  A    between atoms: C_10  and  N_7 
ROOT
ATOM      1  C   UNL d   1      -0.114   2.702  -0.142  0.00  0.00     0.263 C 
ATOM      2  N   UNL d   1      -1.424   3.046  -0.454  0.00  0.00    -0.323 N 
ATOM      3  O   UNL d   1       0.760   3.526   0.122  0.00  0.00    -0.267 OA
ATOM      4  H   UNL d   1      -2.071   2.274  -0.558  0.00  0.00     0.169 HD
ENDROOT
BRANCH   1   5
ATOM      5  C   UNL d   1       0.201   1.278  -0.124  0.00  0.00     0.073 A 
ATOM      6  S   UNL d   1      -0.927   0.033  -0.424  0.00  0.00    -0.088 SA
ATOM      7  C   UNL d   1       0.229  -1.218  -0.121  0.00  0.00    -0.009 A 
ATOM      8  C   UNL d   1       1.477  -0.665   0.113  0.00  0.00     0.017 A 
ATOM      9  C   UNL d   1       1.454   0.753   0.130  0.00  0.00     0.025 A 
BRANCH   7  10
ATOM     10  C   UNL d   1      -0.166  -2.701  -0.124  0.00  0.00    -0.018 C 
ATOM     11  C   UNL d   1      -0.495  -3.176  -1.550  0.00  0.00     0.020 C 
ATOM     12  C   UNL d   1       0.990  -3.580   0.410  0.00  0.00     0.020 C 
ATOM     13  C   UNL d   1      -1.380  -2.938   0.797  0.00  0.00     0.020 C 
ENDBRANCH   7  10
ENDBRANCH   1   5
BRANCH   2  14
ATOM     14  C   UNL d   1      -1.934   4.352  -0.638  0.00  0.00     0.035 A 
ATOM     15  C   UNL d   1      -1.135   5.502  -0.649  0.00  0.00     0.031 A 
ATOM     16  C   UNL d   1      -1.692   6.766  -0.872  0.00  0.00     0.026 A 
ATOM     17  C   UNL d   1      -3.058   6.891  -1.085  0.00  0.00     0.034 A 
ATOM     18  C   UNL d   1      -3.873   5.762  -1.069  0.00  0.00     0.026 A 
ATOM     19 CL   UNL d   1      -3.738   8.444  -1.376  0.00  0.00    -0.084 Cl
ATOM     20  C   UNL d   1      -3.312   4.496  -0.849  0.00  0.00     0.031 A 
ENDBRANCH   2  14
TORSDOF 3
