REMARK  6 active torsions:
REMARK  status: ('A' for Active; 'I' for Inactive)
REMARK    1  A    between atoms: C_4  and  C_1 
REMARK    2  A    between atoms: C_5  and  C_1 
REMARK    3  A    between atoms: C_3  and  C_2 
REMARK    4  A    between atoms: O_14  and  C_4 
REMARK    5  A    between atoms: N_8  and  C_5 
REMARK    6  A    between atoms: C_16  and  O_14 
ROOT
ATOM      1  C   UNL d   1       0.939  -0.046   0.065  0.00  0.00     0.102 C 
ATOM      2  C   UNL d   1       0.250   1.075  -0.236  0.00  0.00     0.047 C 
ENDROOT
BRANCH   1   3
ATOM      3  C   UNL d   1       0.210  -1.261   0.472  0.00  0.00     0.302 C 
ATOM      4  O   UNL d   1      -1.005  -1.336   0.567  0.00  0.00    -0.259 OA
BRANCH   3   5
ATOM      5  O   UNL d   1       1.097  -2.228   0.809  0.00  0.00    -0.317 OA
BRANCH   5   6
ATOM      6  C   UNL d   1       0.584  -3.295   1.617  0.00  0.00     0.174 C 
ATOM      7  C   UNL d   1       0.680  -2.868   3.071  0.00  0.00     0.034 C 
ENDBRANCH   5   6
ENDBRANCH   3   5
ENDBRANCH   1   3
BRANCH   1   8
ATOM      8  C   UNL d   1       2.459  -0.046   0.065  0.00  0.00    -0.031 C 
BRANCH   8   9
ATOM      9  N   UNL d   1       3.720  -0.046   0.065  0.00  0.00    -0.365 N 
ATOM     10  HN2 UNL d   1       2.700  -0.046   0.065  1.00  0.00     0.165 HD
ATOM     11  HN1 UNL d   1       4.740  -0.046   0.065  1.00  0.00     0.165 HD
ENDBRANCH   8   9
ENDBRANCH   1   8
BRANCH   2  12
ATOM     12  C   UNL d   1       0.922   2.300  -0.521  0.00  0.00     0.012 A 
ATOM     13  C   UNL d   1       1.369   2.824  -1.732  0.00  0.00    -0.044 A 
ATOM     14  C   UNL d   1       2.081   4.056  -1.536  0.00  0.00     0.015 A 
ATOM     15  C   UNL d   1       1.188   2.208  -3.081  0.00  0.00     0.049 C 
ATOM     16  C   UNL d   1       2.132   4.442  -0.218  0.00  0.00     0.051 A 
ATOM     17  S   UNL d   1       1.298   3.353   0.793  0.00  0.00    -0.102 SA
ENDBRANCH   2  12
TORSDOF 6
