REMARK  4 active torsions:
REMARK  status: ('A' for Active; 'I' for Inactive)
REMARK    1  A    between atoms: C_4  and  N_1 
REMARK    2  A    between atoms: N_2  and  C_3 
REMARK    3  A    between atoms: C_11  and  C_5 
REMARK    4  A    between atoms: C_6  and  C_12 
ROOT
ATOM      1  C   UNL d   1      -8.066  -3.859   1.809  0.00  0.00    -0.034 A 
ATOM      2  C   UNL d   1      -5.582  -2.786   2.549  0.00  0.00    -0.034 A 
ATOM      3  C   UNL d   1      -7.484  -4.205   3.033  0.00  0.00     0.012 A 
ATOM      4  C   UNL d   1      -6.249  -3.670   3.403  0.00  0.00     0.012 A 
ATOM      5  C   UNL d   1      -7.404  -2.970   0.957  0.00  0.00     0.012 A 
ATOM      6  C   UNL d   1      -6.165  -2.435   1.326  0.00  0.00     0.012 A 
ENDROOT
BRANCH   1   7
ATOM      7  C   UNL d   1      -9.362  -4.437   1.452  0.00  0.00     0.042 C 
ATOM      8  C   UNL d   1     -10.530  -3.865   1.795  0.00  0.00     0.077 C 
ATOM      9  C   UNL d   1     -10.756  -2.553   2.473  0.00  0.00     0.075 C 
BRANCH   8  10
ATOM     10  N   UNL d   1     -11.744  -4.626   1.508  0.00  0.00    -0.120 N 
ATOM     11  O   UNL d   1     -11.722  -5.427   0.564  0.00  0.00    -0.532 OA
ATOM     12  O   UNL d   1     -12.722  -4.424   2.240  0.00  0.00    -0.532 OA
ENDBRANCH   8  10
ENDBRANCH   1   7
BRANCH   2  13
ATOM     13  C   UNL d   1      -4.273  -2.257   2.935  0.00  0.00     0.042 C 
ATOM     14  C   UNL d   1      -4.111  -1.144   3.672  0.00  0.00     0.077 C 
ATOM     15  C   UNL d   1      -5.157  -0.209   4.183  0.00  0.00     0.075 C 
BRANCH  14  16
ATOM     16  N   UNL d   1      -2.739  -0.799   4.039  0.00  0.00    -0.120 N 
ATOM     17  O   UNL d   1      -1.823  -1.163   3.283  0.00  0.00    -0.532 OA
ATOM     18  O   UNL d   1      -2.575  -0.167   5.088  0.00  0.00    -0.532 OA
ENDBRANCH  14  16
ENDBRANCH   2  13
TORSDOF 4
