REMARK  6 active torsions:
REMARK  status: ('A' for Active; 'I' for Inactive)
REMARK    1  A    between atoms: C_11  and  C_6 
REMARK    2  A    between atoms: C_8  and  C_7 
REMARK    3  A    between atoms: O_14  and  C_8 
REMARK    4  A    between atoms: O_15  and  C_8 
REMARK    5  A    between atoms: C_16  and  O_14 
REMARK    6  A    between atoms: C_17  and  O_15 
ROOT
ATOM      1  C   UNL d   1      -0.892  -1.384   0.381  0.00  0.00     0.125 C 
ATOM      2  N   UNL d   1      -0.321  -0.896  -2.089  0.00  0.00    -0.191 NA
ATOM      3  N   UNL d   1      -2.990  -0.285   1.414  0.00  0.00    -0.191 NA
ATOM      4  C   UNL d   1      -0.569  -1.119  -0.979  0.00  0.00     0.110 C 
ATOM      5  C   UNL d   1      -2.054  -0.774   0.934  0.00  0.00     0.110 C 
ATOM      6  C   UNL d   1      -0.139  -2.183   1.161  0.00  0.00     0.045 C 
ENDROOT
BRANCH   6   7
ATOM      7  C   UNL d   1       1.101  -2.848   0.756  0.00  0.00    -0.034 A 
ATOM      8  C   UNL d   1       2.317  -2.168   0.856  0.00  0.00     0.012 A 
ATOM      9  C   UNL d   1       3.514  -2.834   0.588  0.00  0.00     0.013 A 
ATOM     10  C   UNL d   1       3.519  -4.199   0.259  0.00  0.00    -0.004 A 
ATOM     11  C   UNL d   1       2.289  -4.848   0.073  0.00  0.00     0.013 A 
ATOM     12  C   UNL d   1       1.086  -4.178   0.324  0.00  0.00     0.012 A 
BRANCH  10  13
ATOM     13  C   UNL d   1       4.822  -4.981   0.185  0.00  0.00     0.294 C 
BRANCH  13  14
ATOM     14  O   UNL d   1       5.314  -4.904  -1.153  0.00  0.00    -0.357 OA
BRANCH  14  15
ATOM     15  C   UNL d   1       6.471  -5.719  -1.334  0.00  0.00     0.167 C 
ATOM     16  C   UNL d   1       6.941  -5.597  -2.771  0.00  0.00     0.033 C 
ENDBRANCH  14  15
ENDBRANCH  13  14
BRANCH  13  17
ATOM     17  O   UNL d   1       5.788  -4.458   1.103  0.00  0.00    -0.357 OA
BRANCH  17  18
ATOM     18  C   UNL d   1       5.479  -4.727   2.469  0.00  0.00     0.167 C 
ATOM     19  C   UNL d   1       6.535  -4.055   3.324  0.00  0.00     0.033 C 
ENDBRANCH  17  18
ENDBRANCH  13  17
ENDBRANCH  10  13
ENDBRANCH   6   7
TORSDOF 6
