REMARK  8 active torsions:
REMARK  status: ('A' for Active; 'I' for Inactive)
REMARK    1  A    between atoms: O_5  and  C_1 
REMARK    2  A    between atoms: C_11  and  C_4 
REMARK    3  A    between atoms: C_6  and  O_5 
REMARK       I    between atoms: N_13  and  C_6 
REMARK    4  A    between atoms: S_15  and  C_7 
REMARK    5  A    between atoms: C_10  and  C_11 
REMARK    6  A    between atoms: C_14  and  C_20 
REMARK    7  A    between atoms: C_17  and  C_14 
REMARK    8  A    between atoms: C_20  and  S_15 
ROOT
ATOM      1  C   UNL d   1       1.020  -1.128  -0.551  0.00  0.00     0.163 A 
ATOM      2  N   UNL d   1       1.777  -0.044  -0.275  0.00  0.00    -0.316 N 
ATOM      3  HN  UNL d   1       2.794  -0.057  -0.348  1.00  0.00     0.170 HD
ATOM      4  C   UNL d   1      -0.367  -1.161  -0.561  0.00  0.00     0.020 A 
ATOM      5  C   UNL d   1       1.105   1.045   0.100  0.00  0.00     0.146 A 
ATOM      6  N   UNL d   1      -0.234   1.130   0.146  0.00  0.00    -0.340 N 
ATOM      7  HN  UNL d   1      -0.693   1.996   0.427  1.00  0.00     0.167 HD
ATOM      8  C   UNL d   1      -0.958   0.039  -0.190  0.00  0.00     0.018 A 
ATOM      9  C   UNL d   1      -2.446   0.222  -0.128  0.00  0.00     0.069 C 
ENDROOT
BRANCH   4  10
ATOM     10  C   UNL d   1      -1.148  -2.398  -0.903  0.00  0.00     0.087 C 
BRANCH  10  11
ATOM     11  C   UNL d   1      -1.404  -2.845  -2.341  0.00  0.00    -0.010 A 
ATOM     12  C   UNL d   1      -1.064  -2.153  -3.519  0.00  0.00     0.042 A 
ATOM     13 CL   UNL d   1      -0.336  -0.588  -3.564  0.00  0.00    -0.084 Cl
ATOM     14  C   UNL d   1      -1.330  -2.702  -4.789  0.00  0.00     0.024 A 
ATOM     15  C   UNL d   1      -1.958  -3.934  -4.925  0.00  0.00     0.003 A 
ATOM     16  C   UNL d   1      -2.341  -4.623  -3.786  0.00  0.00     0.024 A 
ATOM     17  C   UNL d   1      -2.072  -4.089  -2.518  0.00  0.00     0.042 A 
ATOM     18 CL   UNL d   1      -2.629  -5.035  -1.172  0.00  0.00    -0.084 Cl
ENDBRANCH  10  11
ENDBRANCH   4  10
BRANCH   1  19
ATOM     19  O   UNL d   1       1.712  -2.242  -1.045  0.00  0.00    -0.243 OA
BRANCH  19  20
ATOM     20  C   UNL d   1       2.662  -2.680  -0.136  0.00  0.00     0.368 C 
ATOM     21  N   UNL d   1       3.820  -3.143  -0.763  0.00  0.00    -0.336 N 
ATOM     22  C   UNL d   1       4.963  -3.413   0.087  0.00  0.00     0.154 C 
ATOM     23  C   UNL d   1       4.094  -2.807  -2.149  0.00  0.00     0.154 C 
ATOM     24  O   UNL d   1       2.494  -2.692   1.079  0.00  0.00    -0.238 OA
ENDBRANCH  19  20
ENDBRANCH   1  19
BRANCH   5  25
ATOM     25  S   UNL d   1       1.975   2.511   0.592  0.00  0.00    -0.086 SA
BRANCH  25  26
ATOM     26  C   UNL d   1       3.693   2.054   0.247  0.00  0.00     0.161 C 
BRANCH  26  27
ATOM     27  C   UNL d   1       4.638   3.016   0.957  0.00  0.00     0.144 C 
ATOM     28  O   UNL d   1       5.072   2.718   2.078  0.00  0.00    -0.296 OA
BRANCH  27  29
ATOM     29  C   UNL d   1       5.006   4.382   0.322  0.00  0.00     0.010 C 
ATOM     30  C   UNL d   1       4.008   5.454   0.778  0.00  0.00     0.022 C 
ATOM     31  C   UNL d   1       6.409   4.783   0.827  0.00  0.00     0.022 C 
ATOM     32  C   UNL d   1       5.055   4.334  -1.209  0.00  0.00     0.022 C 
ENDBRANCH  27  29
ENDBRANCH  26  27
ENDBRANCH  25  26
ENDBRANCH   5  25
TORSDOF 8
