REMARK  5 active torsions:
REMARK  status: ('A' for Active; 'I' for Inactive)
REMARK    1  A    between atoms: C_7  and  C_1 
REMARK    2  A    between atoms: C_5  and  N_12 
REMARK    3  A    between atoms: O_14  and  C_7 
REMARK    4  A    between atoms: N_12  and  C_8 
REMARK    5  A    between atoms: C_16  and  O_14 
ROOT
ATOM      1  C   UNL d   1       0.904   0.118   0.129  0.00  0.00     0.135 C 
ATOM      2  C   UNL d   1       0.215  -0.236  -0.972  0.00  0.00     0.118 C 
ATOM      3  C   UNL d   1       0.281   0.711   1.258  0.00  0.00     0.107 C 
ATOM      4  N   UNL d   1      -0.259   1.187   2.167  0.00  0.00    -0.191 NA
ENDROOT
BRANCH   1   5
ATOM      5  C   UNL d   1       2.358  -0.177   0.133  0.00  0.00     0.305 C 
ATOM      6  O   UNL d   1       2.966  -0.647  -0.818  0.00  0.00    -0.258 OA
BRANCH   5   7
ATOM      7  O   UNL d   1       2.900   0.108   1.344  0.00  0.00    -0.317 OA
BRANCH   7   8
ATOM      8  C   UNL d   1       4.270  -0.284   1.522  0.00  0.00     0.174 C 
ATOM      9  C   UNL d   1       4.319  -1.726   1.993  0.00  0.00     0.034 C 
ENDBRANCH   7   8
ENDBRANCH   5   7
ENDBRANCH   1   5
BRANCH   2  10
ATOM     10  N   UNL d   1      -1.123  -0.080  -1.265  0.00  0.00    -0.350 N 
ATOM     11  H   UNL d   1      -1.662   0.497  -0.622  0.00  0.00     0.166 HD
BRANCH  10  12
ATOM     12  C   UNL d   1      -1.790  -0.442  -2.384  0.00  0.00     0.121 A 
ATOM     13  N   UNL d   1      -2.984   0.060  -2.701  0.00  0.00    -0.284 N 
ATOM     14  N   UNL d   1      -3.277  -0.505  -3.884  0.00  0.00    -0.306 N 
ATOM     15  HN  UNL d   1      -3.547   0.722  -2.167  1.00  0.00     0.188 HD
ATOM     16  C   UNL d   1      -4.470  -0.119  -4.597  0.00  0.00     0.177 C 
ATOM     17  C   UNL d   1      -2.344  -1.405  -4.303  0.00  0.00     0.113 A 
ATOM     18  C   UNL d   1      -1.356  -1.383  -3.348  0.00  0.00     0.068 A 
ENDBRANCH  10  12
ENDBRANCH   2  10
TORSDOF 5
