REMARK  9 active torsions:
REMARK  status: ('A' for Active; 'I' for Inactive)
REMARK    1  A    between atoms: C_1  and  O_3 
REMARK    2  A    between atoms: C_2  and  O_4 
REMARK    3  A    between atoms: C_6  and  O_3 
REMARK    4  A    between atoms: C_7  and  O_4 
REMARK    5  A    between atoms: C_5  and  O_9 
REMARK    6  A    between atoms: C_18  and  C_6 
REMARK    7  A    between atoms: C_19  and  C_7 
REMARK    8  A    between atoms: C_8  and  O_9 
REMARK    9  A    between atoms: C_20  and  C_8 
ROOT
ATOM      1  C   UNL d   1       0.522   1.543  -0.189  0.00  0.00     0.197 C 
ATOM      2  C   UNL d   1       1.535   0.436   0.166  0.00  0.00     0.207 C 
ATOM      3  C   UNL d   1      -0.890   1.191   0.291  0.00  0.00     0.188 C 
ATOM      4  C   UNL d   1       1.019  -0.913  -0.390  0.00  0.00     0.259 C 
ATOM      5  O   UNL d   1      -0.386  -1.159  -0.147  0.00  0.00    -0.366 OA
ATOM      6  N   UNL d   1       1.611  -1.184  -2.947  0.00  0.00    -0.194 NA
ATOM      7  C   UNL d   1       1.349  -1.066  -1.820  0.00  0.00     0.094 C 
ATOM      8  C   UNL d   1      -1.273  -0.077  -0.478  0.00  0.00     0.205 C 
ENDROOT
BRANCH   2   9
ATOM      9  O   UNL d   1       1.724   0.272   1.604  0.00  0.00    -0.306 OA
BRANCH   9  10
ATOM     10  C   UNL d   1       2.616   1.108   2.194  0.00  0.00     0.293 C 
ATOM     11  O   UNL d   1       3.209   2.018   1.640  0.00  0.00    -0.259 OA
BRANCH  10  12
ATOM     12  C   UNL d   1       2.849   0.757   3.619  0.00  0.00     0.039 A 
ATOM     13  C   UNL d   1       3.404   1.736   4.456  0.00  0.00     0.017 A 
ATOM     14  C   UNL d   1       3.767   1.421   5.766  0.00  0.00     0.001 A 
ATOM     15  C   UNL d   1       3.580   0.127   6.248  0.00  0.00     0.000 A 
ATOM     16  C   UNL d   1       3.007  -0.847   5.428  0.00  0.00     0.001 A 
ATOM     17  C   UNL d   1       2.636  -0.535   4.117  0.00  0.00     0.017 A 
ENDBRANCH  10  12
ENDBRANCH   9  10
ENDBRANCH   2   9
BRANCH   1  18
ATOM     18  O   UNL d   1       0.927   2.845   0.262  0.00  0.00    -0.306 OA
BRANCH  18  19
ATOM     19  C   UNL d   1       1.601   3.578  -0.667  0.00  0.00     0.293 C 
ATOM     20  O   UNL d   1       1.832   3.218  -1.813  0.00  0.00    -0.259 OA
BRANCH  19  21
ATOM     21  C   UNL d   1       2.047   4.892  -0.143  0.00  0.00     0.039 A 
ATOM     22  C   UNL d   1       1.602   5.410   1.077  0.00  0.00     0.017 A 
ATOM     23  C   UNL d   1       2.063   6.655   1.514  0.00  0.00     0.001 A 
ATOM     24  C   UNL d   1       2.965   7.385   0.736  0.00  0.00     0.000 A 
ATOM     25  C   UNL d   1       3.405   6.878  -0.485  0.00  0.00     0.001 A 
ATOM     26  C   UNL d   1       2.944   5.637  -0.926  0.00  0.00     0.017 A 
ENDBRANCH  19  21
ENDBRANCH  18  19
ENDBRANCH   1  18
BRANCH   3  27
ATOM     27  O   UNL d   1      -0.952   0.810   1.680  0.00  0.00    -0.307 OA
BRANCH  27  28
ATOM     28  C   UNL d   1      -1.031   1.757   2.634  0.00  0.00     0.293 C 
ATOM     29  O   UNL d   1      -1.064   2.962   2.458  0.00  0.00    -0.259 OA
BRANCH  28  30
ATOM     30  C   UNL d   1      -1.061   1.085   3.966  0.00  0.00     0.039 A 
ATOM     31  C   UNL d   1      -0.912   1.869   5.115  0.00  0.00     0.017 A 
ATOM     32  C   UNL d   1      -0.941   1.274   6.379  0.00  0.00     0.001 A 
ATOM     33  C   UNL d   1      -1.122  -0.103   6.502  0.00  0.00     0.000 A 
ATOM     34  C   UNL d   1      -1.274  -0.891   5.364  0.00  0.00     0.001 A 
ATOM     35  C   UNL d   1      -1.243  -0.302   4.098  0.00  0.00     0.017 A 
ENDBRANCH  28  30
ENDBRANCH  27  28
ENDBRANCH   3  27
TORSDOF 9
