REMARK  6 active torsions:
REMARK  status: ('A' for Active; 'I' for Inactive)
REMARK    1  A    between atoms: N_3  and  C_1 
REMARK    2  A    between atoms: C_7  and  C_2 
REMARK       I    between atoms: C_5  and  N_3 
REMARK    3  A    between atoms: C_9  and  C_5 
REMARK    4  A    between atoms: O_18  and  C_7 
REMARK    5  A    between atoms: C_10  and  C_11 
REMARK    6  A    between atoms: C_23  and  O_18 
ROOT
ATOM      1  N   UNL d   1       0.462  -2.292   0.032  0.00  0.00    -0.316 N 
ATOM      2  C   UNL d   1       1.652  -2.990  -0.142  0.00  0.00     0.256 C 
ATOM      3  O   UNL d   1       1.764  -4.184  -0.385  0.00  0.00    -0.267 OA
ATOM      4  H   UNL d   1       0.532  -1.345  -0.327  0.00  0.00     0.169 HD
ENDROOT
BRANCH   1   5
ATOM      5  C   UNL d   1      -0.769  -2.855  -0.268  0.00  0.00     0.093 A 
ATOM      6  C   UNL d   1      -1.591  -3.819   0.305  0.00  0.00     0.079 A 
ATOM      7  C   UNL d   1      -2.884  -3.840  -0.399  0.00  0.00    -0.036 A 
ATOM      8  C   UNL d   1      -4.087  -4.681  -0.089  0.00  0.00     0.050 C 
ATOM      9  C   UNL d   1      -2.914  -2.929  -1.440  0.00  0.00     0.059 A 
ATOM     10  S   UNL d   1      -1.509  -1.990  -1.537  0.00  0.00    -0.083 SA
BRANCH   6  11
ATOM     11  C   UNL d   1      -1.265  -4.559   1.532  0.00  0.00     0.296 C 
ATOM     12  O   UNL d   1      -2.016  -4.614   2.494  0.00  0.00    -0.259 OA
BRANCH  11  13
ATOM     13  O   UNL d   1      -0.025  -5.133   1.488  0.00  0.00    -0.318 OA
BRANCH  13  14
ATOM     14  C   UNL d   1       0.671  -5.336   2.723  0.00  0.00     0.174 C 
ATOM     15  C   UNL d   1       0.852  -6.805   3.069  0.00  0.00     0.034 C 
ENDBRANCH  13  14
ENDBRANCH  11  13
ENDBRANCH   6  11
ENDBRANCH   1   5
BRANCH   2  16
ATOM     16  C   UNL d   1       2.878  -2.112  -0.142  0.00  0.00     0.032 A 
ATOM     17  C   UNL d   1       2.949  -0.933   0.607  0.00  0.00     0.017 A 
ATOM     18  C   UNL d   1       4.092  -0.114   0.549  0.00  0.00     0.009 A 
ATOM     19  C   UNL d   1       5.204  -0.437  -0.254  0.00  0.00    -0.051 A 
ATOM     20  C   UNL d   1       5.119  -1.637  -0.985  0.00  0.00     0.009 A 
ATOM     21  C   UNL d   1       3.979  -2.464  -0.928  0.00  0.00     0.017 A 
BRANCH  19  22
ATOM     22  C   UNL d   1       6.436   0.498  -0.308  0.00  0.00    -0.024 C 
ATOM     23  C   UNL d   1       7.559   0.002  -1.251  0.00  0.00     0.019 C 
ATOM     24  C   UNL d   1       6.027   1.904  -0.806  0.00  0.00     0.019 C 
ATOM     25  C   UNL d   1       7.067   0.652   1.094  0.00  0.00     0.019 C 
ENDBRANCH  19  22
ENDBRANCH   2  16
TORSDOF 6
