REMARK  7 active torsions:
REMARK  status: ('A' for Active; 'I' for Inactive)
REMARK    1  A    between atoms: C_8  and  N_1 
REMARK    2  A    between atoms: C_11  and  C_5 
REMARK    3  A    between atoms: C_12  and  C_8 
REMARK    4  A    between atoms: C_9  and  C_14 
REMARK    5  A    between atoms: C_10  and  C_15 
REMARK       I    between atoms: N_23  and  C_12 
REMARK    6  A    between atoms: C_13  and  C_24 
REMARK    7  A    between atoms: N_19  and  N_23 
ROOT
ATOM      1  N   UNL d   1      -0.165  -1.196  -0.334  0.00  0.00    -0.203 N 
ATOM      2  N   UNL d   1      -1.097  -0.339   0.122  0.00  0.00    -0.268 N 
ATOM      3  HN  UNL d   1      -1.947  -0.522   0.655  1.00  0.00     0.190 HD
ATOM      4  N   UNL d   1       0.825  -0.640  -1.050  0.00  0.00    -0.002 NA
ATOM      5  C   UNL d   1      -0.594   0.827  -0.321  0.00  0.00     0.144 A 
ATOM      6  N   UNL d   1       0.562   0.661  -1.041  0.00  0.00    -0.266 N 
ATOM      7  HN  UNL d   1       1.113   1.396  -1.485  1.00  0.00     0.186 HD
ENDROOT
BRANCH   1   8
ATOM      8  C   UNL d   1      -0.358  -2.622  -0.186  0.00  0.00     0.214 C 
ATOM      9  C   UNL d   1       0.913  -3.347   0.243  0.00  0.00     0.046 C 
BRANCH   8  10
ATOM     10  C   UNL d   1      -0.964  -3.176  -1.461  0.00  0.00     0.261 C 
ATOM     11  N   UNL d   1      -2.204  -2.623  -1.787  0.00  0.00    -0.269 N 
ATOM     12  H   UNL d   1      -2.612  -1.867  -1.240  0.00  0.00     0.190 HD
ATOM     13  O   UNL d   1      -0.417  -4.075  -2.100  0.00  0.00    -0.269 OA
BRANCH  11  14
ATOM     14  N   UNL d   1      -2.828  -3.046  -2.918  0.00  0.00    -0.308 N 
ATOM     15  C   UNL d   1      -3.978  -2.527  -3.201  0.00  0.00     0.122 C 
ATOM     16  HN  UNL d   1      -2.403  -3.748  -3.523  1.00  0.00     0.186 HD
BRANCH  15  17
ATOM     17  C   UNL d   1      -4.722  -2.915  -4.423  0.00  0.00     0.024 A 
ATOM     18  C   UNL d   1      -4.618  -4.199  -4.990  0.00  0.00     0.047 A 
ATOM     19 CL   UNL d   1      -3.756  -5.513  -4.266  0.00  0.00    -0.083 Cl
ATOM     20  C   UNL d   1      -5.293  -4.504  -6.179  0.00  0.00     0.025 A 
ATOM     21  C   UNL d   1      -6.093  -3.552  -6.805  0.00  0.00     0.003 A 
ATOM     22  C   UNL d   1      -6.226  -2.289  -6.238  0.00  0.00     0.025 A 
ATOM     23  C   UNL d   1      -5.546  -1.968  -5.054  0.00  0.00     0.047 A 
ATOM     24 CL   UNL d   1      -5.759  -0.358  -4.452  0.00  0.00    -0.083 Cl
ENDBRANCH  15  17
ENDBRANCH  11  14
ENDBRANCH   8  10
ENDBRANCH   1   8
BRANCH   5  25
ATOM     25  C   UNL d   1      -1.228   2.110  -0.063  0.00  0.00     0.012 A 
ATOM     26  C   UNL d   1      -2.322   2.166   0.814  0.00  0.00     0.031 A 
ATOM     27  C   UNL d   1      -2.974   3.371   1.099  0.00  0.00     0.049 A 
ATOM     28  C   UNL d   1      -2.515   4.542   0.480  0.00  0.00     0.032 A 
ATOM     29  C   UNL d   1      -1.415   4.518  -0.398  0.00  0.00     0.049 A 
ATOM     30  C   UNL d   1      -0.778   3.292  -0.667  0.00  0.00     0.031 A 
BRANCH  27  31
ATOM     31  C   UNL d   1      -4.137   3.401   2.061  0.00  0.00     0.417 C 
ATOM     32  F   UNL d   1      -4.430   2.182   2.596  0.00  0.00    -0.166 F 
ATOM     33  F   UNL d   1      -3.913   4.228   3.118  0.00  0.00    -0.166 F 
ATOM     34  F   UNL d   1      -5.285   3.836   1.474  0.00  0.00    -0.166 F 
ENDBRANCH  27  31
BRANCH  29  35
ATOM     35  C   UNL d   1      -0.932   5.807  -1.024  0.00  0.00     0.417 C 
ATOM     36  F   UNL d   1       0.163   5.656  -1.816  0.00  0.00    -0.166 F 
ATOM     37  F   UNL d   1      -1.884   6.391  -1.802  0.00  0.00    -0.166 F 
ATOM     38  F   UNL d   1      -0.594   6.736  -0.087  0.00  0.00    -0.166 F 
ENDBRANCH  29  35
ENDBRANCH   5  25
TORSDOF 7
