REMARK  3 active torsions:
REMARK  status: ('A' for Active; 'I' for Inactive)
REMARK    1  A    between atoms: C_2  and  C_1 
REMARK    2  A    between atoms: C_3  and  C_2 
REMARK    3  A    between atoms: C_7  and  C_4 
ROOT
ATOM      1  C   UNL d   1       0.997   0.177  -0.095  0.00  0.00     0.096 C 
ATOM      2  C   UNL d   1       0.239   0.185   1.020  0.00  0.00     0.045 C 
ATOM      3  C   UNL d   1       0.473   0.259  -1.415  0.00  0.00     0.103 C 
ATOM      4  N   UNL d   1       0.061   0.281  -2.498  0.00  0.00    -0.191 NA
ENDROOT
BRANCH   1   5
ATOM      5  C   UNL d   1       2.477   0.057   0.114  0.00  0.00     0.204 C 
ATOM      6  O   UNL d   1       3.004   0.395   1.169  0.00  0.00    -0.286 OA
BRANCH   5   7
ATOM      7  C   UNL d   1       3.299  -0.581  -0.955  0.00  0.00     0.037 A 
ATOM      8  C   UNL d   1       4.557  -0.079  -1.320  0.00  0.00     0.048 A 
ATOM      9 CL   UNL d   1       5.239   1.355  -0.639  0.00  0.00    -0.083 Cl
ATOM     10  C   UNL d   1       5.304  -0.727  -2.312  0.00  0.00     0.025 A 
ATOM     11  C   UNL d   1       4.805  -1.865  -2.946  0.00  0.00     0.002 A 
ATOM     12  C   UNL d   1       3.566  -2.378  -2.577  0.00  0.00     0.001 A 
ATOM     13  C   UNL d   1       2.825  -1.753  -1.572  0.00  0.00     0.017 A 
ENDBRANCH   5   7
ENDBRANCH   1   5
BRANCH   2  14
ATOM     14  C   UNL d   1      -1.186   0.134   1.021  0.00  0.00     0.006 A 
ATOM     15  S   UNL d   1      -2.070   1.096   2.143  0.00  0.00    -0.102 SA
ATOM     16  C   UNL d   1      -3.571   0.482   1.611  0.00  0.00     0.050 A 
ATOM     17  C   UNL d   1      -3.422  -0.452   0.613  0.00  0.00     0.008 A 
ATOM     18  C   UNL d   1      -2.052  -0.654   0.278  0.00  0.00     0.019 A 
ENDBRANCH   2  14
TORSDOF 3
