REMARK  3 active torsions:
REMARK  status: ('A' for Active; 'I' for Inactive)
REMARK    1  A    between atoms: C_8  and  C_3 
REMARK    2  A    between atoms: C_11  and  C_7 
REMARK    3  A    between atoms: C_14  and  C_10 
ROOT
ATOM      1  N   UNL d   1       1.663  -3.718  -1.123  0.00  0.00    -0.331 N 
ATOM      2  HN  UNL d   1       0.974  -4.428  -1.371  1.00  0.00     0.168 HD
ATOM      3  C   UNL d   1       2.926  -3.684  -1.403  0.00  0.00     0.162 A 
ATOM      4  C   UNL d   1       1.483  -2.562  -0.413  0.00  0.00     0.111 A 
ATOM      5  O   UNL d   1       3.644  -2.629  -0.950  0.00  0.00    -0.256 OA
ATOM      6  C   UNL d   1       2.767  -1.827  -0.285  0.00  0.00     0.316 A 
ATOM      7  C   UNL d   1       0.345  -2.109   0.123  0.00  0.00     0.047 C 
ATOM      8  O   UNL d   1       3.005  -0.774   0.274  0.00  0.00    -0.257 OA
ENDROOT
BRANCH   7   9
ATOM      9  C   UNL d   1      -0.909  -2.859   0.055  0.00  0.00    -0.034 A 
ATOM     10  C   UNL d   1      -1.216  -3.772   1.066  0.00  0.00     0.012 A 
ATOM     11  C   UNL d   1      -2.409  -4.496   1.024  0.00  0.00     0.008 A 
ATOM     12  C   UNL d   1      -3.318  -4.323  -0.030  0.00  0.00    -0.055 A 
ATOM     13  C   UNL d   1      -2.993  -3.417  -1.051  0.00  0.00     0.008 A 
ATOM     14  C   UNL d   1      -1.797  -2.691  -1.010  0.00  0.00     0.012 A 
BRANCH  12  15
ATOM     15  C   UNL d   1      -4.632  -5.084  -0.070  0.00  0.00     0.010 C 
ATOM     16  C   UNL d   1      -4.411  -6.599  -0.119  0.00  0.00     0.015 C 
ATOM     17  C   UNL d   1      -5.528  -4.709   1.114  0.00  0.00     0.015 C 
ENDBRANCH  12  15
ENDBRANCH   7   9
BRANCH   3  18
ATOM     18  C   UNL d   1       3.670  -4.673  -2.196  0.00  0.00     0.015 A 
ATOM     19  C   UNL d   1       2.973  -5.757  -2.746  0.00  0.00     0.016 A 
ATOM     20  C   UNL d   1       3.640  -6.681  -3.550  0.00  0.00     0.001 A 
ATOM     21  C   UNL d   1       5.003  -6.529  -3.804  0.00  0.00     0.000 A 
ATOM     22  C   UNL d   1       5.704  -5.460  -3.243  0.00  0.00     0.001 A 
ATOM     23  C   UNL d   1       5.041  -4.532  -2.438  0.00  0.00     0.016 A 
ENDBRANCH   3  18
TORSDOF 3
