REMARK  6 active torsions:
REMARK  status: ('A' for Active; 'I' for Inactive)
REMARK    1  A    between atoms: C_2  and  S_1 
REMARK    2  A    between atoms: N_11  and  S_1 
REMARK    3  A    between atoms: C_13  and  C_3 
REMARK    4  A    between atoms: C_4  and  N_11 
REMARK    5  A    between atoms: C_14  and  C_7 
REMARK    6  A    between atoms: O_24  and  C_13 
ROOT
ATOM      1  C   UNL d   1       2.237   0.042   2.951  0.00  0.00     0.103 A 
ATOM      2  C   UNL d   1       0.955   0.351   2.524  0.00  0.00     0.047 A 
ATOM      3  S   UNL d   1       2.218  -0.532   4.573  0.00  0.00    -0.081 SA
ATOM      4  C   UNL d   1       0.528  -0.330   4.740  0.00  0.00     0.024 A 
ATOM      5  C   UNL d   1      -0.003   0.189   3.574  0.00  0.00     0.046 A 
ENDROOT
BRANCH   2   6
ATOM      6  N   UNL d   1       0.555   0.840   1.262  0.00  0.00    -0.180 NA
ATOM      7  H   UNL d   1      -0.198   1.530   1.268  0.00  0.00     0.146 HD
BRANCH   6   8
ATOM      8  S   UNL d   1       0.237  -0.263   0.005  0.00  0.00     0.248 S 
ATOM      9  O   UNL d   1      -0.271   0.495  -1.115  0.00  0.00    -0.205 OA
ATOM     10  O   UNL d   1       1.338  -1.193  -0.125  0.00  0.00    -0.205 OA
BRANCH   8  11
ATOM     11  C   UNL d   1      -1.109  -1.258   0.447  0.00  0.00     0.105 A 
ATOM     12  C   UNL d   1      -2.348  -0.789   0.805  0.00  0.00     0.099 A 
ATOM     13  S   UNL d   1      -3.457  -2.036   1.145  0.00  0.00    -0.064 SA
ATOM     14 CL   UNL d   1      -2.890   0.836   0.957  0.00  0.00    -0.075 Cl
ATOM     15  C   UNL d   1      -2.291  -3.214   0.801  0.00  0.00     0.077 A 
ATOM     16  C   UNL d   1      -1.074  -2.692   0.446  0.00  0.00     0.058 A 
ATOM     17 CL   UNL d   1      -2.700  -4.877   0.910  0.00  0.00    -0.076 Cl
ENDBRANCH   8  11
ENDBRANCH   6   8
ENDBRANCH   2   6
BRANCH   1  18
ATOM     18  C   UNL d   1       3.538   0.148   2.305  0.00  0.00     0.301 C 
ATOM     19  O   UNL d   1       4.616  -0.139   2.815  0.00  0.00    -0.259 OA
BRANCH  18  20
ATOM     20  O   UNL d   1       3.410   0.656   1.048  0.00  0.00    -0.322 OA
ATOM     21  C   UNL d   1       4.620   0.771   0.296  0.00  0.00     0.213 C 
ENDBRANCH  18  20
ENDBRANCH   1  18
BRANCH   4  22
ATOM     22  C   UNL d   1      -0.170  -0.683   5.961  0.00  0.00     0.022 A 
ATOM     23  S   UNL d   1      -1.884  -0.552   6.091  0.00  0.00    -0.101 SA
ATOM     24  C   UNL d   1      -1.891  -1.142   7.692  0.00  0.00     0.050 A 
ATOM     25  C   UNL d   1      -0.624  -1.432   8.138  0.00  0.00     0.008 A 
ATOM     26  C   UNL d   1       0.365  -1.165   7.145  0.00  0.00     0.021 A 
ENDBRANCH   4  22
TORSDOF 6
