REMARK  5 active torsions:
REMARK  status: ('A' for Active; 'I' for Inactive)
REMARK    1  A    between atoms: C_2  and  C_1 
REMARK       I    between atoms: N_5  and  C_2 
REMARK    2  A    between atoms: N_6  and  C_3 
REMARK    3  A    between atoms: C_15  and  N_5 
REMARK    4  A    between atoms: C_8  and  C_17 
REMARK    5  A    between atoms: C_17  and  C_15 
ROOT
ATOM      1  C   UNL d   1       0.984   2.509  -0.068  0.00  0.00     0.253 C 
ATOM      2  O   UNL d   1       0.313   3.539  -0.028  0.00  0.00    -0.268 OA
ATOM      3  N   UNL d   1       2.361   2.521  -0.136  0.00  0.00    -0.357 N 
ATOM      4  H   UNL d   1       2.839   1.638  -0.304  0.00  0.00     0.162 HD
ENDROOT
BRANCH   1   5
ATOM      5  C   UNL d   1       0.313   1.179  -0.074  0.00  0.00     0.052 A 
ATOM      6  C   UNL d   1       0.852   0.022   0.525  0.00  0.00     0.021 A 
ATOM      7  C   UNL d   1       0.136  -1.180   0.409  0.00  0.00     0.024 A 
ATOM      8  C   UNL d   1      -1.126  -1.219  -0.191  0.00  0.00     0.002 A 
ATOM      9  C   UNL d   1      -1.673  -0.062  -0.734  0.00  0.00     0.001 A 
ATOM     10  C   UNL d   1      -0.955   1.130  -0.682  0.00  0.00     0.019 A 
BRANCH   6  11
ATOM     11  N   UNL d   1       2.147  -0.027   1.086  0.00  0.00    -0.302 NA
ATOM     12  H   UNL d   1       2.368   0.825   1.605  0.00  0.00     0.124 HD
ATOM     13  H   UNL d   1       2.304  -0.849   1.663  0.00  0.00     0.124 HD
ENDBRANCH   6  11
ENDBRANCH   1   5
BRANCH   3  14
ATOM     14  C   UNL d   1       3.086   3.775  -0.143  0.00  0.00     0.127 C 
BRANCH  14  15
ATOM     15  C   UNL d   1       4.607   3.613  -0.128  0.00  0.00     0.058 C 
BRANCH  15  16
ATOM     16  C   UNL d   1       5.149   2.919   1.102  0.00  0.00    -0.057 A 
ATOM     17  C   UNL d   1       5.897   1.740   0.975  0.00  0.00     0.009 A 
ATOM     18  C   UNL d   1       6.422   1.108   2.105  0.00  0.00     0.024 A 
ATOM     19  C   UNL d   1       6.203   1.653   3.368  0.00  0.00     0.034 A 
ATOM     20  C   UNL d   1       5.467   2.826   3.510  0.00  0.00     0.024 A 
ATOM     21 CL   UNL d   1       6.850   0.874   4.759  0.00  0.00    -0.084 Cl
ATOM     22  C   UNL d   1       4.945   3.460   2.380  0.00  0.00     0.009 A 
ENDBRANCH  15  16
ENDBRANCH  14  15
ENDBRANCH   3  14
TORSDOF 5
