REMARK  4 active torsions:
REMARK  status: ('A' for Active; 'I' for Inactive)
REMARK    1  A    between atoms: C_12  and  C_1 
REMARK    2  A    between atoms: C_4  and  O_8 
REMARK       I    between atoms: N_15  and  C_4 
REMARK    3  A    between atoms: O_8  and  C_5 
REMARK    4  A    between atoms: C_10  and  C_9 
ROOT
ATOM      1  C   UNL d   1       0.227   1.413  -0.038  0.00  0.00     0.118 A 
ATOM      2  N   UNL d   1       1.295   0.590  -0.037  0.00  0.00    -0.322 N 
ATOM      3  HN  UNL d   1       2.243   0.945  -0.163  1.00  0.00     0.169 HD
ATOM      4  C   UNL d   1       1.051  -0.727   0.140  0.00  0.00     0.156 A 
ATOM      5  N   UNL d   1      -1.047   0.991   0.054  0.00  0.00    -0.338 N 
ATOM      6  HN  UNL d   1      -1.825   1.648   0.001  1.00  0.00     0.167 HD
ATOM      7  C   UNL d   1      -1.261  -0.336   0.220  0.00  0.00     0.122 A 
ATOM      8  C   UNL d   1      -0.219  -1.234   0.313  0.00  0.00     0.091 A 
ENDROOT
BRANCH   1   9
ATOM      9  C   UNL d   1       0.439   2.878  -0.032  0.00  0.00     0.010 A 
ATOM     10  C   UNL d   1      -0.658   3.769  -0.025  0.00  0.00     0.039 A 
ATOM     11  C   UNL d   1      -0.481   5.153   0.114  0.00  0.00     0.041 A 
ATOM     12 CL   UNL d   1      -1.896   6.146   0.158  0.00  0.00    -0.084 Cl
ATOM     13  C   UNL d   1       0.801   5.697   0.238  0.00  0.00    -0.040 A 
ATOM     14  C   UNL d   1       1.898   4.831   0.180  0.00  0.00     0.009 A 
ATOM     15  C   UNL d   1       1.018   7.168   0.467  0.00  0.00     0.050 C 
ATOM     16  C   UNL d   1       1.717   3.446   0.043  0.00  0.00     0.016 A 
ENDBRANCH   1   9
BRANCH   4  17
ATOM     17  O   UNL d   1       2.192  -1.564   0.003  0.00  0.00    -0.244 OA
BRANCH  17  18
ATOM     18  C   UNL d   1       2.225  -2.930   0.318  0.00  0.00     0.368 C 
ATOM     19  N   UNL d   1       3.376  -3.578  -0.124  0.00  0.00    -0.336 N 
ATOM     20  C   UNL d   1       3.468  -5.023   0.017  0.00  0.00     0.154 C 
ATOM     21  C   UNL d   1       4.421  -2.937  -0.896  0.00  0.00     0.154 C 
ATOM     22  O   UNL d   1       1.326  -3.512   0.914  0.00  0.00    -0.238 OA
ENDBRANCH  17  18
ENDBRANCH   4  17
BRANCH   7  23
ATOM     23  C   UNL d   1      -2.684  -0.863   0.278  0.00  0.00     0.432 C 
ATOM     24  F   UNL d   1      -3.621   0.020  -0.168  0.00  0.00    -0.165 F 
ATOM     25  F   UNL d   1      -2.848  -1.985  -0.483  0.00  0.00    -0.165 F 
ATOM     26  F   UNL d   1      -3.067  -1.215   1.538  0.00  0.00    -0.165 F 
ENDBRANCH   7  23
TORSDOF 4
