REMARK  6 active torsions:
REMARK  status: ('A' for Active; 'I' for Inactive)
REMARK    1  A    between atoms: N_3  and  C_1 
REMARK       I    between atoms: C_7  and  N_3 
REMARK    2  A    between atoms: C_15  and  C_7 
REMARK    3  A    between atoms: C_10  and  C_16 
REMARK    4  A    between atoms: O_14  and  C_10 
REMARK    5  A    between atoms: S_13  and  C_15 
REMARK    6  A    between atoms: C_16  and  S_13 
ROOT
ATOM      1  C   UNL d   1       0.029   1.099  -0.152  0.00  0.00     0.097 A 
ATOM      2  C   UNL d   1      -0.464  -0.094   0.327  0.00  0.00     0.079 A 
ATOM      3  C   UNL d   1      -1.507  -0.225   1.304  0.00  0.00     0.102 C 
ATOM      4  S   UNL d   1       1.423   0.902  -1.110  0.00  0.00    -0.083 SA
ATOM      5  N   UNL d   1      -2.300  -0.358   2.138  0.00  0.00    -0.191 NA
ATOM      6  C   UNL d   1       0.272  -1.204  -0.206  0.00  0.00     0.033 A 
ATOM      7  C   UNL d   1       1.294  -0.802  -1.040  0.00  0.00     0.053 A 
ENDROOT
BRANCH   1   8
ATOM      8  N   UNL d   1      -0.340   2.419  -0.008  0.00  0.00    -0.319 N 
ATOM      9  C   UNL d   1      -1.662   2.804  -0.158  0.00  0.00     0.231 C 
ATOM     10  O   UNL d   1      -2.601   2.068  -0.463  0.00  0.00    -0.272 OA
ATOM     11  H   UNL d   1       0.352   3.102  -0.303  0.00  0.00     0.169 HD
BRANCH   9  12
ATOM     12  C   UNL d   1      -1.851   4.309  -0.081  0.00  0.00     0.177 C 
BRANCH  12  13
ATOM     13  S   UNL d   1      -1.447   5.069  -1.690  0.00  0.00    -0.149 SA
BRANCH  13  14
ATOM     14  C   UNL d   1      -2.660   4.254  -2.786  0.00  0.00     0.184 C 
BRANCH  14  15
ATOM     15  C   UNL d   1      -4.089   4.493  -2.356  0.00  0.00     0.149 C 
ATOM     16  O   UNL d   1      -4.732   5.494  -2.639  0.00  0.00    -0.649 OA
BRANCH  15  17
ATOM     17  O   UNL d   1      -4.607   3.505  -1.587  0.00  0.00    -0.776 OA
ATOM     18  H   UNL d   1      -3.998   2.763  -1.356  0.00  0.00     0.167 HD
ENDBRANCH  15  17
ENDBRANCH  14  15
ENDBRANCH  13  14
ENDBRANCH  12  13
ENDBRANCH   9  12
ENDBRANCH   1   8
TORSDOF 6
