REMARK  1 active torsions:
REMARK  status: ('A' for Active; 'I' for Inactive)
REMARK    1  A    between atoms: C_5  and  C_3 
ROOT
ATOM      1  C   UNL d   1       1.225  -1.385   0.059  0.00  0.00     0.189 C 
ATOM      2  C   UNL d   1       2.252  -0.675  -0.747  0.00  0.00    -0.006 C 
ATOM      3  C   UNL d   1       2.583  -1.283  -1.902  0.00  0.00     0.024 C 
ATOM      4  C   UNL d   1      -0.135  -0.781   0.071  0.00  0.00     0.021 A 
ATOM      5  O   UNL d   1       1.445  -2.476   0.570  0.00  0.00    -0.287 OA
ATOM      6  C   UNL d   1      -0.379   0.569   0.372  0.00  0.00    -0.044 A 
ATOM      7  C   UNL d   1       2.809   0.605  -0.205  0.00  0.00     0.043 C 
ATOM      8  C   UNL d   1      -1.195  -1.634  -0.271  0.00  0.00     0.016 A 
ATOM      9  C   UNL d   1       1.798   1.746  -0.178  0.00  0.00     0.009 C 
ATOM     10  C   UNL d   1       0.696   1.512   0.847  0.00  0.00     0.040 C 
ATOM     11  C   UNL d   1      -1.698   1.046   0.283  0.00  0.00     0.008 A 
ATOM     12  C   UNL d   1      -2.496  -1.141  -0.356  0.00  0.00     0.001 A 
ATOM     13  C   UNL d   1      -2.746   0.200  -0.086  0.00  0.00     0.001 A 
ENDROOT
BRANCH   3  14
ATOM     14  C   UNL d   1       3.478  -0.667  -2.889  0.00  0.00    -0.014 A 
ATOM     15  C   UNL d   1       2.976   0.056  -3.985  0.00  0.00     0.044 A 
ATOM     16 CL   UNL d   1       1.278   0.163  -4.305  0.00  0.00    -0.083 Cl
ATOM     17  C   UNL d   1       3.846   0.734  -4.841  0.00  0.00     0.024 A 
ATOM     18  C   UNL d   1       5.222   0.696  -4.612  0.00  0.00     0.002 A 
ATOM     19  C   UNL d   1       5.730  -0.037  -3.541  0.00  0.00     0.001 A 
ATOM     20  C   UNL d   1       4.864  -0.722  -2.687  0.00  0.00     0.013 A 
ENDBRANCH   3  14
TORSDOF 1
