REMARK  4 active torsions:
REMARK  status: ('A' for Active; 'I' for Inactive)
REMARK    1  A    between atoms: S_6  and  C_1 
REMARK    2  A    between atoms: S_7  and  C_1 
REMARK    3  A    between atoms: C_2  and  S_6 
REMARK    4  A    between atoms: C_3  and  S_7 
ROOT
ATOM      1  C   UNL d   1       1.058  -0.080   0.214  0.00  0.00     0.158 C 
ENDROOT
BRANCH   1   2
ATOM      2  S   UNL d   1       0.469  -0.480   1.890  0.00  0.00    -0.118 SA
BRANCH   2   3
ATOM      3  C   UNL d   1      -1.302  -0.554   1.629  0.00  0.00     0.023 A 
ATOM      4  C   UNL d   1      -2.117   0.549   1.324  0.00  0.00     0.050 A 
ATOM      5 CL   UNL d   1      -1.493   2.148   1.102  0.00  0.00    -0.083 Cl
ATOM      6  C   UNL d   1      -3.507   0.400   1.226  0.00  0.00     0.025 A 
ATOM      7  C   UNL d   1      -4.102  -0.840   1.453  0.00  0.00     0.002 A 
ATOM      8  C   UNL d   1      -3.309  -1.938   1.767  0.00  0.00     0.001 A 
ATOM      9  C   UNL d   1      -1.919  -1.798   1.854  0.00  0.00     0.020 A 
ENDBRANCH   2   3
ENDBRANCH   1   2
BRANCH   1  10
ATOM     10  S   UNL d   1       2.878   0.050   0.152  0.00  0.00    -0.118 SA
BRANCH  10  11
ATOM     11  C   UNL d   1       3.347  -1.651   0.461  0.00  0.00     0.023 A 
ATOM     12  C   UNL d   1       4.035  -2.058   1.619  0.00  0.00     0.050 A 
ATOM     13 CL   UNL d   1       4.475  -0.956   2.877  0.00  0.00    -0.083 Cl
ATOM     14  C   UNL d   1       4.389  -3.400   1.792  0.00  0.00     0.025 A 
ATOM     15  C   UNL d   1       4.074  -4.345   0.816  0.00  0.00     0.002 A 
ATOM     16  C   UNL d   1       3.405  -3.949  -0.340  0.00  0.00     0.001 A 
ATOM     17  C   UNL d   1       3.049  -2.611  -0.519  0.00  0.00     0.020 A 
ENDBRANCH  10  11
ENDBRANCH   1  10
TORSDOF 4
