REMARK  6 active torsions:
REMARK  status: ('A' for Active; 'I' for Inactive)
REMARK    1  A    between atoms: C_2  and  C_1 
REMARK       I    between atoms: N_6  and  C_1 
REMARK    2  A    between atoms: C_3  and  C_15 
REMARK    3  A    between atoms: C_18  and  N_6 
REMARK    4  A    between atoms: S_13  and  C_19 
REMARK    5  A    between atoms: C_15  and  S_13 
REMARK    6  A    between atoms: C_19  and  C_18 
ROOT
ATOM      1  C   UNL d   1       1.292  -1.215   2.037  0.00  0.00     0.251 C 
ATOM      2  O   UNL d   1       0.467  -1.485   1.175  0.00  0.00    -0.268 OA
ATOM      3  N   UNL d   1       2.611  -0.933   1.766  0.00  0.00    -0.356 N 
ATOM      4  H   UNL d   1       3.220  -0.593   2.499  0.00  0.00     0.162 HD
ENDROOT
BRANCH   3   5
ATOM      5  C   UNL d   1       3.147  -1.005   0.421  0.00  0.00     0.133 C 
BRANCH   5   6
ATOM      6  C   UNL d   1       4.667  -0.841   0.388  0.00  0.00     0.093 C 
BRANCH   6   7
ATOM      7  S   UNL d   1       5.566  -2.013   1.469  0.00  0.00    -0.163 SA
BRANCH   7   8
ATOM      8  C   UNL d   1       5.105  -3.584   0.664  0.00  0.00     0.114 C 
BRANCH   8   9
ATOM      9  C   UNL d   1       5.679  -4.766   1.405  0.00  0.00    -0.027 A 
ATOM     10  C   UNL d   1       5.006  -5.394   2.467  0.00  0.00     0.041 A 
ATOM     11 CL   UNL d   1       3.438  -4.885   2.990  0.00  0.00    -0.084 Cl
ATOM     12  C   UNL d   1       5.593  -6.467   3.145  0.00  0.00     0.024 A 
ATOM     13  C   UNL d   1       6.857  -6.924   2.775  0.00  0.00     0.002 A 
ATOM     14  C   UNL d   1       7.535  -6.314   1.724  0.00  0.00     0.001 A 
ATOM     15  C   UNL d   1       6.953  -5.242   1.046  0.00  0.00     0.009 A 
ENDBRANCH   8   9
ENDBRANCH   7   8
ENDBRANCH   6   7
ENDBRANCH   5   6
ENDBRANCH   3   5
BRANCH   1  16
ATOM     16  C   UNL d   1       0.893  -1.131   3.470  0.00  0.00     0.032 A 
ATOM     17  C   UNL d   1       1.802  -1.403   4.503  0.00  0.00     0.018 A 
ATOM     18  C   UNL d   1       1.403  -1.280   5.836  0.00  0.00     0.025 A 
ATOM     19  C   UNL d   1       0.095  -0.900   6.136  0.00  0.00     0.034 A 
ATOM     20  C   UNL d   1      -0.824  -0.658   5.116  0.00  0.00     0.025 A 
ATOM     21 CL   UNL d   1      -0.387  -0.731   7.779  0.00  0.00    -0.084 Cl
ATOM     22  C   UNL d   1      -0.427  -0.779   3.781  0.00  0.00     0.018 A 
ENDBRANCH   1  16
TORSDOF 6
