REMARK  6 active torsions:
REMARK  status: ('A' for Active; 'I' for Inactive)
REMARK    1  A    between atoms: C_9  and  N_6 
REMARK    2  A    between atoms: C_11  and  C_9 
REMARK    3  A    between atoms: C_10  and  N_12 
REMARK    4  A    between atoms: N_13  and  C_10 
REMARK       I    between atoms: N_14  and  C_11 
REMARK    5  A    between atoms: N_12  and  N_14 
REMARK    6  A    between atoms: C_17  and  N_13 
ROOT
ATOM      1  C   UNL d   1       2.841   1.095  -0.502  0.00  0.00     0.257 C 
ATOM      2  N   UNL d   1       3.152  -0.259  -0.391  0.00  0.00    -0.266 N 
ATOM      3  O   UNL d   1       3.598   1.942  -0.965  0.00  0.00    -0.270 OA
ATOM      4  H   UNL d   1       2.391  -0.933  -0.441  0.00  0.00     0.190 HD
ENDROOT
BRANCH   1   5
ATOM      5  C   UNL d   1       1.469   1.429   0.019  0.00  0.00     0.272 C 
BRANCH   5   6
ATOM      6  N   UNL d   1       0.494   1.347  -1.037  0.00  0.00    -0.194 N 
ATOM      7  N   UNL d   1       0.555   0.415  -2.006  0.00  0.00    -0.115 N 
ATOM      8  C   UNL d   1      -0.521   0.755  -2.726  0.00  0.00     0.709 C 
ATOM      9  HN  UNL d   1       1.229  -0.337  -2.151  1.00  0.00     0.207 HD
ATOM     10  N   UNL d   1      -1.262   1.746  -2.125  0.00  0.00    -0.113 N 
ATOM     11  N   UNL d   1      -0.897   0.223  -3.902  0.00  0.00    -0.215 N 
ATOM     12  N   UNL d   1      -0.616   2.099  -1.023  0.00  0.00     0.011 NA
ATOM     13  HN  UNL d   1      -2.142   2.135  -2.463  1.00  0.00     0.203 HD
ATOM     14  C   UNL d   1      -1.926   0.830  -4.724  0.00  0.00     0.141 C 
ATOM     15  C   UNL d   1      -0.024  -0.645  -4.677  0.00  0.00     0.141 C 
ATOM     16  C   UNL d   1      -2.029  -0.131  -5.902  0.00  0.00     0.022 C 
ATOM     17  C   UNL d   1      -0.588  -0.578  -6.099  0.00  0.00     0.022 C 
ENDBRANCH   5   6
ENDBRANCH   1   5
BRANCH   2  18
ATOM     18  N   UNL d   1       4.390  -0.721  -0.863  0.00  0.00    -0.273 N 
ATOM     19  H   UNL d   1       4.499  -0.729  -1.876  0.00  0.00     0.189 HD
BRANCH  18  20
ATOM     20  C   UNL d   1       5.563  -0.514  -0.151  0.00  0.00     0.191 C 
ATOM     21  S   UNL d   1       5.718   0.187   1.358  0.00  0.00    -0.039 SA
BRANCH  20  22
ATOM     22  N   UNL d   1       6.690  -0.934  -0.823  0.00  0.00    -0.332 N 
ATOM     23  H   UNL d   1       7.550  -0.466  -0.550  0.00  0.00     0.168 HD
BRANCH  22  24
ATOM     24  C   UNL d   1       6.872  -2.226  -1.366  0.00  0.00     0.034 A 
ATOM     25  C   UNL d   1       7.972  -2.442  -2.200  0.00  0.00     0.031 A 
ATOM     26  C   UNL d   1       8.244  -3.724  -2.687  0.00  0.00     0.026 A 
ATOM     27  C   UNL d   1       7.437  -4.796  -2.308  0.00  0.00     0.034 A 
ATOM     28  C   UNL d   1       6.347  -4.593  -1.466  0.00  0.00     0.026 A 
ATOM     29 CL   UNL d   1       7.801  -6.382  -2.865  0.00  0.00    -0.084 Cl
ATOM     30  C   UNL d   1       6.056  -3.306  -1.007  0.00  0.00     0.031 A 
ENDBRANCH  22  24
ENDBRANCH  20  22
ENDBRANCH  18  20
ENDBRANCH   2  18
TORSDOF 6
