REMARK  5 active torsions:
REMARK  status: ('A' for Active; 'I' for Inactive)
REMARK       I    between atoms: N_2  and  C_1 
REMARK    1  A    between atoms: C_3  and  C_1 
REMARK       I    between atoms: C_4  and  N_2 
REMARK       I    between atoms: N_5  and  C_4 
REMARK    2  A    between atoms: C_9  and  N_5 
REMARK    3  A    between atoms: C_11  and  C_9 
REMARK    4  A    between atoms: O_14  and  C_11 
REMARK    5  A    between atoms: O_15  and  C_11 
ROOT
ATOM      1  C   UNL d   1       0.467   4.098   2.436  0.00  0.00     0.265 C 
ATOM      2  N   UNL d   1       0.106   2.977   1.696  0.00  0.00    -0.275 N 
ATOM      3  C   UNL d   1       0.911   2.033   1.101  0.00  0.00     0.323 C 
ATOM      4  N   UNL d   1       2.250   2.286   1.097  0.00  0.00    -0.334 N 
ATOM      5  O   UNL d   1       1.627   4.482   2.509  0.00  0.00    -0.267 OA
ATOM      6  O   UNL d   1       0.395   1.009   0.658  0.00  0.00    -0.247 OA
ATOM      7  H   UNL d   1      -0.865   2.699   1.666  0.00  0.00     0.173 HD
ATOM      8  H   UNL d   1       2.534   3.202   1.440  0.00  0.00     0.164 HD
ENDROOT
BRANCH   1   9
ATOM      9  C   UNL d   1      -0.628   4.850   3.119  0.00  0.00     0.109 A 
ATOM     10  C   UNL d   1      -1.979   4.511   2.998  0.00  0.00     0.135 A 
ATOM     11  F   UNL d   1      -2.358   3.458   2.258  0.00  0.00    -0.205 F 
ATOM     12  C   UNL d   1      -2.981   5.250   3.635  0.00  0.00     0.043 A 
ATOM     13  C   UNL d   1      -2.646   6.351   4.417  0.00  0.00     0.006 A 
ATOM     14  C   UNL d   1      -1.306   6.702   4.559  0.00  0.00     0.043 A 
ATOM     15  C   UNL d   1      -0.313   5.956   3.916  0.00  0.00     0.135 A 
ATOM     16  F   UNL d   1       0.956   6.347   4.102  0.00  0.00    -0.205 F 
ENDBRANCH   1   9
BRANCH   4  17
ATOM     17  C   UNL d   1       3.248   1.404   0.473  0.00  0.00     0.137 C 
ATOM     18  C   UNL d   1       4.528   1.407   1.313  0.00  0.00     0.037 C 
BRANCH  17  19
ATOM     19  C   UNL d   1       3.549   1.770  -1.023  0.00  0.00     0.280 C 
BRANCH  19  20
ATOM     20  O   UNL d   1       4.597   0.939  -1.545  0.00  0.00    -0.364 OA
ATOM     21  C   UNL d   1       5.059   1.372  -2.820  0.00  0.00     0.204 C 
ENDBRANCH  19  20
BRANCH  19  22
ATOM     22  O   UNL d   1       2.379   1.715  -1.849  0.00  0.00    -0.364 OA
ATOM     23  C   UNL d   1       1.894   0.396  -2.073  0.00  0.00     0.204 C 
ENDBRANCH  19  22
ENDBRANCH  17  19
ENDBRANCH   4  17
TORSDOF 5
