REMARK  5 active torsions:
REMARK  status: ('A' for Active; 'I' for Inactive)
REMARK    1  A    between atoms: S_2  and  N_1 
REMARK    2  A    between atoms: C_9  and  S_2 
REMARK    3  A    between atoms: N_7  and  C_5 
REMARK    4  A    between atoms: O_24  and  C_17 
REMARK    5  A    between atoms: O_25  and  C_19 
ROOT
ATOM      1  N   UNL d   1       1.558  -1.068  -0.012  0.00  0.00    -0.174 N 
ATOM      2  N   UNL d   1       2.388   0.014  -0.078  0.00  0.00    -0.267 N 
ATOM      3  HN  UNL d   1       3.403   0.021  -0.170  1.00  0.00     0.190 HD
ATOM      4  C   UNL d   1       1.562   1.064   0.006  0.00  0.00     0.143 C 
ATOM      5  C   UNL d   1       0.197   0.679  -0.051  0.00  0.00     0.078 A 
ATOM      6  C   UNL d   1       0.218  -0.722  -0.103  0.00  0.00     0.086 A 
ATOM      7  C   UNL d   1      -1.049   1.330  -0.126  0.00  0.00     0.132 A 
ATOM      8  C   UNL d   1      -0.972  -1.469  -0.205  0.00  0.00     0.033 A 
ATOM      9  F   UNL d   1      -1.132   2.664  -0.189  0.00  0.00    -0.205 F 
ATOM     10  C   UNL d   1      -2.194  -0.786  -0.205  0.00  0.00     0.005 A 
ATOM     11  C   UNL d   1      -2.234   0.601  -0.160  0.00  0.00     0.043 A 
ENDROOT
BRANCH   1  12
ATOM     12  S   UNL d   1       2.135  -2.716  -0.024  0.00  0.00     0.283 S 
ATOM     13  O   UNL d   1       3.466  -2.684   0.540  0.00  0.00    -0.198 OA
ATOM     14  O   UNL d   1       1.076  -3.526   0.559  0.00  0.00    -0.198 OA
BRANCH  12  15
ATOM     15  C   UNL d   1       2.288  -3.114  -1.743  0.00  0.00     0.084 A 
ATOM     16  C   UNL d   1       3.148  -2.353  -2.547  0.00  0.00     0.065 A 
ATOM     17  C   UNL d   1       3.287  -2.641  -3.914  0.00  0.00     0.102 A 
ATOM     18  C   UNL d   1       2.562  -3.718  -4.462  0.00  0.00     0.101 A 
ATOM     19  C   UNL d   1       1.740  -4.494  -3.626  0.00  0.00     0.041 A 
ATOM     20  C   UNL d   1       1.599  -4.200  -2.271  0.00  0.00     0.028 A 
BRANCH  17  21
ATOM     21  O   UNL d   1       4.105  -1.923  -4.743  0.00  0.00    -0.353 OA
ATOM     22  C   UNL d   1       4.829  -0.825  -4.203  0.00  0.00     0.210 C 
ENDBRANCH  17  21
BRANCH  18  23
ATOM     23  O   UNL d   1       2.541  -4.166  -5.757  0.00  0.00    -0.353 OA
ATOM     24  C   UNL d   1       3.252  -3.445  -6.752  0.00  0.00     0.210 C 
ENDBRANCH  18  23
ENDBRANCH  12  15
ENDBRANCH   1  12
BRANCH   4  25
ATOM     25  N   UNL d   1       2.132   2.385   0.108  0.00  0.00    -0.304 N 
ATOM     26  C   UNL d   1       3.299   2.831  -0.530  0.00  0.00     0.014 A 
ATOM     27  C   UNL d   1       3.498   4.160  -0.209  0.00  0.00     0.027 A 
ATOM     28  C   UNL d   1       4.134   2.035  -1.474  0.00  0.00     0.068 C 
ATOM     29  C   UNL d   1       2.465   4.555   0.650  0.00  0.00     0.027 A 
ATOM     30  C   UNL d   1       1.656   3.457   0.875  0.00  0.00     0.014 A 
ATOM     31  C   UNL d   1       0.539   3.407   1.862  0.00  0.00     0.068 C 
ENDBRANCH   4  25
TORSDOF 5
