REMARK  9 active torsions:
REMARK  status: ('A' for Active; 'I' for Inactive)
REMARK    1  A    between atoms: C_8  and  N_1 
REMARK    2  A    between atoms: C_6  and  C_3 
REMARK    3  A    between atoms: C_7  and  C_6 
REMARK    4  A    between atoms: C_19  and  C_8 
REMARK    5  A    between atoms: C_9  and  C_10 
REMARK    6  A    between atoms: O_20  and  C_9 
REMARK    7  A    between atoms: O_22  and  C_12 
REMARK    8  A    between atoms: O_23  and  C_14 
REMARK    9  A    between atoms: C_18  and  C_19 
ROOT
ATOM      1  N   UNL d   1       0.206  -1.075  -0.314  0.00  0.00    -0.298 N 
ATOM      2  C   UNL d   1      -0.387  -0.237   0.605  0.00  0.00     0.148 A 
ATOM      3  C   UNL d   1      -0.075   0.846  -1.661  0.00  0.00     0.076 A 
ATOM      4  C   UNL d   1       0.415  -0.559  -1.582  0.00  0.00     0.266 A 
ATOM      5  S   UNL d   1      -0.653   1.347  -0.119  0.00  0.00    -0.055 SA
ATOM      6  S   UNL d   1      -0.823  -0.574   2.179  0.00  0.00    -0.052 SA
ATOM      7  O   UNL d   1       0.914  -1.172  -2.516  0.00  0.00    -0.266 OA
ENDROOT
BRANCH   1   8
ATOM      8  C   UNL d   1       0.551  -2.482  -0.087  0.00  0.00     0.138 C 
BRANCH   8   9
ATOM      9  C   UNL d   1       2.063  -2.716  -0.016  0.00  0.00     0.059 C 
BRANCH   9  10
ATOM     10  C   UNL d   1       2.389  -4.187   0.079  0.00  0.00    -0.054 A 
ATOM     11  C   UNL d   1       2.535  -4.809   1.329  0.00  0.00     0.046 A 
ATOM     12  C   UNL d   1       2.824  -6.179   1.436  0.00  0.00     0.102 A 
ATOM     13  C   UNL d   1       2.935  -6.942   0.261  0.00  0.00     0.101 A 
ATOM     14  C   UNL d   1       2.799  -6.321  -0.987  0.00  0.00     0.040 A 
ATOM     15  C   UNL d   1       2.522  -4.956  -1.083  0.00  0.00     0.010 A 
BRANCH  12  16
ATOM     16  O   UNL d   1       3.030  -6.814   2.632  0.00  0.00    -0.353 OA
ATOM     17  C   UNL d   1       2.983  -6.035   3.820  0.00  0.00     0.210 C 
ENDBRANCH  12  16
BRANCH  13  18
ATOM     18  O   UNL d   1       3.227  -8.280   0.166  0.00  0.00    -0.353 OA
ATOM     19  C   UNL d   1       2.722  -9.115   1.201  0.00  0.00     0.210 C 
ENDBRANCH  13  18
ENDBRANCH   9  10
ENDBRANCH   8   9
ENDBRANCH   1   8
BRANCH   3  20
ATOM     20  C   UNL d   1      -0.118   1.617  -2.752  0.00  0.00     0.037 C 
BRANCH  20  21
ATOM     21  C   UNL d   1       0.330   1.183  -4.086  0.00  0.00    -0.018 A 
ATOM     22  C   UNL d   1      -0.497   0.484  -4.986  0.00  0.00     0.048 A 
ATOM     23  C   UNL d   1       0.016   0.058  -6.223  0.00  0.00     0.019 A 
ATOM     24  C   UNL d   1       1.354   0.290  -6.545  0.00  0.00     0.001 A 
ATOM     25  C   UNL d   1       2.178   0.969  -5.652  0.00  0.00     0.001 A 
ATOM     26  C   UNL d   1       1.668   1.422  -4.433  0.00  0.00     0.012 A 
BRANCH  22  27
ATOM     27  C   UNL d   1      -1.922   0.210  -4.657  0.00  0.00     0.177 C 
ATOM     28  O   UNL d   1      -2.651   1.003  -4.089  0.00  0.00    -0.646 OA
BRANCH  27  29
ATOM     29  O   UNL d   1      -2.328  -1.023  -5.033  0.00  0.00    -0.773 OA
ATOM     30  H   UNL d   1      -1.611  -1.618  -5.322  0.00  0.00     0.167 HD
ENDBRANCH  27  29
ENDBRANCH  22  27
ENDBRANCH  20  21
ENDBRANCH   3  20
TORSDOF 9
