REMARK  7 active torsions:
REMARK  status: ('A' for Active; 'I' for Inactive)
REMARK    1  A    between atoms: C_13  and  N_1 
REMARK       I    between atoms: C_12  and  N_11 
REMARK    2  A    between atoms: O_25  and  C_12 
REMARK    3  A    between atoms: C_18  and  C_13 
REMARK    4  A    between atoms: N_14  and  C_21 
REMARK    5  A    between atoms: C_21  and  C_18 
REMARK    6  A    between atoms: O_26  and  C_18 
REMARK    7  A    between atoms: C_28  and  O_25 
ROOT
ATOM      1  C   UNL d   1      -5.520   1.690   0.531  0.00  0.00     0.170 C 
ENDROOT
BRANCH   1   2
ATOM      2  N   UNL d   1      -6.940   1.330   0.673  0.00  0.00    -0.262 N 
ATOM      3  C   UNL d   1      -7.528   1.585   1.931  0.00  0.00     0.333 C 
ATOM      4  N   UNL d   1      -8.919   1.630   1.991  0.00  0.00    -0.287 N 
ATOM      5  O   UNL d   1      -6.833   1.773   2.934  0.00  0.00    -0.246 OA
ATOM      6  C   UNL d   1      -9.593   2.001   3.223  0.00  0.00     0.163 C 
ATOM      7  C   UNL d   1      -9.654   1.282   0.886  0.00  0.00     0.145 A 
ATOM      8  C   UNL d   1      -9.062   0.898  -0.279  0.00  0.00     0.149 A 
ATOM      9  N   UNL d   1     -11.012   1.259   0.807  0.00  0.00    -0.336 N 
ATOM     10  C   UNL d   1      -7.650   0.917  -0.462  0.00  0.00     0.282 C 
ATOM     11  N   UNL d   1     -10.102   0.550  -1.096  0.00  0.00    -0.340 N 
ATOM     12  O   UNL d   1      -7.111   0.606  -1.520  0.00  0.00    -0.265 OA
ATOM     13  C   UNL d   1     -11.260   0.825  -0.411  0.00  0.00     0.184 A 
ATOM     14  C   UNL d   1     -10.065  -0.056  -2.403  0.00  0.00     0.157 C 
ATOM     15  HN  UNL d   1     -11.686   1.518   1.528  1.00  0.00     0.168 HD
ENDBRANCH   1   2
BRANCH   1  16
ATOM     16  C   UNL d   1      -4.504   0.606   0.111  0.00  0.00     0.154 C 
BRANCH  16  17
ATOM     17  C   UNL d   1      -4.582  -0.718   0.911  0.00  0.00     0.150 C 
BRANCH  17  18
ATOM     18  N   UNL d   1      -3.667  -1.738   0.401  0.00  0.00    -0.407 N 
ATOM     19  C   UNL d   1      -2.223  -1.483   0.447  0.00  0.00     0.137 C 
ATOM     20  C   UNL d   1      -1.376  -2.445   1.319  0.00  0.00     0.147 C 
ATOM     21  N   UNL d   1      -1.839  -3.825   1.204  0.00  0.00    -0.325 N 
ATOM     22  C   UNL d   1      -3.260  -3.982   1.474  0.00  0.00     0.147 C 
ATOM     23  C   UNL d   1      -1.161  -4.818   0.521  0.00  0.00     0.362 C 
ATOM     24  C   UNL d   1      -4.085  -3.136   0.493  0.00  0.00     0.137 C 
ATOM     25  O   UNL d   1      -1.674  -5.883   0.188  0.00  0.00    -0.238 OA
BRANCH  23  26
ATOM     26  O   UNL d   1       0.138  -4.501   0.282  0.00  0.00    -0.304 OA
BRANCH  26  27
ATOM     27  C   UNL d   1       0.913  -5.504  -0.395  0.00  0.00     0.176 C 
ATOM     28  C   UNL d   1       1.371  -6.583   0.571  0.00  0.00     0.034 C 
ENDBRANCH  26  27
ENDBRANCH  23  26
ENDBRANCH  17  18
ENDBRANCH  16  17
BRANCH  16  29
ATOM     29  O   UNL d   1      -4.556   0.380  -1.303  0.00  0.00    -0.392 OA
ATOM     30  H   UNL d   1      -5.474   0.132  -1.538  0.00  0.00     0.210 HD
ENDBRANCH  16  29
ENDBRANCH   1  16
TORSDOF 7
