REMARK  4 active torsions:
REMARK  status: ('A' for Active; 'I' for Inactive)
REMARK    1  A    between atoms: O_16  and  C_3 
REMARK    2  A    between atoms: O_17  and  C_3 
REMARK    3  A    between atoms: C_10  and  O_18 
REMARK    4  A    between atoms: C_11  and  O_19 
ROOT
ATOM      1  C   UNL d   1       1.968  -0.020  -0.586  0.00  0.00     0.141 C 
ATOM      2  C   UNL d   1       1.150  -1.818   0.511  0.00  0.00     0.141 C 
ATOM      3  C   UNL d   1       2.068  -0.573   0.900  0.00  0.00     0.218 C 
ATOM      4  C   UNL d   1       2.475  -1.290  -1.290  0.00  0.00     0.061 C 
ATOM      5  C   UNL d   1       2.042  -2.354  -0.597  0.00  0.00     0.061 C 
ATOM      6  C   UNL d   1      -0.097  -1.260  -0.297  0.00  0.00     0.062 C 
ATOM      7  C   UNL d   1       0.433   0.097  -0.880  0.00  0.00     0.062 C 
ATOM      8  C   UNL d   1      -1.749   1.161  -0.041  0.00  0.00     0.003 C 
ATOM      9  C   UNL d   1      -2.299  -0.031   0.215  0.00  0.00     0.003 C 
ATOM     10  C   UNL d   1      -0.324   1.365  -0.422  0.00  0.00     0.147 C 
ATOM     11  C   UNL d   1      -1.584  -1.325   0.087  0.00  0.00     0.147 C 
ATOM     12 CL   UNL d   1       2.913   1.414  -0.974  0.00  0.00    -0.106 Cl
ATOM     13 CL   UNL d   1       0.781  -2.918   1.827  0.00  0.00    -0.106 Cl
ATOM     14 CL   UNL d   1       3.362  -1.303  -2.736  0.00  0.00    -0.085 Cl
ATOM     15 CL   UNL d   1       2.246  -3.998  -0.949  0.00  0.00    -0.085 Cl
ENDROOT
BRANCH   3  16
ATOM     16  O   UNL d   1       1.487   0.218   1.943  0.00  0.00    -0.356 OA
ATOM     17  C   UNL d   1       2.341   1.276   2.413  0.00  0.00     0.205 C 
ENDBRANCH   3  16
BRANCH   3  18
ATOM     18  O   UNL d   1       3.455  -0.876   1.189  0.00  0.00    -0.356 OA
ATOM     19  C   UNL d   1       3.736  -1.710   2.301  0.00  0.00     0.205 C 
ENDBRANCH   3  18
BRANCH  11  20
ATOM     20  O   UNL d   1      -1.909  -2.127   1.196  0.00  0.00    -0.391 OA
ATOM     21  H   UNL d   1      -1.367  -1.850   1.958  0.00  0.00     0.210 HD
ENDBRANCH  11  20
BRANCH  10  22
ATOM     22  O   UNL d   1       0.244   2.026   0.686  0.00  0.00    -0.391 OA
ATOM     23  H   UNL d   1       0.082   1.479   1.475  0.00  0.00     0.210 HD
ENDBRANCH  10  22
TORSDOF 4
