REMARK  3 active torsions:
REMARK  status: ('A' for Active; 'I' for Inactive)
REMARK    1  A    between atoms: C_2  and  C_1 
REMARK       I    between atoms: N_5  and  C_2 
REMARK    2  A    between atoms: C_10  and  N_5 
REMARK    3  A    between atoms: C_11  and  N_5 
ROOT
ATOM      1  C   UNL d   1      -0.211   2.425  -0.385  0.00  0.00     0.259 C 
ATOM      2  N   UNL d   1      -1.326   3.227  -0.040  0.00  0.00    -0.340 N 
ATOM      3  O   UNL d   1       0.826   2.949  -0.802  0.00  0.00    -0.267 OA
ENDROOT
BRANCH   1   4
ATOM      4  C   UNL d   1      -0.192   0.984  -0.155  0.00  0.00     0.087 C 
ATOM      5  C   UNL d   1       0.901   0.342   0.411  0.00  0.00     0.090 C 
ATOM      6  O   UNL d   1       0.668  -0.990   0.500  0.00  0.00    -0.242 OA
ATOM      7  C   UNL d   1       2.236   0.775   0.881  0.00  0.00     0.080 C 
ATOM      8  N   UNL d   1      -0.548  -1.280  -0.071  0.00  0.00    -0.265 N 
ATOM      9  C   UNL d   1      -1.030  -0.114  -0.527  0.00  0.00     0.047 C 
ATOM     10  HN  UNL d   1      -0.993  -2.195  -0.134  1.00  0.00     0.194 HD
ATOM     11  C   UNL d   1      -2.260  -0.175  -1.352  0.00  0.00     0.071 C 
ENDBRANCH   1   4
BRANCH   2  12
ATOM     12  C   UNL d   1      -1.114   4.696   0.072  0.00  0.00     0.079 C 
ATOM     13  C   UNL d   1      -0.133   5.072   1.187  0.00  0.00     0.032 C 
ATOM     14  C   UNL d   1      -0.742   5.361  -1.256  0.00  0.00     0.032 C 
ENDBRANCH   2  12
BRANCH   2  15
ATOM     15  C   UNL d   1      -2.629   2.705   0.419  0.00  0.00     0.079 C 
ATOM     16  C   UNL d   1      -2.744   2.659   1.939  0.00  0.00     0.032 C 
ATOM     17  C   UNL d   1      -3.824   3.428  -0.219  0.00  0.00     0.032 C 
ENDBRANCH   2  15
TORSDOF 3
