REMARK  7 active torsions:
REMARK  status: ('A' for Active; 'I' for Inactive)
REMARK    1  A    between atoms: N_4  and  S_1 
REMARK    2  A    between atoms: C_8  and  S_1 
REMARK    3  A    between atoms: C_6  and  C_2 
REMARK    4  A    between atoms: C_3  and  N_4 
REMARK    5  A    between atoms: O_16  and  C_6 
REMARK    6  A    between atoms: O_17  and  C_9 
REMARK    7  A    between atoms: O_18  and  C_10 
ROOT
ATOM      1  C   UNL d   1       2.297  -1.414   2.467  0.00  0.00     0.064 A 
ATOM      2  C   UNL d   1       0.972  -0.960   2.398  0.00  0.00     0.042 A 
ATOM      3  C   UNL d   1       2.583  -2.543   3.252  0.00  0.00     0.059 A 
ATOM      4  C   UNL d   1      -0.040  -1.640   3.101  0.00  0.00     0.065 A 
ATOM      5  C   UNL d   1       1.575  -3.226   3.943  0.00  0.00     0.102 A 
ATOM      6  C   UNL d   1       0.253  -2.757   3.897  0.00  0.00     0.103 A 
ENDROOT
BRANCH   2   7
ATOM      7  N   UNL d   1       0.574   0.142   1.558  0.00  0.00    -0.180 NA
ATOM      8  H   UNL d   1      -0.165   0.719   1.958  0.00  0.00     0.146 HD
BRANCH   7   9
ATOM      9  S   UNL d   1       0.168  -0.295  -0.038  0.00  0.00     0.245 S 
ATOM     10  O   UNL d   1      -1.090  -1.011   0.052  0.00  0.00    -0.206 OA
ATOM     11  O   UNL d   1       1.320  -0.866  -0.697  0.00  0.00    -0.206 OA
BRANCH   9  12
ATOM     12  C   UNL d   1      -0.168   1.289  -0.770  0.00  0.00     0.074 A 
ATOM     13  C   UNL d   1       0.832   2.264  -0.781  0.00  0.00     0.025 A 
ATOM     14  C   UNL d   1       0.558   3.521  -1.329  0.00  0.00     0.008 A 
ATOM     15  C   UNL d   1      -0.706   3.809  -1.863  0.00  0.00    -0.062 A 
ATOM     16  C   UNL d   1      -1.694   2.816  -1.857  0.00  0.00     0.008 A 
ATOM     17  C   UNL d   1      -0.984   5.169  -2.436  0.00  0.00     0.048 C 
ATOM     18  C   UNL d   1      -1.428   1.557  -1.312  0.00  0.00     0.025 A 
ENDBRANCH   9  12
ENDBRANCH   7   9
ENDBRANCH   2   7
BRANCH   1  19
ATOM     19  C   UNL d   1       3.411  -0.676   1.808  0.00  0.00     0.294 C 
ATOM     20  O   UNL d   1       3.403   0.520   1.560  0.00  0.00    -0.259 OA
BRANCH  19  21
ATOM     21  O   UNL d   1       4.436  -1.533   1.562  0.00  0.00    -0.322 OA
ATOM     22  C   UNL d   1       5.597  -0.959   0.957  0.00  0.00     0.213 C 
ENDBRANCH  19  21
ENDBRANCH   1  19
BRANCH   6  23
ATOM     23  O   UNL d   1      -0.669  -3.411   4.667  0.00  0.00    -0.353 OA
ATOM     24  C   UNL d   1      -2.005  -2.931   4.697  0.00  0.00     0.210 C 
ENDBRANCH   6  23
BRANCH   5  25
ATOM     25  O   UNL d   1       2.038  -4.292   4.673  0.00  0.00    -0.353 OA
ATOM     26  C   UNL d   1       1.168  -5.415   4.772  0.00  0.00     0.210 C 
ENDBRANCH   5  25
TORSDOF 7
