REMARK  6 active torsions:
REMARK  status: ('A' for Active; 'I' for Inactive)
REMARK    1  A    between atoms: C_3  and  C_1 
REMARK    2  A    between atoms: N_4  and  C_2 
REMARK    3  A    between atoms: C_7  and  N_5 
REMARK       I    between atoms: C_6  and  N_10 
REMARK    4  A    between atoms: C_13  and  C_6 
REMARK    5  A    between atoms: N_10  and  C_23 
REMARK    6  A    between atoms: O_32  and  C_27 
ROOT
ATOM      1  C   UNL d   1      -3.562   5.933   0.903  0.00  0.00     0.103 A 
ATOM      2  N   UNL d   1      -3.979   6.472   2.067  0.00  0.00    -0.350 N 
ATOM      3  HN  UNL d   1      -3.592   6.160   2.958  1.00  0.00     0.166 HD
ATOM      4  C   UNL d   1      -4.144   6.333  -0.300  0.00  0.00     0.051 A 
ATOM      5  C   UNL d   1      -5.526   7.912   0.857  0.00  0.00     0.050 A 
ATOM      6  C   UNL d   1      -4.926   7.440   2.019  0.00  0.00     0.119 A 
ATOM      7  C   UNL d   1      -5.115   7.328  -0.329  0.00  0.00     0.035 A 
ENDROOT
BRANCH   1   8
ATOM      8  N   UNL d   1      -2.510   5.059   0.940  0.00  0.00    -0.365 N 
ATOM      9  C   UNL d   1      -1.703   4.776  -0.252  0.00  0.00     0.139 C 
ATOM     10  C   UNL d   1      -0.225   4.606   0.145  0.00  0.00     0.117 C 
ATOM     11  N   UNL d   1      -0.142   3.528   1.151  0.00  0.00    -0.266 NA
ATOM     12  C   UNL d   1      -0.816   3.945   2.404  0.00  0.00     0.117 C 
ATOM     13  C   UNL d   1      -2.324   4.162   2.099  0.00  0.00     0.139 C 
BRANCH  11  14
ATOM     14  C   UNL d   1       1.080   2.896   1.242  0.00  0.00     0.097 A 
ATOM     15  C   UNL d   1       1.522   2.034   0.235  0.00  0.00     0.086 A 
ATOM     16  C   UNL d   1       2.775   1.412   0.388  0.00  0.00     0.021 A 
ATOM     17  C   UNL d   1       3.536   1.635   1.520  0.00  0.00     0.018 A 
ATOM     18  C   UNL d   1       3.016   2.477   2.476  0.00  0.00     0.089 A 
ATOM     19  N   UNL d   1       1.823   3.099   2.362  0.00  0.00    -0.356 N 
ATOM     20  HN  UNL d   1       1.484   3.712   3.104  1.00  0.00     0.166 HD
BRANCH  15  21
ATOM     21  C   UNL d   1       0.730   1.680  -0.990  0.00  0.00     0.420 C 
ATOM     22  F   UNL d   1      -0.536   2.173  -1.091  0.00  0.00    -0.166 F 
ATOM     23  F   UNL d   1       1.359   2.103  -2.130  0.00  0.00    -0.166 F 
ATOM     24  F   UNL d   1       0.590   0.331  -1.143  0.00  0.00    -0.166 F 
ENDBRANCH  15  21
ENDBRANCH  11  14
ENDBRANCH   1   8
BRANCH   5  25
ATOM     25  N   UNL d   1      -6.510   8.913   0.946  0.00  0.00    -0.322 N 
ATOM     26  C   UNL d   1      -7.226   9.457  -0.105  0.00  0.00     0.256 C 
ATOM     27  O   UNL d   1      -7.083   9.221  -1.297  0.00  0.00    -0.267 OA
ATOM     28  H   UNL d   1      -6.772   9.184   1.884  0.00  0.00     0.169 HD
BRANCH  26  29
ATOM     29  C   UNL d   1      -8.325  10.372   0.302  0.00  0.00     0.032 A 
ATOM     30  C   UNL d   1      -8.212  11.223   1.404  0.00  0.00     0.020 A 
ATOM     31  C   UNL d   1      -9.304  12.001   1.800  0.00  0.00     0.038 A 
ATOM     32  C   UNL d   1     -10.504  11.933   1.090  0.00  0.00     0.068 A 
ATOM     33  C   UNL d   1     -10.593  11.135  -0.050  0.00  0.00     0.038 A 
ATOM     34  C   UNL d   1      -9.510  10.351  -0.445  0.00  0.00     0.020 A 
BRANCH  32  35
ATOM     35  O   UNL d   1     -11.631  12.642   1.405  0.00  0.00    -0.356 OA
ATOM     36  C   UNL d   1     -11.846  12.825   2.801  0.00  0.00     0.210 C 
ENDBRANCH  32  35
ENDBRANCH  26  29
ENDBRANCH   5  25
TORSDOF 6
