REMARK  1 active torsions:
REMARK  status: ('A' for Active; 'I' for Inactive)
REMARK    1  A    between atoms: N_6  and  C_5 
ROOT
ATOM      1  C   UNL d   1      -0.057   1.429   0.220  0.00  0.00    -0.003 A 
ATOM      2  C   UNL d   1       0.295   0.064   0.104  0.00  0.00     0.052 A 
ATOM      3  N   UNL d   1      -0.607  -0.937   0.004  0.00  0.00    -0.354 N 
ATOM      4  HN  UNL d   1      -0.304  -1.909  -0.058  1.00  0.00     0.166 HD
ATOM      5  C   UNL d   1      -1.431   1.769   0.282  0.00  0.00     0.051 A 
ATOM      6  C   UNL d   1      -2.381   0.697   0.113  0.00  0.00     0.018 A 
ATOM      7  C   UNL d   1       1.720  -0.357   0.068  0.00  0.00    -0.003 A 
ATOM      8  C   UNL d   1      -1.904  -0.623  -0.013  0.00  0.00     0.045 A 
ATOM      9  C   UNL d   1       1.117   2.376   0.363  0.00  0.00     0.048 C 
ATOM     10  C   UNL d   1       2.711   0.592  -0.265  0.00  0.00    -0.045 A 
ATOM     11  C   UNL d   1       2.265   1.991  -0.576  0.00  0.00     0.044 C 
ATOM     12  C   UNL d   1      -3.788   0.886   0.026  0.00  0.00     0.016 A 
ATOM     13  C   UNL d   1       2.142  -1.659   0.373  0.00  0.00     0.014 A 
ATOM     14  C   UNL d   1      -2.805  -1.671  -0.180  0.00  0.00     0.030 A 
ATOM     15  C   UNL d   1       4.066   0.246  -0.317  0.00  0.00     0.008 A 
ATOM     16  C   UNL d   1      -4.679  -0.178  -0.125  0.00  0.00     0.001 A 
ATOM     17  C   UNL d   1       3.499  -2.002   0.351  0.00  0.00     0.001 A 
ATOM     18  C   UNL d   1      -4.185  -1.463  -0.228  0.00  0.00     0.002 A 
ATOM     19  C   UNL d   1       4.458  -1.051   0.003  0.00  0.00     0.001 A 
ENDROOT
BRANCH   5  20
ATOM     20  N   UNL d   1      -1.934   3.069   0.467  0.00  0.00    -0.376 N 
ATOM     21  C   UNL d   1      -1.261   4.274  -0.038  0.00  0.00     0.153 C 
ATOM     22  C   UNL d   1      -2.271   5.423  -0.227  0.00  0.00     0.291 C 
ATOM     23  N   UNL d   1      -2.995   5.738   1.025  0.00  0.00     0.087 N 
ATOM     24  C   UNL d   1      -3.652   4.510   1.527  0.00  0.00     0.291 C 
ATOM     25  C   UNL d   1      -3.964   6.805   0.791  0.00  0.00     0.310 C 
ATOM     26  C   UNL d   1      -2.649   3.340   1.740  0.00  0.00     0.153 C 
ENDBRANCH   5  20
TORSDOF 1
