REMARK  5 active torsions:
REMARK  status: ('A' for Active; 'I' for Inactive)
REMARK    1  A    between atoms: C_2  and  C_1 
REMARK    2  A    between atoms: C_5  and  C_3 
REMARK    3  A    between atoms: C_6  and  C_4 
REMARK    4  A    between atoms: O_9  and  C_5 
REMARK    5  A    between atoms: O_10  and  C_6 
ROOT
ATOM      1  C   UNL d   1       1.343  -0.333   0.245  0.00  0.00    -0.008 A 
ATOM      2  C   UNL d   1       0.630   0.767   0.800  0.00  0.00     0.048 A 
ATOM      3  C   UNL d   1       0.558  -1.425  -0.196  0.00  0.00     0.013 A 
ATOM      4  C   UNL d   1      -0.779   0.748   0.875  0.00  0.00     0.019 A 
ATOM      5  C   UNL d   1      -0.839  -1.417  -0.148  0.00  0.00     0.001 A 
ATOM      6  C   UNL d   1      -1.510  -0.331   0.390  0.00  0.00     0.001 A 
ENDROOT
BRANCH   1   7
ATOM      7  C   UNL d   1       2.831  -0.440   0.162  0.00  0.00    -0.008 A 
ATOM      8  C   UNL d   1       3.550  -0.987  -0.937  0.00  0.00     0.048 A 
ATOM      9  C   UNL d   1       4.956  -1.098  -0.894  0.00  0.00     0.019 A 
ATOM     10  C   UNL d   1       5.678  -0.654   0.207  0.00  0.00     0.001 A 
ATOM     11  C   UNL d   1       5.001  -0.118   1.291  0.00  0.00     0.001 A 
ATOM     12  C   UNL d   1       3.605  -0.036   1.275  0.00  0.00     0.013 A 
BRANCH   8  13
ATOM     13  C   UNL d   1       2.956  -1.549  -2.186  0.00  0.00     0.177 C 
ATOM     14  O   UNL d   1       3.342  -2.596  -2.673  0.00  0.00    -0.646 OA
BRANCH  13  15
ATOM     15  O   UNL d   1       2.023  -0.774  -2.772  0.00  0.00    -0.773 OA
ATOM     16  H   UNL d   1       1.774   0.036  -2.297  0.00  0.00     0.167 HD
ENDBRANCH  13  15
ENDBRANCH   8  13
ENDBRANCH   1   7
BRANCH   2  17
ATOM     17  C   UNL d   1       1.235   1.987   1.408  0.00  0.00     0.177 C 
ATOM     18  O   UNL d   1       0.837   2.456   2.462  0.00  0.00    -0.646 OA
BRANCH  17  19
ATOM     19  O   UNL d   1       2.191   2.577   0.665  0.00  0.00    -0.773 OA
ATOM     20  H   UNL d   1       2.447   2.118  -0.152  0.00  0.00     0.167 HD
ENDBRANCH  17  19
ENDBRANCH   2  17
TORSDOF 5
