REMARK  2 active torsions:
REMARK  status: ('A' for Active; 'I' for Inactive)
REMARK    1  A    between atoms: C_6  and  N_5 
REMARK    2  A    between atoms: C_7  and  C_6 
ROOT
ATOM      1  C   UNL d   1       1.255  -1.305   1.854  0.00  0.00     0.136 C 
ATOM      2  N   UNL d   1       1.404  -0.387   0.954  0.00  0.00    -0.370 N 
ATOM      3  HN  UNL d   1       1.368  -0.541  -0.054  1.00  0.00     0.161 HD
ATOM      4  S   UNL d   1       1.241  -0.788   3.520  0.00  0.00    -0.093 SA
ATOM      5  N   UNL d   1       1.089  -2.634   1.630  0.00  0.00    -0.367 N 
ATOM      6  C   UNL d   1       1.634   0.916   1.609  0.00  0.00     0.132 C 
ATOM      7  C   UNL d   1       0.997   0.918   2.986  0.00  0.00     0.102 C 
ATOM      8  H   UNL d   1       1.307  -3.246   2.406  0.00  0.00     0.161 HD
ENDROOT
BRANCH   5   9
ATOM      9  C   UNL d   1       1.195  -3.195   0.303  0.00  0.00     0.160 C 
BRANCH   9  10
ATOM     10  C   UNL d   1       1.092  -4.703   0.331  0.00  0.00    -0.041 A 
ATOM     11  C   UNL d   1      -0.151  -5.346   0.252  0.00  0.00     0.009 A 
ATOM     12  C   UNL d   1      -0.231  -6.744   0.236  0.00  0.00     0.007 A 
ATOM     13  C   UNL d   1       0.928  -7.526   0.306  0.00  0.00    -0.062 A 
ATOM     14  C   UNL d   1       2.168  -6.886   0.400  0.00  0.00     0.007 A 
ATOM     15  C   UNL d   1       0.831  -9.023   0.280  0.00  0.00     0.048 C 
ATOM     16  C   UNL d   1       2.248  -5.490   0.417  0.00  0.00     0.009 A 
ENDBRANCH   9  10
ENDBRANCH   5   9
TORSDOF 2
