REMARK  5 active torsions:
REMARK  status: ('A' for Active; 'I' for Inactive)
REMARK    1  A    between atoms: N_6  and  C_1 
REMARK    2  A    between atoms: N_11  and  C_1 
REMARK    3  A    between atoms: N_2  and  N_6 
REMARK    4  A    between atoms: C_8  and  C_16 
REMARK    5  A    between atoms: C_16  and  N_11 
ROOT
ATOM      1  N   UNL d   1       0.861  -1.487   2.159  0.00  0.00    -0.301 N 
ATOM      2  HN  UNL d   1       0.243  -1.162   1.416  1.00  0.00     0.186 HD
ATOM      3  C   UNL d   1       0.364  -2.088   3.201  0.00  0.00     0.046 C 
ATOM      4  C   UNL d   1      -1.132  -2.135   3.336  0.00  0.00    -0.004 A 
ATOM      5  S   UNL d   1       0.612  -4.452   4.532  0.00  0.00    -0.158 SA
ATOM      6  C   UNL d   1      -1.781  -3.048   4.185  0.00  0.00    -0.037 A 
ATOM      7  C   UNL d   1       1.179  -2.753   4.292  0.00  0.00     0.133 C 
ATOM      8  C   UNL d   1      -1.071  -4.062   5.041  0.00  0.00     0.113 C 
ATOM      9  C   UNL d   1      -1.891  -1.216   2.590  0.00  0.00     0.014 A 
ATOM     10  C   UNL d   1      -3.188  -2.994   4.280  0.00  0.00     0.009 A 
ATOM     11  C   UNL d   1      -3.281  -1.183   2.694  0.00  0.00     0.001 A 
ATOM     12  C   UNL d   1      -3.929  -2.071   3.542  0.00  0.00     0.001 A 
ENDROOT
BRANCH   1  13
ATOM     13  N   UNL d   1       2.203  -1.290   2.059  0.00  0.00    -0.276 N 
ATOM     14  H   UNL d   1       2.753  -1.135   2.899  0.00  0.00     0.189 HD
BRANCH  13  15
ATOM     15  C   UNL d   1       2.831  -1.249   0.836  0.00  0.00     0.186 C 
ATOM     16  S   UNL d   1       2.221  -1.837  -0.606  0.00  0.00    -0.040 SA
BRANCH  15  17
ATOM     17  N   UNL d   1       4.075  -0.680   0.814  0.00  0.00    -0.360 N 
ATOM     18  H   UNL d   1       4.485  -0.699  -0.112  0.00  0.00     0.162 HD
BRANCH  17  19
ATOM     19  C   UNL d   1       4.492   0.417   1.665  0.00  0.00     0.187 C 
BRANCH  19  20
ATOM     20  C   UNL d   1       5.233  -0.094   2.840  0.00  0.00     0.070 A 
ATOM     21  O   UNL d   1       4.497  -0.373   3.957  0.00  0.00    -0.325 OA
ATOM     22  C   UNL d   1       5.374  -0.765   4.918  0.00  0.00     0.142 A 
ATOM     23  C   UNL d   1       6.660  -0.754   4.432  0.00  0.00     0.027 A 
ATOM     24  C   UNL d   1       6.571  -0.328   3.086  0.00  0.00     0.036 A 
ENDBRANCH  19  20
ENDBRANCH  17  19
ENDBRANCH  15  17
ENDBRANCH  13  15
ENDBRANCH   1  13
TORSDOF 5
