REMARK  2 active torsions:
REMARK  status: ('A' for Active; 'I' for Inactive)
REMARK    1  A    between atoms: N_6  and  C_1 
REMARK       I    between atoms: C_8  and  N_6 
REMARK    2  A    between atoms: C_10  and  C_8 
ROOT
ATOM      1  C   UNL d   1      -2.367   1.540  -0.124  0.00  0.00     0.112 C 
ATOM      2  C   UNL d   1      -1.047   1.587   0.099  0.00  0.00     0.051 C 
ATOM      3  C   UNL d   1      -0.205   0.391   0.016  0.00  0.00     0.011 A 
ATOM      4  C   UNL d   1      -2.994   0.238  -0.496  0.00  0.00     0.315 C 
ATOM      5  O   UNL d   1      -2.261  -0.909  -0.246  0.00  0.00    -0.273 OA
ATOM      6  C   UNL d   1      -0.869  -0.835  -0.054  0.00  0.00     0.090 A 
ATOM      7  C   UNL d   1       1.218   0.412   0.034  0.00  0.00    -0.013 A 
ATOM      8  O   UNL d   1      -4.144   0.205  -0.929  0.00  0.00    -0.257 OA
ATOM      9  C   UNL d   1      -0.188  -2.045  -0.010  0.00  0.00     0.039 A 
ATOM     10  C   UNL d   1       1.914  -0.828   0.035  0.00  0.00    -0.025 A 
ATOM     11  C   UNL d   1       1.201  -2.037   0.042  0.00  0.00     0.015 A 
ATOM     12  C   UNL d   1       2.001   1.594   0.018  0.00  0.00     0.013 A 
ATOM     13  C   UNL d   1       3.318  -0.849   0.014  0.00  0.00     0.012 A 
ATOM     14  C   UNL d   1       3.397   1.554  -0.011  0.00  0.00     0.001 A 
ATOM     15  C   UNL d   1       4.056   0.333  -0.016  0.00  0.00     0.001 A 
ENDROOT
BRANCH   1  16
ATOM     16  N   UNL d   1      -3.243   2.618  -0.042  0.00  0.00    -0.318 N 
ATOM     17  C   UNL d   1      -2.972   3.888   0.423  0.00  0.00     0.256 C 
ATOM     18  O   UNL d   1      -1.885   4.261   0.859  0.00  0.00    -0.267 OA
ATOM     19  H   UNL d   1      -4.204   2.374  -0.281  0.00  0.00     0.169 HD
BRANCH  17  20
ATOM     20  C   UNL d   1      -4.097   4.869   0.430  0.00  0.00     0.032 A 
ATOM     21  C   UNL d   1      -4.008   5.945   1.330  0.00  0.00     0.018 A 
ATOM     22  C   UNL d   1      -4.975   6.951   1.338  0.00  0.00     0.025 A 
ATOM     23  C   UNL d   1      -6.039   6.887   0.444  0.00  0.00     0.034 A 
ATOM     24  C   UNL d   1      -6.151   5.816  -0.444  0.00  0.00     0.025 A 
ATOM     25 CL   UNL d   1      -7.207   8.150   0.416  0.00  0.00    -0.084 Cl
ATOM     26  C   UNL d   1      -5.181   4.804  -0.454  0.00  0.00     0.018 A 
ENDBRANCH  17  20
ENDBRANCH   1  16
TORSDOF 2
