REMARK  6 active torsions:
REMARK  status: ('A' for Active; 'I' for Inactive)
REMARK    1  A    between atoms: O_4  and  S_1 
REMARK    2  A    between atoms: N_7  and  S_1 
REMARK    3  A    between atoms: S_2  and  O_6 
REMARK    4  A    between atoms: N_8  and  S_2 
REMARK    5  A    between atoms: C_3  and  O_4 
REMARK    6  A    between atoms: O_6  and  C_5 
ROOT
ATOM      1  C   UNL d   1       0.923  -1.237   2.319  0.00  0.00     0.164 A 
ATOM      2  C   UNL d   1      -0.095  -1.891   3.034  0.00  0.00     0.129 A 
ATOM      3  C   UNL d   1       2.238  -1.707   2.460  0.00  0.00     0.153 A 
ATOM      4  F   UNL d   1       3.270  -1.053   1.915  0.00  0.00    -0.203 F 
ATOM      5  C   UNL d   1       0.204  -3.084   3.719  0.00  0.00     0.041 A 
ATOM      6  C   UNL d   1       1.511  -3.564   3.795  0.00  0.00     0.006 A 
ATOM      7  C   UNL d   1       2.535  -2.855   3.187  0.00  0.00     0.045 A 
ENDROOT
BRANCH   1   8
ATOM      8  O   UNL d   1       0.592  -0.165   1.510  0.00  0.00    -0.210 OA
BRANCH   8   9
ATOM      9  S   UNL d   1       1.490   0.145   0.165  0.00  0.00     0.364 S 
ATOM     10  O   UNL d   1       1.774  -1.109  -0.500  0.00  0.00    -0.175 OA
ATOM     11  O   UNL d   1       2.545   1.070   0.520  0.00  0.00    -0.175 OA
BRANCH   9  12
ATOM     12  N   UNL d   1       0.453   0.991  -0.880  0.00  0.00    -0.297 N 
ATOM     13  C   UNL d   1      -0.742   0.286  -1.349  0.00  0.00     0.164 C 
ATOM     14  C   UNL d   1       0.273   2.423  -0.626  0.00  0.00     0.164 C 
ENDBRANCH   9  12
ENDBRANCH   8   9
ENDBRANCH   1   8
BRANCH   2  15
ATOM     15  O   UNL d   1      -1.357  -1.333   3.053  0.00  0.00    -0.214 OA
BRANCH  15  16
ATOM     16  S   UNL d   1      -2.373  -1.647   4.308  0.00  0.00     0.364 S 
ATOM     17  O   UNL d   1      -3.075  -2.880   4.017  0.00  0.00    -0.175 OA
ATOM     18  O   UNL d   1      -1.639  -1.492   5.548  0.00  0.00    -0.175 OA
BRANCH  16  19
ATOM     19  N   UNL d   1      -3.520  -0.395   4.277  0.00  0.00    -0.297 N 
ATOM     20  C   UNL d   1      -2.997   0.946   4.573  0.00  0.00     0.164 C 
ATOM     21  C   UNL d   1      -4.502  -0.439   3.189  0.00  0.00     0.164 C 
ENDBRANCH  16  19
ENDBRANCH  15  16
ENDBRANCH   2  15
TORSDOF 6
