REMARK  7 active torsions:
REMARK  status: ('A' for Active; 'I' for Inactive)
REMARK    1  A    between atoms: C_3  and  C_1 
REMARK    2  A    between atoms: O_5  and  C_1 
REMARK    3  A    between atoms: C_2  and  O_6 
REMARK    4  A    between atoms: C_4  and  C_2 
REMARK    5  A    between atoms: C_19  and  O_5 
REMARK    6  A    between atoms: O_6  and  C_20 
REMARK    7  A    between atoms: C_14  and  C_13 
ROOT
ATOM      1  C   UNL d   1      -3.843  -0.995  -0.857  0.00  0.00    -0.026 A 
ATOM      2  C   UNL d   1      -3.097  -2.151  -0.564  0.00  0.00     0.015 A 
ATOM      3  C   UNL d   1      -3.111   0.188  -1.102  0.00  0.00     0.015 A 
ATOM      4  C   UNL d   1      -1.008  -0.942  -0.797  0.00  0.00     0.079 A 
ATOM      5  C   UNL d   1      -1.691  -2.126  -0.524  0.00  0.00     0.038 A 
ATOM      6  C   UNL d   1      -1.713   0.220  -1.076  0.00  0.00     0.038 A 
ENDROOT
BRANCH   1   7
ATOM      7  C   UNL d   1      -5.328  -0.991  -0.937  0.00  0.00    -0.026 A 
ATOM      8  C   UNL d   1      -5.982  -0.153  -1.857  0.00  0.00     0.015 A 
ATOM      9  C   UNL d   1      -7.375  -0.096  -1.960  0.00  0.00     0.038 A 
ATOM     10  C   UNL d   1      -8.168  -0.907  -1.159  0.00  0.00     0.079 A 
ATOM     11  C   UNL d   1      -7.557  -1.753  -0.230  0.00  0.00     0.038 A 
ATOM     12  C   UNL d   1      -6.151  -1.789  -0.120  0.00  0.00     0.015 A 
BRANCH  10  13
ATOM     13  O   UNL d   1      -9.588  -0.960  -1.232  0.00  0.00    -0.275 OA
BRANCH  13  14
ATOM     14  C   UNL d   1     -10.344  -0.219  -2.134  0.00  0.00     0.304 C 
ATOM     15  O   UNL d   1      -9.937   0.599  -2.949  0.00  0.00    -0.259 OA
BRANCH  14  16
ATOM     16  C   UNL d   1     -11.775  -0.536  -2.043  0.00  0.00     0.116 A 
ATOM     17  C   UNL d   1     -12.548  -0.474  -3.206  0.00  0.00     0.135 A 
ATOM     18  F   UNL d   1     -11.983  -0.263  -4.403  0.00  0.00    -0.205 F 
ATOM     19  C   UNL d   1     -13.933  -0.636  -3.163  0.00  0.00     0.043 A 
ATOM     20  C   UNL d   1     -14.564  -0.869  -1.945  0.00  0.00     0.006 A 
ATOM     21  C   UNL d   1     -13.800  -0.951  -0.779  0.00  0.00     0.043 A 
ATOM     22  C   UNL d   1     -12.414  -0.782  -0.833  0.00  0.00     0.135 A 
ATOM     23  F   UNL d   1     -11.727  -0.824   0.318  0.00  0.00    -0.205 F 
ENDBRANCH  14  16
ENDBRANCH  13  14
ENDBRANCH  10  13
ENDBRANCH   1   7
BRANCH   4  24
ATOM     24  O   UNL d   1       0.395  -0.952  -0.648  0.00  0.00    -0.275 OA
BRANCH  24  25
ATOM     25  C   UNL d   1       1.196  -0.190  -1.492  0.00  0.00     0.304 C 
ATOM     26  O   UNL d   1       0.848   0.410  -2.494  0.00  0.00    -0.259 OA
BRANCH  25  27
ATOM     27  C   UNL d   1       2.566  -0.147  -0.955  0.00  0.00     0.116 A 
ATOM     28  C   UNL d   1       3.312   1.025  -1.077  0.00  0.00     0.135 A 
ATOM     29  F   UNL d   1       2.788   2.125  -1.637  0.00  0.00    -0.205 F 
ATOM     30  C   UNL d   1       4.620   1.100  -0.594  0.00  0.00     0.043 A 
ATOM     31  C   UNL d   1       5.199  -0.008   0.021  0.00  0.00     0.006 A 
ATOM     32  C   UNL d   1       4.464  -1.187   0.145  0.00  0.00     0.043 A 
ATOM     33  C   UNL d   1       3.158  -1.252  -0.346  0.00  0.00     0.135 A 
ATOM     34  F   UNL d   1       2.501  -2.415  -0.233  0.00  0.00    -0.205 F 
ENDBRANCH  25  27
ENDBRANCH  24  25
ENDBRANCH   4  24
TORSDOF 7
