REMARK  6 active torsions:
REMARK  status: ('A' for Active; 'I' for Inactive)
REMARK    1  A    between atoms: C_7  and  C_1 
REMARK    2  A    between atoms: N_12  and  C_4 
REMARK    3  A    between atoms: O_19  and  C_7 
REMARK    4  A    between atoms: N_8  and  N_12 
REMARK    5  A    between atoms: O_22  and  C_17 
REMARK    6  A    between atoms: C_25  and  O_19 
ROOT
ATOM      1  N   UNL d   1       2.736   2.307   0.014  0.00  0.00    -0.302 N 
ATOM      2  HN  UNL d   1       3.181   2.857   0.749  1.00  0.00     0.186 HD
ATOM      3  C   UNL d   1       4.943   1.743  -0.790  0.00  0.00    -0.006 A 
ATOM      4  C   UNL d   1       5.742   0.912  -1.590  0.00  0.00    -0.043 A 
ATOM      5  C   UNL d   1       3.449   1.661  -0.867  0.00  0.00     0.036 C 
ATOM      6  C   UNL d   1       5.548   2.657   0.082  0.00  0.00     0.017 A 
ATOM      7  C   UNL d   1       7.140   1.011  -1.497  0.00  0.00     0.044 A 
ATOM      8  C   UNL d   1       7.745   1.935  -0.640  0.00  0.00     0.068 A 
ATOM      9  C   UNL d   1       6.945   2.755   0.154  0.00  0.00     0.037 A 
ATOM     10  C   UNL d   1       5.129  -0.101  -2.513  0.00  0.00     0.040 C 
ATOM     11  C   UNL d   1       2.848   0.748  -1.933  0.00  0.00     0.060 C 
ATOM     12  C   UNL d   1       3.814   0.427  -3.062  0.00  0.00     0.011 C 
ENDROOT
BRANCH   1  13
ATOM     13  N   UNL d   1       1.381   2.223  -0.076  0.00  0.00    -0.279 N 
ATOM     14  H   UNL d   1       0.933   2.248  -0.987  0.00  0.00     0.189 HD
BRANCH  13  15
ATOM     15  C   UNL d   1       0.517   2.199   0.967  0.00  0.00     0.164 A 
ATOM     16  S   UNL d   1       1.008   2.218   2.613  0.00  0.00    -0.045 SA
ATOM     17  C   UNL d   1      -0.603   1.890   3.108  0.00  0.00     0.105 A 
ATOM     18  C   UNL d   1      -1.436   1.915   2.001  0.00  0.00     0.030 A 
ATOM     19  N   UNL d   1      -0.784   2.106   0.791  0.00  0.00    -0.338 N 
ATOM     20  C   UNL d   1      -2.910   1.695   1.953  0.00  0.00     0.070 C 
ATOM     21  HN  UNL d   1      -1.251   2.166  -0.114  1.00  0.00     0.168 HD
BRANCH  17  22
ATOM     22  C   UNL d   1      -0.852   1.568   4.493  0.00  0.00     0.302 C 
ATOM     23  O   UNL d   1      -0.036   1.597   5.406  0.00  0.00    -0.259 OA
BRANCH  22  24
ATOM     24  O   UNL d   1      -2.119   1.079   4.629  0.00  0.00    -0.317 OA
BRANCH  24  25
ATOM     25  C   UNL d   1      -2.319   0.179   5.726  0.00  0.00     0.174 C 
ATOM     26  C   UNL d   1      -1.956  -1.218   5.253  0.00  0.00     0.034 C 
ENDBRANCH  24  25
ENDBRANCH  22  24
ENDBRANCH  17  22
ENDBRANCH  13  15
ENDBRANCH   1  13
BRANCH   8  27
ATOM     27  O   UNL d   1       9.111   1.933  -0.679  0.00  0.00    -0.356 OA
ATOM     28  C   UNL d   1       9.782   2.875   0.147  0.00  0.00     0.210 C 
ENDBRANCH   8  27
TORSDOF 6
