REMARK  3 active torsions:
REMARK  status: ('A' for Active; 'I' for Inactive)
REMARK    1  A    between atoms: C_6  and  C_3 
REMARK    2  A    between atoms: C_11  and  C_4 
REMARK    3  A    between atoms: C_8  and  C_6 
ROOT
ATOM      1  N   UNL d   1      -0.777   0.030   0.002  0.00  0.00    -0.331 N 
ATOM      2  HN  UNL d   1      -1.762  -0.231   0.040  1.00  0.00     0.168 HD
ATOM      3  C   UNL d   1       0.324  -0.784  -0.032  0.00  0.00     0.111 A 
ATOM      4  C   UNL d   1      -0.254   1.214  -0.028  0.00  0.00     0.162 A 
ATOM      5  O   UNL d   1       1.097   1.304  -0.090  0.00  0.00    -0.256 OA
ATOM      6  C   UNL d   1       1.568   0.025  -0.096  0.00  0.00     0.316 A 
ATOM      7  O   UNL d   1       2.726  -0.337  -0.139  0.00  0.00    -0.257 OA
ENDROOT
BRANCH   3   8
ATOM      8  C   UNL d   1       0.328  -2.121  -0.003  0.00  0.00     0.052 C 
BRANCH   8   9
ATOM      9  C   UNL d   1      -0.927  -2.879   0.044  0.00  0.00     0.026 A 
ATOM     10  C   UNL d   1      -1.546  -3.258   1.244  0.00  0.00     0.047 A 
ATOM     11 CL   UNL d   1      -0.827  -2.931   2.783  0.00  0.00    -0.083 Cl
ATOM     12  C   UNL d   1      -2.782  -3.919   1.229  0.00  0.00     0.025 A 
ATOM     13  C   UNL d   1      -3.413  -4.206   0.018  0.00  0.00     0.005 A 
ATOM     14  C   UNL d   1      -2.806  -3.838  -1.180  0.00  0.00     0.043 A 
ATOM     15  C   UNL d   1      -1.577  -3.183  -1.159  0.00  0.00     0.128 A 
ATOM     16  F   UNL d   1      -1.021  -2.837  -2.331  0.00  0.00    -0.205 F 
ENDBRANCH   8   9
ENDBRANCH   3   8
BRANCH   4  17
ATOM     17  C   UNL d   1      -0.986   2.487   0.022  0.00  0.00     0.015 A 
ATOM     18  C   UNL d   1      -2.384   2.454   0.117  0.00  0.00     0.016 A 
ATOM     19  C   UNL d   1      -3.108   3.642   0.219  0.00  0.00     0.001 A 
ATOM     20  C   UNL d   1      -2.440   4.865   0.225  0.00  0.00     0.000 A 
ATOM     21  C   UNL d   1      -1.050   4.904   0.115  0.00  0.00     0.001 A 
ATOM     22  C   UNL d   1      -0.320   3.717   0.012  0.00  0.00     0.016 A 
ENDBRANCH   4  17
TORSDOF 3
