REMARK  3 active torsions:
REMARK  status: ('A' for Active; 'I' for Inactive)
REMARK    1  A    between atoms: N_2  and  C_1 
REMARK    2  A    between atoms: C_9  and  C_4 
REMARK    3  A    between atoms: O_18  and  C_11 
ROOT
ATOM      1  C   UNL d   1       2.353  -0.906   0.016  0.00  0.00     0.115 C 
ATOM      2  C   UNL d   1       1.226  -1.546   0.353  0.00  0.00     0.049 C 
ATOM      3  C   UNL d   1       2.394   0.517  -0.430  0.00  0.00     0.218 C 
ATOM      4  O   UNL d   1       1.280   1.278   0.110  0.00  0.00    -0.331 OA
ATOM      5  C   UNL d   1       0.060   0.643   0.122  0.00  0.00     0.113 A 
ATOM      6  C   UNL d   1      -0.005  -0.765   0.220  0.00  0.00     0.002 A 
ATOM      7  C   UNL d   1      -1.117   1.400   0.053  0.00  0.00     0.102 A 
ATOM      8  C   UNL d   1      -1.242  -1.413   0.181  0.00  0.00     0.014 A 
ATOM      9  C   UNL d   1      -2.411  -0.667   0.061  0.00  0.00     0.004 A 
ATOM     10  C   UNL d   1      -2.345   0.726   0.011  0.00  0.00     0.040 A 
ENDROOT
BRANCH   3  11
ATOM     11  C   UNL d   1       2.413   0.730  -1.946  0.00  0.00    -0.023 A 
ATOM     12  C   UNL d   1       1.769  -0.147  -2.841  0.00  0.00     0.013 A 
ATOM     13  C   UNL d   1       1.772   0.101  -4.215  0.00  0.00     0.043 A 
ATOM     14  C   UNL d   1       2.407   1.231  -4.704  0.00  0.00     0.116 A 
ATOM     15  C   UNL d   1       3.037   2.123  -3.845  0.00  0.00     0.043 A 
ATOM     16  F   UNL d   1       2.404   1.471  -6.022  0.00  0.00    -0.206 F 
ATOM     17  C   UNL d   1       3.038   1.877  -2.470  0.00  0.00     0.013 A 
ENDBRANCH   3  11
BRANCH   1  18
ATOM     18  N   UNL d   1       3.621  -1.606   0.083  0.00  0.00    -0.117 N 
ATOM     19  O   UNL d   1       4.643  -0.961  -0.186  0.00  0.00    -0.532 OA
ATOM     20  O   UNL d   1       3.610  -2.801   0.404  0.00  0.00    -0.532 OA
ENDBRANCH   1  18
BRANCH   7  21
ATOM     21  O   UNL d   1      -1.260   2.760  -0.005  0.00  0.00    -0.353 OA
ATOM     22  C   UNL d   1      -0.103   3.577   0.087  0.00  0.00     0.210 C 
ENDBRANCH   7  21
TORSDOF 3
