REMARK  4 active torsions:
REMARK  status: ('A' for Active; 'I' for Inactive)
REMARK    1  A    between atoms: C_2  and  S_1 
REMARK    2  A    between atoms: C_3  and  S_1 
REMARK    3  A    between atoms: O_14  and  C_9 
REMARK    4  A    between atoms: C_17  and  O_14 
ROOT
ATOM      1  C   UNL d   1       0.114   0.396  -1.704  0.00  0.00     0.165 C 
ATOM      2  C   UNL d   1      -1.173  -0.152  -1.981  0.00  0.00     0.114 C 
ATOM      3  N   UNL d   1      -2.227  -0.586  -2.219  0.00  0.00    -0.191 NA
ATOM      4  C   UNL d   1       0.775   1.215  -2.561  0.00  0.00     0.169 C 
ENDROOT
BRANCH   1   5
ATOM      5  S   UNL d   1       0.904   0.105  -0.168  0.00  0.00     0.218 S 
ATOM      6  O   UNL d   1       0.388   1.041   0.814  0.00  0.00    -0.216 OA
ATOM      7  O   UNL d   1       2.341  -0.003  -0.341  0.00  0.00    -0.216 OA
BRANCH   5   8
ATOM      8  C   UNL d   1       0.356  -1.520   0.333  0.00  0.00     0.065 A 
ATOM      9  C   UNL d   1       1.073  -2.653  -0.071  0.00  0.00     0.036 A 
ATOM     10  C   UNL d   1       0.691  -3.930   0.379  0.00  0.00    -0.025 A 
ATOM     11  C   UNL d   1       1.388  -5.088  -0.009  0.00  0.00     0.012 A 
ATOM     12  C   UNL d   1      -0.415  -4.057   1.254  0.00  0.00    -0.026 A 
ATOM     13  C   UNL d   1       0.994  -6.348   0.446  0.00  0.00     0.001 A 
ATOM     14  C   UNL d   1      -0.098  -6.471   1.300  0.00  0.00     0.001 A 
ATOM     15  C   UNL d   1      -0.796  -5.332   1.704  0.00  0.00     0.012 A 
ATOM     16  C   UNL d   1      -1.104  -2.904   1.664  0.00  0.00     0.014 A 
ATOM     17  C   UNL d   1      -0.720  -1.639   1.215  0.00  0.00     0.025 A 
ENDBRANCH   5   8
ENDBRANCH   1   5
BRANCH   4  18
ATOM     18  O   UNL d   1       0.269   1.469  -3.808  0.00  0.00    -0.361 OA
BRANCH  18  19
ATOM     19  C   UNL d   1       0.568   2.762  -4.330  0.00  0.00     0.170 C 
ATOM     20  C   UNL d   1      -0.205   2.908  -5.630  0.00  0.00     0.034 C 
ENDBRANCH  18  19
ENDBRANCH   4  18
TORSDOF 4
