REMARK  4 active torsions:
REMARK  status: ('A' for Active; 'I' for Inactive)
REMARK    1  A    between atoms: N_2  and  C_1 
REMARK    2  A    between atoms: C_8  and  C_3 
REMARK    3  A    between atoms: O_15  and  C_13 
REMARK    4  A    between atoms: C_18  and  O_15 
ROOT
ATOM      1  C   UNL d   1       2.101  -0.761   0.054  0.00  0.00     0.115 C 
ATOM      2  C   UNL d   1       2.460   0.691  -0.036  0.00  0.00     0.218 C 
ATOM      3  C   UNL d   1       0.863  -1.266   0.021  0.00  0.00     0.049 C 
ATOM      4  O   UNL d   1       1.340   1.571  -0.316  0.00  0.00    -0.334 OA
ATOM      5  C   UNL d   1      -0.220  -0.303  -0.117  0.00  0.00     0.001 A 
ATOM      6  C   UNL d   1       0.071   1.058  -0.275  0.00  0.00     0.080 A 
ATOM      7  C   UNL d   1      -1.554  -0.730  -0.109  0.00  0.00     0.038 A 
ATOM      8  C   UNL d   1      -0.963   1.985  -0.411  0.00  0.00     0.039 A 
ATOM      9  C   UNL d   1      -2.580   0.203  -0.251  0.00  0.00     0.035 A 
ATOM     10  C   UNL d   1      -2.291   1.558  -0.398  0.00  0.00     0.026 A 
ATOM     11 CL   UNL d   1      -4.218  -0.325  -0.249  0.00  0.00    -0.084 Cl
ENDROOT
BRANCH   2  12
ATOM     12  C   UNL d   1       3.123   1.226   1.229  0.00  0.00    -0.020 A 
ATOM     13  C   UNL d   1       2.424   1.238   2.446  0.00  0.00     0.047 A 
ATOM     14  C   UNL d   1       3.074   1.548   3.646  0.00  0.00     0.076 A 
ATOM     15  C   UNL d   1       4.392   1.998   3.618  0.00  0.00     0.037 A 
ATOM     16  C   UNL d   1       5.078   2.066   2.405  0.00  0.00     0.003 A 
ATOM     17  C   UNL d   1       4.457   1.660   1.221  0.00  0.00     0.010 A 
BRANCH  14  18
ATOM     18  O   UNL d   1       2.481   1.444   4.888  0.00  0.00    -0.311 OA
BRANCH  18  19
ATOM     19  C   UNL d   1       1.523   0.471   5.086  0.00  0.00     0.076 A 
ATOM     20  C   UNL d   1       1.568  -0.798   4.495  0.00  0.00     0.037 A 
ATOM     21  C   UNL d   1       0.500  -1.680   4.649  0.00  0.00     0.003 A 
ATOM     22  C   UNL d   1      -0.575  -1.332   5.463  0.00  0.00     0.000 A 
ATOM     23  C   UNL d   1      -0.575  -0.108   6.135  0.00  0.00     0.003 A 
ATOM     24  C   UNL d   1       0.473   0.795   5.946  0.00  0.00     0.037 A 
ENDBRANCH  18  19
ENDBRANCH  14  18
ENDBRANCH   2  12
BRANCH   1  25
ATOM     25  N   UNL d   1       3.211  -1.690   0.150  0.00  0.00    -0.117 N 
ATOM     26  O   UNL d   1       3.005  -2.778   0.711  0.00  0.00    -0.532 OA
ATOM     27  O   UNL d   1       4.282  -1.343  -0.353  0.00  0.00    -0.532 OA
ENDBRANCH   1  25
TORSDOF 4
