REMARK  4 active torsions:
REMARK  status: ('A' for Active; 'I' for Inactive)
REMARK    1  A    between atoms: C_2  and  N_1 
REMARK    2  A    between atoms: N_3  and  C_4 
REMARK    3  A    between atoms: C_7  and  C_12 
REMARK    4  A    between atoms: C_11  and  C_7 
ROOT
ATOM      1  N   UNL d   1      -2.477   3.830   1.748  0.00  0.00    -0.367 N 
ATOM      2  C   UNL d   1      -4.442   5.886   2.428  0.00  0.00     0.064 C 
ATOM      3  C   UNL d   1      -2.415   4.442   3.075  0.00  0.00     0.125 C 
ATOM      4  C   UNL d   1      -3.014   4.679   0.682  0.00  0.00     0.125 C 
ATOM      5  C   UNL d   1      -3.789   4.981   3.483  0.00  0.00     0.032 C 
ATOM      6  C   UNL d   1      -4.394   5.207   1.058  0.00  0.00     0.032 C 
ENDROOT
BRANCH   1   7
ATOM      7  C   UNL d   1      -1.421   3.032   1.300  0.00  0.00     0.103 A 
ATOM      8  C   UNL d   1      -0.223   2.876   2.002  0.00  0.00     0.051 A 
ATOM      9  C   UNL d   1       0.790   2.045   1.507  0.00  0.00     0.041 A 
ATOM     10  C   UNL d   1       0.571   1.364   0.315  0.00  0.00     0.118 A 
ATOM     11  C   UNL d   1      -0.631   1.546  -0.335  0.00  0.00     0.125 A 
ATOM     12  N   UNL d   1      -1.606   2.364   0.133  0.00  0.00    -0.350 N 
ATOM     13  HN  UNL d   1      -2.475   2.477  -0.390  1.00  0.00     0.166 HD
BRANCH  10  14
ATOM     14  N   UNL d   1       1.576   0.479  -0.253  0.00  0.00    -0.114 N 
ATOM     15  O   UNL d   1       1.311  -0.090  -1.320  0.00  0.00    -0.532 OA
ATOM     16  O   UNL d   1       2.642   0.349   0.368  0.00  0.00    -0.532 OA
ENDBRANCH  10  14
ENDBRANCH   1   7
BRANCH   2  17
ATOM     17  C   UNL d   1      -3.861   7.309   2.424  0.00  0.00     0.163 C 
ATOM     18  O   UNL d   1      -2.779   7.570   2.943  0.00  0.00    -0.292 OA
BRANCH  17  19
ATOM     19  C   UNL d   1      -4.649   8.426   1.784  0.00  0.00     0.010 A 
ATOM     20  C   UNL d   1      -5.841   8.195   1.087  0.00  0.00     0.015 A 
ATOM     21  C   UNL d   1      -6.523   9.244   0.466  0.00  0.00     0.007 A 
ATOM     22  C   UNL d   1      -6.051  10.553   0.559  0.00  0.00    -0.062 A 
ATOM     23  C   UNL d   1      -4.878  10.800   1.282  0.00  0.00     0.007 A 
ATOM     24  C   UNL d   1      -6.814  11.657  -0.113  0.00  0.00     0.048 C 
ATOM     25  C   UNL d   1      -4.176   9.744   1.884  0.00  0.00     0.015 A 
ENDBRANCH  17  19
ENDBRANCH   2  17
TORSDOF 4
