REMARK  6 active torsions:
REMARK  status: ('A' for Active; 'I' for Inactive)
REMARK    1  A    between atoms: S_9  and  C_5 
REMARK    2  A    between atoms: N_14  and  C_6 
REMARK    3  A    between atoms: O_15  and  C_7 
REMARK    4  A    between atoms: C_16  and  S_9 
REMARK    5  A    between atoms: C_10  and  C_11 
REMARK    6  A    between atoms: C_17  and  C_16 
ROOT
ATOM      1  N   UNL d   1      -0.361   0.274  -1.903  0.00  0.00    -0.328 N 
ATOM      2  HN  UNL d   1      -0.689  -0.195  -2.747  1.00  0.00     0.169 HD
ATOM      3  N   UNL d   1      -0.858   1.490   0.079  0.00  0.00    -0.317 N 
ATOM      4  HN  UNL d   1      -1.542   1.927   0.698  1.00  0.00     0.170 HD
ATOM      5  C   UNL d   1      -1.220   0.858  -1.044  0.00  0.00     0.147 A 
ATOM      6  C   UNL d   1       0.938   0.337  -1.597  0.00  0.00     0.083 A 
ATOM      7  C   UNL d   1       0.450   1.514   0.341  0.00  0.00     0.144 A 
ATOM      8  C   UNL d   1       1.407   0.947  -0.458  0.00  0.00     0.097 A 
ENDROOT
BRANCH   5   9
ATOM      9  S   UNL d   1      -2.946   0.775  -1.466  0.00  0.00    -0.089 SA
BRANCH   9  10
ATOM     10  C   UNL d   1      -3.681   1.551   0.014  0.00  0.00     0.121 C 
BRANCH  10  11
ATOM     11  C   UNL d   1      -5.191   1.629  -0.069  0.00  0.00    -0.049 A 
ATOM     12  C   UNL d   1      -5.982   0.475  -0.075  0.00  0.00     0.008 A 
ATOM     13  C   UNL d   1      -7.376   0.560  -0.209  0.00  0.00     0.008 A 
ATOM     14  C   UNL d   1      -8.031   1.799  -0.339  0.00  0.00    -0.051 A 
ATOM     15  C   UNL d   1      -7.231   2.950  -0.262  0.00  0.00     0.008 A 
ATOM     16  C   UNL d   1      -5.837   2.868  -0.133  0.00  0.00     0.008 A 
BRANCH  14  17
ATOM     17  C   UNL d   1      -9.546   1.857  -0.613  0.00  0.00    -0.024 C 
ATOM     18  C   UNL d   1     -10.091   3.293  -0.789  0.00  0.00     0.019 C 
ATOM     19  C   UNL d   1      -9.853   1.096  -1.923  0.00  0.00     0.019 C 
ATOM     20  C   UNL d   1     -10.338   1.206   0.539  0.00  0.00     0.019 C 
ENDBRANCH  14  17
ENDBRANCH  10  11
ENDBRANCH   9  10
ENDBRANCH   5   9
BRANCH   7  21
ATOM     21  O   UNL d   1       0.783   2.153   1.497  0.00  0.00    -0.346 OA
ATOM     22  H   UNL d   1       1.742   2.080   1.626  0.00  0.00     0.219 HD
ENDBRANCH   7  21
BRANCH   6  23
ATOM     23  N   UNL d   1       1.826  -0.306  -2.462  0.00  0.00    -0.288 NA
ATOM     24  H   UNL d   1       1.294  -0.648  -3.260  0.00  0.00     0.125 HD
ATOM     25  H   UNL d   1       2.595   0.289  -2.751  0.00  0.00     0.125 HD
ENDBRANCH   6  23
TORSDOF 6
