REMARK  2 active torsions:
REMARK  status: ('A' for Active; 'I' for Inactive)
REMARK    1  A    between atoms: O_7  and  C_1 
REMARK    2  A    between atoms: C_9  and  O_7 
ROOT
ATOM      1  C   UNL d   1      -0.689   1.677  -0.099  0.00  0.00     0.090 A 
ATOM      2  N   UNL d   1      -1.059  -1.077  -0.031  0.00  0.00    -0.359 N 
ATOM      3  HN  UNL d   1      -1.201  -2.086   0.029  1.00  0.00     0.166 HD
ATOM      4  C   UNL d   1       0.434   0.827  -0.039  0.00  0.00     0.025 A 
ATOM      5  C   UNL d   1       0.183  -0.561  -0.017  0.00  0.00     0.045 A 
ATOM      6  C   UNL d   1      -1.970   1.134  -0.207  0.00  0.00     0.062 A 
ATOM      7  C   UNL d   1      -2.115  -0.240  -0.125  0.00  0.00     0.008 A 
ATOM      8  C   UNL d   1       1.770   1.290  -0.008  0.00  0.00     0.016 A 
ATOM      9  C   UNL d   1       1.260  -1.433   0.026  0.00  0.00     0.030 A 
ATOM     10  C   UNL d   1      -3.485  -0.846  -0.073  0.00  0.00     0.068 C 
ATOM     11  C   UNL d   1       2.837   0.390   0.032  0.00  0.00     0.001 A 
ATOM     12  C   UNL d   1       2.580  -0.975   0.048  0.00  0.00     0.002 A 
ENDROOT
BRANCH   1  13
ATOM     13  O   UNL d   1      -0.476   3.043  -0.090  0.00  0.00    -0.310 OA
BRANCH  13  14
ATOM     14  C   UNL d   1      -1.353   3.861   0.592  0.00  0.00     0.076 A 
ATOM     15  C   UNL d   1      -2.046   3.485   1.749  0.00  0.00     0.039 A 
ATOM     16  C   UNL d   1      -2.952   4.367   2.343  0.00  0.00     0.026 A 
ATOM     17  C   UNL d   1      -3.120   5.645   1.816  0.00  0.00     0.034 A 
ATOM     18  C   UNL d   1      -2.386   6.051   0.702  0.00  0.00     0.026 A 
ATOM     19 CL   UNL d   1      -4.236   6.729   2.549  0.00  0.00    -0.084 Cl
ATOM     20  C   UNL d   1      -1.502   5.157   0.090  0.00  0.00     0.039 A 
ENDBRANCH  13  14
ENDBRANCH   1  13
TORSDOF 2
