REMARK  6 active torsions:
REMARK  status: ('A' for Active; 'I' for Inactive)
REMARK    1  A    between atoms: C_12  and  C_3 
REMARK    2  A    between atoms: C_9  and  C_4 
REMARK    3  A    between atoms: C_8  and  O_13 
REMARK    4  A    between atoms: O_25  and  C_11 
REMARK    5  A    between atoms: O_13  and  C_22 
REMARK    6  A    between atoms: O_26  and  C_14 
ROOT
ATOM      1  N   UNL d   1       1.255   0.168  -0.046  0.00  0.00    -0.319 N 
ATOM      2  HN  UNL d   1       2.264   0.319  -0.055  1.00  0.00     0.169 HD
ATOM      3  C   UNL d   1       0.249   1.098  -0.041  0.00  0.00     0.138 A 
ATOM      4  C   UNL d   1       0.595  -0.967  -0.035  0.00  0.00     0.182 A 
ATOM      5  N   UNL d   1      -0.989   0.574  -0.034  0.00  0.00    -0.242 N 
ATOM      6  HN  UNL d   1      -1.882   1.065  -0.030  1.00  0.00     0.196 HD
ATOM      7  O   UNL d   1      -0.759  -0.801  -0.032  0.00  0.00    -0.217 OA
ENDROOT
BRANCH   3   8
ATOM      8  C   UNL d   1       0.532   2.527  -0.042  0.00  0.00     0.010 A 
ATOM      9  C   UNL d   1       1.861   2.970  -0.097  0.00  0.00     0.018 A 
ATOM     10  C   UNL d   1       2.160   4.333  -0.117  0.00  0.00     0.038 A 
ATOM     11  C   UNL d   1       1.135   5.275  -0.122  0.00  0.00     0.078 A 
ATOM     12  C   UNL d   1      -0.191   4.838  -0.018  0.00  0.00     0.038 A 
ATOM     13  C   UNL d   1      -0.493   3.475   0.016  0.00  0.00     0.018 A 
BRANCH  11  14
ATOM     14  O   UNL d   1       1.290   6.624  -0.166  0.00  0.00    -0.255 OA
BRANCH  14  15
ATOM     15  C   UNL d   1       2.410   7.179  -0.842  0.00  0.00     0.530 C 
ATOM     16  F   UNL d   1       3.169   6.283  -1.507  0.00  0.00    -0.144 F 
ATOM     17  F   UNL d   1       1.962   8.082  -1.744  0.00  0.00    -0.144 F 
ATOM     18  F   UNL d   1       3.189   7.828   0.051  0.00  0.00    -0.144 F 
ENDBRANCH  14  15
ENDBRANCH  11  14
ENDBRANCH   3   8
BRANCH   4  19
ATOM     19  C   UNL d   1       1.113  -2.322   0.026  0.00  0.00     0.020 A 
ATOM     20  C   UNL d   1       2.496  -2.517   0.171  0.00  0.00     0.055 A 
ATOM     21  C   UNL d   1       3.055  -3.798   0.290  0.00  0.00     0.102 A 
ATOM     22  C   UNL d   1       2.204  -4.914   0.220  0.00  0.00     0.101 A 
ATOM     23  C   UNL d   1       0.825  -4.720   0.057  0.00  0.00     0.040 A 
ATOM     24  C   UNL d   1       0.278  -3.439  -0.035  0.00  0.00     0.019 A 
BRANCH  21  25
ATOM     25  O   UNL d   1       4.394  -4.003   0.486  0.00  0.00    -0.353 OA
ATOM     26  C   UNL d   1       5.253  -2.874   0.564  0.00  0.00     0.210 C 
ENDBRANCH  21  25
BRANCH  22  27
ATOM     27  O   UNL d   1       2.527  -6.244   0.286  0.00  0.00    -0.353 OA
ATOM     28  C   UNL d   1       3.888  -6.609   0.448  0.00  0.00     0.210 C 
ENDBRANCH  22  27
ENDBRANCH   4  19
TORSDOF 6
