REMARK  5 active torsions:
REMARK  status: ('A' for Active; 'I' for Inactive)
REMARK    1  A    between atoms: N_2  and  C_1 
REMARK    2  A    between atoms: N_3  and  C_1 
REMARK    3  A    between atoms: C_13  and  N_3 
REMARK    4  A    between atoms: C_7  and  N_4 
REMARK    5  A    between atoms: C_10  and  C_7 
ROOT
ATOM      1  N   UNL d   1       0.161  -0.334   1.071  0.00  0.00    -0.357 N 
ATOM      2  N   UNL d   1      -2.091  -1.266   3.048  0.00  0.00     0.094 N 
ATOM      3  C   UNL d   1      -0.707  -1.502   0.895  0.00  0.00     0.155 C 
ATOM      4  C   UNL d   1      -2.066  -1.340   1.581  0.00  0.00     0.292 C 
ATOM      5  C   UNL d   1      -0.053   0.284   3.521  0.00  0.00     0.050 C 
ATOM      6  C   UNL d   1       0.811  -0.254   2.381  0.00  0.00     0.127 C 
ATOM      7  C   UNL d   1      -1.558  -0.003   3.549  0.00  0.00     0.274 C 
ENDROOT
BRANCH   1   8
ATOM      8  C   UNL d   1       0.982   0.017  -0.019  0.00  0.00     0.170 C 
ATOM      9  S   UNL d   1       2.072  -1.019  -0.751  0.00  0.00    -0.041 SA
BRANCH   8  10
ATOM     10  N   UNL d   1       0.766   1.340  -0.345  0.00  0.00    -0.363 N 
ATOM     11  H   UNL d   1      -0.044   1.744   0.108  0.00  0.00     0.162 HD
BRANCH  10  12
ATOM     12  C   UNL d   1       1.615   2.219  -1.157  0.00  0.00     0.083 C 
ATOM     13  C   UNL d   1       2.937   2.526  -0.438  0.00  0.00     0.025 C 
ATOM     14  C   UNL d   1       2.704   3.321   0.845  0.00  0.00     0.002 C 
ATOM     15  C   UNL d   1       1.988   4.635   0.552  0.00  0.00     0.000 C 
ATOM     16  C   UNL d   1       0.699   4.430  -0.242  0.00  0.00     0.002 C 
ATOM     17  C   UNL d   1       0.893   3.540  -1.475  0.00  0.00     0.025 C 
ENDBRANCH  10  12
ENDBRANCH   8  10
ENDBRANCH   1   8
BRANCH   2  18
ATOM     18  C   UNL d   1      -1.605  -2.455   3.756  0.00  0.00     0.311 C 
BRANCH  18  19
ATOM     19  C   UNL d   1      -2.306  -3.739   3.343  0.00  0.00    -0.030 A 
ATOM     20  C   UNL d   1      -1.589  -4.780   2.736  0.00  0.00     0.012 A 
ATOM     21  C   UNL d   1      -2.237  -5.946   2.328  0.00  0.00     0.043 A 
ATOM     22  C   UNL d   1      -3.609  -6.076   2.527  0.00  0.00     0.116 A 
ATOM     23  C   UNL d   1      -4.339  -5.059   3.133  0.00  0.00     0.043 A 
ATOM     24  F   UNL d   1      -4.230  -7.195   2.128  0.00  0.00    -0.206 F 
ATOM     25  C   UNL d   1      -3.693  -3.895   3.541  0.00  0.00     0.012 A 
ENDBRANCH  18  19
ENDBRANCH   2  18
TORSDOF 5
