REMARK  5 active torsions:
REMARK  status: ('A' for Active; 'I' for Inactive)
REMARK    1  A    between atoms: C_2  and  C_1 
REMARK       I    between atoms: N_6  and  C_2 
REMARK    2  A    between atoms: C_5  and  C_9 
REMARK    3  A    between atoms: C_11  and  N_8 
REMARK    4  A    between atoms: C_21  and  C_11 
REMARK    5  A    between atoms: C_22  and  C_11 
ROOT
ATOM      1  C   UNL d   1      -3.267   0.191  -0.078  0.00  0.00     0.255 C 
ATOM      2  N   UNL d   1      -3.934   1.425   0.037  0.00  0.00    -0.345 N 
ATOM      3  N   UNL d   1      -5.089   4.087   0.752  0.00  0.00     0.105 N 
ATOM      4  O   UNL d   1      -3.431  -0.696   0.754  0.00  0.00    -0.267 OA
ATOM      5  C   UNL d   1      -3.771   2.593  -0.834  0.00  0.00     0.156 C 
ATOM      6  C   UNL d   1      -5.044   1.530   0.999  0.00  0.00     0.156 C 
ATOM      7  C   UNL d   1      -3.872   3.923  -0.073  0.00  0.00     0.293 C 
ATOM      8  C   UNL d   1      -5.139   2.918   1.674  0.00  0.00     0.293 C 
ENDROOT
BRANCH   1   9
ATOM      9  C   UNL d   1      -2.361  -0.098  -1.236  0.00  0.00     0.054 A 
ATOM     10  C   UNL d   1      -1.211  -0.894  -1.121  0.00  0.00     0.021 A 
ATOM     11  N   UNL d   1      -0.382  -1.136  -2.183  0.00  0.00    -0.355 N 
ATOM     12  C   UNL d   1      -0.779  -1.577   0.144  0.00  0.00     0.069 C 
ATOM     13  C   UNL d   1      -0.694  -0.637  -3.409  0.00  0.00     0.117 A 
ATOM     14  HN  UNL d   1       0.467  -1.688  -2.056  1.00  0.00     0.166 HD
ATOM     15  C   UNL d   1      -1.854   0.100  -3.607  0.00  0.00     0.035 A 
ATOM     16  C   UNL d   1      -2.700   0.335  -2.524  0.00  0.00     0.021 A 
BRANCH  13  17
ATOM     17  C   UNL d   1       0.211  -0.923  -4.601  0.00  0.00     0.432 C 
ATOM     18  F   UNL d   1       1.294  -1.699  -4.321  0.00  0.00    -0.165 F 
ATOM     19  F   UNL d   1      -0.454  -1.561  -5.610  0.00  0.00    -0.165 F 
ATOM     20  F   UNL d   1       0.705   0.220  -5.163  0.00  0.00    -0.165 F 
ENDBRANCH  13  17
ENDBRANCH   1   9
BRANCH   3  21
ATOM     21  C   UNL d   1      -6.350   4.248  -0.036  0.00  0.00     0.289 C 
BRANCH  21  22
ATOM     22  C   UNL d   1      -7.565   4.478   0.875  0.00  0.00    -0.021 A 
ATOM     23  C   UNL d   1      -7.612   5.571   1.758  0.00  0.00     0.010 A 
ATOM     24  C   UNL d   1      -8.711   5.763   2.597  0.00  0.00     0.001 A 
ATOM     25  C   UNL d   1      -9.772   4.862   2.575  0.00  0.00     0.000 A 
ATOM     26  C   UNL d   1      -9.737   3.769   1.709  0.00  0.00     0.001 A 
ATOM     27  C   UNL d   1      -8.643   3.580   0.864  0.00  0.00     0.010 A 
ENDBRANCH  21  22
BRANCH  21  28
ATOM     28  C   UNL d   1      -6.300   5.334  -1.123  0.00  0.00    -0.021 A 
ATOM     29  C   UNL d   1      -7.008   5.146  -2.330  0.00  0.00     0.010 A 
ATOM     30  C   UNL d   1      -6.965   6.106  -3.345  0.00  0.00     0.001 A 
ATOM     31  C   UNL d   1      -6.220   7.272  -3.177  0.00  0.00     0.000 A 
ATOM     32  C   UNL d   1      -5.545   7.494  -1.980  0.00  0.00     0.001 A 
ATOM     33  C   UNL d   1      -5.601   6.545  -0.955  0.00  0.00     0.010 A 
ENDBRANCH  21  28
ENDBRANCH   3  21
TORSDOF 5
