REMARK  8 active torsions:
REMARK  status: ('A' for Active; 'I' for Inactive)
REMARK    1  A    between atoms: N_2  and  C_1 
REMARK    2  A    between atoms: N_12  and  C_3 
REMARK    3  A    between atoms: N_13  and  C_4 
REMARK    4  A    between atoms: C_16  and  C_6 
REMARK    5  A    between atoms: C_17  and  N_13 
REMARK    6  A    between atoms: O_24  and  C_16 
REMARK    7  A    between atoms: N_21  and  C_17 
REMARK    8  A    between atoms: C_27  and  O_24 
ROOT
ATOM      1  N   UNL d   1       4.035  -1.828   4.471  0.00  0.00    -0.219 N 
ATOM      2  C   UNL d   1       3.602  -2.336   3.241  0.00  0.00     0.148 A 
ATOM      3  C   UNL d   1       4.484  -3.376   2.969  0.00  0.00     0.102 A 
ATOM      4  N   UNL d   1       5.198  -2.373   4.891  0.00  0.00    -0.301 N 
ATOM      5  HN  UNL d   1       5.742  -2.132   5.720  1.00  0.00     0.186 HD
ATOM      6  C   UNL d   1       5.469  -3.294   3.972  0.00  0.00     0.129 A 
ENDROOT
BRANCH   1   7
ATOM      7  C   UNL d   1       3.421  -0.933   5.333  0.00  0.00     0.180 A 
ATOM      8  C   UNL d   1       2.703   0.208   5.039  0.00  0.00     0.173 A 
ATOM      9  C   UNL d   1       2.167   0.641   6.276  0.00  0.00     0.059 A 
ATOM     10  C   UNL d   1       1.264   1.777   6.587  0.00  0.00     0.072 C 
ATOM     11  N   UNL d   1       2.577  -0.143   7.282  0.00  0.00    -0.299 N 
ATOM     12  N   UNL d   1       3.334  -1.096   6.691  0.00  0.00    -0.277 N 
ATOM     13  HN  UNL d   1       2.365  -0.043   8.275  1.00  0.00     0.187 HD
ATOM     14  C   UNL d   1       3.711  -2.216   7.526  0.00  0.00     0.179 C 
BRANCH   8  15
ATOM     15  N   UNL d   1       2.601   0.862   3.772  0.00  0.00    -0.110 N 
ATOM     16  O   UNL d   1       3.639   0.957   3.107  0.00  0.00    -0.532 OA
ATOM     17  O   UNL d   1       1.498   1.338   3.473  0.00  0.00    -0.532 OA
ENDBRANCH   8  15
ENDBRANCH   1   7
BRANCH   2  18
ATOM     18  N   UNL d   1       2.414  -1.948   2.708  0.00  0.00    -0.336 N 
ATOM     19  HN  UNL d   1       1.626  -1.787   3.335  1.00  0.00     0.168 HD
BRANCH  18  20
ATOM     20  C   UNL d   1       2.244  -1.776   1.440  0.00  0.00     0.179 C 
BRANCH  20  21
ATOM     21  N   UNL d   1       3.025  -1.769   0.292  0.00  0.00    -0.386 N 
ATOM     22  C   UNL d   1       4.399  -1.289   0.297  0.00  0.00     0.149 C 
ATOM     23  C   UNL d   1       2.336  -1.615  -0.991  0.00  0.00     0.149 C 
ENDBRANCH  20  21
ENDBRANCH  18  20
ENDBRANCH   2  18
BRANCH   3  24
ATOM     24  C   UNL d   1       4.402  -4.388   1.941  0.00  0.00     0.298 C 
ATOM     25  O   UNL d   1       3.362  -4.804   1.448  0.00  0.00    -0.259 OA
BRANCH  24  26
ATOM     26  O   UNL d   1       5.643  -4.888   1.662  0.00  0.00    -0.318 OA
BRANCH  26  27
ATOM     27  C   UNL d   1       5.676  -6.093   0.892  0.00  0.00     0.174 C 
ATOM     28  C   UNL d   1       5.625  -7.268   1.850  0.00  0.00     0.034 C 
ENDBRANCH  26  27
ENDBRANCH  24  26
ENDBRANCH   3  24
TORSDOF 8
