REMARK  6 active torsions:
REMARK  status: ('A' for Active; 'I' for Inactive)
REMARK    1  A    between atoms: O_5  and  C_1 
REMARK    2  A    between atoms: C_2  and  N_3 
REMARK    3  A    between atoms: N_6  and  C_2 
REMARK    4  A    between atoms: N_3  and  C_10 
REMARK    5  A    between atoms: C_11  and  O_5 
REMARK    6  A    between atoms: N_12  and  N_6 
ROOT
ATOM      1  C   UNL d   1       1.966  -1.323   4.669  0.00  0.00     0.034 A 
ATOM      2  C   UNL d   1       0.953   0.130   2.472  0.00  0.00     0.078 A 
ATOM      3  C   UNL d   1       2.800  -0.952   3.614  0.00  0.00     0.032 A 
ATOM      4  C   UNL d   1       0.608  -0.998   4.594  0.00  0.00     0.032 A 
ATOM      5  C   UNL d   1       0.110  -0.274   3.508  0.00  0.00     0.039 A 
ATOM      6  C   UNL d   1       2.297  -0.233   2.519  0.00  0.00     0.039 A 
ENDROOT
BRANCH   1   7
ATOM      7  N   UNL d   1       2.382  -2.087   5.774  0.00  0.00    -0.332 N 
ATOM      8  H   UNL d   1       1.645  -2.438   6.370  0.00  0.00     0.168 HD
BRANCH   7   9
ATOM      9  C   UNL d   1       3.631  -2.320   6.308  0.00  0.00     0.186 C 
ATOM     10  S   UNL d   1       5.030  -1.428   6.138  0.00  0.00    -0.040 SA
BRANCH   9  11
ATOM     11  N   UNL d   1       3.671  -3.443   7.125  0.00  0.00    -0.300 N 
ATOM     12  H   UNL d   1       4.594  -3.691   7.486  0.00  0.00     0.183 HD
BRANCH  11  13
ATOM     13  N   UNL d   1       2.690  -4.454   7.062  0.00  0.00    -0.248 NA
ATOM     14  H   UNL d   1       2.319  -4.500   6.109  0.00  0.00     0.143 HD
ATOM     15  H   UNL d   1       1.920  -4.222   7.694  0.00  0.00     0.143 HD
ENDBRANCH  11  13
ENDBRANCH   9  11
ENDBRANCH   7   9
ENDBRANCH   1   7
BRANCH   2  16
ATOM     16  O   UNL d   1       0.337   0.853   1.492  0.00  0.00    -0.255 OA
BRANCH  16  17
ATOM     17  C   UNL d   1       1.153   1.463   0.507  0.00  0.00     0.530 C 
ATOM     18  F   UNL d   1       2.157   2.176   1.058  0.00  0.00    -0.144 F 
ATOM     19  F   UNL d   1       0.390   2.311  -0.218  0.00  0.00    -0.144 F 
ATOM     20  F   UNL d   1       1.664   0.536  -0.330  0.00  0.00    -0.144 F 
ENDBRANCH  16  17
ENDBRANCH   2  16
TORSDOF 6
