REMARK  7 active torsions:
REMARK  status: ('A' for Active; 'I' for Inactive)
REMARK    1  A    between atoms: N_2  and  C_1 
REMARK    2  A    between atoms: C_3  and  C_7 
REMARK    3  A    between atoms: C_4  and  C_3 
REMARK    4  A    between atoms: S_10  and  C_6 
REMARK    5  A    between atoms: C_9  and  C_8 
REMARK    6  A    between atoms: O_18  and  C_9 
REMARK    7  A    between atoms: C_17  and  S_10 
ROOT
ATOM      1  C   UNL d   1       1.482  -0.228   0.238  0.00  0.00     0.120 A 
ATOM      2  C   UNL d   1       0.567  -1.294   0.251  0.00  0.00     0.053 A 
ATOM      3  C   UNL d   1       1.071   1.106   0.128  0.00  0.00     0.038 A 
ATOM      4  C   UNL d   1      -0.802  -1.025   0.239  0.00  0.00     0.017 A 
ATOM      5  C   UNL d   1      -0.309   1.358   0.112  0.00  0.00     0.022 A 
ATOM      6  C   UNL d   1      -1.235   0.307   0.183  0.00  0.00     0.017 A 
ENDROOT
BRANCH   4   7
ATOM      7  C   UNL d   1      -1.826  -2.109   0.288  0.00  0.00     0.193 C 
ATOM      8  O   UNL d   1      -2.950  -1.883  -0.153  0.00  0.00    -0.287 OA
BRANCH   7   9
ATOM      9  C   UNL d   1      -1.567  -3.428   0.925  0.00  0.00     0.032 A 
ATOM     10  C   UNL d   1      -2.118  -4.638   0.468  0.00  0.00     0.051 A 
ATOM     11  C   UNL d   1      -1.781  -5.826   1.157  0.00  0.00     0.019 A 
ATOM     12  C   UNL d   1      -0.926  -5.819   2.259  0.00  0.00     0.001 A 
ATOM     13  C   UNL d   1      -0.405  -4.622   2.718  0.00  0.00     0.001 A 
ATOM     14  C   UNL d   1      -0.746  -3.433   2.074  0.00  0.00     0.016 A 
BRANCH  10  15
ATOM     15  C   UNL d   1      -2.984  -4.860  -0.732  0.00  0.00     0.177 C 
ATOM     16  O   UNL d   1      -2.924  -5.915  -1.353  0.00  0.00    -0.646 OA
BRANCH  15  17
ATOM     17  O   UNL d   1      -3.902  -3.933  -1.024  0.00  0.00    -0.773 OA
ATOM     18  H   UNL d   1      -3.799  -3.056  -0.585  0.00  0.00     0.167 HD
ENDBRANCH  15  17
ENDBRANCH  10  15
ENDBRANCH   7   9
ENDBRANCH   4   7
BRANCH   1  19
ATOM     19  N   UNL d   1       2.882  -0.571   0.436  0.00  0.00    -0.114 N 
ATOM     20  O   UNL d   1       3.359  -1.423  -0.329  0.00  0.00    -0.532 OA
ATOM     21  O   UNL d   1       3.453  -0.078   1.413  0.00  0.00    -0.532 OA
ENDBRANCH   1  19
BRANCH   3  22
ATOM     22  S   UNL d   1       2.176   2.461  -0.208  0.00  0.00    -0.088 SA
BRANCH  22  23
ATOM     23  C   UNL d   1       2.476   3.254   1.359  0.00  0.00     0.005 A 
ATOM     24  C   UNL d   1       2.064   2.753   2.598  0.00  0.00     0.020 A 
ATOM     25  C   UNL d   1       2.363   3.443   3.779  0.00  0.00     0.025 A 
ATOM     26  C   UNL d   1       3.079   4.636   3.726  0.00  0.00     0.034 A 
ATOM     27  C   UNL d   1       3.503   5.145   2.503  0.00  0.00     0.025 A 
ATOM     28 CL   UNL d   1       3.439   5.483   5.178  0.00  0.00    -0.084 Cl
ATOM     29  C   UNL d   1       3.202   4.454   1.326  0.00  0.00     0.020 A 
ENDBRANCH  22  23
ENDBRANCH   3  22
TORSDOF 7
