REMARK  2 active torsions:
REMARK  status: ('A' for Active; 'I' for Inactive)
REMARK       I    between atoms: N_2  and  C_1 
REMARK       I    between atoms: N_4  and  C_1 
REMARK       I    between atoms: C_3  and  N_2 
REMARK       I    between atoms: N_11  and  C_3 
REMARK    1  A    between atoms: C_9  and  N_4 
REMARK    2  A    between atoms: O_13  and  C_12 
ROOT
ATOM      1  C   UNL d   1       1.119  -0.563   0.524  0.00  0.00     0.678 C 
ATOM      2  N   UNL d   1       2.209   0.151   0.107  0.00  0.00    -0.167 N 
ATOM      3  C   UNL d   1       2.531   1.469   0.026  0.00  0.00     0.163 C 
ATOM      4  N   UNL d   1       0.143   0.167   1.149  0.00  0.00    -0.192 N 
ATOM      5  N   UNL d   1       1.052  -1.847   0.355  0.00  0.00    -0.234 N 
ATOM      6  HN  UNL d   1       0.262  -2.424   0.642  1.00  0.00     0.174 HD
ATOM      7  N   UNL d   1       1.830   2.488   0.371  0.00  0.00    -0.376 N 
ATOM      8  HN  UNL d   1       2.134   3.461   0.335  1.00  0.00     0.158 HD
ATOM      9  N   UNL d   1       3.756   1.695  -0.505  0.00  0.00    -0.274 NA
ATOM     10  H   UNL d   1       2.957  -0.431  -0.231  0.00  0.00     0.187 HD
ATOM     11  H   UNL d   1       0.481   0.619   1.992  0.00  0.00     0.184 HD
ATOM     12  H   UNL d   1       1.890  -2.207  -0.101  0.00  0.00     0.174 HD
ATOM     13  H   UNL d   1       0.913   2.157   0.690  0.00  0.00     0.158 HD
ATOM     14  H   UNL d   1       3.889   1.282  -1.419  0.00  0.00     0.127 HD
ATOM     15  H   UNL d   1       3.884   2.701  -0.586  0.00  0.00     0.127 HD
ENDROOT
BRANCH   4  16
ATOM     16  C   UNL d   1      -1.227  -0.180   1.235  0.00  0.00     0.051 A 
ATOM     17  C   UNL d   1      -1.884  -0.901   0.222  0.00  0.00     0.066 A 
ATOM     18  C   UNL d   1      -3.264  -1.125   0.276  0.00  0.00     0.070 A 
ATOM     19  C   UNL d   1      -3.997  -0.630   1.355  0.00  0.00     0.037 A 
ATOM     20  C   UNL d   1      -3.365   0.088   2.367  0.00  0.00     0.005 A 
ATOM     21  C   UNL d   1      -1.991   0.321   2.298  0.00  0.00     0.030 A 
BRANCH  18  22
ATOM     22  O   UNL d   1      -4.013  -1.789  -0.659  0.00  0.00    -0.356 OA
ATOM     23  C   UNL d   1      -3.324  -2.296  -1.794  0.00  0.00     0.210 C 
ENDBRANCH  18  22
ENDBRANCH   4  16
TORSDOF 2
