REMARK  5 active torsions:
REMARK  status: ('A' for Active; 'I' for Inactive)
REMARK    1  A    between atoms: C_16  and  N_1 
REMARK    2  A    between atoms: C_4  and  C_3 
REMARK    3  A    between atoms: O_17  and  C_5 
REMARK    4  A    between atoms: O_18  and  C_6 
REMARK    5  A    between atoms: C_7  and  C_16 
ROOT
ATOM      1  N   UNL d   1       0.866   0.137   0.080  0.00  0.00    -0.394 N 
ATOM      2  HN  UNL d   1       0.389   0.234   0.976  1.00  0.00     0.159 HD
ATOM      3  C   UNL d   1       0.227   0.117  -1.035  0.00  0.00     0.094 C 
ENDROOT
BRANCH   1   4
ATOM      4  C   UNL d   1       2.318   0.011  -0.018  0.00  0.00     0.157 C 
BRANCH   4   5
ATOM      5  C   UNL d   1       2.884  -0.666   1.209  0.00  0.00    -0.040 A 
ATOM      6  C   UNL d   1       2.474  -1.960   1.559  0.00  0.00     0.011 A 
ATOM      7  C   UNL d   1       3.014  -2.596   2.679  0.00  0.00     0.037 A 
ATOM      8  C   UNL d   1       3.985  -1.960   3.454  0.00  0.00     0.068 A 
ATOM      9  C   UNL d   1       4.380  -0.663   3.128  0.00  0.00     0.037 A 
ATOM     10  C   UNL d   1       3.833  -0.021   2.011  0.00  0.00     0.011 A 
BRANCH   8  11
ATOM     11  O   UNL d   1       4.446  -2.679   4.523  0.00  0.00    -0.356 OA
ATOM     12  C   UNL d   1       5.785  -2.397   4.915  0.00  0.00     0.210 C 
ENDBRANCH   8  11
ENDBRANCH   4   5
ENDBRANCH   1   4
BRANCH   3  13
ATOM     13  C   UNL d   1      -1.246   0.210  -1.055  0.00  0.00    -0.021 A 
ATOM     14  C   UNL d   1      -1.953   0.324   0.145  0.00  0.00     0.015 A 
ATOM     15  C   UNL d   1      -3.348   0.394   0.134  0.00  0.00     0.037 A 
ATOM     16  C   UNL d   1      -4.037   0.349  -1.078  0.00  0.00     0.068 A 
ATOM     17  C   UNL d   1      -3.324   0.258  -2.277  0.00  0.00     0.037 A 
ATOM     18  C   UNL d   1      -1.927   0.180  -2.272  0.00  0.00     0.015 A 
BRANCH  16  19
ATOM     19  O   UNL d   1      -5.396   0.429  -1.212  0.00  0.00    -0.356 OA
ATOM     20  C   UNL d   1      -6.150  -0.096  -0.123  0.00  0.00     0.210 C 
ENDBRANCH  16  19
ENDBRANCH   3  13
TORSDOF 5
