REMARK  7 active torsions:
REMARK  status: ('A' for Active; 'I' for Inactive)
REMARK    1  A    between atoms: N_8  and  C_1 
REMARK    2  A    between atoms: N_4  and  C_2 
REMARK    3  A    between atoms: N_5  and  C_3 
REMARK    4  A    between atoms: C_6  and  C_7 
REMARK    5  A    between atoms: N_12  and  N_8 
REMARK       I    between atoms: C_11  and  N_12 
REMARK    6  A    between atoms: C_17  and  C_11 
REMARK    7  A    between atoms: O_27  and  C_24 
ROOT
ATOM      1  C   UNL d   1       1.435  -0.504  -0.108  0.00  0.00     0.093 A 
ATOM      2  C   UNL d   1       0.678  -0.718   1.059  0.00  0.00     0.129 A 
ATOM      3  C   UNL d   1       0.693  -0.005  -1.200  0.00  0.00     0.129 A 
ATOM      4  C   UNL d   1      -1.432  -0.102  -0.015  0.00  0.00     0.052 A 
ATOM      5  C   UNL d   1      -0.724  -0.534   1.114  0.00  0.00     0.054 A 
ATOM      6  C   UNL d   1      -0.705   0.181  -1.177  0.00  0.00     0.054 A 
ENDROOT
BRANCH   1   7
ATOM      7  N   UNL d   1       2.836  -0.682  -0.254  0.00  0.00    -0.198 NA
ATOM      8  H   UNL d   1       3.360   0.189  -0.056  0.00  0.00     0.153 HD
BRANCH   7   9
ATOM      9  N   UNL d   1       3.388  -1.743   0.483  0.00  0.00    -0.282 N 
ATOM     10  C   UNL d   1       4.650  -1.525   1.043  0.00  0.00     0.266 C 
ATOM     11  O   UNL d   1       5.215  -0.435   0.971  0.00  0.00    -0.266 OA
ATOM     12  H   UNL d   1       3.171  -2.675   0.135  0.00  0.00     0.184 HD
BRANCH  10  13
ATOM     13  C   UNL d   1       5.275  -2.690   1.736  0.00  0.00     0.033 A 
ATOM     14  C   UNL d   1       4.548  -3.843   2.053  0.00  0.00     0.020 A 
ATOM     15  C   UNL d   1       5.150  -4.901   2.748  0.00  0.00     0.038 A 
ATOM     16  C   UNL d   1       6.483  -4.813   3.147  0.00  0.00     0.068 A 
ATOM     17  C   UNL d   1       7.212  -3.663   2.833  0.00  0.00     0.038 A 
ATOM     18  C   UNL d   1       6.615  -2.606   2.132  0.00  0.00     0.020 A 
BRANCH  16  19
ATOM     19  O   UNL d   1       7.169  -5.765   3.848  0.00  0.00    -0.356 OA
ATOM     20  C   UNL d   1       6.455  -6.946   4.196  0.00  0.00     0.210 C 
ENDBRANCH  16  19
ENDBRANCH  10  13
ENDBRANCH   7   9
ENDBRANCH   1   7
BRANCH   2  21
ATOM     21  N   UNL d   1       1.291  -1.183   2.287  0.00  0.00    -0.114 N 
ATOM     22  O   UNL d   1       2.022  -0.395   2.893  0.00  0.00    -0.532 OA
ATOM     23  O   UNL d   1       0.980  -2.325   2.661  0.00  0.00    -0.532 OA
ENDBRANCH   2  21
BRANCH   3  24
ATOM     24  N   UNL d   1       1.363   0.264  -2.460  0.00  0.00    -0.114 N 
ATOM     25  O   UNL d   1       2.190   1.183  -2.476  0.00  0.00    -0.532 OA
ATOM     26  O   UNL d   1       1.004  -0.412  -3.433  0.00  0.00    -0.532 OA
ENDBRANCH   3  24
BRANCH   4  27
ATOM     27  C   UNL d   1      -2.938   0.038  -0.002  0.00  0.00     0.417 C 
ATOM     28  F   UNL d   1      -3.499  -0.311   1.187  0.00  0.00    -0.166 F 
ATOM     29  F   UNL d   1      -3.342   1.311  -0.255  0.00  0.00    -0.166 F 
ATOM     30  F   UNL d   1      -3.531  -0.744  -0.943  0.00  0.00    -0.166 F 
ENDBRANCH   4  27
TORSDOF 7
