REMARK  8 active torsions:
REMARK  status: ('A' for Active; 'I' for Inactive)
REMARK    1  A    between atoms: C_3  and  C_1 
REMARK    2  A    between atoms: N_4  and  C_2 
REMARK    3  A    between atoms: C_6  and  N_5 
REMARK    4  A    between atoms: C_7  and  N_12 
REMARK    5  A    between atoms: N_14  and  C_7 
REMARK    6  A    between atoms: N_12  and  C_24 
REMARK    7  A    between atoms: C_25  and  N_14 
REMARK    8  A    between atoms: C_28  and  C_25 
ROOT
ATOM      1  C   UNL d   1      -3.655   5.821   0.992  0.00  0.00     0.103 A 
ATOM      2  N   UNL d   1      -3.862   6.618   2.059  0.00  0.00    -0.350 N 
ATOM      3  HN  UNL d   1      -3.289   6.521   2.898  1.00  0.00     0.166 HD
ATOM      4  C   UNL d   1      -4.414   5.964  -0.161  0.00  0.00     0.051 A 
ATOM      5  C   UNL d   1      -4.841   7.549   2.001  0.00  0.00     0.119 A 
ATOM      6  C   UNL d   1      -5.646   7.753   0.896  0.00  0.00     0.050 A 
ATOM      7  C   UNL d   1      -5.393   6.954  -0.218  0.00  0.00     0.035 A 
ENDROOT
BRANCH   1   8
ATOM      8  N   UNL d   1      -2.617   4.931   1.054  0.00  0.00    -0.364 N 
ATOM      9  C   UNL d   1      -1.451   5.318   1.862  0.00  0.00     0.144 C 
ATOM     10  C   UNL d   1      -1.137   4.267   2.939  0.00  0.00     0.144 C 
ATOM     11  N   UNL d   1      -1.005   2.958   2.265  0.00  0.00    -0.363 N 
ATOM     12  C   UNL d   1      -2.313   2.531   1.726  0.00  0.00     0.144 C 
ATOM     13  C   UNL d   1      -2.724   3.532   0.606  0.00  0.00     0.144 C 
BRANCH  11  14
ATOM     14  C   UNL d   1      -0.173   2.031   2.855  0.00  0.00     0.118 A 
ATOM     15  C   UNL d   1       1.216   2.200   2.864  0.00  0.00     0.091 A 
ATOM     16  C   UNL d   1       2.016   1.209   3.474  0.00  0.00     0.021 A 
ATOM     17  C   UNL d   1       1.429   0.083   4.023  0.00  0.00     0.018 A 
ATOM     18  C   UNL d   1       0.058  -0.021   3.944  0.00  0.00     0.089 A 
ATOM     19  N   UNL d   1      -0.740   0.915   3.374  0.00  0.00    -0.352 N 
ATOM     20  HN  UNL d   1      -1.751   0.781   3.336  1.00  0.00     0.166 HD
BRANCH  15  21
ATOM     21  C   UNL d   1       1.950   3.340   2.219  0.00  0.00     0.421 C 
ATOM     22  F   UNL d   1       1.218   4.253   1.529  0.00  0.00    -0.166 F 
ATOM     23  F   UNL d   1       2.648   4.071   3.138  0.00  0.00    -0.166 F 
ATOM     24  F   UNL d   1       2.888   2.905   1.324  0.00  0.00    -0.166 F 
ENDBRANCH  15  21
ENDBRANCH  11  14
ENDBRANCH   1   8
BRANCH   6  25
ATOM     25  N   UNL d   1      -6.709   8.671   0.787  0.00  0.00    -0.332 N 
ATOM     26  H   UNL d   1      -7.089   8.718  -0.147  0.00  0.00     0.168 HD
BRANCH  25  27
ATOM     27  C   UNL d   1      -7.512   9.235   1.744  0.00  0.00     0.172 C 
ATOM     28  S   UNL d   1      -7.378   9.203   3.407  0.00  0.00    -0.041 SA
BRANCH  27  29
ATOM     29  N   UNL d   1      -8.630   9.861   1.259  0.00  0.00    -0.363 N 
ATOM     30  H   UNL d   1      -9.243  10.202   1.990  0.00  0.00     0.162 HD
BRANCH  29  31
ATOM     31  C   UNL d   1      -8.913  10.321  -0.090  0.00  0.00     0.160 C 
BRANCH  31  32
ATOM     32  C   UNL d   1      -9.221   9.220  -1.078  0.00  0.00    -0.041 A 
ATOM     33  C   UNL d   1      -9.972   8.091  -0.722  0.00  0.00     0.009 A 
ATOM     34  C   UNL d   1     -10.247   7.096  -1.664  0.00  0.00     0.001 A 
ATOM     35  C   UNL d   1      -9.784   7.223  -2.972  0.00  0.00     0.000 A 
ATOM     36  C   UNL d   1      -9.046   8.344  -3.342  0.00  0.00     0.001 A 
ATOM     37  C   UNL d   1      -8.770   9.338  -2.403  0.00  0.00     0.009 A 
ENDBRANCH  31  32
ENDBRANCH  29  31
ENDBRANCH  27  29
ENDBRANCH  25  27
ENDBRANCH   6  25
TORSDOF 8
