REMARK  5 active torsions:
REMARK  status: ('A' for Active; 'I' for Inactive)
REMARK    1  A    between atoms: C_2  and  C_1 
REMARK    2  A    between atoms: O_11  and  C_2 
REMARK    3  A    between atoms: N_6  and  C_3 
REMARK    4  A    between atoms: C_10  and  N_6 
REMARK    5  A    between atoms: C_16  and  O_11 
ROOT
ATOM      1  C   UNL d   1       0.910  -0.063  -0.002  0.00  0.00     0.135 C 
ATOM      2  C   UNL d   1       0.226  -0.892   0.807  0.00  0.00     0.117 C 
ATOM      3  C   UNL d   1       0.257   0.744  -0.968  0.00  0.00     0.107 C 
ATOM      4  N   UNL d   1      -0.328   1.390  -1.736  0.00  0.00    -0.191 NA
ENDROOT
BRANCH   1   5
ATOM      5  C   UNL d   1       2.377   0.032   0.186  0.00  0.00     0.305 C 
ATOM      6  O   UNL d   1       3.005  -0.588   1.032  0.00  0.00    -0.258 OA
BRANCH   5   7
ATOM      7  O   UNL d   1       2.902   0.943  -0.672  0.00  0.00    -0.317 OA
BRANCH   7   8
ATOM      8  C   UNL d   1       4.263   1.325  -0.429  0.00  0.00     0.174 C 
ATOM      9  C   UNL d   1       4.273   2.478   0.558  0.00  0.00     0.034 C 
ENDBRANCH   7   8
ENDBRANCH   5   7
ENDBRANCH   1   5
BRANCH   2  10
ATOM     10  N   UNL d   1      -1.127  -1.148   0.834  0.00  0.00    -0.364 N 
ATOM     11  H   UNL d   1      -1.701  -0.693   0.127  0.00  0.00     0.165 HD
BRANCH  10  12
ATOM     12  C   UNL d   1      -1.846  -1.908   1.773  0.00  0.00     0.034 A 
ATOM     13  C   UNL d   1      -1.350  -2.250   3.032  0.00  0.00     0.046 A 
ATOM     14  C   UNL d   1      -2.118  -3.055   3.861  0.00  0.00     0.090 A 
ATOM     15  N   UNL d   1      -3.321  -3.557   3.518  0.00  0.00    -0.375 N 
ATOM     16  C   UNL d   1      -3.778  -3.235   2.292  0.00  0.00     0.090 A 
ATOM     17  HN  UNL d   1      -3.857  -4.148   4.153  1.00  0.00     0.164 HD
ATOM     18  C   UNL d   1      -3.089  -2.427   1.401  0.00  0.00     0.046 A 
ENDBRANCH  10  12
ENDBRANCH   2  10
TORSDOF 5
