REMARK  4 active torsions:
REMARK  status: ('A' for Active; 'I' for Inactive)
REMARK    1  A    between atoms: C_2  and  C_1 
REMARK    2  A    between atoms: N_3  and  C_12 
REMARK    3  A    between atoms: C_6  and  C_5 
REMARK    4  A    between atoms: O_13  and  C_8 
ROOT
ATOM      1  N   UNL d   1       0.458  -3.637  -3.251  0.00  0.00    -0.365 N 
ATOM      2  HN  UNL d   1       0.418  -3.881  -4.240  1.00  0.00     0.165 HD
ATOM      3  C   UNL d   1       0.675  -4.545  -2.349  0.00  0.00     0.102 C 
ENDROOT
BRANCH   1   4
ATOM      4  C   UNL d   1       0.280  -2.307  -2.828  0.00  0.00     0.032 A 
ATOM      5  C   UNL d   1      -0.470  -1.960  -1.696  0.00  0.00     0.045 A 
ATOM      6  C   UNL d   1      -0.623  -0.622  -1.298  0.00  0.00     0.050 A 
ATOM      7  C   UNL d   1      -0.043   0.387  -2.080  0.00  0.00     0.016 A 
ATOM      8  C   UNL d   1       0.677   0.059  -3.228  0.00  0.00     0.003 A 
ATOM      9  C   UNL d   1       0.836  -1.281  -3.593  0.00  0.00     0.029 A 
BRANCH   6  10
ATOM     10  C   UNL d   1      -1.395  -0.274  -0.051  0.00  0.00     0.417 C 
ATOM     11  F   UNL d   1      -1.873  -1.364   0.614  0.00  0.00    -0.166 F 
ATOM     12  F   UNL d   1      -2.476   0.511  -0.306  0.00  0.00    -0.166 F 
ATOM     13  F   UNL d   1      -0.640   0.408   0.854  0.00  0.00    -0.166 F 
ENDBRANCH   6  10
ENDBRANCH   1   4
BRANCH   3  14
ATOM     14  C   UNL d   1       0.874  -5.964  -2.703  0.00  0.00     0.012 A 
ATOM     15  C   UNL d   1       0.973  -6.396  -4.029  0.00  0.00     0.077 A 
ATOM     16  C   UNL d   1       1.193  -7.742  -4.311  0.00  0.00     0.037 A 
ATOM     17  C   UNL d   1       1.304  -8.663  -3.267  0.00  0.00     0.003 A 
ATOM     18  C   UNL d   1       1.193  -8.239  -1.943  0.00  0.00     0.001 A 
ATOM     19  C   UNL d   1       0.980  -6.889  -1.657  0.00  0.00     0.015 A 
BRANCH  15  20
ATOM     20  O   UNL d   1       0.869  -5.548  -5.096  0.00  0.00    -0.360 OA
ATOM     21  H   UNL d   1       0.676  -4.653  -4.735  0.00  0.00     0.217 HD
ENDBRANCH  15  20
ENDBRANCH   3  14
TORSDOF 4
