REMARK  1 active torsions:
REMARK  status: ('A' for Active; 'I' for Inactive)
REMARK    1  A    between atoms: C_7  and  N_1 
ROOT
ATOM      1  N   UNL d   1      -0.409   1.061   0.318  0.00  0.00    -0.223 N 
ATOM      2  N   UNL d   1       0.911   0.717   0.081  0.00  0.00    -0.279 N 
ATOM      3  HN  UNL d   1       1.703   1.356   0.010  1.00  0.00     0.189 HD
ATOM      4  C   UNL d   1      -1.281  -0.036   0.334  0.00  0.00     0.250 A 
ATOM      5  C   UNL d   1       0.947  -0.573  -0.033  0.00  0.00     0.099 A 
ATOM      6  C   UNL d   1      -0.399  -1.221   0.084  0.00  0.00     0.182 A 
ATOM      7  O   UNL d   1      -2.489  -0.101   0.498  0.00  0.00    -0.271 OA
ATOM      8  N   UNL d   1       2.081  -1.300  -0.234  0.00  0.00    -0.387 N 
ATOM      9  H   UNL d   1       2.893  -0.762  -0.517  0.00  0.00     0.157 HD
ATOM     10  H   UNL d   1       2.007  -2.221  -0.650  0.00  0.00     0.157 HD
ENDROOT
BRANCH   1  11
ATOM     11  C   UNL d   1      -0.708   2.414   0.611  0.00  0.00     0.059 A 
ATOM     12  C   UNL d   1      -1.965   2.806   1.090  0.00  0.00     0.031 A 
ATOM     13  C   UNL d   1      -2.220   4.138   1.438  0.00  0.00     0.002 A 
ATOM     14  C   UNL d   1      -1.227   5.103   1.292  0.00  0.00     0.000 A 
ATOM     15  C   UNL d   1       0.019   4.739   0.792  0.00  0.00     0.002 A 
ATOM     16  C   UNL d   1       0.276   3.406   0.458  0.00  0.00     0.031 A 
ENDBRANCH   1  11
TORSDOF 1
