REMARK  5 active torsions:
REMARK  status: ('A' for Active; 'I' for Inactive)
REMARK    1  A    between atoms: C_8  and  C_1 
REMARK    2  A    between atoms: C_10  and  C_3 
REMARK    3  A    between atoms: N_5  and  C_9 
REMARK    4  A    between atoms: O_19  and  C_8 
REMARK    5  A    between atoms: C_21  and  O_19 
ROOT
ATOM      1  C   UNL d   1       1.439   1.038   0.065  0.00  0.00     0.066 C 
ATOM      2  C   UNL d   1       1.356  -0.309   0.011  0.00  0.00     0.024 C 
ATOM      3  C   UNL d   1       0.192   1.889  -0.044  0.00  0.00     0.161 C 
ATOM      4  C   UNL d   1      -1.080  -0.229   0.014  0.00  0.00     0.321 C 
ATOM      5  N   UNL d   1       0.108  -0.887  -0.088  0.00  0.00    -0.312 N 
ATOM      6  N   UNL d   1      -1.003   1.109   0.212  0.00  0.00    -0.330 N 
ATOM      7  O   UNL d   1      -2.155  -0.814  -0.029  0.00  0.00    -0.247 OA
ATOM      8  C   UNL d   1       2.485  -1.308   0.016  0.00  0.00     0.069 C 
ATOM      9  H   UNL d   1       0.023  -1.895  -0.161  0.00  0.00     0.170 HD
ATOM     10  H   UNL d   1      -1.899   1.575   0.233  0.00  0.00     0.165 HD
ENDROOT
BRANCH   3  11
ATOM     11  C   UNL d   1       0.150   3.125   0.847  0.00  0.00    -0.031 A 
ATOM     12  C   UNL d   1      -0.046   4.394   0.270  0.00  0.00     0.012 A 
ATOM     13  C   UNL d   1       0.014   5.548   1.052  0.00  0.00     0.037 A 
ATOM     14  C   UNL d   1       0.261   5.437   2.425  0.00  0.00     0.102 A 
ATOM     15  C   UNL d   1       0.407   4.180   3.024  0.00  0.00     0.037 A 
ATOM     16  C   UNL d   1       0.343   3.029   2.236  0.00  0.00     0.012 A 
BRANCH  14  17
ATOM     17  N   UNL d   1       0.399   6.652   3.237  0.00  0.00    -0.116 N 
ATOM     18  O   UNL d   1       0.645   6.514   4.443  0.00  0.00    -0.532 OA
ATOM     19  O   UNL d   1       0.275   7.744   2.664  0.00  0.00    -0.532 OA
ENDBRANCH  14  17
ENDBRANCH   3  11
BRANCH   1  20
ATOM     20  C   UNL d   1       2.754   1.719   0.210  0.00  0.00     0.293 C 
ATOM     21  O   UNL d   1       3.712   1.240   0.801  0.00  0.00    -0.259 OA
BRANCH  20  22
ATOM     22  O   UNL d   1       2.735   2.944  -0.370  0.00  0.00    -0.318 OA
BRANCH  22  23
ATOM     23  C   UNL d   1       3.940   3.721  -0.238  0.00  0.00     0.174 C 
ATOM     24  C   UNL d   1       4.153   4.231   1.180  0.00  0.00     0.034 C 
ENDBRANCH  22  23
ENDBRANCH  20  22
ENDBRANCH   1  20
TORSDOF 5
