REMARK  4 active torsions:
REMARK  status: ('A' for Active; 'I' for Inactive)
REMARK    1  A    between atoms: C_15  and  C_1 
REMARK    2  A    between atoms: N_6  and  C_4 
REMARK    3  A    between atoms: C_7  and  N_6 
REMARK    4  A    between atoms: N_14  and  N_8 
ROOT
ATOM      1  N   UNL d   1      -0.988  -3.450  -0.003  0.00  0.00    -0.309 N 
ATOM      2  HN  UNL d   1      -0.010  -3.250  -0.213  1.00  0.00     0.186 HD
ATOM      3  C   UNL d   1      -1.881  -2.524   0.147  0.00  0.00     0.120 C 
ENDROOT
BRANCH   1   4
ATOM      4  N   UNL d   1      -1.473  -4.723   0.147  0.00  0.00    -0.277 N 
ATOM      5  C   UNL d   1      -0.724  -5.846  -0.014  0.00  0.00     0.186 C 
ATOM      6  S   UNL d   1      -1.497  -7.279  -0.404  0.00  0.00    -0.040 SA
ATOM      7  H   UNL d   1      -2.471  -4.862   0.019  0.00  0.00     0.189 HD
BRANCH   5   8
ATOM      8  N   UNL d   1       0.622  -5.854   0.153  0.00  0.00    -0.361 N 
ATOM      9  H   UNL d   1       1.038  -6.766   0.004  0.00  0.00     0.162 HD
BRANCH   8  10
ATOM     10  C   UNL d   1       1.418  -4.897   0.853  0.00  0.00     0.084 A 
ATOM     11  C   UNL d   1       2.770  -5.297   1.389  0.00  0.00     0.027 A 
ATOM     12  C   UNL d   1       1.640  -5.031   2.336  0.00  0.00     0.027 A 
ENDBRANCH   8  10
ENDBRANCH   5   8
ENDBRANCH   1   4
BRANCH   3  13
ATOM     13  C   UNL d   1      -1.553  -1.132  -0.072  0.00  0.00     0.009 A 
ATOM     14  C   UNL d   1      -0.398  -0.640  -0.651  0.00  0.00     0.102 A 
ATOM     15  N   UNL d   1      -0.497   0.723  -0.723  0.00  0.00    -0.364 N 
ATOM     16  C   UNL d   1      -1.694   1.142  -0.187  0.00  0.00     0.043 A 
ATOM     17  H   UNL d   1       0.200   1.339  -1.116  0.00  0.00     0.165 HD
ATOM     18  C   UNL d   1      -2.376   0.001   0.237  0.00  0.00     0.004 A 
ATOM     19  C   UNL d   1      -2.218   2.434  -0.048  0.00  0.00     0.030 A 
ATOM     20  C   UNL d   1      -3.642   0.162   0.839  0.00  0.00     0.014 A 
ATOM     21  C   UNL d   1      -4.177   1.446   0.995  0.00  0.00     0.001 A 
ATOM     22  C   UNL d   1      -3.474   2.564   0.552  0.00  0.00     0.002 A 
ENDBRANCH   3  13
TORSDOF 4
