REMARK  8 active torsions:
REMARK  status: ('A' for Active; 'I' for Inactive)
REMARK    1  A    between atoms: C_4  and  C_1 
REMARK    2  A    between atoms: S_3  and  C_2 
REMARK    3  A    between atoms: C_7  and  S_3 
REMARK    4  A    between atoms: O_15  and  C_4 
REMARK    5  A    between atoms: C_5  and  C_7 
REMARK    6  A    between atoms: C_6  and  C_5 
REMARK    7  A    between atoms: C_8  and  C_6 
REMARK    8  A    between atoms: C_9  and  C_7 
ROOT
ATOM      1  C   UNL d   1       2.670  -3.109   1.209  0.00  0.00     0.092 C 
ENDROOT
BRANCH   1   2
ATOM      2  C   UNL d   1       3.407  -2.173   2.193  0.00  0.00     0.104 C 
BRANCH   2   3
ATOM      3  C   UNL d   1       2.865  -1.682   3.523  0.00  0.00     0.161 C 
ATOM      4  O   UNL d   1       2.776  -0.467   3.708  0.00  0.00    -0.292 OA
BRANCH   3   5
ATOM      5  C   UNL d   1       2.636  -2.585   4.698  0.00  0.00     0.013 A 
ATOM      6  C   UNL d   1       2.245  -3.917   4.601  0.00  0.00     0.057 A 
ATOM      7  C   UNL d   1       1.930  -4.628   5.758  0.00  0.00     0.117 A 
ATOM      8  F   UNL d   1       1.480  -5.886   5.648  0.00  0.00    -0.206 F 
ATOM      9  C   UNL d   1       2.054  -4.061   7.020  0.00  0.00     0.042 A 
ATOM     10  C   UNL d   1       2.506  -2.752   7.135  0.00  0.00     0.004 A 
ATOM     11  C   UNL d   1       2.785  -2.016   5.979  0.00  0.00     0.015 A 
ENDBRANCH   3   5
ENDBRANCH   2   3
ENDBRANCH   1   2
BRANCH   1  12
ATOM     12  S   UNL d   1       0.858  -3.287   1.498  0.00  0.00    -0.119 SA
BRANCH  12  13
ATOM     13  C   UNL d   1       0.112  -2.123   0.362  0.00  0.00     0.018 A 
ATOM     14  C   UNL d   1      -0.957  -1.293   0.750  0.00  0.00     0.054 A 
ATOM     15  C   UNL d   1      -1.603  -0.472  -0.192  0.00  0.00     0.020 A 
ATOM     16  C   UNL d   1      -1.202  -0.485  -1.526  0.00  0.00     0.001 A 
ATOM     17  C   UNL d   1      -0.157  -1.311  -1.925  0.00  0.00     0.001 A 
ATOM     18  C   UNL d   1       0.484  -2.132  -0.992  0.00  0.00     0.019 A 
BRANCH  14  19
ATOM     19  C   UNL d   1      -1.426  -1.227   2.156  0.00  0.00     0.177 C 
ATOM     20  O   UNL d   1      -0.698  -1.022   3.111  0.00  0.00    -0.646 OA
BRANCH  19  21
ATOM     21  O   UNL d   1      -2.763  -1.401   2.263  0.00  0.00    -0.773 OA
ATOM     22  H   UNL d   1      -3.206  -1.671   1.436  0.00  0.00     0.167 HD
ENDBRANCH  19  21
ENDBRANCH  14  19
ENDBRANCH  12  13
ENDBRANCH   1  12
BRANCH   1  23
ATOM     23  C   UNL d   1       3.417  -4.430   0.931  0.00  0.00    -0.043 A 
ATOM     24  C   UNL d   1       2.804  -5.696   0.906  0.00  0.00     0.011 A 
ATOM     25  C   UNL d   1       3.514  -6.843   0.518  0.00  0.00     0.043 A 
ATOM     26  C   UNL d   1       4.848  -6.736   0.147  0.00  0.00     0.116 A 
ATOM     27  C   UNL d   1       5.489  -5.511   0.173  0.00  0.00     0.043 A 
ATOM     28  F   UNL d   1       5.514  -7.828  -0.248  0.00  0.00    -0.206 F 
ATOM     29  C   UNL d   1       4.779  -4.366   0.551  0.00  0.00     0.011 A 
ENDBRANCH   1  23
TORSDOF 8
