REMARK  11 active torsions:
REMARK  status: ('A' for Active; 'I' for Inactive)
REMARK    1  A    between atoms: O1_4  and  C1_1 
REMARK       I    between atoms: N1_9  and  C1_1 
REMARK    2  A    between atoms: C6_10  and  C2_2 
REMARK    3  A    between atoms: O4_11  and  C2_2 
REMARK    4  A    between atoms: C3_3  and  C5_8 
REMARK    5  A    between atoms: C5_8  and  O1_4 
REMARK    6  A    between atoms: C9_16  and  N1_9 
REMARK    7  A    between atoms: C6_10  and  C10_17 
REMARK    8  A    between atoms: N2_13  and  C6_10 
REMARK    9  A    between atoms: C11_18  and  C9_16 
REMARK   10  A    between atoms: C10_17  and  C12_19 
REMARK   11  A    between atoms: C12_19  and  C11_18 
ROOT
ATOM      1  C1  <1> d   1       2.141  -0.136   1.436  0.00  0.00     0.360 C 
ATOM      2  O2  <1> d   1       1.504  -1.023   1.986  0.00  0.00    -0.239 OA
ATOM      3  N1  <1> d   1       2.431  -0.207   0.108  0.00  0.00    -0.337 N 
ATOM      4  H4  <1> d   1       2.038  -1.028  -0.335  0.00  0.00     0.164 HD
ENDROOT
BRANCH   3   5
ATOM      5  C9  <1> d   1       3.215   0.704  -0.698  0.00  0.00     0.125 C 
BRANCH   5   6
ATOM      6  C11 <1> d   1       4.725   0.481  -0.564  0.00  0.00     0.020 C 
BRANCH   6   7
ATOM      7  C12 <1> d   1       5.477   1.317  -1.607  0.00  0.00     0.004 C 
BRANCH   7   8
ATOM      8  C10 <1> d   1       7.003   1.173  -1.520  0.00  0.00     0.046 C 
BRANCH   8   9
ATOM      9  C6  <1> d   1       7.734   2.072  -2.534  0.00  0.00     0.314 C 
BRANCH   9  10
ATOM     10  C2  <1> d   1       9.268   1.938  -2.411  0.00  0.00     0.173 C 
ATOM     11  O3  <1> d   1       9.990   1.506  -3.302  0.00  0.00    -0.648 OA
BRANCH  10  12
ATOM     12  O4  <1> d   1       9.768   2.383  -1.240  0.00  0.00    -0.775 OA
ATOM     13  H5  <1> d   1       9.102   2.751  -0.628  0.00  0.00     0.167 HD
ENDBRANCH  10  12
ENDBRANCH   9  10
BRANCH   9  14
ATOM     14  N2  <1> d   1       7.318   1.738  -3.915  0.00  0.00     0.093 N 
ATOM     15  H6  <1> d   1       7.673   0.801  -4.131  0.00  0.00     0.314 HD
ATOM     16  H7  <1> d   1       7.846   2.336  -4.559  0.00  0.00     0.314 HD
ENDBRANCH   9  14
ENDBRANCH   8   9
ENDBRANCH   7   8
ENDBRANCH   6   7
ENDBRANCH   5   6
ENDBRANCH   3   5
BRANCH   1  17
ATOM     17  O1  <1> d   1       2.608   0.984   2.046  0.00  0.00    -0.299 OA
BRANCH  17  18
ATOM     18  C5  <1> d   1       2.410   1.015   3.475  0.00  0.00     0.221 C 
BRANCH  18  19
ATOM     19  C3  <1> d   1       1.074   1.566   3.936  0.00  0.00    -0.012 A 
ATOM     20  C4  <1> d   1       0.744   1.604   5.306  0.00  0.00     0.042 A 
ATOM     21 Cl1  <1> d   1       1.834   1.023   6.518  0.00  0.00    -0.084 Cl
ATOM     22  C8  <1> d   1      -0.479   2.125   5.738  0.00  0.00     0.024 A 
ATOM     23  C14 <1> d   1      -1.400   2.615   4.815  0.00  0.00     0.002 A 
ATOM     24  C13 <1> d   1      -1.093   2.583   3.457  0.00  0.00     0.001 A 
ATOM     25  C7  <1> d   1       0.131   2.067   3.023  0.00  0.00     0.011 A 
ENDBRANCH  18  19
ENDBRANCH  17  18
ENDBRANCH   1  17
TORSDOF 11
