REMARK  4 active torsions:
REMARK  status: ('A' for Active; 'I' for Inactive)
REMARK    1  A    between atoms: C_7  and  N_1 
REMARK    2  A    between atoms: C_15  and  N_4 
REMARK    3  A    between atoms: C_9  and  C_7 
REMARK    4  A    between atoms: C_10  and  C_15 
ROOT
ATOM      1  N   UNL d   1       0.640   1.158   0.123  0.00  0.00    -0.341 N 
ATOM      2  C   UNL d   1       1.492   0.222   0.684  0.00  0.00     0.139 C 
ATOM      3  S   UNL d   1       0.946  -1.437   0.605  0.00  0.00    -0.070 SA
ATOM      4  N   UNL d   1      -1.363  -0.153  -0.062  0.00  0.00     0.115 N 
ATOM      5  C   UNL d   1      -0.783   1.113   0.371  0.00  0.00     0.400 C 
ATOM      6  C   UNL d   1      -0.820  -1.226   0.766  0.00  0.00     0.355 C 
ATOM      7  S   UNL d   1       3.030   0.556   1.271  0.00  0.00    -0.053 SA
ENDROOT
BRANCH   1   8
ATOM      8  C   UNL d   1       1.120   2.057  -0.926  0.00  0.00     0.130 C 
BRANCH   8   9
ATOM      9  C   UNL d   1       1.075   3.533  -0.647  0.00  0.00     0.004 A 
ATOM     10  C   UNL d   1       1.646   4.139   0.611  0.00  0.00     0.007 A 
ATOM     11  C   UNL d   1       0.172   4.239   0.339  0.00  0.00     0.007 A 
ENDBRANCH   8   9
ENDBRANCH   1   8
BRANCH   4  12
ATOM     12  C   UNL d   1      -2.823  -0.051   0.123  0.00  0.00     0.280 C 
BRANCH  12  13
ATOM     13  C   UNL d   1      -3.561  -1.274  -0.332  0.00  0.00     0.014 A 
ATOM     14  C   UNL d   1      -5.014  -1.437   0.049  0.00  0.00     0.007 A 
ATOM     15  C   UNL d   1      -3.979  -2.345   0.645  0.00  0.00     0.007 A 
ENDBRANCH  12  13
ENDBRANCH   4  12
TORSDOF 4
