REMARK  6 active torsions:
REMARK  status: ('A' for Active; 'I' for Inactive)
REMARK    1  A    between atoms: C_7  and  C_1 
REMARK    2  A    between atoms: C_3  and  C_2 
REMARK    3  A    between atoms: N_11  and  C_6 
REMARK    4  A    between atoms: O_16  and  C_7 
REMARK    5  A    between atoms: C_17  and  N_11 
REMARK    6  A    between atoms: C_18  and  O_16 
ROOT
ATOM      1  C   UNL d   1      -0.005  -1.550   0.041  0.00  0.00     0.087 A 
ATOM      2  C   UNL d   1       1.169  -0.827  -0.045  0.00  0.00     0.150 A 
ATOM      3  N   UNL d   1       1.147   0.547  -0.137  0.00  0.00    -0.185 N 
ATOM      4  HN  UNL d   1       2.014   1.070  -0.261  1.00  0.00     0.184 HD
ATOM      5  C   UNL d   1      -0.028   1.187  -0.061  0.00  0.00     0.683 A 
ATOM      6  N   UNL d   1      -1.192   0.542   0.061  0.00  0.00    -0.201 N 
ATOM      7  HN  UNL d   1      -2.073   1.051   0.124  1.00  0.00     0.183 HD
ATOM      8  C   UNL d   1      -1.162  -0.804   0.097  0.00  0.00     0.126 A 
ENDROOT
BRANCH   5   9
ATOM      9  N   UNL d   1      -0.009   2.569  -0.156  0.00  0.00    -0.192 N 
ATOM     10  H   UNL d   1       0.918   2.925  -0.349  0.00  0.00     0.184 HD
BRANCH   9  11
ATOM     11  C   UNL d   1      -0.930   3.499   0.350  0.00  0.00     0.049 A 
ATOM     12  C   UNL d   1      -1.736   3.224   1.463  0.00  0.00     0.030 A 
ATOM     13  C   UNL d   1      -2.684   4.146   1.912  0.00  0.00     0.002 A 
ATOM     14  C   UNL d   1      -2.857   5.349   1.234  0.00  0.00     0.000 A 
ATOM     15  C   UNL d   1      -2.069   5.636   0.122  0.00  0.00     0.002 A 
ATOM     16  C   UNL d   1      -1.104   4.722  -0.309  0.00  0.00     0.030 A 
ENDBRANCH   9  11
ENDBRANCH   5   9
BRANCH   2  17
ATOM     17  C   UNL d   1       2.550  -1.448   0.023  0.00  0.00     0.434 C 
ATOM     18  F   UNL d   1       2.603  -2.769   0.342  0.00  0.00    -0.165 F 
ATOM     19  F   UNL d   1       3.239  -1.316  -1.146  0.00  0.00    -0.165 F 
ATOM     20  F   UNL d   1       3.328  -0.845   0.974  0.00  0.00    -0.165 F 
ENDBRANCH   2  17
BRANCH   1  21
ATOM     21  C   UNL d   1      -0.177  -3.003   0.125  0.00  0.00     0.296 C 
ATOM     22  O   UNL d   1      -1.040  -3.515   0.812  0.00  0.00    -0.259 OA
BRANCH  21  23
ATOM     23  O   UNL d   1       0.645  -3.631  -0.742  0.00  0.00    -0.318 OA
BRANCH  23  24
ATOM     24  C   UNL d   1       0.531  -5.066  -0.754  0.00  0.00     0.174 C 
ATOM     25  C   UNL d   1      -0.424  -5.478  -1.856  0.00  0.00     0.034 C 
ENDBRANCH  23  24
ENDBRANCH  21  23
ENDBRANCH   1  21
TORSDOF 6
