REMARK  1 active torsions:
REMARK  status: ('A' for Active; 'I' for Inactive)
REMARK    1  A    between atoms: C_4  and  N_1 
ROOT
ATOM      1  C   UNL d   1       3.346  -0.039  -0.169  0.00  0.00     0.046 A 
ATOM      2  C   UNL d   1       6.597   1.080   1.551  0.00  0.00     0.072 A 
ATOM      3  C   UNL d   1       5.543   0.584   0.730  0.00  0.00     0.015 A 
ATOM      4  C   UNL d   1       4.131   0.609   0.804  0.00  0.00     0.045 A 
ATOM      5  N   UNL d   1       7.505   0.073  -0.208  0.00  0.00    -0.364 N 
ATOM      6  C   UNL d   1       7.793   0.754   0.945  0.00  0.00     0.112 A 
ATOM      7  C   UNL d   1       6.472   1.776   2.794  0.00  0.00     0.102 C 
ATOM      8  N   UNL d   1       6.383   2.328   3.811  0.00  0.00    -0.191 NA
ATOM      9  C   UNL d   1       6.142  -0.066  -0.348  0.00  0.00     0.044 A 
ATOM     10  C   UNL d   1       4.004  -0.699  -1.216  0.00  0.00     0.032 A 
ATOM     11  C   UNL d   1       5.401  -0.714  -1.337  0.00  0.00     0.033 A 
ATOM     12  H   UNL d   1       8.188  -0.293  -0.858  0.00  0.00     0.165 HD
ENDROOT
BRANCH   1  13
ATOM     13  N   UNL d   1       1.923  -0.020  -0.094  0.00  0.00    -0.244 N 
ATOM     14  C   UNL d   1       1.087  -0.920  -0.724  0.00  0.00     0.266 A 
ATOM     15  C   UNL d   1      -0.282  -0.527  -0.404  0.00  0.00     0.048 A 
ATOM     16  O   UNL d   1       1.319  -1.901  -1.407  0.00  0.00    -0.267 OA
ATOM     17  C   UNL d   1      -1.485  -1.095  -0.781  0.00  0.00     0.018 A 
ATOM     18  C   UNL d   1      -0.224   0.593   0.394  0.00  0.00     0.048 A 
ATOM     19  C   UNL d   1      -2.655  -0.471  -0.336  0.00  0.00     0.001 A 
ATOM     20  C   UNL d   1      -2.595   0.689   0.462  0.00  0.00     0.001 A 
ATOM     21  C   UNL d   1      -1.364   1.234   0.840  0.00  0.00     0.018 A 
ATOM     22  C   UNL d   1       1.185   0.914   0.607  0.00  0.00     0.266 A 
ATOM     23  O   UNL d   1       1.518   1.881   1.266  0.00  0.00    -0.267 OA
ENDBRANCH   1  13
TORSDOF 1
