REMARK  4 active torsions:
REMARK  status: ('A' for Active; 'I' for Inactive)
REMARK    1  A    between atoms: C_2  and  S_1 
REMARK    2  A    between atoms: C_3  and  S_1 
REMARK    3  A    between atoms: C_6  and  N_16 
REMARK    4  A    between atoms: N_16  and  C_7 
ROOT
ATOM      1  C   UNL d   1       0.454   1.220   1.012  0.00  0.00     0.159 C 
ATOM      2  C   UNL d   1      -0.161   2.264   0.430  0.00  0.00     0.124 C 
ATOM      3  C   UNL d   1       0.728   0.015   0.331  0.00  0.00     0.113 C 
ATOM      4  N   UNL d   1       0.957  -0.956  -0.261  0.00  0.00    -0.191 NA
ENDROOT
BRANCH   1   5
ATOM      5  S   UNL d   1       0.783   1.286   2.712  0.00  0.00     0.219 S 
ATOM      6  O   UNL d   1      -0.342   0.670   3.393  0.00  0.00    -0.216 OA
ATOM      7  O   UNL d   1       1.197   2.623   3.112  0.00  0.00    -0.216 OA
BRANCH   5   8
ATOM      8  C   UNL d   1       2.189   0.230   3.001  0.00  0.00     0.086 A 
ATOM      9  C   UNL d   1       3.441   0.498   2.441  0.00  0.00     0.056 A 
ATOM     10 CL   UNL d   1       3.756   1.828   1.387  0.00  0.00    -0.083 Cl
ATOM     11  C   UNL d   1       4.516  -0.356   2.719  0.00  0.00     0.025 A 
ATOM     12  C   UNL d   1       4.347  -1.463   3.555  0.00  0.00     0.002 A 
ATOM     13  C   UNL d   1       3.103  -1.722   4.121  0.00  0.00     0.002 A 
ATOM     14  C   UNL d   1       2.024  -0.879   3.849  0.00  0.00     0.025 A 
ENDBRANCH   5   8
ENDBRANCH   1   5
BRANCH   2  15
ATOM     15  N   UNL d   1      -0.627   2.371  -0.864  0.00  0.00    -0.350 N 
ATOM     16  H   UNL d   1      -0.497   1.581  -1.487  0.00  0.00     0.166 HD
BRANCH  15  17
ATOM     17  C   UNL d   1      -1.254   3.495  -1.441  0.00  0.00     0.108 A 
ATOM     18  N   UNL d   1      -1.347   4.646  -0.754  0.00  0.00    -0.332 N 
ATOM     19  C   UNL d   1      -1.974   5.676  -1.353  0.00  0.00     0.078 A 
ATOM     20  HN  UNL d   1      -0.957   4.737   0.185  1.00  0.00     0.168 HD
ATOM     21  C   UNL d   1      -2.064   6.975  -0.614  0.00  0.00     0.089 C 
ATOM     22  N   UNL d   1      -2.527   5.632  -2.578  0.00  0.00    -0.350 N 
ATOM     23  C   UNL d   1      -2.433   4.468  -3.244  0.00  0.00     0.010 A 
ATOM     24  HN  UNL d   1      -2.996   6.442  -2.982  1.00  0.00     0.167 HD
ATOM     25  C   UNL d   1      -1.798   3.366  -2.707  0.00  0.00     0.073 A 
ATOM     26  C   UNL d   1      -3.055   4.398  -4.605  0.00  0.00     0.068 C 
ENDBRANCH  15  17
ENDBRANCH   2  15
TORSDOF 4
