REMARK  2 active torsions:
REMARK  status: ('A' for Active; 'I' for Inactive)
REMARK    1  A    between atoms: C_14  and  N_4 
REMARK    2  A    between atoms: C_17  and  C_11 
ROOT
ATOM      1  C   UNL d   1      -2.464  -0.738   0.090  0.00  0.00     0.089 A 
ATOM      2  C   UNL d   1      -4.995  -0.355  -0.042  0.00  0.00     0.145 C 
ATOM      3  C   UNL d   1      -3.725  -1.189   0.025  0.00  0.00     0.038 C 
ATOM      4  N   UNL d   1      -5.921  -0.788  -2.156  0.00  0.00    -0.251 N 
ATOM      5  C   UNL d   1      -6.129  -1.376   0.110  0.00  0.00     0.126 C 
ATOM      6  C   UNL d   1      -5.156   0.125  -1.461  0.00  0.00     0.242 C 
ATOM      7  C   UNL d   1      -6.639  -1.579  -1.290  0.00  0.00     0.239 C 
ATOM      8  C   UNL d   1      -1.960   0.661   0.139  0.00  0.00     0.199 A 
ATOM      9  C   UNL d   1      -1.296  -1.661   0.117  0.00  0.00     0.199 A 
ATOM     10  N   UNL d   1      -4.104  -2.525   0.066  0.00  0.00    -0.381 N 
ATOM     11  C   UNL d   1      -5.472  -2.690   0.561  0.00  0.00     0.145 C 
ATOM     12  C   UNL d   1      -0.494   0.544   0.076  0.00  0.00     0.029 A 
ATOM     13  C   UNL d   1      -0.118  -0.797   0.064  0.00  0.00     0.029 A 
ATOM     14  O   UNL d   1      -7.547  -2.368  -1.527  0.00  0.00    -0.272 OA
ATOM     15  O   UNL d   1      -4.649   1.156  -1.885  0.00  0.00    -0.272 OA
ATOM     16  O   UNL d   1      -2.591   1.688   0.268  0.00  0.00    -0.286 OA
ATOM     17  O   UNL d   1      -1.287  -2.873   0.182  0.00  0.00    -0.286 OA
ATOM     18  C   UNL d   1       1.207  -1.192   0.018  0.00  0.00     0.016 A 
ATOM     19  C   UNL d   1       0.454   1.550   0.051  0.00  0.00     0.016 A 
ATOM     20  C   UNL d   1       1.802   1.171   0.008  0.00  0.00     0.001 A 
ATOM     21  C   UNL d   1       2.175  -0.188  -0.010  0.00  0.00     0.001 A 
ATOM     22  H   UNL d   1      -3.385  -3.168   0.415  0.00  0.00     0.160 HD
ENDROOT
BRANCH  11  23
ATOM     23  C   UNL d   1      -5.446  -2.885   2.071  0.00  0.00     0.032 A 
ATOM     24  N   UNL d   1      -5.567  -1.791   2.869  0.00  0.00    -0.367 N 
ATOM     25  C   UNL d   1      -5.440  -1.976   4.202  0.00  0.00     0.088 A 
ATOM     26  HN  UNL d   1      -5.747  -0.867   2.477  1.00  0.00     0.165 HD
ATOM     27  C   UNL d   1      -5.190  -3.204   4.790  0.00  0.00     0.017 A 
ATOM     28  C   UNL d   1      -5.063  -4.314   3.964  0.00  0.00     0.003 A 
ATOM     29  C   UNL d   1      -5.187  -4.156   2.588  0.00  0.00     0.027 A 
ENDBRANCH  11  23
BRANCH   4  30
ATOM     30  C   UNL d   1      -5.882  -0.943  -3.575  0.00  0.00     0.045 A 
ATOM     31  C   UNL d   1      -6.810  -1.734  -4.269  0.00  0.00     0.037 A 
ATOM     32  C   UNL d   1      -6.674  -1.998  -5.644  0.00  0.00    -0.060 A 
ATOM     33  C   UNL d   1      -7.656  -2.881  -6.357  0.00  0.00     0.048 C 
ATOM     34  C   UNL d   1      -5.587  -1.467  -6.341  0.00  0.00     0.007 A 
ATOM     35  C   UNL d   1      -4.665  -0.665  -5.681  0.00  0.00     0.003 A 
ATOM     36  C   UNL d   1      -4.817  -0.402  -4.318  0.00  0.00     0.030 A 
ENDBRANCH   4  30
TORSDOF 2
