REMARK  3 active torsions:
REMARK  status: ('A' for Active; 'I' for Inactive)
REMARK    1  A    between atoms: S_13  and  C_10 
REMARK    2  A    between atoms: O_15  and  C_11 
REMARK    3  A    between atoms: N_14  and  C_12 
ROOT
ATOM      1  C   UNL d   1      -0.223   0.666  -0.022  0.00  0.00     0.141 A 
ATOM      2  C   UNL d   1      -0.279  -0.713   0.009  0.00  0.00     0.130 A 
ATOM      3  N   UNL d   1      -1.526   1.071   0.003  0.00  0.00    -0.321 N 
ATOM      4  N   UNL d   1       0.872   1.436  -0.073  0.00  0.00    -0.317 N 
ATOM      5  HN  UNL d   1       0.854   2.456  -0.078  1.00  0.00     0.170 HD
ATOM      6  N   UNL d   1       2.092  -0.641  -0.069  0.00  0.00    -0.311 N 
ATOM      7  HN  UNL d   1       3.001  -1.104  -0.076  1.00  0.00     0.170 HD
ATOM      8  N   UNL d   1      -1.578  -1.161   0.053  0.00  0.00    -0.330 N 
ATOM      9  HN  UNL d   1      -1.909  -2.125   0.090  1.00  0.00     0.168 HD
ATOM     10  C   UNL d   1      -2.296  -0.058   0.038  0.00  0.00     0.143 A 
ATOM     11  C   UNL d   1       0.952  -1.357  -0.011  0.00  0.00     0.173 A 
ATOM     12  C   UNL d   1       1.999   0.700  -0.117  0.00  0.00     0.158 A 
ATOM     13  H   UNL d   1      -1.845   2.027  -0.015  0.00  0.00     0.169 HD
ENDROOT
BRANCH  12  14
ATOM     14  N   UNL d   1       3.192   1.392  -0.186  0.00  0.00    -0.274 NA
ATOM     15  H   UNL d   1       3.942   0.807   0.157  0.00  0.00     0.127 HD
ATOM     16  H   UNL d   1       3.093   2.312   0.218  0.00  0.00     0.127 HD
ENDBRANCH  12  14
BRANCH  11  17
ATOM     17  O   UNL d   1       1.066  -2.724   0.025  0.00  0.00    -0.344 OA
ATOM     18  H   UNL d   1       0.146  -3.048   0.045  0.00  0.00     0.219 HD
ENDBRANCH  11  17
BRANCH  10  19
ATOM     19  S   UNL d   1      -4.018   0.027   0.056  0.00  0.00    -0.107 SA
ATOM     20  H   UNL d   1      -4.187   1.354  -0.002  0.00  0.00     0.110 HD
ENDBRANCH  10  19
TORSDOF 3
