REMARK  5 active torsions:
REMARK  status: ('A' for Active; 'I' for Inactive)
REMARK    1  A    between atoms: C_8  and  C_1 
REMARK    2  A    between atoms: O_5  and  C_2 
REMARK    3  A    between atoms: C_6  and  O_5 
REMARK    4  A    between atoms: C_9  and  C_6 
REMARK    5  A    between atoms: O_16  and  C_8 
ROOT
ATOM      1  C   UNL d   1       2.108  -0.981  -0.117  0.00  0.00     0.115 C 
ATOM      2  C   UNL d   1       0.918  -1.592   0.238  0.00  0.00     0.114 C 
ATOM      3  S   UNL d   1       1.852   0.664  -0.508  0.00  0.00    -0.081 SA
ATOM      4  C   UNL d   1      -0.181  -0.664   0.367  0.00  0.00     0.017 A 
ATOM      5  C   UNL d   1       0.195   0.609  -0.069  0.00  0.00     0.019 A 
ATOM      6  C   UNL d   1      -1.509  -0.824   0.840  0.00  0.00     0.015 A 
ATOM      7  C   UNL d   1      -0.713   1.685  -0.108  0.00  0.00     0.020 A 
ATOM      8  C   UNL d   1      -2.412   0.246   0.821  0.00  0.00     0.001 A 
ATOM      9  C   UNL d   1      -2.020   1.484   0.336  0.00  0.00     0.001 A 
ENDROOT
BRANCH   2  10
ATOM     10  O   UNL d   1       0.902  -2.915   0.541  0.00  0.00    -0.272 OA
BRANCH  10  11
ATOM     11  C   UNL d   1      -0.015  -3.733  -0.069  0.00  0.00     0.305 C 
ATOM     12  O   UNL d   1      -0.927  -3.361  -0.797  0.00  0.00    -0.258 OA
BRANCH  11  13
ATOM     13  C   UNL d   1       0.240  -5.133   0.252  0.00  0.00     0.080 A 
ATOM     14  S   UNL d   1       1.673  -5.650   1.043  0.00  0.00    -0.096 SA
ATOM     15  C   UNL d   1       1.216  -7.293   0.965  0.00  0.00     0.050 A 
ATOM     16  C   UNL d   1      -0.012  -7.459   0.365  0.00  0.00     0.009 A 
ATOM     17  C   UNL d   1      -0.570  -6.215  -0.052  0.00  0.00     0.025 A 
ENDBRANCH  11  13
ENDBRANCH  10  11
ENDBRANCH   2  10
BRANCH   1  18
ATOM     18  C   UNL d   1       3.429  -1.582  -0.207  0.00  0.00     0.302 C 
ATOM     19  O   UNL d   1       3.671  -2.780  -0.118  0.00  0.00    -0.259 OA
BRANCH  18  20
ATOM     20  O   UNL d   1       4.397  -0.629  -0.366  0.00  0.00    -0.322 OA
ATOM     21  C   UNL d   1       5.733  -1.130  -0.393  0.00  0.00     0.213 C 
ENDBRANCH  18  20
ENDBRANCH   1  18
TORSDOF 5
