REMARK  4 active torsions:
REMARK  status: ('A' for Active; 'I' for Inactive)
REMARK    1  A    between atoms: C_5  and  C_3 
REMARK    2  A    between atoms: C_11  and  C_4 
REMARK    3  A    between atoms: C_9  and  C_12 
REMARK    4  A    between atoms: O_25  and  C_22 
ROOT
ATOM      1  N   UNL d   1       1.262   0.192  -0.097  0.00  0.00    -0.318 N 
ATOM      2  HN  UNL d   1       2.261   0.361  -0.210  1.00  0.00     0.169 HD
ATOM      3  C   UNL d   1       0.637  -0.956   0.009  0.00  0.00     0.183 A 
ATOM      4  C   UNL d   1       0.243   1.111  -0.018  0.00  0.00     0.138 A 
ATOM      5  N   UNL d   1      -0.978   0.560   0.090  0.00  0.00    -0.242 N 
ATOM      6  HN  UNL d   1      -1.880   1.033   0.146  1.00  0.00     0.196 HD
ATOM      7  O   UNL d   1      -0.719  -0.811   0.108  0.00  0.00    -0.217 OA
ENDROOT
BRANCH   4   8
ATOM      8  C   UNL d   1       0.508   2.545  -0.038  0.00  0.00     0.010 A 
ATOM      9  C   UNL d   1       1.825   3.009  -0.174  0.00  0.00     0.016 A 
ATOM     10  C   UNL d   1       2.105   4.378  -0.181  0.00  0.00     0.017 A 
ATOM     11  C   UNL d   1       1.071   5.314  -0.050  0.00  0.00     0.048 A 
ATOM     12  C   UNL d   1      -0.247   4.851   0.086  0.00  0.00     0.017 A 
ATOM     13  C   UNL d   1      -0.526   3.480   0.092  0.00  0.00     0.016 A 
BRANCH  11  14
ATOM     14  C   UNL d   1       1.354   6.797  -0.054  0.00  0.00     0.417 C 
ATOM     15  F   UNL d   1       2.676   7.101  -0.182  0.00  0.00    -0.166 F 
ATOM     16  F   UNL d   1       0.722   7.443  -1.073  0.00  0.00    -0.166 F 
ATOM     17  F   UNL d   1       0.940   7.408   1.091  0.00  0.00    -0.166 F 
ENDBRANCH  11  14
ENDBRANCH   4   8
BRANCH   3  18
ATOM     18  C   UNL d   1       1.159  -2.317   0.033  0.00  0.00     0.037 A 
ATOM     19  C   UNL d   1       2.416  -2.632   0.577  0.00  0.00     0.025 A 
ATOM     20  C   UNL d   1       2.890  -3.948   0.547  0.00  0.00     0.023 A 
ATOM     21 BR   UNL d   1       3.546  -1.359   1.431  0.00  0.00    -0.050 Br
ATOM     22  C   UNL d   1       2.117  -4.959  -0.020  0.00  0.00     0.038 A 
ATOM     23  C   UNL d   1       0.863  -4.674  -0.558  0.00  0.00     0.069 A 
ATOM     24  C   UNL d   1       0.390  -3.360  -0.530  0.00  0.00     0.054 A 
BRANCH  23  25
ATOM     25  O   UNL d   1       0.211  -5.755  -1.079  0.00  0.00    -0.356 OA
ATOM     26  C   UNL d   1      -1.074  -5.530  -1.646  0.00  0.00     0.210 C 
ENDBRANCH  23  25
ENDBRANCH   3  18
TORSDOF 4
