REMARK  6 active torsions:
REMARK  status: ('A' for Active; 'I' for Inactive)
REMARK    1  A    between atoms: C_2  and  C_1 
REMARK    2  A    between atoms: O_6  and  C_2 
REMARK    3  A    between atoms: N_3  and  O_6 
REMARK    4  A    between atoms: C_8  and  O_12 
REMARK    5  A    between atoms: C_16  and  C_11 
REMARK    6  A    between atoms: O_12  and  C_16 
ROOT
ATOM      1  N   UNL d   1      -2.369   2.480   0.054  0.00  0.00    -0.264 N 
ATOM      2  HN  UNL d   1      -1.505   3.021   0.069  1.00  0.00     0.194 HD
ATOM      3  C   UNL d   1      -3.542   3.024  -0.043  0.00  0.00     0.031 C 
ATOM      4  C   UNL d   1      -4.854   2.282  -0.123  0.00  0.00     0.068 C 
ENDROOT
BRANCH   1   5
ATOM      5  O   UNL d   1      -2.395   1.072   0.138  0.00  0.00    -0.195 OA
BRANCH   5   6
ATOM      6  C   UNL d   1      -1.145   0.629   0.480  0.00  0.00     0.321 C 
ATOM      7  O   UNL d   1      -0.159   1.334   0.666  0.00  0.00    -0.257 OA
BRANCH   6   8
ATOM      8  C   UNL d   1      -1.097  -0.841   0.644  0.00  0.00     0.118 A 
ATOM      9  C   UNL d   1       0.045  -1.417   1.215  0.00  0.00     0.135 A 
ATOM     10  F   UNL d   1       1.068  -0.667   1.645  0.00  0.00    -0.205 F 
ATOM     11  C   UNL d   1       0.166  -2.800   1.371  0.00  0.00     0.043 A 
ATOM     12  C   UNL d   1      -0.864  -3.638   0.958  0.00  0.00     0.006 A 
ATOM     13  C   UNL d   1      -2.011  -3.083   0.394  0.00  0.00     0.043 A 
ATOM     14  C   UNL d   1      -2.123  -1.696   0.240  0.00  0.00     0.135 A 
ATOM     15  F   UNL d   1      -3.247  -1.228  -0.318  0.00  0.00    -0.205 F 
ENDBRANCH   6   8
ENDBRANCH   5   6
ENDBRANCH   1   5
BRANCH   3  16
ATOM     16  C   UNL d   1      -3.614   4.551   0.005  0.00  0.00     0.229 C 
BRANCH  16  17
ATOM     17  O   UNL d   1      -3.840   5.118  -1.272  0.00  0.00    -0.344 OA
BRANCH  17  18
ATOM     18  C   UNL d   1      -3.754   6.480  -1.422  0.00  0.00     0.091 A 
ATOM     19  C   UNL d   1      -3.742   7.505  -0.458  0.00  0.00     0.069 A 
ATOM     20  C   UNL d   1      -3.678   8.851  -0.857  0.00  0.00     0.050 A 
ATOM     21 CL   UNL d   1      -3.841   7.281   1.255  0.00  0.00    -0.081 Cl
ATOM     22  C   UNL d   1      -3.632   9.189  -2.204  0.00  0.00     0.035 A 
ATOM     23  C   UNL d   1      -3.643   8.193  -3.171  0.00  0.00     0.026 A 
ATOM     24 CL   UNL d   1      -3.576  10.843  -2.672  0.00  0.00    -0.084 Cl
ATOM     25  C   UNL d   1      -3.704   6.851  -2.778  0.00  0.00     0.040 A 
ENDBRANCH  17  18
ENDBRANCH  16  17
ENDBRANCH   3  16
TORSDOF 6
