REMARK  2 active torsions:
REMARK  status: ('A' for Active; 'I' for Inactive)
REMARK    1  A    between atoms: C_2  and  S_1 
REMARK    2  A    between atoms: N_5  and  S_1 
ROOT
ATOM      1  S   UNL d   1       0.942  -0.139   0.104  0.00  0.00     0.248 S 
ATOM      2  O   UNL d   1       0.247  -1.167  -0.640  0.00  0.00    -0.206 OA
ATOM      3  O   UNL d   1       2.383  -0.037   0.072  0.00  0.00    -0.206 OA
ENDROOT
BRANCH   1   4
ATOM      4  C   UNL d   1       0.581  -0.458   1.750  0.00  0.00     0.130 A 
ATOM      5  C   UNL d   1       1.344  -0.139   2.852  0.00  0.00     0.097 A 
ATOM      6  O   UNL d   1       0.683  -0.539   3.972  0.00  0.00    -0.241 OA
ATOM      7  C   UNL d   1       2.651   0.502   3.100  0.00  0.00     0.081 C 
ATOM      8  N   UNL d   1      -0.513  -1.127   3.622  0.00  0.00    -0.264 N 
ATOM      9  C   UNL d   1      -0.567  -1.091   2.283  0.00  0.00     0.054 A 
ATOM     10  HN  UNL d   1      -1.215  -1.511   4.254  1.00  0.00     0.194 HD
ATOM     11  C   UNL d   1      -1.739  -1.690   1.603  0.00  0.00     0.072 C 
ENDBRANCH   1   4
BRANCH   1  12
ATOM     12  N   UNL d   1       0.303   1.393  -0.330  0.00  0.00    -0.205 NA
ATOM     13  C   UNL d   1       0.656   2.493   0.620  0.00  0.00     0.117 C 
ATOM     14  C   UNL d   1       0.357   3.888   0.077  0.00  0.00     0.089 C 
ATOM     15  S   UNL d   1      -1.407   4.098  -0.299  0.00  0.00    -0.167 SA
ATOM     16  C   UNL d   1      -1.540   2.693  -1.442  0.00  0.00     0.089 C 
ATOM     17  C   UNL d   1      -1.122   1.382  -0.775  0.00  0.00     0.117 C 
ENDBRANCH   1  12
TORSDOF 2
