REMARK  8 active torsions:
REMARK  status: ('A' for Active; 'I' for Inactive)
REMARK    1  A    between atoms: C_3  and  C_1 
REMARK    2  A    between atoms: C_2  and  C_15 
REMARK    3  A    between atoms: O_18  and  C_3 
REMARK    4  A    between atoms: C_4  and  N_12 
REMARK    5  A    between atoms: S_17  and  C_4 
REMARK    6  A    between atoms: N_12  and  C_5 
REMARK    7  A    between atoms: N_10  and  N_8 
REMARK    8  A    between atoms: C_25  and  O_18 
ROOT
ATOM      1  C   UNL d   1      -0.821  -0.409   1.035  0.00  0.00     0.135 C 
ATOM      2  C   UNL d   1      -1.503  -0.470  -0.122  0.00  0.00     0.119 C 
ATOM      3  C   UNL d   1       0.530   0.011   1.119  0.00  0.00     0.107 C 
ATOM      4  N   UNL d   1       1.633   0.370   1.171  0.00  0.00    -0.191 NA
ENDROOT
BRANCH   1   5
ATOM      5  C   UNL d   1      -1.599  -0.729   2.257  0.00  0.00     0.305 C 
ATOM      6  O   UNL d   1      -2.756  -1.126   2.247  0.00  0.00    -0.258 OA
BRANCH   5   7
ATOM      7  O   UNL d   1      -0.884  -0.455   3.378  0.00  0.00    -0.317 OA
BRANCH   7   8
ATOM      8  C   UNL d   1      -1.651  -0.427   4.593  0.00  0.00     0.174 C 
ATOM      9  C   UNL d   1      -2.196   0.978   4.778  0.00  0.00     0.034 C 
ENDBRANCH   7   8
ENDBRANCH   5   7
ENDBRANCH   1   5
BRANCH   2  10
ATOM     10  N   UNL d   1      -1.119  -0.236  -1.424  0.00  0.00    -0.344 N 
ATOM     11  H   UNL d   1      -0.121  -0.163  -1.623  0.00  0.00     0.167 HD
BRANCH  10  12
ATOM     12  C   UNL d   1      -1.844  -0.265  -2.599  0.00  0.00     0.158 C 
ATOM     13  N   UNL d   1      -1.295  -0.338  -3.778  0.00  0.00    -0.280 N 
ATOM     14  HN  UNL d   1      -1.818  -0.364  -4.653  1.00  0.00     0.189 HD
BRANCH  13  15
ATOM     15  N   UNL d   1       0.101  -0.377  -3.696  0.00  0.00    -0.309 N 
ATOM     16  C   UNL d   1       0.646  -0.670  -4.832  0.00  0.00     0.123 C 
ATOM     17  HN  UNL d   1       0.628  -0.196  -2.842  1.00  0.00     0.186 HD
BRANCH  16  18
ATOM     18  C   UNL d   1       2.115  -0.732  -4.999  0.00  0.00     0.041 A 
ATOM     19  C   UNL d   1       2.704  -0.989  -6.243  0.00  0.00     0.048 A 
ATOM     20 CL   UNL d   1       1.786  -1.315  -7.672  0.00  0.00    -0.083 Cl
ATOM     21  C   UNL d   1       4.100  -0.989  -6.376  0.00  0.00     0.025 A 
ATOM     22  C   UNL d   1       4.917  -0.739  -5.273  0.00  0.00     0.005 A 
ATOM     23  C   UNL d   1       4.338  -0.499  -4.032  0.00  0.00     0.043 A 
ATOM     24  C   UNL d   1       2.950  -0.499  -3.899  0.00  0.00     0.129 A 
ATOM     25  F   UNL d   1       2.453  -0.269  -2.675  0.00  0.00    -0.205 F 
ENDBRANCH  16  18
ENDBRANCH  13  15
BRANCH  12  26
ATOM     26  S   UNL d   1      -3.604  -0.161  -2.485  0.00  0.00    -0.097 SA
ATOM     27  C   UNL d   1      -4.099  -0.286  -4.208  0.00  0.00     0.099 C 
ENDBRANCH  12  26
ENDBRANCH  10  12
ENDBRANCH   2  10
TORSDOF 8
