REMARK  6 active torsions:
REMARK  status: ('A' for Active; 'I' for Inactive)
REMARK    1  A    between atoms: C_2  and  S_1 
REMARK    2  A    between atoms: N_3  and  S_1 
REMARK    3  A    between atoms: C_10  and  N_3 
REMARK    4  A    between atoms: O_18  and  C_7 
REMARK    5  A    between atoms: C_8  and  C_9 
REMARK    6  A    between atoms: O_19  and  C_14 
ROOT
ATOM      1  S   UNL d   1       1.103   0.156  -0.099  0.00  0.00     0.266 S 
ATOM      2  O   UNL d   1       0.174  -0.730   0.584  0.00  0.00    -0.200 OA
ATOM      3  O   UNL d   1       2.438  -0.293  -0.400  0.00  0.00    -0.200 OA
ENDROOT
BRANCH   1   4
ATOM      4  C   UNL d   1       1.207   1.642   0.890  0.00  0.00     0.115 A 
ATOM      5  C   UNL d   1       2.489   1.882   1.450  0.00  0.00     0.065 A 
ATOM      6  C   UNL d   1       2.771   3.050   2.156  0.00  0.00     0.069 A 
ATOM      7  C   UNL d   1       1.770   3.996   2.312  0.00  0.00     0.039 A 
ATOM      8  C   UNL d   1       0.489   3.751   1.812  0.00  0.00     0.041 A 
ATOM      9  C   UNL d   1       0.176   2.564   1.115  0.00  0.00     0.091 A 
BRANCH   6  10
ATOM     10  O   UNL d   1       3.971   3.385   2.714  0.00  0.00    -0.356 OA
ATOM     11  C   UNL d   1       5.001   2.403   2.686  0.00  0.00     0.210 C 
ENDBRANCH   6  10
BRANCH   9  12
ATOM     12  O   UNL d   1      -1.121   2.568   0.686  0.00  0.00    -0.354 OA
ATOM     13  C   UNL d   1      -1.880   1.373   0.795  0.00  0.00     0.210 C 
ENDBRANCH   9  12
ENDBRANCH   1   4
BRANCH   1  14
ATOM     14  N   UNL d   1       0.362   0.580  -1.536  0.00  0.00    -0.281 N 
ATOM     15  H   UNL d   1      -0.361  -0.089  -1.792  0.00  0.00     0.179 HD
BRANCH  14  16
ATOM     16  C   UNL d   1       1.003   1.217  -2.633  0.00  0.00     0.042 A 
ATOM     17  C   UNL d   1       1.911   0.552  -3.464  0.00  0.00     0.030 A 
ATOM     18  C   UNL d   1       2.157   1.032  -4.774  0.00  0.00     0.010 A 
ATOM     19  C   UNL d   1       1.488   2.164  -5.280  0.00  0.00    -0.051 A 
ATOM     20  C   UNL d   1       0.658   2.854  -4.388  0.00  0.00     0.010 A 
ATOM     21  C   UNL d   1       0.406   2.379  -3.094  0.00  0.00     0.030 A 
BRANCH  19  22
ATOM     22  C   UNL d   1       1.592   2.574  -6.772  0.00  0.00    -0.024 C 
ATOM     23  C   UNL d   1       0.701   3.789  -7.132  0.00  0.00     0.019 C 
ATOM     24  C   UNL d   1       3.039   2.938  -7.160  0.00  0.00     0.019 C 
ATOM     25  C   UNL d   1       1.127   1.409  -7.679  0.00  0.00     0.019 C 
ENDBRANCH  19  22
ENDBRANCH  14  16
ENDBRANCH   1  14
TORSDOF 6
