REMARK  7 active torsions:
REMARK  status: ('A' for Active; 'I' for Inactive)
REMARK    1  A    between atoms: C_2  and  S_1 
REMARK    2  A    between atoms: N_5  and  S_1 
REMARK    3  A    between atoms: C_9  and  C_4 
REMARK    4  A    between atoms: C_14  and  N_8 
REMARK    5  A    between atoms: O_21  and  C_9 
REMARK    6  A    between atoms: C_18  and  C_14 
REMARK    7  A    between atoms: C_19  and  C_14 
ROOT
ATOM      1  N   UNL d   1       0.569   0.365  -1.263  0.00  0.00    -0.202 NA
ATOM      2  N   UNL d   1      -1.929   2.019  -1.032  0.00  0.00     0.104 N 
ATOM      3  C   UNL d   1       0.579   1.837  -1.492  0.00  0.00     0.138 C 
ATOM      4  C   UNL d   1      -0.772  -0.208  -1.586  0.00  0.00     0.138 C 
ATOM      5  C   UNL d   1      -1.910   0.539  -0.855  0.00  0.00     0.289 C 
ATOM      6  C   UNL d   1      -0.569   2.522  -0.723  0.00  0.00     0.289 C 
ENDROOT
BRANCH   1   7
ATOM      7  S   UNL d   1       1.337  -0.188   0.159  0.00  0.00     0.259 S 
ATOM      8  O   UNL d   1       1.317   0.847   1.164  0.00  0.00    -0.204 OA
ATOM      9  O   UNL d   1       0.922  -1.548   0.426  0.00  0.00    -0.204 OA
BRANCH   7  10
ATOM     10  C   UNL d   1       3.075  -0.361  -0.250  0.00  0.00     0.146 A 
ATOM     11  N   UNL d   1       4.064  -0.798   0.623  0.00  0.00    -0.336 N 
ATOM     12  C   UNL d   1       5.311  -0.763  -0.001  0.00  0.00     0.111 A 
ATOM     13  C   UNL d   1       3.871  -1.229   1.997  0.00  0.00     0.157 C 
ATOM     14  C   UNL d   1       5.083  -0.317  -1.296  0.00  0.00     0.039 A 
ATOM     15  C   UNL d   1       3.705  -0.108  -1.458  0.00  0.00     0.046 A 
BRANCH  12  16
ATOM     16  C   UNL d   1       6.595  -1.120   0.589  0.00  0.00     0.309 C 
ATOM     17  O   UNL d   1       6.771  -1.566   1.713  0.00  0.00    -0.258 OA
BRANCH  16  18
ATOM     18  O   UNL d   1       7.584  -0.860  -0.316  0.00  0.00    -0.321 OA
ATOM     19  C   UNL d   1       8.916  -1.126   0.127  0.00  0.00     0.213 C 
ENDBRANCH  16  18
ENDBRANCH  12  16
ENDBRANCH   7  10
ENDBRANCH   1   7
BRANCH   2  20
ATOM     20  C   UNL d   1      -2.471   2.454  -2.358  0.00  0.00     0.289 C 
BRANCH  20  21
ATOM     21  C   UNL d   1      -3.919   1.973  -2.544  0.00  0.00    -0.021 A 
ATOM     22  C   UNL d   1      -4.928   2.360  -1.644  0.00  0.00     0.010 A 
ATOM     23  C   UNL d   1      -6.239   1.909  -1.796  0.00  0.00     0.001 A 
ATOM     24  C   UNL d   1      -6.563   1.055  -2.847  0.00  0.00     0.000 A 
ATOM     25  C   UNL d   1      -5.574   0.645  -3.739  0.00  0.00     0.001 A 
ATOM     26  C   UNL d   1      -4.261   1.102  -3.593  0.00  0.00     0.010 A 
ENDBRANCH  20  21
BRANCH  20  27
ATOM     27  C   UNL d   1      -2.385   3.975  -2.621  0.00  0.00    -0.021 A 
ATOM     28  C   UNL d   1      -2.155   4.455  -3.924  0.00  0.00     0.010 A 
ATOM     29  C   UNL d   1      -2.003   5.825  -4.170  0.00  0.00     0.001 A 
ATOM     30  C   UNL d   1      -2.093   6.741  -3.125  0.00  0.00     0.000 A 
ATOM     31  C   UNL d   1      -2.377   6.291  -1.838  0.00  0.00     0.001 A 
ATOM     32  C   UNL d   1      -2.542   4.925  -1.595  0.00  0.00     0.010 A 
ENDBRANCH  20  27
ENDBRANCH   2  20
TORSDOF 7
