REMARK  4 active torsions:
REMARK  status: ('A' for Active; 'I' for Inactive)
REMARK    1  A    between atoms: N_3  and  C_1 
REMARK    2  A    between atoms: C_2  and  C_10 
REMARK    3  A    between atoms: N_7  and  N_3 
REMARK    4  A    between atoms: O_20  and  C_4 
ROOT
ATOM      1  N   UNL d   1      -0.240   3.842   0.069  0.00  0.00    -0.320 N 
ATOM      2  HN  UNL d   1       0.485   3.135   0.194  1.00  0.00     0.181 HD
ATOM      3  C   UNL d   1       0.047   5.106  -0.106  0.00  0.00     0.030 C 
ATOM      4  C   UNL d   1      -1.026   6.175  -0.229  0.00  0.00     0.070 C 
ENDROOT
BRANCH   1   5
ATOM      5  N   UNL d   1      -1.566   3.528   0.073  0.00  0.00    -0.202 NA
ATOM      6  H   UNL d   1      -2.045   3.713  -0.815  0.00  0.00     0.153 HD
BRANCH   5   7
ATOM      7  C   UNL d   1      -1.935   2.232   0.542  0.00  0.00     0.071 A 
ATOM      8  C   UNL d   1      -1.419   1.640   1.714  0.00  0.00     0.060 A 
ATOM      9  C   UNL d   1      -1.855   0.378   2.138  0.00  0.00     0.049 A 
ATOM     10 CL   UNL d   1      -0.306   2.446   2.767  0.00  0.00    -0.082 Cl
ATOM     11  C   UNL d   1      -2.834  -0.298   1.419  0.00  0.00     0.037 A 
ATOM     12  C   UNL d   1      -3.393   0.269   0.282  0.00  0.00     0.049 A 
ATOM     13 CL   UNL d   1      -3.382  -1.837   1.960  0.00  0.00    -0.084 Cl
ATOM     14  C   UNL d   1      -2.949   1.522  -0.143  0.00  0.00     0.060 A 
ATOM     15 CL   UNL d   1      -3.684   2.197  -1.562  0.00  0.00    -0.082 Cl
ENDBRANCH   5   7
ENDBRANCH   1   5
BRANCH   3  16
ATOM     16  C   UNL d   1       1.491   5.516  -0.145  0.00  0.00     0.024 A 
ATOM     17  C   UNL d   1       2.483   4.726   0.465  0.00  0.00     0.099 A 
ATOM     18  C   UNL d   1       3.816   5.160   0.482  0.00  0.00     0.069 A 
ATOM     19 CL   UNL d   1       5.057   4.238   1.255  0.00  0.00    -0.081 Cl
ATOM     20  C   UNL d   1       4.176   6.363  -0.123  0.00  0.00     0.050 A 
ATOM     21  C   UNL d   1       3.203   7.120  -0.765  0.00  0.00     0.036 A 
ATOM     22  C   UNL d   1       1.870   6.703  -0.786  0.00  0.00     0.040 A 
ATOM     23 CL   UNL d   1       3.643   8.595  -1.535  0.00  0.00    -0.084 Cl
BRANCH  17  24
ATOM     24  O   UNL d   1       2.195   3.525   1.058  0.00  0.00    -0.358 OA
ATOM     25  H   UNL d   1       1.243   3.319   0.920  0.00  0.00     0.217 HD
ENDBRANCH  17  24
ENDBRANCH   3  16
TORSDOF 4
