REMARK  5 active torsions:
REMARK  status: ('A' for Active; 'I' for Inactive)
REMARK    1  A    between atoms: C_3  and  N_1 
REMARK    2  A    between atoms: C_7  and  C_4 
REMARK    3  A    between atoms: O_15  and  C_5 
REMARK    4  A    between atoms: C_9  and  C_6 
REMARK    5  A    between atoms: O_17  and  C_11 
ROOT
ATOM      1  N   UNL d   1       1.125   0.322   0.083  0.00  0.00    -0.364 N 
ATOM      2  HN  UNL d   1       0.646   0.548  -0.789  1.00  0.00     0.165 HD
ATOM      3  C   UNL d   1       2.313  -0.200   0.075  0.00  0.00     0.102 C 
ENDROOT
BRANCH   1   4
ATOM      4  C   UNL d   1       0.512   0.569   1.333  0.00  0.00     0.054 A 
ATOM      5  C   UNL d   1       1.229   1.193   2.369  0.00  0.00     0.046 A 
ATOM      6  C   UNL d   1       0.653   1.425   3.620  0.00  0.00     0.011 A 
ATOM      7  C   UNL d   1      -0.693   1.083   3.819  0.00  0.00     0.017 A 
ATOM      8  C   UNL d   1      -1.440   0.509   2.788  0.00  0.00     0.027 A 
ATOM      9  C   UNL d   1      -0.840   0.248   1.553  0.00  0.00     0.060 A 
ATOM     10 CL   UNL d   1      -1.802  -0.470   0.312  0.00  0.00    -0.082 Cl
BRANCH   6  11
ATOM     11  C   UNL d   1       1.410   2.017   4.765  0.00  0.00     0.155 C 
ATOM     12  O   UNL d   1       0.809   2.255   5.814  0.00  0.00    -0.293 OA
ATOM     13  C   UNL d   1       2.890   2.301   4.668  0.00  0.00     0.096 C 
ENDBRANCH   6  11
ENDBRANCH   1   4
BRANCH   3  14
ATOM     14  C   UNL d   1       3.032  -0.478  -1.184  0.00  0.00     0.015 A 
ATOM     15  C   UNL d   1       2.412  -0.376  -2.442  0.00  0.00     0.110 A 
ATOM     16  C   UNL d   1       3.146  -0.678  -3.597  0.00  0.00     0.102 A 
ATOM     17  C   UNL d   1       4.489  -1.067  -3.467  0.00  0.00     0.040 A 
ATOM     18  C   UNL d   1       5.104  -1.155  -2.219  0.00  0.00     0.004 A 
ATOM     19  C   UNL d   1       4.375  -0.862  -1.072  0.00  0.00     0.016 A 
BRANCH  15  20
ATOM     20  O   UNL d   1       1.099   0.006  -2.535  0.00  0.00    -0.357 OA
ATOM     21  H   UNL d   1       0.764   0.194  -1.629  0.00  0.00     0.217 HD
ENDBRANCH  15  20
BRANCH  16  22
ATOM     22  O   UNL d   1       2.734  -0.653  -4.902  0.00  0.00    -0.353 OA
ATOM     23  C   UNL d   1       1.395  -0.268  -5.181  0.00  0.00     0.210 C 
ENDBRANCH  16  22
ENDBRANCH   3  14
TORSDOF 5
