REMARK  7 active torsions:
REMARK  status: ('A' for Active; 'I' for Inactive)
REMARK    1  A    between atoms: C_2  and  S_1 
REMARK    2  A    between atoms: C_5  and  S_1 
REMARK    3  A    between atoms: C_11  and  C_2 
REMARK    4  A    between atoms: C_6  and  C_10 
REMARK    5  A    between atoms: O_8  and  C_6 
REMARK    6  A    between atoms: S_9  and  C_11 
REMARK    7  A    between atoms: C_10  and  S_9 
ROOT
ATOM      1  S   UNL d   1       1.064  -0.020  -0.063  0.00  0.00     0.176 S 
ATOM      2  O   UNL d   1       0.488   1.310  -0.098  0.00  0.00    -0.223 OA
ATOM      3  O   UNL d   1       2.498  -0.208   0.041  0.00  0.00    -0.223 OA
ENDROOT
BRANCH   1   4
ATOM      4  C   UNL d   1       0.494  -0.905  -1.496  0.00  0.00     0.156 C 
BRANCH   4   5
ATOM      5  C   UNL d   1       0.960  -0.214  -2.768  0.00  0.00     0.089 C 
BRANCH   5   6
ATOM      6  S   UNL d   1       0.296  -1.134  -4.210  0.00  0.00    -0.158 SA
BRANCH   6   7
ATOM      7  C   UNL d   1       0.986  -0.120  -5.570  0.00  0.00     0.183 C 
BRANCH   7   8
ATOM      8  C   UNL d   1       0.367   1.261  -5.639  0.00  0.00     0.149 C 
ATOM      9  O   UNL d   1       0.926   2.225  -6.140  0.00  0.00    -0.649 OA
BRANCH   8  10
ATOM     10  O   UNL d   1      -0.896   1.332  -5.155  0.00  0.00    -0.776 OA
ATOM     11  H   UNL d   1      -1.185   0.466  -4.798  0.00  0.00     0.167 HD
ENDBRANCH   8  10
ENDBRANCH   7   8
ENDBRANCH   6   7
ENDBRANCH   5   6
ENDBRANCH   4   5
ENDBRANCH   1   4
BRANCH   1  12
ATOM     12  C   UNL d   1       0.306  -0.894   1.287  0.00  0.00     0.059 A 
ATOM     13  C   UNL d   1       0.969  -1.980   1.867  0.00  0.00     0.023 A 
ATOM     14  C   UNL d   1       0.386  -2.640   2.949  0.00  0.00     0.002 A 
ATOM     15  C   UNL d   1      -0.846  -2.212   3.450  0.00  0.00     0.000 A 
ATOM     16  C   UNL d   1      -1.498  -1.121   2.873  0.00  0.00     0.002 A 
ATOM     17  C   UNL d   1      -0.923  -0.455   1.790  0.00  0.00     0.023 A 
ENDBRANCH   1  12
TORSDOF 7
