REMARK  5 active torsions:
REMARK  status: ('A' for Active; 'I' for Inactive)
REMARK    1  A    between atoms: C_3  and  C_1 
REMARK    2  A    between atoms: C_2  and  N_4 
REMARK    3  A    between atoms: N_5  and  C_2 
REMARK    4  A    between atoms: N_4  and  C_3 
REMARK    5  A    between atoms: C_9  and  N_5 
ROOT
ATOM      1  C   UNL d   1      -1.117   4.441  -0.050  0.00  0.00     0.172 C 
ATOM      2  S   UNL d   1       0.152   5.274  -0.746  0.00  0.00    -0.041 SA
ENDROOT
BRANCH   1   3
ATOM      3  N   UNL d   1      -1.168   3.095   0.174  0.00  0.00    -0.363 N 
ATOM      4  H   UNL d   1      -2.072   2.723   0.436  0.00  0.00     0.162 HD
BRANCH   3   5
ATOM      5  C   UNL d   1      -0.042   2.175   0.255  0.00  0.00     0.165 C 
BRANCH   5   6
ATOM      6  C   UNL d   1      -0.269   0.825  -0.372  0.00  0.00     0.020 A 
ATOM      7  C   UNL d   1      -1.356  -0.013  -0.083  0.00  0.00     0.044 A 
ATOM      8 CL   UNL d   1      -2.628   0.469   0.986  0.00  0.00    -0.084 Cl
ATOM      9  C   UNL d   1      -1.438  -1.302  -0.627  0.00  0.00     0.024 A 
ATOM     10  C   UNL d   1      -0.428  -1.786  -1.461  0.00  0.00     0.005 A 
ATOM     11  C   UNL d   1       0.656  -0.973  -1.757  0.00  0.00     0.043 A 
ATOM     12  C   UNL d   1       0.727   0.310  -1.217  0.00  0.00     0.126 A 
ATOM     13  F   UNL d   1       1.811   1.048  -1.499  0.00  0.00    -0.205 F 
ENDBRANCH   5   6
ENDBRANCH   3   5
ENDBRANCH   1   3
BRANCH   1  14
ATOM     14  N   UNL d   1      -2.249   5.150   0.248  0.00  0.00    -0.333 N 
ATOM     15  H   UNL d   1      -2.292   6.046  -0.228  0.00  0.00     0.168 HD
BRANCH  14  16
ATOM     16  C   UNL d   1      -3.141   5.014   1.333  0.00  0.00     0.034 A 
ATOM     17  C   UNL d   1      -2.890   4.204   2.445  0.00  0.00     0.031 A 
ATOM     18  C   UNL d   1      -3.767   4.207   3.535  0.00  0.00     0.026 A 
ATOM     19  C   UNL d   1      -4.899   5.018   3.517  0.00  0.00     0.034 A 
ATOM     20  C   UNL d   1      -5.163   5.827   2.415  0.00  0.00     0.026 A 
ATOM     21 CL   UNL d   1      -5.959   5.043   4.871  0.00  0.00    -0.084 Cl
ATOM     22  C   UNL d   1      -4.280   5.829   1.330  0.00  0.00     0.031 A 
ENDBRANCH  14  16
ENDBRANCH   1  14
TORSDOF 5
