REMARK  8 active torsions:
REMARK  status: ('A' for Active; 'I' for Inactive)
REMARK    1  A    between atoms: C_2  and  S_1 
REMARK    2  A    between atoms: N_4  and  S_1 
REMARK    3  A    between atoms: C_5  and  C_3 
REMARK    4  A    between atoms: C_6  and  N_4 
REMARK    5  A    between atoms: O_15  and  C_5 
REMARK    6  A    between atoms: C_11  and  C_6 
REMARK    7  A    between atoms: O_16  and  C_11 
REMARK    8  A    between atoms: C_18  and  O_16 
ROOT
ATOM      1  S   UNL d   1       1.080  -0.055   0.087  0.00  0.00     0.262 S 
ATOM      2  O   UNL d   1       2.346   0.389  -0.440  0.00  0.00    -0.200 OA
ATOM      3  O   UNL d   1       0.038   0.887   0.443  0.00  0.00    -0.200 OA
ENDROOT
BRANCH   1   4
ATOM      4  C   UNL d   1       1.527  -0.795   1.594  0.00  0.00     0.103 A 
ATOM      5  C   UNL d   1       2.478  -1.795   1.721  0.00  0.00     0.103 A 
ATOM      6  S   UNL d   1       2.688  -2.225   3.376  0.00  0.00    -0.094 SA
ATOM      7  C   UNL d   1       1.538  -1.082   3.904  0.00  0.00     0.052 A 
ATOM      8  C   UNL d   1       0.995  -0.377   2.856  0.00  0.00     0.034 A 
BRANCH   5   9
ATOM      9  C   UNL d   1       3.234  -2.472   0.683  0.00  0.00     0.301 C 
ATOM     10  O   UNL d   1       2.873  -2.645  -0.473  0.00  0.00    -0.259 OA
BRANCH   9  11
ATOM     11  O   UNL d   1       4.443  -2.895   1.160  0.00  0.00    -0.322 OA
ATOM     12  C   UNL d   1       5.261  -3.544   0.188  0.00  0.00     0.213 C 
ENDBRANCH   9  11
ENDBRANCH   5   9
ENDBRANCH   1   4
BRANCH   1  13
ATOM     13  N   UNL d   1       0.393  -1.208  -0.943  0.00  0.00    -0.302 N 
ATOM     14  C   UNL d   1       0.865  -1.190  -2.337  0.00  0.00     0.163 C 
BRANCH  13  15
ATOM     15  C   UNL d   1      -1.071  -1.401  -0.827  0.00  0.00     0.245 C 
BRANCH  15  16
ATOM     16  C   UNL d   1      -1.562  -1.884   0.517  0.00  0.00     0.277 C 
ATOM     17  O   UNL d   1      -0.923  -2.581   1.294  0.00  0.00    -0.263 OA
BRANCH  16  18
ATOM     18  O   UNL d   1      -2.879  -1.557   0.660  0.00  0.00    -0.321 OA
BRANCH  18  19
ATOM     19  C   UNL d   1      -3.598  -2.324   1.636  0.00  0.00     0.174 C 
ATOM     20  C   UNL d   1      -4.124  -3.568   0.944  0.00  0.00     0.034 C 
ENDBRANCH  18  19
ENDBRANCH  16  18
ENDBRANCH  15  16
ENDBRANCH  13  15
ENDBRANCH   1  13
TORSDOF 8
