REMARK  3 active torsions:
REMARK  status: ('A' for Active; 'I' for Inactive)
REMARK    1  A    between atoms: N_7  and  C_1 
REMARK    2  A    between atoms: C_11  and  N_2 
REMARK    3  A    between atoms: C_12  and  N_9 
ROOT
ATOM      1  C   UNL d   1      -0.128  -1.359  -0.108  0.00  0.00     0.096 C 
ATOM      2  N   UNL d   1       1.006   0.516   0.054  0.00  0.00    -0.259 N 
ATOM      3  N   UNL d   1      -0.292   0.870   0.265  0.00  0.00    -0.296 N 
ATOM      4  HN  UNL d   1      -0.654   1.790   0.515  1.00  0.00     0.187 HD
ATOM      5  C   UNL d   1       1.156  -0.862  -0.010  0.00  0.00     0.060 C 
ATOM      6  C   UNL d   1      -0.988  -0.259   0.069  0.00  0.00     0.052 C 
ATOM      7  C   UNL d   1       2.451  -1.587   0.088  0.00  0.00     0.073 C 
ATOM      8  C   UNL d   1      -2.470  -0.247   0.080  0.00  0.00     0.072 C 
ENDROOT
BRANCH   1   9
ATOM      9  N   UNL d   1      -0.547  -2.689  -0.284  0.00  0.00    -0.296 N 
ATOM     10  N   UNL d   1       0.328  -3.367  -0.856  0.00  0.00    -0.300 N 
ATOM     11  HN  UNL d   1       1.236  -2.975  -1.107  1.00  0.00     0.187 HD
ATOM     12  HN  UNL d   1      -1.451  -3.052   0.018  1.00  0.00     0.187 HD
BRANCH  10  13
ATOM     13  C   UNL d   1      -0.007  -4.701  -1.135  0.00  0.00     0.051 A 
ATOM     14  C   UNL d   1      -1.155  -5.363  -0.682  0.00  0.00     0.054 A 
ATOM     15  C   UNL d   1      -1.381  -6.692  -1.045  0.00  0.00     0.037 A 
ATOM     16 CL   UNL d   1      -2.802  -7.495  -0.495  0.00  0.00    -0.084 Cl
ATOM     17  C   UNL d   1      -0.479  -7.381  -1.848  0.00  0.00     0.048 A 
ATOM     18  C   UNL d   1       0.670  -6.729  -2.287  0.00  0.00     0.037 A 
ATOM     19  C   UNL d   1       0.906  -5.404  -1.932  0.00  0.00     0.054 A 
ATOM     20 CL   UNL d   1       1.806  -7.559  -3.278  0.00  0.00    -0.084 Cl
ENDBRANCH  10  13
ENDBRANCH   1   9
BRANCH   2  21
ATOM     21  C   UNL d   1       2.011   1.515  -0.056  0.00  0.00     0.056 A 
ATOM     22  C   UNL d   1       3.142   1.306  -0.859  0.00  0.00     0.031 A 
ATOM     23  C   UNL d   1       4.165   2.254  -0.891  0.00  0.00     0.002 A 
ATOM     24  C   UNL d   1       4.058   3.417  -0.132  0.00  0.00     0.000 A 
ATOM     25  C   UNL d   1       2.909   3.655   0.624  0.00  0.00     0.002 A 
ATOM     26  C   UNL d   1       1.874   2.717   0.647  0.00  0.00     0.031 A 
ENDBRANCH   2  21
TORSDOF 3
