REMARK  7 active torsions:
REMARK  status: ('A' for Active; 'I' for Inactive)
REMARK    1  A    between atoms: C_13  and  N_4 
REMARK    2  A    between atoms: C_11  and  C_6 
REMARK    3  A    between atoms: C_8  and  O_19 
REMARK       I    between atoms: N_10  and  C_8 
REMARK    4  A    between atoms: C_18  and  N_10 
REMARK    5  A    between atoms: C_24  and  C_13 
REMARK    6  A    between atoms: O_19  and  C_24 
REMARK    7  A    between atoms: O_31  and  C_21 
ROOT
ATOM      1  N   UNL d   1      -1.630   1.738  -0.545  0.00  0.00    -0.305 N 
ATOM      2  HN  UNL d   1      -1.278   2.679  -0.719  1.00  0.00     0.186 HD
ATOM      3  C   UNL d   1      -0.947   0.698  -0.177  0.00  0.00     0.043 C 
ATOM      4  N   UNL d   1      -2.912   1.305  -0.648  0.00  0.00    -0.316 N 
ATOM      5  C   UNL d   1      -1.762  -0.473   0.295  0.00  0.00     0.067 C 
ATOM      6  C   UNL d   1      -3.125  -0.117  -0.312  0.00  0.00     0.145 C 
ATOM      7  C   UNL d   1       0.513   0.607  -0.110  0.00  0.00    -0.005 A 
ATOM      8  C   UNL d   1      -1.117  -1.843   0.104  0.00  0.00     0.018 C 
ATOM      9  C   UNL d   1       1.078  -0.663  -0.303  0.00  0.00    -0.046 A 
ATOM     10  C   UNL d   1       0.191  -1.820  -0.689  0.00  0.00     0.040 C 
ATOM     11  C   UNL d   1       1.305   1.730   0.117  0.00  0.00     0.014 A 
ATOM     12  C   UNL d   1       2.469  -0.796  -0.241  0.00  0.00     0.008 A 
ATOM     13  C   UNL d   1       2.690   1.581   0.188  0.00  0.00     0.001 A 
ATOM     14  C   UNL d   1       3.269   0.321   0.015  0.00  0.00     0.001 A 
ENDROOT
BRANCH   4  15
ATOM     15  C   UNL d   1      -4.059   2.186  -0.478  0.00  0.00     0.170 C 
BRANCH  15  16
ATOM     16  C   UNL d   1      -3.923   3.502  -1.256  0.00  0.00     0.202 C 
BRANCH  16  17
ATOM     17  O   UNL d   1      -5.137   4.285  -1.194  0.00  0.00    -0.302 OA
BRANCH  17  18
ATOM     18  C   UNL d   1      -6.104   3.925  -2.075  0.00  0.00     0.365 C 
ATOM     19  N   UNL d   1      -7.247   4.678  -2.065  0.00  0.00    -0.303 N 
ATOM     20  H   UNL d   1      -7.938   4.271  -2.683  0.00  0.00     0.171 HD
ATOM     21  O   UNL d   1      -6.022   2.966  -2.836  0.00  0.00    -0.238 OA
BRANCH  19  22
ATOM     22  C   UNL d   1      -7.615   5.859  -1.401  0.00  0.00     0.036 A 
ATOM     23  C   UNL d   1      -6.759   6.641  -0.624  0.00  0.00     0.031 A 
ATOM     24  C   UNL d   1      -7.227   7.815  -0.016  0.00  0.00     0.026 A 
ATOM     25  C   UNL d   1      -8.552   8.211  -0.182  0.00  0.00     0.034 A 
ATOM     26  C   UNL d   1      -9.415   7.448  -0.960  0.00  0.00     0.026 A 
ATOM     27 CL   UNL d   1      -9.124   9.646   0.574  0.00  0.00    -0.084 Cl
ATOM     28  C   UNL d   1      -8.944   6.280  -1.571  0.00  0.00     0.031 A 
ENDBRANCH  19  22
ENDBRANCH  17  18
ENDBRANCH  16  17
ENDBRANCH  15  16
ENDBRANCH   4  15
BRANCH   6  29
ATOM     29  C   UNL d   1      -3.607  -0.933  -1.498  0.00  0.00    -0.033 A 
ATOM     30  C   UNL d   1      -3.299  -0.596  -2.825  0.00  0.00     0.012 A 
ATOM     31  C   UNL d   1      -3.854  -1.305  -3.899  0.00  0.00     0.037 A 
ATOM     32  C   UNL d   1      -4.713  -2.377  -3.664  0.00  0.00     0.068 A 
ATOM     33  C   UNL d   1      -4.992  -2.745  -2.348  0.00  0.00     0.037 A 
ATOM     34  C   UNL d   1      -4.446  -2.035  -1.275  0.00  0.00     0.012 A 
BRANCH  32  35
ATOM     35  O   UNL d   1      -5.351  -3.126  -4.613  0.00  0.00    -0.356 OA
ATOM     36  C   UNL d   1      -5.032  -2.852  -5.971  0.00  0.00     0.210 C 
ENDBRANCH  32  35
ENDBRANCH   6  29
TORSDOF 7
