REMARK  6 active torsions:
REMARK  status: ('A' for Active; 'I' for Inactive)
REMARK       I    between atoms: N_4  and  C_1 
REMARK       I    between atoms: N_5  and  C_1 
REMARK    1  A    between atoms: C_2  and  S_7 
REMARK    2  A    between atoms: C_3  and  S_6 
REMARK    3  A    between atoms: C_15  and  N_4 
REMARK    4  A    between atoms: C_16  and  N_5 
REMARK    5  A    between atoms: S_6  and  C_17 
REMARK    6  A    between atoms: S_7  and  C_18 
ROOT
ATOM      1  C   UNL d   1       1.032   0.017  -0.111  0.00  0.00     0.325 C 
ATOM      2  N   UNL d   1       0.397  -0.720   0.877  0.00  0.00    -0.309 N 
ATOM      3  N   UNL d   1       0.166   0.349  -1.140  0.00  0.00    -0.309 N 
ATOM      4  O   UNL d   1       2.225   0.305  -0.090  0.00  0.00    -0.247 OA
ATOM      5  H   UNL d   1      -0.536  -1.041   0.676  0.00  0.00     0.170 HD
ATOM      6  H   UNL d   1      -0.812   0.151  -0.997  0.00  0.00     0.170 HD
ENDROOT
BRANCH   2   7
ATOM      7  C   UNL d   1       1.019  -1.279   2.018  0.00  0.00     0.036 A 
ATOM      8  C   UNL d   1       2.284  -0.904   2.480  0.00  0.00     0.031 A 
ATOM      9  C   UNL d   1       2.865  -1.538   3.586  0.00  0.00     0.021 A 
ATOM     10  C   UNL d   1       2.193  -2.569   4.243  0.00  0.00     0.009 A 
ATOM     11  C   UNL d   1       0.910  -2.917   3.811  0.00  0.00     0.021 A 
ATOM     12  C   UNL d   1       0.325  -2.275   2.712  0.00  0.00     0.031 A 
BRANCH  10  13
ATOM     13  S   UNL d   1       2.871  -3.371   5.679  0.00  0.00    -0.016 SA
BRANCH  13  14
ATOM     14  C   UNL d   1       4.346  -4.159   5.010  0.00  0.00     0.448 C 
ATOM     15  F   UNL d   1       4.581  -3.877   3.708  0.00  0.00    -0.160 F 
ATOM     16  F   UNL d   1       5.445  -3.777   5.706  0.00  0.00    -0.160 F 
ATOM     17  F   UNL d   1       4.258  -5.507   5.117  0.00  0.00    -0.160 F 
ENDBRANCH  13  14
ENDBRANCH  10  13
ENDBRANCH   2   7
BRANCH   3  18
ATOM     18  C   UNL d   1       0.503   1.005  -2.347  0.00  0.00     0.036 A 
ATOM     19  C   UNL d   1       1.804   1.384  -2.691  0.00  0.00     0.031 A 
ATOM     20  C   UNL d   1       2.071   2.048  -3.895  0.00  0.00     0.021 A 
ATOM     21  C   UNL d   1       1.037   2.353  -4.777  0.00  0.00     0.009 A 
ATOM     22  C   UNL d   1      -0.260   1.937  -4.462  0.00  0.00     0.021 A 
ATOM     23  C   UNL d   1      -0.526   1.275  -3.255  0.00  0.00     0.031 A 
BRANCH  21  24
ATOM     24  S   UNL d   1       1.341   3.174  -6.325  0.00  0.00    -0.016 SA
BRANCH  24  25
ATOM     25  C   UNL d   1       1.957   4.775  -5.775  0.00  0.00     0.448 C 
ATOM     26  F   UNL d   1       2.087   4.886  -4.433  0.00  0.00    -0.160 F 
ATOM     27  F   UNL d   1       3.174   5.029  -6.316  0.00  0.00    -0.160 F 
ATOM     28  F   UNL d   1       1.129   5.770  -6.178  0.00  0.00    -0.160 F 
ENDBRANCH  24  25
ENDBRANCH  21  24
ENDBRANCH   3  18
TORSDOF 6
