REMARK  4 active torsions:
REMARK  status: ('A' for Active; 'I' for Inactive)
REMARK    1  A    between atoms: C_5  and  N_1 
REMARK    2  A    between atoms: C_8  and  C_4 
REMARK       I    between atoms: N_11  and  C_8 
REMARK    3  A    between atoms: N_14  and  N_11 
REMARK       I    between atoms: C_15  and  N_14 
REMARK    4  A    between atoms: C_23  and  C_15 
ROOT
ATOM      1  N   UNL d   1       0.889  -0.676  -0.090  0.00  0.00    -0.257 N 
ATOM      2  N   UNL d   1       0.954   0.686  -0.137  0.00  0.00    -0.288 N 
ATOM      3  HN  UNL d   1       1.796   1.259  -0.190  1.00  0.00     0.188 HD
ATOM      4  C   UNL d   1      -0.316   1.119  -0.099  0.00  0.00     0.119 A 
ATOM      5  C   UNL d   1      -0.432  -1.102   0.028  0.00  0.00     0.033 A 
ATOM      6  C   UNL d   1      -1.211   0.034  -0.040  0.00  0.00     0.063 A 
ATOM      7  C   UNL d   1      -0.912  -2.487   0.284  0.00  0.00     0.070 C 
ENDROOT
BRANCH   4   8
ATOM      8  C   UNL d   1      -0.686   2.542  -0.088  0.00  0.00     0.288 C 
ATOM      9  N   UNL d   1       0.377   3.420  -0.036  0.00  0.00    -0.262 N 
ATOM     10  H   UNL d   1       1.339   3.086   0.032  0.00  0.00     0.190 HD
ATOM     11  O   UNL d   1      -1.858   2.927  -0.108  0.00  0.00    -0.264 OA
BRANCH   9  12
ATOM     12  N   UNL d   1       0.122   4.796   0.033  0.00  0.00    -0.267 N 
ATOM     13  C   UNL d   1       1.189   5.670   0.089  0.00  0.00     0.235 C 
ATOM     14  O   UNL d   1       2.360   5.302   0.117  0.00  0.00    -0.272 OA
ATOM     15  H   UNL d   1      -0.848   5.087  -0.012  0.00  0.00     0.190 HD
BRANCH  13  16
ATOM     16  C   UNL d   1       0.756   7.125   0.111  0.00  0.00     0.100 C 
ATOM     17  C   UNL d   1       1.937   8.076   0.160  0.00  0.00     0.014 C 
ENDBRANCH  13  16
ENDBRANCH   9  12
ENDBRANCH   4   8
BRANCH   1  18
ATOM     18  C   UNL d   1       2.095  -1.439  -0.138  0.00  0.00     0.100 A 
ATOM     19  C   UNL d   1       3.240  -1.014   0.575  0.00  0.00     0.066 A 
ATOM     20  C   UNL d   1       4.421  -1.772   0.550  0.00  0.00     0.050 A 
ATOM     21 CL   UNL d   1       3.297   0.369   1.621  0.00  0.00    -0.082 Cl
ATOM     22  C   UNL d   1       4.471  -2.966  -0.156  0.00  0.00     0.037 A 
ATOM     23  C   UNL d   1       3.367  -3.392  -0.879  0.00  0.00     0.050 A 
ATOM     24 CL   UNL d   1       5.912  -3.905  -0.156  0.00  0.00    -0.084 Cl
ATOM     25  C   UNL d   1       2.199  -2.614  -0.908  0.00  0.00     0.066 A 
ATOM     26 CL   UNL d   1       1.038  -3.106  -2.097  0.00  0.00    -0.082 Cl
ENDBRANCH   1  18
TORSDOF 4
