REMARK  10 active torsions:
REMARK  status: ('A' for Active; 'I' for Inactive)
REMARK    1  A    between atoms: C_7  and  C_1 
REMARK    2  A    between atoms: C_21  and  N_2 
REMARK    3  A    between atoms: C_29  and  C_3 
REMARK    4  A    between atoms: C_13  and  C_6 
REMARK       I    between atoms: N_11  and  C_7 
REMARK    5  A    between atoms: C_8  and  O_14 
REMARK    6  A    between atoms: C_10  and  C_16 
REMARK    7  A    between atoms: C_12  and  N_11 
REMARK    8  A    between atoms: O_30  and  C_13 
REMARK    9  A    between atoms: O_14  and  C_17 
REMARK   10  A    between atoms: C_34  and  C_29 
ROOT
ATOM      1  C   UNL d   1       1.361   3.984   0.117  0.00  0.00     0.070 A 
ATOM      2  C   UNL d   1       2.365   5.015  -1.865  0.00  0.00     0.050 A 
ATOM      3  C   UNL d   1       2.639   3.700   0.625  0.00  0.00     0.102 A 
ATOM      4  C   UNL d   1       1.240   4.668  -1.104  0.00  0.00     0.048 A 
ATOM      5  C   UNL d   1       3.634   4.712  -1.360  0.00  0.00     0.019 A 
ATOM      6  C   UNL d   1       3.769   4.082  -0.117  0.00  0.00     0.040 A 
ENDROOT
BRANCH   1   7
ATOM      7  N   UNL d   1       0.147   3.709   0.764  0.00  0.00    -0.320 N 
ATOM      8  C   UNL d   1      -0.258   2.652   1.542  0.00  0.00     0.259 C 
ATOM      9  O   UNL d   1      -1.186   2.868   2.325  0.00  0.00    -0.267 OA
ATOM     10  H   UNL d   1      -0.575   4.416   0.698  0.00  0.00     0.169 HD
BRANCH   8  11
ATOM     11  C   UNL d   1       0.266   1.318   1.294  0.00  0.00     0.073 C 
ATOM     12  C   UNL d   1       0.196   0.183   2.107  0.00  0.00     0.051 C 
ATOM     13  N   UNL d   1       1.012  -0.764   1.478  0.00  0.00    -0.260 N 
ATOM     14  N   UNL d   1       1.167  -0.464   0.164  0.00  0.00    -0.304 N 
ATOM     15  C   UNL d   1       0.796   0.812   0.085  0.00  0.00     0.126 C 
ATOM     16  HN  UNL d   1       1.490  -1.073  -0.587  1.00  0.00     0.186 HD
BRANCH  12  17
ATOM     17  C   UNL d   1      -0.516  -0.111   3.401  0.00  0.00     0.060 C 
BRANCH  17  18
ATOM     18  C   UNL d   1      -2.010   0.216   3.486  0.00  0.00     0.002 C 
ATOM     19  C   UNL d   1      -2.866  -0.352   2.365  0.00  0.00     0.005 C 
ENDBRANCH  17  18
ENDBRANCH  12  17
BRANCH  13  20
ATOM     20  C   UNL d   1       1.707  -1.880   2.029  0.00  0.00     0.056 A 
ATOM     21  C   UNL d   1       2.113  -2.929   1.189  0.00  0.00     0.031 A 
ATOM     22  C   UNL d   1       2.808  -4.022   1.714  0.00  0.00     0.002 A 
ATOM     23  C   UNL d   1       3.128  -4.063   3.070  0.00  0.00     0.000 A 
ATOM     24  C   UNL d   1       2.763  -3.007   3.902  0.00  0.00     0.002 A 
ATOM     25  C   UNL d   1       2.060  -1.916   3.384  0.00  0.00     0.031 A 
ENDBRANCH  13  20
ENDBRANCH   8  11
ENDBRANCH   1   7
BRANCH   3  26
ATOM     26  O   UNL d   1       2.797   3.237   1.921  0.00  0.00    -0.307 OA
BRANCH  26  27
ATOM     27  C   UNL d   1       3.737   2.296   2.216  0.00  0.00     0.099 A 
ATOM     28  C   UNL d   1       4.455   2.280   3.405  0.00  0.00     0.114 A 
ATOM     29  S   UNL d   1       5.496   0.895   3.460  0.00  0.00    -0.093 SA
ATOM     30  C   UNL d   1       4.999   0.351   1.929  0.00  0.00     0.053 A 
ATOM     31  C   UNL d   1       4.070   1.191   1.368  0.00  0.00     0.046 A 
BRANCH  28  32
ATOM     32  C   UNL d   1       4.519   3.170   4.551  0.00  0.00     0.302 C 
ATOM     33  O   UNL d   1       5.224   3.003   5.545  0.00  0.00    -0.259 OA
BRANCH  32  34
ATOM     34  O   UNL d   1       3.710   4.261   4.395  0.00  0.00    -0.322 OA
ATOM     35  C   UNL d   1       3.780   5.169   5.500  0.00  0.00     0.213 C 
ENDBRANCH  32  34
ENDBRANCH  28  32
ENDBRANCH  26  27
ENDBRANCH   3  26
BRANCH   2  36
ATOM     36  C   UNL d   1       2.217   5.712  -3.198  0.00  0.00     0.417 C 
ATOM     37  F   UNL d   1       0.919   5.893  -3.570  0.00  0.00    -0.166 F 
ATOM     38  F   UNL d   1       2.783   6.950  -3.202  0.00  0.00    -0.166 F 
ATOM     39  F   UNL d   1       2.804   5.024  -4.213  0.00  0.00    -0.166 F 
ENDBRANCH   2  36
TORSDOF 10
