REMARK  3 active torsions:
REMARK  status: ('A' for Active; 'I' for Inactive)
REMARK       I    between atoms: C_2  and  N_1 
REMARK    1  A    between atoms: C_3  and  N_1 
REMARK    2  A    between atoms: C_5  and  C_2 
REMARK    3  A    between atoms: N_4  and  C_5 
ROOT
ATOM      1  N   UNL d   1       1.059   0.264   0.513  0.00  0.00    -0.324 N 
ATOM      2  C   UNL d   1       0.059   1.083   0.006  0.00  0.00     0.255 C 
ATOM      3  O   UNL d   1      -1.117   0.747  -0.076  0.00  0.00    -0.271 OA
ATOM      4  H   UNL d   1       1.800   0.736   1.009  0.00  0.00     0.169 HD
ENDROOT
BRANCH   1   5
ATOM      5  C   UNL d   1       0.980  -1.143   0.711  0.00  0.00     0.046 A 
ATOM      6  C   UNL d   1       0.426  -2.024  -0.246  0.00  0.00    -0.035 A 
ATOM      7  C   UNL d   1       0.523  -3.419  -0.037  0.00  0.00     0.009 A 
ATOM      8  C   UNL d   1      -0.273  -1.610  -1.513  0.00  0.00     0.050 C 
ATOM      9  C   UNL d   1       1.185  -3.945   1.062  0.00  0.00     0.001 A 
ATOM     10  C   UNL d   1       1.719  -3.083   2.010  0.00  0.00     0.009 A 
ATOM     11  C   UNL d   1       1.604  -1.688   1.861  0.00  0.00    -0.035 A 
ATOM     12  C   UNL d   1       2.119  -0.851   3.003  0.00  0.00     0.050 C 
ENDBRANCH   1   5
BRANCH   2  13
ATOM     13  C   UNL d   1       0.518   2.517  -0.412  0.00  0.00     0.310 C 
ATOM     14  C   UNL d   1       1.968   2.572  -0.911  0.00  0.00     0.053 C 
BRANCH  13  15
ATOM     15  N   UNL d   1       0.098   3.556   0.555  0.00  0.00     0.101 N 
ATOM     16  C   UNL d   1       0.418   4.932   0.174  0.00  0.00     0.273 C 
ATOM     17  C   UNL d   1       1.591   5.317   1.058  0.00  0.00     0.032 C 
ATOM     18  C   UNL d   1       1.273   4.617   2.362  0.00  0.00     0.032 C 
ATOM     19  C   UNL d   1       0.466   3.386   1.960  0.00  0.00     0.273 C 
ENDBRANCH  13  15
ENDBRANCH   2  13
TORSDOF 3
