REMARK  2 active torsions:
REMARK  status: ('A' for Active; 'I' for Inactive)
REMARK    1  A    between atoms: C_6  and  N_1 
REMARK    2  A    between atoms: C_7  and  C_8 
ROOT
ATOM      1  C   UNL d   1       0.093   2.254   0.000  0.00  0.00     0.045 A 
ATOM      2  C   UNL d   1       0.145   5.123   0.015  0.00  0.00    -0.051 A 
ATOM      3  C   UNL d   1      -0.618   2.989   0.953  0.00  0.00     0.031 A 
ATOM      4  C   UNL d   1       0.833   2.979  -0.942  0.00  0.00     0.031 A 
ATOM      5  C   UNL d   1      -0.583   4.393   0.967  0.00  0.00     0.010 A 
ATOM      6  C   UNL d   1       0.853   4.383  -0.939  0.00  0.00     0.010 A 
ENDROOT
BRANCH   1   7
ATOM      7  N   UNL d   1       0.069   0.829  -0.015  0.00  0.00    -0.245 N 
ATOM      8  C   UNL d   1      -0.850   0.043   0.627  0.00  0.00     0.255 A 
ATOM      9  C   UNL d   1      -0.504  -1.357   0.355  0.00  0.00     0.080 A 
ATOM     10  O   UNL d   1      -1.835   0.327   1.288  0.00  0.00    -0.268 OA
ATOM     11  C   UNL d   1       0.576  -1.367  -0.420  0.00  0.00     0.080 A 
ATOM     12  C   UNL d   1       0.963   0.026  -0.671  0.00  0.00     0.255 A 
ATOM     13  O   UNL d   1       1.952   0.289  -1.336  0.00  0.00    -0.268 OA
ENDBRANCH   1   7
BRANCH   2  14
ATOM     14  C   UNL d   1       0.146   6.662   0.044  0.00  0.00    -0.024 C 
ATOM     15  C   UNL d   1       0.933   7.305  -1.121  0.00  0.00     0.019 C 
ATOM     16  C   UNL d   1      -1.304   7.187  -0.044  0.00  0.00     0.019 C 
ATOM     17  C   UNL d   1       0.785   7.154   1.359  0.00  0.00     0.019 C 
ENDBRANCH   2  14
TORSDOF 2
