REMARK  6 active torsions:
REMARK  status: ('A' for Active; 'I' for Inactive)
REMARK    1  A    between atoms: N_2  and  C_1 
REMARK    2  A    between atoms: N_8  and  C_1 
REMARK       I    between atoms: C_7  and  N_2 
REMARK    3  A    between atoms: C_11  and  C_7 
REMARK    4  A    between atoms: C_22  and  N_8 
REMARK    5  A    between atoms: C_9  and  C_10 
REMARK    6  A    between atoms: C_23  and  C_22 
ROOT
ATOM      1  C   UNL d   1       2.064   0.037  -0.242  0.00  0.00     0.362 A 
ATOM      2  C   UNL d   1       1.140  -1.202  -0.091  0.00  0.00     0.228 A 
ATOM      3  C   UNL d   1       1.103   1.209   0.106  0.00  0.00     0.228 A 
ATOM      4  C   UNL d   1      -0.236   0.654   0.327  0.00  0.00     0.029 A 
ATOM      5  C   UNL d   1      -0.224  -0.728   0.178  0.00  0.00     0.029 A 
ATOM      6  O   UNL d   1       1.343   2.404   0.164  0.00  0.00    -0.287 OA
ATOM      7  O   UNL d   1       1.450  -2.378  -0.201  0.00  0.00    -0.287 OA
ATOM      8  C   UNL d   1      -1.399  -1.461   0.184  0.00  0.00     0.016 A 
ATOM      9  C   UNL d   1      -1.414   1.356   0.528  0.00  0.00     0.016 A 
ATOM     10  C   UNL d   1      -2.604  -0.761   0.320  0.00  0.00     0.001 A 
ATOM     11  C   UNL d   1      -2.611   0.635   0.501  0.00  0.00     0.001 A 
ENDROOT
BRANCH   1  12
ATOM     12  N   UNL d   1       2.753   0.055  -1.511  0.00  0.00    -0.309 N 
ATOM     13  C   UNL d   1       2.089   0.110  -2.717  0.00  0.00     0.254 C 
ATOM     14  O   UNL d   1       0.872   0.117  -2.813  0.00  0.00    -0.268 OA
ATOM     15  H   UNL d   1       3.685  -0.329  -1.517  0.00  0.00     0.166 HD
BRANCH  13  16
ATOM     16  C   UNL d   1       2.966   0.168  -3.936  0.00  0.00     0.032 A 
ATOM     17  C   UNL d   1       2.500  -0.372  -5.140  0.00  0.00     0.018 A 
ATOM     18  C   UNL d   1       3.212  -0.173  -6.332  0.00  0.00     0.017 A 
ATOM     19  C   UNL d   1       4.391   0.589  -6.343  0.00  0.00     0.048 A 
ATOM     20  C   UNL d   1       4.896   1.060  -5.120  0.00  0.00     0.017 A 
ATOM     21  C   UNL d   1       4.193   0.848  -3.925  0.00  0.00     0.018 A 
BRANCH  19  22
ATOM     22  C   UNL d   1       5.072   0.957  -7.644  0.00  0.00     0.417 C 
ATOM     23  F   UNL d   1       4.452   0.457  -8.750  0.00  0.00    -0.166 F 
ATOM     24  F   UNL d   1       5.125   2.307  -7.833  0.00  0.00    -0.166 F 
ATOM     25  F   UNL d   1       6.360   0.523  -7.708  0.00  0.00    -0.166 F 
ENDBRANCH  19  22
ENDBRANCH  13  16
ENDBRANCH   1  12
BRANCH   1  26
ATOM     26  N   UNL d   1       3.128  -0.061   0.781  0.00  0.00     0.133 N 
ATOM     27  H   UNL d   1       3.614  -0.949   0.664  0.00  0.00     0.320 HD
BRANCH  26  28
ATOM     28  C   UNL d   1       4.081   1.052   0.763  0.00  0.00     0.312 C 
BRANCH  28  29
ATOM     29  C   UNL d   1       5.190   0.843   1.766  0.00  0.00    -0.030 A 
ATOM     30  C   UNL d   1       6.367   0.174   1.402  0.00  0.00     0.009 A 
ATOM     31  C   UNL d   1       7.398  -0.003   2.328  0.00  0.00     0.007 A 
ATOM     32  C   UNL d   1       7.271   0.484   3.634  0.00  0.00    -0.062 A 
ATOM     33  C   UNL d   1       6.095   1.148   4.000  0.00  0.00     0.007 A 
ATOM     34  C   UNL d   1       8.381   0.277   4.621  0.00  0.00     0.048 C 
ATOM     35  C   UNL d   1       5.062   1.322   3.076  0.00  0.00     0.009 A 
ENDBRANCH  28  29
ENDBRANCH  26  28
ENDBRANCH   1  26
TORSDOF 6
