REMARK  8 active torsions:
REMARK  status: ('A' for Active; 'I' for Inactive)
REMARK    1  A    between atoms: C_4  and  C_1 
REMARK    2  A    between atoms: S_3  and  C_2 
REMARK    3  A    between atoms: C_6  and  S_3 
REMARK    4  A    between atoms: O_14  and  C_4 
REMARK    5  A    between atoms: C_5  and  C_6 
REMARK    6  A    between atoms: C_7  and  C_5 
REMARK    7  A    between atoms: C_8  and  C_6 
REMARK    8  A    between atoms: C_11  and  C_7 
ROOT
ATOM      1  C   UNL d   1       3.024  -3.043   0.221  0.00  0.00     0.092 C 
ENDROOT
BRANCH   1   2
ATOM      2  C   UNL d   1       3.294  -2.343   1.562  0.00  0.00     0.104 C 
BRANCH   2   3
ATOM      3  C   UNL d   1       2.438  -2.720   2.759  0.00  0.00     0.161 C 
ATOM      4  O   UNL d   1       1.644  -3.656   2.749  0.00  0.00    -0.292 OA
BRANCH   3   5
ATOM      5  C   UNL d   1       2.576  -1.923   4.023  0.00  0.00     0.010 A 
ATOM      6  C   UNL d   1       3.357  -0.763   4.112  0.00  0.00     0.015 A 
ATOM      7  C   UNL d   1       3.408  -0.039   5.309  0.00  0.00     0.001 A 
ATOM      8  C   UNL d   1       2.693  -0.472   6.425  0.00  0.00     0.000 A 
ATOM      9  C   UNL d   1       1.929  -1.634   6.351  0.00  0.00     0.001 A 
ATOM     10  C   UNL d   1       1.870  -2.355   5.157  0.00  0.00     0.015 A 
ENDBRANCH   3   5
ENDBRANCH   2   3
ENDBRANCH   1   2
BRANCH   1  11
ATOM     11  S   UNL d   1       1.347  -2.812  -0.563  0.00  0.00    -0.119 SA
BRANCH  11  12
ATOM     12  C   UNL d   1       0.988  -1.079  -0.811  0.00  0.00     0.018 A 
ATOM     13  C   UNL d   1       1.828  -0.015  -1.170  0.00  0.00     0.054 A 
ATOM     14  C   UNL d   1       1.300   1.270  -1.426  0.00  0.00     0.020 A 
ATOM     15  C   UNL d   1      -0.072   1.502  -1.380  0.00  0.00     0.001 A 
ATOM     16  C   UNL d   1      -0.926   0.457  -1.059  0.00  0.00     0.001 A 
ATOM     17  C   UNL d   1      -0.402  -0.807  -0.772  0.00  0.00     0.019 A 
BRANCH  13  18
ATOM     18  C   UNL d   1       3.283  -0.129  -1.380  0.00  0.00     0.177 C 
ATOM     19  O   UNL d   1       4.088   0.626  -0.870  0.00  0.00    -0.646 OA
BRANCH  18  20
ATOM     20  O   UNL d   1       3.608  -1.087  -2.273  0.00  0.00    -0.773 OA
ATOM     21  H   UNL d   1       2.853  -1.632  -2.576  0.00  0.00     0.167 HD
ENDBRANCH  18  20
ENDBRANCH  13  18
ENDBRANCH  11  12
ENDBRANCH   1  11
BRANCH   1  22
ATOM     22  C   UNL d   1       3.403  -4.532   0.186  0.00  0.00    -0.043 A 
ATOM     23  C   UNL d   1       2.528  -5.547   0.618  0.00  0.00     0.010 A 
ATOM     24  C   UNL d   1       2.877  -6.897   0.527  0.00  0.00     0.024 A 
ATOM     25  C   UNL d   1       4.111  -7.257  -0.001  0.00  0.00     0.034 A 
ATOM     26  C   UNL d   1       5.000  -6.275  -0.429  0.00  0.00     0.024 A 
ATOM     27 CL   UNL d   1       4.536  -8.918  -0.131  0.00  0.00    -0.084 Cl
ATOM     28  C   UNL d   1       4.651  -4.922  -0.333  0.00  0.00     0.010 A 
ENDBRANCH   1  22
TORSDOF 8
