REMARK  5 active torsions:
REMARK  status: ('A' for Active; 'I' for Inactive)
REMARK    1  A    between atoms: N_7  and  C_1 
REMARK    2  A    between atoms: N_10  and  C_1 
REMARK    3  A    between atoms: C_2  and  N_8 
REMARK    4  A    between atoms: C_3  and  C_4 
REMARK    5  A    between atoms: C_16  and  N_10 
ROOT
ATOM      1  N   UNL d   1       0.234   0.564  -1.061  0.00  0.00    -0.357 N 
ATOM      2  N   UNL d   1      -1.578   2.205  -2.775  0.00  0.00    -0.266 NA
ATOM      3  C   UNL d   1      -0.749   1.532  -0.523  0.00  0.00     0.140 C 
ATOM      4  C   UNL d   1      -1.975   1.842  -1.399  0.00  0.00     0.117 C 
ATOM      5  C   UNL d   1       0.179   0.642  -3.558  0.00  0.00     0.035 C 
ATOM      6  C   UNL d   1       0.925   1.016  -2.279  0.00  0.00     0.126 C 
ATOM      7  C   UNL d   1      -1.295   1.035  -3.620  0.00  0.00     0.098 C 
ENDROOT
BRANCH   1   8
ATOM      8  C   UNL d   1       0.859  -0.263  -0.128  0.00  0.00     0.174 C 
ATOM      9  S   UNL d   1       2.495  -0.281   0.229  0.00  0.00    -0.041 SA
BRANCH   8  10
ATOM     10  N   UNL d   1       0.032  -1.045   0.646  0.00  0.00    -0.333 N 
ATOM     11  H   UNL d   1       0.439  -1.340   1.527  0.00  0.00     0.168 HD
BRANCH  10  12
ATOM     12  C   UNL d   1      -1.200  -1.625   0.288  0.00  0.00     0.035 A 
ATOM     13  C   UNL d   1      -1.566  -1.839  -1.043  0.00  0.00     0.055 A 
ATOM     14  C   UNL d   1      -2.806  -2.405  -1.360  0.00  0.00     0.058 A 
ATOM     15 CL   UNL d   1      -3.179  -2.640  -3.030  0.00  0.00    -0.082 Cl
ATOM     16  C   UNL d   1      -3.687  -2.761  -0.335  0.00  0.00     0.055 A 
ATOM     17  C   UNL d   1      -3.305  -2.585   0.998  0.00  0.00     0.028 A 
ATOM     18 CL   UNL d   1      -5.251  -3.420  -0.647  0.00  0.00    -0.083 Cl
ATOM     19  C   UNL d   1      -2.056  -2.038   1.308  0.00  0.00     0.031 A 
ENDBRANCH  10  12
ENDBRANCH   8  10
ENDBRANCH   1   8
BRANCH   2  20
ATOM     20  C   UNL d   1      -2.432   3.135  -3.400  0.00  0.00     0.104 A 
ATOM     21  N   UNL d   1      -3.699   3.269  -2.936  0.00  0.00    -0.354 N 
ATOM     22  C   UNL d   1      -4.507   4.197  -3.504  0.00  0.00     0.105 A 
ATOM     23  HN  UNL d   1      -4.038   2.682  -2.173  1.00  0.00     0.166 HD
ATOM     24  C   UNL d   1      -4.125   5.030  -4.543  0.00  0.00     0.065 A 
ATOM     25  C   UNL d   1      -2.827   4.889  -5.027  0.00  0.00     0.044 A 
ATOM     26  C   UNL d   1      -1.971   3.948  -4.455  0.00  0.00     0.073 A 
ATOM     27 CL   UNL d   1      -0.345   3.894  -5.048  0.00  0.00    -0.081 Cl
BRANCH  24  28
ATOM     28  C   UNL d   1      -5.084   6.043  -5.082  0.00  0.00     0.418 C 
ATOM     29  F   UNL d   1      -4.572   6.778  -6.108  0.00  0.00    -0.166 F 
ATOM     30  F   UNL d   1      -6.226   5.482  -5.558  0.00  0.00    -0.166 F 
ATOM     31  F   UNL d   1      -5.472   6.944  -4.138  0.00  0.00    -0.166 F 
ENDBRANCH  24  28
ENDBRANCH   2  20
TORSDOF 5
