REMARK  1 active torsions:
REMARK  status: ('A' for Active; 'I' for Inactive)
REMARK    1  A    between atoms: N_7  and  C_11 
ROOT
ATOM      1  S   UNL d   1       0.413   1.699   1.072  0.00  0.00     0.268 S 
ATOM      2  N   UNL d   1      -0.315   2.301  -0.327  0.00  0.00    -0.241 N 
ATOM      3  C   UNL d   1       1.684   0.589   0.489  0.00  0.00     0.097 A 
ATOM      4  C   UNL d   1      -1.605   1.910  -0.782  0.00  0.00     0.268 C 
ATOM      5  C   UNL d   1       1.493  -0.370  -0.520  0.00  0.00     0.031 A 
ATOM      6  C   UNL d   1      -2.094   0.576  -0.386  0.00  0.00     0.050 A 
ATOM      7  S   UNL d   1       0.121  -0.553  -1.651  0.00  0.00    -0.088 SA
ATOM      8  C   UNL d   1      -1.329  -0.579  -0.625  0.00  0.00     0.021 A 
ATOM      9  C   UNL d   1       2.555  -1.261  -0.795  0.00  0.00     0.056 A 
ATOM     10  C   UNL d   1       3.770  -1.181  -0.095  0.00  0.00     0.104 A 
ATOM     11  O   UNL d   1       1.082   2.809   1.720  0.00  0.00    -0.200 OA
ATOM     12  O   UNL d   1      -0.498   0.879   1.843  0.00  0.00    -0.200 OA
ATOM     13  C   UNL d   1       2.919   0.676   1.166  0.00  0.00     0.029 A 
ATOM     14  O   UNL d   1      -2.272   2.603  -1.538  0.00  0.00    -0.266 OA
ATOM     15  C   UNL d   1       3.963  -0.200   0.873  0.00  0.00     0.038 A 
ATOM     16  C   UNL d   1       0.369   3.447  -0.960  0.00  0.00     0.173 C 
ATOM     17  C   UNL d   1      -3.304   0.510   0.315  0.00  0.00     0.018 A 
ATOM     18  C   UNL d   1      -1.784  -1.801  -0.118  0.00  0.00     0.020 A 
ATOM     19  C   UNL d   1      -3.730  -0.712   0.833  0.00  0.00     0.001 A 
ATOM     20  C   UNL d   1      -2.969  -1.861   0.624  0.00  0.00     0.001 A 
ENDROOT
BRANCH  10  21
ATOM     21  N   UNL d   1       4.844  -2.140  -0.387  0.00  0.00    -0.116 N 
ATOM     22  O   UNL d   1       4.612  -3.029  -1.218  0.00  0.00    -0.532 OA
ATOM     23  O   UNL d   1       5.914  -2.004   0.220  0.00  0.00    -0.532 OA
ENDBRANCH  10  21
TORSDOF 1
