REMARK  5 active torsions:
REMARK  status: ('A' for Active; 'I' for Inactive)
REMARK    1  A    between atoms: C_7  and  N_1 
REMARK    2  A    between atoms: N_6  and  C_3 
REMARK    3  A    between atoms: C_12  and  N_6 
REMARK    4  A    between atoms: O_21  and  C_13 
REMARK    5  A    between atoms: O_22  and  C_14 
ROOT
ATOM      1  N   UNL d   1      -0.001   0.867  -0.046  0.00  0.00    -0.244 N 
ATOM      2  C   UNL d   1      -1.141   0.132   0.134  0.00  0.00     0.257 A 
ATOM      3  C   UNL d   1       0.532  -1.371  -0.059  0.00  0.00     0.087 A 
ATOM      4  C   UNL d   1       1.056   0.014  -0.239  0.00  0.00     0.277 A 
ATOM      5  C   UNL d   1      -0.778  -1.280   0.135  0.00  0.00     0.104 A 
ATOM      6  O   UNL d   1      -2.306   0.478   0.245  0.00  0.00    -0.268 OA
ATOM      7  O   UNL d   1       2.238   0.228  -0.457  0.00  0.00    -0.266 OA
ENDROOT
BRANCH   3   8
ATOM      8  N   UNL d   1       1.353  -2.482  -0.075  0.00  0.00    -0.255 NA
ATOM      9  H   UNL d   1       2.302  -2.231  -0.375  0.00  0.00     0.134 HD
BRANCH   8  10
ATOM     10  C   UNL d   1       1.422  -3.371   1.026  0.00  0.00     0.013 A 
ATOM     11  C   UNL d   1       1.852  -4.684   0.810  0.00  0.00     0.026 A 
ATOM     12  C   UNL d   1       1.929  -5.601   1.868  0.00  0.00     0.038 A 
ATOM     13  C   UNL d   1       1.601  -5.208   3.165  0.00  0.00     0.068 A 
ATOM     14  C   UNL d   1       1.232  -3.884   3.398  0.00  0.00     0.038 A 
ATOM     15  C   UNL d   1       1.150  -2.971   2.342  0.00  0.00     0.026 A 
BRANCH  13  16
ATOM     16  O   UNL d   1       1.605  -6.004   4.276  0.00  0.00    -0.356 OA
ATOM     17  C   UNL d   1       1.894  -7.382   4.077  0.00  0.00     0.210 C 
ENDBRANCH  13  16
ENDBRANCH   8  10
ENDBRANCH   3   8
BRANCH   1  18
ATOM     18  C   UNL d   1       0.060   2.289  -0.025  0.00  0.00     0.046 A 
ATOM     19  C   UNL d   1      -0.969   3.043   0.565  0.00  0.00     0.033 A 
ATOM     20  C   UNL d   1      -0.927   4.443   0.608  0.00  0.00     0.039 A 
ATOM     21  C   UNL d   1       0.143   5.126   0.043  0.00  0.00     0.068 A 
ATOM     22  C   UNL d   1       1.183   4.396  -0.529  0.00  0.00     0.039 A 
ATOM     23  C   UNL d   1       1.145   2.994  -0.563  0.00  0.00     0.033 A 
BRANCH  21  24
ATOM     24  O   UNL d   1       0.295   6.484   0.032  0.00  0.00    -0.356 OA
ATOM     25  C   UNL d   1      -0.910   7.241   0.090  0.00  0.00     0.210 C 
ENDBRANCH  21  24
ENDBRANCH   1  18
TORSDOF 5
