REMARK  4 active torsions:
REMARK  status: ('A' for Active; 'I' for Inactive)
REMARK    1  A    between atoms: C_7  and  C_1 
REMARK    2  A    between atoms: S_8  and  C_13 
REMARK    3  A    between atoms: C_11  and  S_8 
REMARK    4  A    between atoms: C_13  and  C_14 
ROOT
ATOM      1  C   UNL d   1      -3.294  -1.474  -0.037  0.00  0.00    -0.002 A 
ATOM      2  C   UNL d   1      -4.133  -1.098  -1.096  0.00  0.00     0.015 A 
ATOM      3  C   UNL d   1      -3.786  -2.399   0.893  0.00  0.00     0.015 A 
ATOM      4  C   UNL d   1      -5.913  -2.554  -0.280  0.00  0.00    -0.049 A 
ATOM      5  C   UNL d   1      -5.424  -1.635  -1.220  0.00  0.00     0.009 A 
ATOM      6  C   UNL d   1      -5.061  -2.947   0.760  0.00  0.00     0.009 A 
ENDROOT
BRANCH   1   7
ATOM      7  C   UNL d   1      -1.946  -0.889   0.093  0.00  0.00     0.085 A 
ATOM      8  N   UNL d   1      -1.592   0.291  -0.379  0.00  0.00    -0.349 N 
ATOM      9  C   UNL d   1      -0.282   0.575  -0.022  0.00  0.00     0.050 A 
ATOM     10  HN  UNL d   1      -2.194   0.905  -0.927  1.00  0.00     0.166 HD
ATOM     11  C   UNL d   1       0.416   1.768  -0.300  0.00  0.00     0.031 A 
ATOM     12  C   UNL d   1       0.377  -0.429   0.688  0.00  0.00     0.033 A 
ATOM     13  C   UNL d   1       1.734   1.923   0.144  0.00  0.00     0.002 A 
ATOM     14  C   UNL d   1       2.367   0.908   0.854  0.00  0.00     0.002 A 
ATOM     15  C   UNL d   1       1.699  -0.288   1.134  0.00  0.00     0.021 A 
ATOM     16  S   UNL d   1      -0.685  -1.759   0.884  0.00  0.00    -0.070 SA
ENDBRANCH   1   7
BRANCH   4  17
ATOM     17  C   UNL d   1      -7.296  -3.148  -0.447  0.00  0.00     0.117 C 
BRANCH  17  18
ATOM     18  S   UNL d   1      -8.135  -3.506   1.143  0.00  0.00    -0.125 SA
BRANCH  18  19
ATOM     19  C   UNL d   1      -9.684  -4.144   0.557  0.00  0.00     0.001 A 
ATOM     20  C   UNL d   1      -9.761  -5.305  -0.217  0.00  0.00     0.020 A 
ATOM     21  C   UNL d   1     -11.004  -5.776  -0.652  0.00  0.00     0.025 A 
ATOM     22  C   UNL d   1     -12.166  -5.092  -0.300  0.00  0.00     0.034 A 
ATOM     23  C   UNL d   1     -12.099  -3.950   0.495  0.00  0.00     0.025 A 
ATOM     24 CL   UNL d   1     -13.693  -5.661  -0.847  0.00  0.00    -0.084 Cl
ATOM     25  C   UNL d   1     -10.858  -3.481   0.929  0.00  0.00     0.020 A 
ENDBRANCH  18  19
ENDBRANCH  17  18
ENDBRANCH   4  17
TORSDOF 4
