REMARK  3 active torsions:
REMARK  status: ('A' for Active; 'I' for Inactive)
REMARK    1  A    between atoms: N_9  and  C_1 
REMARK    2  A    between atoms: C_6  and  C_2 
REMARK       I    between atoms: C_3  and  N_10 
REMARK    3  A    between atoms: C_8  and  C_3 
ROOT
ATOM      1  C   UNL d   1      -0.730  -7.032   0.800  0.00  0.00     0.254 C 
ATOM      2  N   UNL d   1      -0.901  -2.850   0.079  0.00  0.00    -0.377 N 
ATOM      3  N   UNL d   1      -0.777  -5.691   0.434  0.00  0.00    -0.345 N 
ATOM      4  C   UNL d   1       0.252  -4.801   0.998  0.00  0.00     0.146 C 
ATOM      5  C   UNL d   1      -0.290  -3.396   1.305  0.00  0.00     0.143 C 
ATOM      6  C   UNL d   1      -1.579  -5.100  -0.660  0.00  0.00     0.146 C 
ATOM      7  C   UNL d   1      -2.052  -3.658  -0.369  0.00  0.00     0.143 C 
ATOM      8  O   UNL d   1       0.041  -7.462   1.661  0.00  0.00    -0.267 OA
ENDROOT
BRANCH   2   9
ATOM      9  C   UNL d   1      -1.029  -1.461  -0.056  0.00  0.00     0.045 A 
ATOM     10  C   UNL d   1      -1.219  -0.636   1.056  0.00  0.00     0.064 A 
ATOM     11  C   UNL d   1      -1.267   0.747   0.899  0.00  0.00     0.119 A 
ATOM     12  N   UNL d   1      -1.161   1.336  -0.321  0.00  0.00    -0.352 N 
ATOM     13  C   UNL d   1      -0.980   0.563  -1.401  0.00  0.00     0.045 A 
ATOM     14  HN  UNL d   1      -1.219   2.350  -0.413  1.00  0.00     0.166 HD
ATOM     15  C   UNL d   1      -0.903  -0.845  -1.333  0.00  0.00     0.017 A 
ATOM     16  C   UNL d   1      -0.838   1.189  -2.633  0.00  0.00     0.030 A 
ATOM     17  C   UNL d   1      -0.661  -1.560  -2.533  0.00  0.00     0.016 A 
ATOM     18  C   UNL d   1      -0.534  -0.913  -3.760  0.00  0.00     0.001 A 
ATOM     19  C   UNL d   1      -0.622   0.469  -3.810  0.00  0.00     0.002 A 
BRANCH  11  20
ATOM     20  C   UNL d   1      -1.428   1.615   2.138  0.00  0.00     0.432 C 
ATOM     21  F   UNL d   1      -1.320   2.954   1.910  0.00  0.00    -0.165 F 
ATOM     22  F   UNL d   1      -2.636   1.435   2.748  0.00  0.00    -0.165 F 
ATOM     23  F   UNL d   1      -0.495   1.329   3.096  0.00  0.00    -0.165 F 
ENDBRANCH  11  20
ENDBRANCH   2   9
BRANCH   1  24
ATOM     24  C   UNL d   1      -1.677  -8.011   0.220  0.00  0.00     0.035 A 
ATOM     25  C   UNL d   1      -1.861  -8.157  -1.156  0.00  0.00     0.041 A 
ATOM     26  C   UNL d   1      -2.809  -9.064  -1.628  0.00  0.00     0.036 A 
ATOM     27 CL   UNL d   1      -3.111  -9.170  -3.318  0.00  0.00    -0.084 Cl
ATOM     28  C   UNL d   1      -3.526  -9.872  -0.746  0.00  0.00     0.047 A 
ATOM     29  C   UNL d   1      -3.281  -9.773   0.621  0.00  0.00     0.036 A 
ATOM     30  C   UNL d   1      -2.363  -8.848   1.110  0.00  0.00     0.041 A 
ATOM     31 CL   UNL d   1      -4.128 -10.794   1.716  0.00  0.00    -0.084 Cl
ENDBRANCH   1  24
TORSDOF 3
