REMARK  5 active torsions:
REMARK  status: ('A' for Active; 'I' for Inactive)
REMARK    1  A    between atoms: C_2  and  S_1 
REMARK    2  A    between atoms: N_7  and  S_1 
REMARK    3  A    between atoms: C_6  and  C_13 
REMARK    4  A    between atoms: C_14  and  N_7 
REMARK    5  A    between atoms: C_13  and  C_14 
ROOT
ATOM      1  S   UNL d   1       0.938  -0.022  -0.070  0.00  0.00     0.258 S 
ATOM      2  O   UNL d   1       0.576   1.350   0.201  0.00  0.00    -0.201 OA
ATOM      3  O   UNL d   1       0.568  -0.694  -1.294  0.00  0.00    -0.201 OA
ENDROOT
BRANCH   1   4
ATOM      4  C   UNL d   1       0.386  -1.006   1.302  0.00  0.00     0.079 A 
ATOM      5  C   UNL d   1       0.752  -0.629   2.598  0.00  0.00     0.026 A 
ATOM      6  C   UNL d   1       0.416  -1.452   3.672  0.00  0.00     0.008 A 
ATOM      7  C   UNL d   1      -0.296  -2.641   3.459  0.00  0.00    -0.062 A 
ATOM      8  C   UNL d   1      -0.674  -2.995   2.156  0.00  0.00     0.008 A 
ATOM      9  C   UNL d   1      -0.648  -3.517   4.626  0.00  0.00     0.048 C 
ATOM     10  C   UNL d   1      -0.333  -2.181   1.075  0.00  0.00     0.026 A 
ENDBRANCH   1   4
BRANCH   1  11
ATOM     11  N   UNL d   1       2.618  -0.118   0.077  0.00  0.00    -0.315 N 
ATOM     12  H   UNL d   1       2.987   0.601   0.698  0.00  0.00     0.172 HD
BRANCH  11  13
ATOM     13  C   UNL d   1       3.217  -1.460   0.123  0.00  0.00     0.137 C 
BRANCH  13  14
ATOM     14  C   UNL d   1       4.742  -1.370   0.179  0.00  0.00     0.066 C 
BRANCH  14  15
ATOM     15  C   UNL d   1       5.346  -2.738   0.300  0.00  0.00    -0.016 A 
ATOM     16  S   UNL d   1       5.593  -3.440   1.845  0.00  0.00    -0.106 SA
ATOM     17  C   UNL d   1       6.222  -4.874   1.160  0.00  0.00     0.050 A 
ATOM     18  C   UNL d   1       6.248  -4.822  -0.215  0.00  0.00     0.008 A 
ATOM     19  C   UNL d   1       5.739  -3.589  -0.713  0.00  0.00     0.015 A 
ENDBRANCH  14  15
ENDBRANCH  13  14
ENDBRANCH  11  13
ENDBRANCH   1  11
TORSDOF 5
