REMARK  4 active torsions:
REMARK  status: ('A' for Active; 'I' for Inactive)
REMARK    1  A    between atoms: N_8  and  C_1 
REMARK    2  A    between atoms: N_4  and  C_3 
REMARK    3  A    between atoms: C_13  and  N_6 
REMARK    4  A    between atoms: C_15  and  N_8 
ROOT
ATOM      1  C   UNL d   1       0.311  -1.419  -0.409  0.00  0.00     0.077 C 
ATOM      2  C   UNL d   1       1.477  -0.823  -0.152  0.00  0.00     0.042 C 
ATOM      3  C   UNL d   1       1.409   0.676  -0.037  0.00  0.00     0.255 C 
ATOM      4  C   UNL d   1      -0.671  -0.315  -0.537  0.00  0.00     0.177 C 
ATOM      5  C   UNL d   1       0.009   1.019  -0.551  0.00  0.00     0.125 C 
ATOM      6  O   UNL d   1      -1.873  -0.501  -0.656  0.00  0.00    -0.291 OA
ENDROOT
BRANCH   3   7
ATOM      7  N   UNL d   1       1.817   1.125   1.297  0.00  0.00     0.100 N 
ATOM      8  C   UNL d   1       1.065   0.594   2.454  0.00  0.00     0.293 C 
ATOM      9  C   UNL d   1      -0.241   1.328   2.819  0.00  0.00     0.153 C 
ATOM     10  N   UNL d   1       0.021   2.765   2.972  0.00  0.00    -0.378 N 
ATOM     11  C   UNL d   1       0.720   3.403   1.842  0.00  0.00     0.153 C 
ATOM     12  C   UNL d   1       1.976   2.588   1.438  0.00  0.00     0.293 C 
BRANCH  10  13
ATOM     13  C   UNL d   1      -0.868   3.541   3.710  0.00  0.00     0.030 A 
ATOM     14  C   UNL d   1      -2.192   3.155   3.969  0.00  0.00     0.029 A 
ATOM     15  C   UNL d   1      -3.024   3.906   4.808  0.00  0.00     0.002 A 
ATOM     16  C   UNL d   1      -2.545   5.064   5.410  0.00  0.00     0.000 A 
ATOM     17  C   UNL d   1      -1.244   5.481   5.155  0.00  0.00     0.002 A 
ATOM     18  C   UNL d   1      -0.422   4.728   4.311  0.00  0.00     0.029 A 
ENDBRANCH  10  13
ENDBRANCH   3   7
BRANCH   1  19
ATOM     19  N   UNL d   1      -0.094  -2.723  -0.489  0.00  0.00    -0.353 N 
ATOM     20  H   UNL d   1      -1.115  -2.778  -0.446  0.00  0.00     0.166 HD
BRANCH  19  21
ATOM     21  C   UNL d   1       0.382  -3.667  -1.428  0.00  0.00     0.032 A 
ATOM     22  C   UNL d   1       1.413  -3.409  -2.338  0.00  0.00     0.029 A 
ATOM     23  C   UNL d   1       1.814  -4.380  -3.259  0.00  0.00     0.002 A 
ATOM     24  C   UNL d   1       1.210  -5.635  -3.261  0.00  0.00     0.000 A 
ATOM     25  C   UNL d   1       0.214  -5.923  -2.333  0.00  0.00     0.002 A 
ATOM     26  C   UNL d   1      -0.190  -4.949  -1.419  0.00  0.00     0.029 A 
ENDBRANCH  19  21
ENDBRANCH   1  19
TORSDOF 4
