REMARK  1 active torsions:
REMARK  status: ('A' for Active; 'I' for Inactive)
REMARK    1  A    between atoms: O_12  and  C_7 
ROOT
ATOM      1  N   UNL d   1       0.745   0.324   0.000  0.00  0.00    -0.256 N 
ATOM      2  C   UNL d   1       1.288  -0.942   0.001  0.00  0.00     0.161 A 
ATOM      3  N   UNL d   1       2.541  -1.228   0.001  0.00  0.00    -0.316 N 
ATOM      4  HN  UNL d   1       2.869  -2.193   0.002  1.00  0.00     0.170 HD
ATOM      5  C   UNL d   1       1.570   1.424  -0.001  0.00  0.00     0.264 A 
ATOM      6  C   UNL d   1       3.036   1.117  -0.001  0.00  0.00     0.057 A 
ATOM      7  C   UNL d   1       3.410  -0.177  -0.000  0.00  0.00     0.153 A 
ATOM      8  S   UNL d   1       0.050  -2.186   0.002  0.00  0.00    -0.051 SA
ATOM      9  C   UNL d   1      -0.673   0.336   0.000  0.00  0.00     0.062 A 
ATOM     10  C   UNL d   1      -1.219  -0.953   0.001  0.00  0.00     0.035 A 
ATOM     11  O   UNL d   1       1.198   2.596  -0.001  0.00  0.00    -0.267 OA
ATOM     12  C   UNL d   1       3.992   2.272  -0.003  0.00  0.00     0.059 C 
ATOM     13  C   UNL d   1      -1.520   1.438  -0.001  0.00  0.00     0.031 A 
ATOM     14  C   UNL d   1      -2.588  -1.174   0.001  0.00  0.00     0.021 A 
ATOM     15  C   UNL d   1      -2.906   1.229  -0.001  0.00  0.00     0.002 A 
ATOM     16  C   UNL d   1      -3.436  -0.068  -0.000  0.00  0.00     0.002 A 
ENDROOT
BRANCH   7  17
ATOM     17  O   UNL d   1       4.735  -0.555  -0.000  0.00  0.00    -0.346 OA
ATOM     18  H   UNL d   1       5.308   0.225  -0.000  0.00  0.00     0.219 HD
ENDBRANCH   7  17
TORSDOF 1
