REMARK  1 active torsions:
REMARK  status: ('A' for Active; 'I' for Inactive)
REMARK    1  A    between atoms: C_6  and  C_1 
ROOT
ATOM      1  C   UNL d   1       2.098  -0.033  -0.130  0.00  0.00     0.171 A 
ATOM      2  C   UNL d   1       1.172   1.171  -0.075  0.00  0.00     0.176 A 
ATOM      3  C   UNL d   1       1.137  -1.210  -0.086  0.00  0.00     0.176 A 
ATOM      4  C   UNL d   1      -0.211   0.695  -0.041  0.00  0.00     0.025 A 
ATOM      5  C   UNL d   1      -0.231  -0.693  -0.046  0.00  0.00     0.025 A 
ATOM      6  O   UNL d   1       1.480   2.350  -0.085  0.00  0.00    -0.291 OA
ATOM      7  O   UNL d   1       1.410  -2.397  -0.109  0.00  0.00    -0.291 OA
ATOM      8  C   UNL d   1      -1.376   1.439  -0.010  0.00  0.00     0.016 A 
ATOM      9  C   UNL d   1      -1.418  -1.402  -0.020  0.00  0.00     0.016 A 
ATOM     10  C   UNL d   1      -2.587   0.740   0.015  0.00  0.00     0.001 A 
ATOM     11  C   UNL d   1      -2.608  -0.668   0.011  0.00  0.00     0.001 A 
ENDROOT
BRANCH   1  12
ATOM     12  C   UNL d   1       3.131  -0.051   0.966  0.00  0.00    -0.000 A 
ATOM     13  C   UNL d   1       2.756  -0.081   2.314  0.00  0.00     0.123 A 
ATOM     14  F   UNL d   1       1.456  -0.094   2.643  0.00  0.00    -0.206 F 
ATOM     15  C   UNL d   1       3.703  -0.094   3.333  0.00  0.00     0.043 A 
ATOM     16  C   UNL d   1       5.059  -0.076   3.013  0.00  0.00     0.003 A 
ATOM     17  C   UNL d   1       5.455  -0.044   1.677  0.00  0.00     0.001 A 
ATOM     18  C   UNL d   1       4.499  -0.031   0.658  0.00  0.00     0.011 A 
ENDBRANCH   1  12
TORSDOF 1
