REMARK  4 active torsions:
REMARK  status: ('A' for Active; 'I' for Inactive)
REMARK    1  A    between atoms: C_5  and  C_1 
REMARK    2  A    between atoms: N_10  and  C_4 
REMARK    3  A    between atoms: C_8  and  C_17 
REMARK    4  A    between atoms: C_17  and  N_10 
ROOT
ATOM      1  N   UNL d   1       1.075   2.396   0.637  0.00  0.00    -0.329 N 
ATOM      2  HN  UNL d   1       1.753   2.570  -0.105  1.00  0.00     0.168 HD
ATOM      3  C   UNL d   1       0.444   3.409   1.242  0.00  0.00     0.157 A 
ATOM      4  C   UNL d   1       0.787   1.131   1.040  0.00  0.00     0.120 A 
ATOM      5  N   UNL d   1      -0.446   3.242   2.230  0.00  0.00    -0.343 N 
ATOM      6  HN  UNL d   1      -0.905   4.039   2.670  1.00  0.00     0.167 HD
ATOM      7  C   UNL d   1      -0.118   0.879   2.053  0.00  0.00     0.051 A 
ATOM      8  C   UNL d   1      -0.707   1.982   2.618  0.00  0.00     0.093 A 
ENDROOT
BRANCH   3   9
ATOM      9  N   UNL d   1       0.771   4.672   0.788  0.00  0.00    -0.258 NA
ATOM     10  H   UNL d   1       1.677   4.596   0.338  0.00  0.00     0.130 HD
BRANCH   9  11
ATOM     11  C   UNL d   1       0.703   5.718   1.793  0.00  0.00     0.160 C 
BRANCH  11  12
ATOM     12  C   UNL d   1       1.580   6.885   1.480  0.00  0.00     0.065 A 
ATOM     13  O   UNL d   1       2.923   6.633   1.436  0.00  0.00    -0.326 OA
ATOM     14  C   UNL d   1       3.538   7.808   1.151  0.00  0.00     0.142 A 
ATOM     15  C   UNL d   1       2.613   8.815   1.010  0.00  0.00     0.027 A 
ATOM     16  C   UNL d   1       1.345   8.219   1.217  0.00  0.00     0.036 A 
ENDBRANCH  11  12
ENDBRANCH   9  11
ENDBRANCH   3   9
BRANCH   4  17
ATOM     17  C   UNL d   1       1.466  -0.042   0.354  0.00  0.00     0.432 C 
ATOM     18  F   UNL d   1       2.374   0.307  -0.600  0.00  0.00    -0.165 F 
ATOM     19  F   UNL d   1       0.573  -0.869  -0.265  0.00  0.00    -0.165 F 
ATOM     20  F   UNL d   1       2.141  -0.837   1.236  0.00  0.00    -0.165 F 
ENDBRANCH   4  17
TORSDOF 4
