REMARK  4 active torsions:
REMARK  status: ('A' for Active; 'I' for Inactive)
REMARK    1  A    between atoms: S_8  and  C_1 
REMARK    2  A    between atoms: C_7  and  C_11 
REMARK       I    between atoms: N_9  and  C_7 
REMARK    3  A    between atoms: C_11  and  S_8 
REMARK    4  A    between atoms: C_12  and  N_9 
ROOT
ATOM      1  C   UNL d   1      -4.608  -1.608   0.210  0.00  0.00     0.186 C 
ENDROOT
BRANCH   1   2
ATOM      2  C   UNL d   1      -6.093  -1.385  -0.004  0.00  0.00     0.231 C 
ATOM      3  N   UNL d   1      -6.891  -1.988   0.955  0.00  0.00    -0.327 N 
ATOM      4  H   UNL d   1      -6.415  -2.344   1.783  0.00  0.00     0.169 HD
ATOM      5  O   UNL d   1      -6.488  -0.719  -0.959  0.00  0.00    -0.272 OA
BRANCH   3   6
ATOM      6  C   UNL d   1      -8.300  -2.074   0.947  0.00  0.00     0.034 A 
ATOM      7  C   UNL d   1      -9.093  -1.678  -0.135  0.00  0.00     0.031 A 
ATOM      8  C   UNL d   1     -10.483  -1.822  -0.095  0.00  0.00     0.021 A 
ATOM      9  C   UNL d   1     -11.090  -2.365   1.033  0.00  0.00     0.011 A 
ATOM     10  C   UNL d   1     -10.317  -2.761   2.122  0.00  0.00     0.021 A 
ATOM     11 BR   UNL d   1     -12.967  -2.574   1.080  0.00  0.00    -0.051 Br
ATOM     12  C   UNL d   1      -8.924  -2.617   2.075  0.00  0.00     0.031 A 
ENDBRANCH   3   6
ENDBRANCH   1   2
BRANCH   1  13
ATOM     13  S   UNL d   1      -3.914  -0.255   1.188  0.00  0.00    -0.077 SA
BRANCH  13  14
ATOM     14  C   UNL d   1      -4.309  -0.774   2.798  0.00  0.00     0.188 A 
ATOM     15  N   UNL d   1      -4.749  -1.986   3.093  0.00  0.00    -0.329 N 
ATOM     16  C   UNL d   1      -4.772  -1.995   4.467  0.00  0.00     0.068 A 
ATOM     17  HN  UNL d   1      -5.010  -2.736   2.452  1.00  0.00     0.168 HD
ATOM     18  C   UNL d   1      -5.062  -3.016   5.381  0.00  0.00     0.032 A 
ATOM     19  C   UNL d   1      -4.419  -0.747   4.949  0.00  0.00     0.105 A 
ATOM     20  C   UNL d   1      -4.977  -2.718   6.751  0.00  0.00     0.002 A 
ATOM     21  C   UNL d   1      -4.635  -1.434   7.195  0.00  0.00     0.003 A 
ATOM     22  C   UNL d   1      -4.351  -0.403   6.293  0.00  0.00     0.040 A 
ATOM     23  O   UNL d   1      -4.130   0.045   3.881  0.00  0.00    -0.285 OA
ENDBRANCH  13  14
ENDBRANCH   1  13
TORSDOF 4
