REMARK  4 active torsions:
REMARK  status: ('A' for Active; 'I' for Inactive)
REMARK    1  A    between atoms: N_9  and  C_3 
REMARK    2  A    between atoms: S_8  and  C_4 
REMARK    3  A    between atoms: C_10  and  S_8 
REMARK    4  A    between atoms: C_12  and  C_10 
ROOT
ATOM      1  N   UNL d   1       1.536  -0.609   0.038  0.00  0.00    -0.168 N 
ATOM      2  HN  UNL d   1       2.386  -1.173   0.038  1.00  0.00     0.186 HD
ATOM      3  C   UNL d   1       0.238  -1.023   0.035  0.00  0.00     0.692 A 
ATOM      4  C   UNL d   1       1.417   0.695   0.042  0.00  0.00     0.174 A 
ATOM      5  N   UNL d   1      -0.676  -0.056   0.005  0.00  0.00    -0.130 N 
ATOM      6  HN  UNL d   1      -1.693  -0.126  -0.026  1.00  0.00     0.205 HD
ATOM      7  N   UNL d   1       0.102   1.038   0.025  0.00  0.00    -0.265 N 
ATOM      8  H   UNL d   1      -0.313   1.962   0.023  0.00  0.00     0.189 HD
ENDROOT
BRANCH   4   9
ATOM      9  S   UNL d   1       2.648   1.894   0.059  0.00  0.00    -0.087 SA
BRANCH   9  10
ATOM     10  C   UNL d   1       4.131   0.844   0.075  0.00  0.00     0.121 C 
BRANCH  10  11
ATOM     11  C   UNL d   1       5.394   1.675   0.078  0.00  0.00    -0.048 A 
ATOM     12  C   UNL d   1       5.991   2.061   1.288  0.00  0.00     0.009 A 
ATOM     13  C   UNL d   1       7.157   2.831   1.289  0.00  0.00     0.024 A 
ATOM     14  C   UNL d   1       7.729   3.224   0.081  0.00  0.00     0.034 A 
ATOM     15  C   UNL d   1       7.142   2.859  -1.129  0.00  0.00     0.024 A 
ATOM     16 CL   UNL d   1       9.168   4.168   0.082  0.00  0.00    -0.084 Cl
ATOM     17  C   UNL d   1       5.976   2.089  -1.130  0.00  0.00     0.009 A 
ENDBRANCH  10  11
ENDBRANCH   9  10
ENDBRANCH   4   9
BRANCH   3  18
ATOM     18  N   UNL d   1      -0.020  -2.326   0.033  0.00  0.00    -0.233 N 
ATOM     19  H   UNL d   1       0.726  -2.950  -0.240  0.00  0.00     0.174 HD
ATOM     20  H   UNL d   1      -0.946  -2.612  -0.256  0.00  0.00     0.174 HD
ENDBRANCH   3  18
TORSDOF 4
