REMARK  5 active torsions:
REMARK  status: ('A' for Active; 'I' for Inactive)
REMARK    1  A    between atoms: C_15  and  N_2 
REMARK    2  A    between atoms: C_17  and  C_9 
REMARK    3  A    between atoms: C_16  and  C_10 
REMARK    4  A    between atoms: C_14  and  C_18 
REMARK    5  A    between atoms: C_26  and  C_15 
ROOT
ATOM      1  C   UNL d   1      -0.562  -1.210   0.087  0.00  0.00     0.106 A 
ATOM      2  N   UNL d   1       0.740  -0.784   0.117  0.00  0.00    -0.284 N 
ATOM      3  C   UNL d   1      -1.043  -2.552   0.036  0.00  0.00     0.200 A 
ATOM      4  N   UNL d   1      -2.212  -2.838  -0.486  0.00  0.00    -0.317 N 
ATOM      5  HN  UNL d   1      -2.887  -2.201  -0.907  1.00  0.00     0.169 HD
ATOM      6  N   UNL d   1       0.848   0.569   0.102  0.00  0.00    -0.301 N 
ATOM      7  HN  UNL d   1       1.704   1.124   0.108  1.00  0.00     0.187 HD
ATOM      8  C   UNL d   1      -1.325  -0.062   0.063  0.00  0.00     0.063 A 
ATOM      9  C   UNL d   1      -2.311  -4.201  -0.332  0.00  0.00     0.138 A 
ATOM     10  C   UNL d   1      -0.414   1.016   0.075  0.00  0.00     0.036 A 
ATOM     11  N   UNL d   1      -1.249  -4.751   0.275  0.00  0.00    -0.242 N 
ATOM     12  HN  UNL d   1      -1.094  -5.732   0.507  1.00  0.00     0.196 HD
ATOM     13  O   UNL d   1      -0.404  -3.661   0.516  0.00  0.00    -0.215 OA
ENDROOT
BRANCH   2  14
ATOM     14  C   UNL d   1       1.967  -1.570   0.013  0.00  0.00     0.187 C 
BRANCH  14  15
ATOM     15  C   UNL d   1       2.506  -1.984   1.360  0.00  0.00    -0.038 A 
ATOM     16  C   UNL d   1       2.744  -3.337   1.639  0.00  0.00     0.009 A 
ATOM     17  C   UNL d   1       3.236  -3.729   2.886  0.00  0.00     0.001 A 
ATOM     18  C   UNL d   1       3.506  -2.772   3.863  0.00  0.00     0.000 A 
ATOM     19  C   UNL d   1       3.306  -1.422   3.588  0.00  0.00     0.001 A 
ATOM     20  C   UNL d   1       2.818  -1.029   2.341  0.00  0.00     0.009 A 
ENDBRANCH  14  15
ENDBRANCH   2  14
BRANCH  10  21
ATOM     21  C   UNL d   1      -0.747   2.497   0.035  0.00  0.00    -0.007 C 
ATOM     22  C   UNL d   1      -1.596   2.878   1.265  0.00  0.00     0.021 C 
ATOM     23  C   UNL d   1       0.519   3.378   0.033  0.00  0.00     0.021 C 
ATOM     24  C   UNL d   1      -1.552   2.816  -1.242  0.00  0.00     0.021 C 
ENDBRANCH  10  21
BRANCH   9  25
ATOM     25  C   UNL d   1      -3.483  -4.925  -0.814  0.00  0.00     0.010 A 
ATOM     26  C   UNL d   1      -4.458  -4.245  -1.562  0.00  0.00     0.016 A 
ATOM     27  C   UNL d   1      -5.603  -4.902  -2.023  0.00  0.00     0.017 A 
ATOM     28  C   UNL d   1      -5.801  -6.259  -1.740  0.00  0.00     0.048 A 
ATOM     29  C   UNL d   1      -4.822  -6.946  -1.006  0.00  0.00     0.017 A 
ATOM     30  C   UNL d   1      -3.674  -6.287  -0.547  0.00  0.00     0.016 A 
BRANCH  28  31
ATOM     31  C   UNL d   1      -7.048  -6.975  -2.204  0.00  0.00     0.417 C 
ATOM     32  F   UNL d   1      -7.921  -6.172  -2.876  0.00  0.00    -0.166 F 
ATOM     33  F   UNL d   1      -6.774  -8.011  -3.044  0.00  0.00    -0.166 F 
ATOM     34  F   UNL d   1      -7.755  -7.508  -1.170  0.00  0.00    -0.166 F 
ENDBRANCH  28  31
ENDBRANCH   9  25
TORSDOF 5
