REMARK  2 active torsions:
REMARK  status: ('A' for Active; 'I' for Inactive)
REMARK    1  A    between atoms: C_3  and  N_1 
REMARK    2  A    between atoms: N_2  and  C_5 
ROOT
ATOM      1  C   UNL d   1       0.362   1.356   0.625  0.00  0.00     0.103 A 
ATOM      2  C   UNL d   1      -1.397   3.499   1.136  0.00  0.00     0.030 A 
ATOM      3  C   UNL d   1      -0.550   1.267   1.677  0.00  0.00     0.038 A 
ATOM      4  C   UNL d   1       0.393   2.491  -0.188  0.00  0.00     0.038 A 
ATOM      5  C   UNL d   1      -1.415   2.338   1.927  0.00  0.00     0.032 A 
ATOM      6  C   UNL d   1      -0.491   3.539   0.067  0.00  0.00     0.032 A 
ENDROOT
BRANCH   2   7
ATOM      7  N   UNL d   1      -2.242   4.552   1.400  0.00  0.00    -0.376 N 
ATOM      8  C   UNL d   1      -2.705   5.474   0.355  0.00  0.00     0.154 C 
ATOM      9  C   UNL d   1      -2.226   6.910   0.641  0.00  0.00     0.136 C 
ATOM     10  C   UNL d   1      -2.852   7.879  -0.352  0.00  0.00     0.041 C 
ATOM     11  O   UNL d   1      -2.609   7.326   1.967  0.00  0.00    -0.378 OA
ATOM     12  C   UNL d   1      -2.032   6.454   2.961  0.00  0.00     0.136 C 
ATOM     13  C   UNL d   1      -2.514   4.996   2.776  0.00  0.00     0.154 C 
ATOM     14  C   UNL d   1      -2.431   6.991   4.329  0.00  0.00     0.041 C 
ENDBRANCH   2   7
BRANCH   1  15
ATOM     15  N   UNL d   1       1.309   0.270   0.381  0.00  0.00    -0.116 N 
ATOM     16  O   UNL d   1       1.270  -0.713   1.140  0.00  0.00    -0.532 OA
ATOM     17  O   UNL d   1       2.105   0.397  -0.561  0.00  0.00    -0.532 OA
ENDBRANCH   1  15
TORSDOF 2
