REMARK  7 active torsions:
REMARK  status: ('A' for Active; 'I' for Inactive)
REMARK    1  A    between atoms: C_9  and  C_3 
REMARK    2  A    between atoms: C_15  and  C_7 
REMARK    3  A    between atoms: O_14  and  C_9 
REMARK    4  A    between atoms: C_10  and  C_16 
REMARK    5  A    between atoms: N_11  and  O_14 
REMARK    6  A    between atoms: C_17  and  C_13 
REMARK    7  A    between atoms: N_26  and  C_13 
ROOT
ATOM      1  N   UNL d   1      -3.417   2.648  -0.060  0.00  0.00    -0.246 N 
ATOM      2  HN  UNL d   1      -2.503   3.101  -0.050  1.00  0.00     0.196 HD
ATOM      3  C   UNL d   1      -4.534   3.308  -0.054  0.00  0.00     0.109 C 
ENDROOT
BRANCH   1   4
ATOM      4  O   UNL d   1      -3.584   1.231  -0.083  0.00  0.00    -0.193 OA
BRANCH   4   5
ATOM      5  C   UNL d   1      -2.324   0.653  -0.029  0.00  0.00     0.322 C 
ATOM      6  O   UNL d   1      -1.284   1.312   0.003  0.00  0.00    -0.257 OA
BRANCH   5   7
ATOM      7  C   UNL d   1      -2.331  -0.818  -0.031  0.00  0.00     0.090 A 
ATOM      8  C   UNL d   1      -1.199  -1.627  -0.019  0.00  0.00    -0.020 A 
ATOM      9  C   UNL d   1      -1.535  -3.015  -0.028  0.00  0.00     0.030 A 
ATOM     10  C   UNL d   1       0.244  -1.255   0.001  0.00  0.00     0.051 C 
ATOM     11  C   UNL d   1      -2.872  -3.260  -0.033  0.00  0.00     0.024 A 
ATOM     12  S   UNL d   1      -0.597  -4.478  -0.030  0.00  0.00    -0.092 SA
ATOM     13  S   UNL d   1      -3.783  -1.757  -0.044  0.00  0.00    -0.082 SA
ATOM     14  C   UNL d   1      -3.173  -4.668  -0.024  0.00  0.00     0.035 A 
ATOM     15  C   UNL d   1      -2.023  -5.450  -0.015  0.00  0.00    -0.008 A 
BRANCH  15  16
ATOM     16  C   UNL d   1      -1.855  -6.987   0.007  0.00  0.00    -0.018 C 
ATOM     17  C   UNL d   1      -1.105  -7.429   1.284  0.00  0.00     0.020 C 
ATOM     18  C   UNL d   1      -3.215  -7.711  -0.010  0.00  0.00     0.020 C 
ATOM     19  C   UNL d   1      -1.058  -7.469  -1.227  0.00  0.00     0.020 C 
ENDBRANCH  15  16
ENDBRANCH   5   7
ENDBRANCH   4   5
ENDBRANCH   1   4
BRANCH   3  20
ATOM     20  C   UNL d   1      -4.461   4.814   0.000  0.00  0.00     0.004 A 
ATOM     21  C   UNL d   1      -3.344   5.493  -0.503  0.00  0.00     0.015 A 
ATOM     22  C   UNL d   1      -3.290   6.894  -0.472  0.00  0.00     0.017 A 
ATOM     23  C   UNL d   1      -4.346   7.639   0.075  0.00  0.00     0.048 A 
ATOM     24  C   UNL d   1      -5.454   6.952   0.597  0.00  0.00     0.017 A 
ATOM     25  C   UNL d   1      -5.512   5.552   0.558  0.00  0.00     0.015 A 
BRANCH  23  26
ATOM     26  C   UNL d   1      -4.309   9.152   0.117  0.00  0.00     0.417 C 
ATOM     27  F   UNL d   1      -3.183   9.688  -0.433  0.00  0.00    -0.166 F 
ATOM     28  F   UNL d   1      -5.353   9.712  -0.554  0.00  0.00    -0.166 F 
ATOM     29  F   UNL d   1      -4.376   9.640   1.385  0.00  0.00    -0.166 F 
ENDBRANCH  23  26
ENDBRANCH   3  20
BRANCH   3  30
ATOM     30  N   UNL d   1      -5.770   2.712  -0.110  0.00  0.00    -0.286 NA
ATOM     31  H   UNL d   1      -5.714   1.741  -0.399  0.00  0.00     0.125 HD
ATOM     32  H   UNL d   1      -6.474   3.225  -0.629  0.00  0.00     0.125 HD
ENDBRANCH   3  30
TORSDOF 7
