REMARK  4 active torsions:
REMARK  status: ('A' for Active; 'I' for Inactive)
REMARK    1  A    between atoms: N_8  and  C_1 
REMARK    2  A    between atoms: S_11  and  C_5 
REMARK    3  A    between atoms: C_9  and  C_10 
REMARK    4  A    between atoms: C_10  and  S_11 
ROOT
ATOM      1  C   UNL d   1      -0.370   1.140   0.080  0.00  0.00     0.172 A 
ATOM      2  S   UNL d   1      -1.240  -0.216   0.628  0.00  0.00    -0.026 SA
ATOM      3  N   UNL d   1       0.783   0.875  -0.493  0.00  0.00    -0.278 N 
ATOM      4  HN  UNL d   1       1.414   1.581  -0.872  1.00  0.00     0.189 HD
ATOM      5  C   UNL d   1       0.052  -1.178   0.029  0.00  0.00     0.130 A 
ATOM      6  N   UNL d   1       1.031  -0.485  -0.516  0.00  0.00    -0.286 N 
ATOM      7  HN  UNL d   1       1.874  -0.904  -0.909  1.00  0.00     0.188 HD
ENDROOT
BRANCH   5   8
ATOM      8  S   UNL d   1       0.061  -2.925   0.111  0.00  0.00    -0.099 SA
BRANCH   8   9
ATOM      9  C   UNL d   1       1.845  -3.246  -0.039  0.00  0.00     0.125 C 
BRANCH   9  10
ATOM     10  C   UNL d   1       2.155  -4.718  -0.138  0.00  0.00     0.012 A 
ATOM     11  C   UNL d   1       2.380  -5.451   1.034  0.00  0.00     0.125 A 
ATOM     12  F   UNL d   1       2.305  -4.839   2.225  0.00  0.00    -0.205 F 
ATOM     13  C   UNL d   1       2.693  -6.809   1.010  0.00  0.00     0.043 A 
ATOM     14  C   UNL d   1       2.787  -7.473  -0.209  0.00  0.00     0.005 A 
ATOM     15  C   UNL d   1       2.554  -6.772  -1.392  0.00  0.00     0.024 A 
ATOM     16  C   UNL d   1       2.234  -5.408  -1.357  0.00  0.00     0.044 A 
ATOM     17 CL   UNL d   1       1.954  -4.623  -2.871  0.00  0.00    -0.084 Cl
ENDBRANCH   9  10
ENDBRANCH   8   9
ENDBRANCH   5   8
BRANCH   1  18
ATOM     18  N   UNL d   1      -0.868   2.438   0.231  0.00  0.00    -0.312 N 
ATOM     19  C   UNL d   1      -2.040   2.860   0.843  0.00  0.00     0.098 A 
ATOM     20  C   UNL d   1      -2.133   4.234   0.760  0.00  0.00     0.019 A 
ATOM     21  C   UNL d   1      -0.990   4.691   0.074  0.00  0.00     0.019 A 
ATOM     22  C   UNL d   1      -0.234   3.583  -0.233  0.00  0.00     0.098 A 
ENDBRANCH   1  18
TORSDOF 4
