REMARK  24 active torsions:
REMARK  status: ('A' for Active; 'I' for Inactive)
REMARK    1  A    between atoms: C_4  and  C_2 
REMARK    2  A    between atoms: C_3  and  C_5 
REMARK    3  A    between atoms: C_4  and  O_15 
REMARK    4  A    between atoms: C_4  and  C_9 
REMARK    5  A    between atoms: C_5  and  O_16 
REMARK    6  A    between atoms: C_10  and  C_5 
REMARK    7  A    between atoms: C_9  and  O_17 
REMARK    8  A    between atoms: C_9  and  C_12 
REMARK    9  A    between atoms: C_10  and  O_18 
REMARK   10  A    between atoms: C_10  and  C_13 
REMARK   11  A    between atoms: C_12  and  O_19 
REMARK   12  A    between atoms: C_30  and  C_12 
REMARK   13  A    between atoms: C_13  and  O_20 
REMARK   14  A    between atoms: C_31  and  C_13 
REMARK   15  A    between atoms: C_21  and  O_15 
REMARK   16  A    between atoms: C_22  and  O_16 
REMARK   17  A    between atoms: C_23  and  O_17 
REMARK   18  A    between atoms: C_24  and  O_18 
REMARK   19  A    between atoms: C_25  and  O_19 
REMARK   20  A    between atoms: C_26  and  O_20 
REMARK   21  A    between atoms: C_28  and  O_33 
REMARK   22  A    between atoms: C_29  and  O_32 
REMARK   23  A    between atoms: O_33  and  C_30 
REMARK   24  A    between atoms: O_32  and  C_31 
ROOT
ATOM      1  N   UNL d   1      -5.247  -3.118  -3.549  0.00  0.00    -0.355 N 
ATOM      2  C   UNL d   1      -5.713  -2.639  -2.264  0.00  0.00     0.262 C 
ATOM      3  C   UNL d   1      -4.764  -2.240  -4.601  0.00  0.00     0.177 C 
ATOM      4  O   UNL d   1      -4.950  -3.289  -1.241  0.00  0.00    -0.291 OA
ATOM      5  C   UNL d   1      -4.439  -4.297  -3.286  0.00  0.00     0.192 C 
ATOM      6  C   UNL d   1      -4.091  -4.173  -1.823  0.00  0.00     0.284 C 
ATOM      7  S   UNL d   1      -3.622  -3.298  -5.587  0.00  0.00    -0.139 SA
ATOM      8  C   UNL d   1      -3.237  -4.391  -4.200  0.00  0.00     0.111 C 
ATOM      9  O   UNL d   1      -3.214  -4.781  -1.233  0.00  0.00    -0.263 OA
ENDROOT
BRANCH   2  10
ATOM     10  C   UNL d   1      -7.219  -3.006  -2.132  0.00  0.00     0.213 C 
BRANCH  10  11
ATOM     11  O   UNL d   1      -7.659  -2.693  -0.792  0.00  0.00    -0.309 OA
BRANCH  11  12
ATOM     12  C   UNL d   1      -8.195  -3.712  -0.068  0.00  0.00     0.255 C 
ATOM     13  O   UNL d   1      -8.339  -4.860  -0.466  0.00  0.00    -0.266 OA
ATOM     14  C   UNL d   1      -8.538  -3.263   1.322  0.00  0.00     0.126 C 
ENDBRANCH  11  12
ENDBRANCH  10  11
BRANCH  10  15
ATOM     15  C   UNL d   1      -8.041  -2.224  -3.201  0.00  0.00     0.197 C 
BRANCH  15  16
ATOM     16  O   UNL d   1      -7.971  -0.798  -3.029  0.00  0.00    -0.311 OA
BRANCH  16  17
ATOM     17  C   UNL d   1      -8.532  -0.154  -1.985  0.00  0.00     0.255 C 
ATOM     18  O   UNL d   1      -9.381  -0.607  -1.238  0.00  0.00    -0.266 OA
ATOM     19  C   UNL d   1      -7.946   1.230  -1.894  0.00  0.00     0.126 C 
ENDBRANCH  16  17
ENDBRANCH  15  16
BRANCH  15  20
ATOM     20  C   UNL d   1      -9.386  -2.893  -3.564  0.00  0.00     0.188 C 
BRANCH  20  21
ATOM     21  O   UNL d   1      -9.101  -4.196  -4.200  0.00  0.00    -0.311 OA
BRANCH  21  22
ATOM     22  C   UNL d   1      -8.479  -4.220  -5.418  0.00  0.00     0.255 C 
ATOM     23  O   UNL d   1      -8.189  -3.236  -6.086  0.00  0.00    -0.266 OA
ATOM     24  C   UNL d   1      -8.140  -5.611  -5.849  0.00  0.00     0.126 C 
ENDBRANCH  21  22
ENDBRANCH  20  21
BRANCH  20  25
ATOM     25  C   UNL d   1     -10.343  -2.085  -4.459  0.00  0.00     0.213 C 
BRANCH  25  26
ATOM     26  O   UNL d   1     -10.801  -0.866  -3.868  0.00  0.00    -0.319 OA
BRANCH  26  27
ATOM     27  C   UNL d   1     -11.888  -0.972  -3.064  0.00  0.00     0.254 C 
ATOM     28  O   UNL d   1     -12.459  -2.013  -2.776  0.00  0.00    -0.266 OA
ATOM     29  C   UNL d   1     -12.339   0.391  -2.619  0.00  0.00     0.126 C 
ENDBRANCH  26  27
ENDBRANCH  25  26
ENDBRANCH  20  25
ENDBRANCH  15  20
ENDBRANCH  10  15
ENDBRANCH   2  10
BRANCH   3  30
ATOM     30  C   UNL d   1      -4.158  -0.819  -4.314  0.00  0.00     0.196 C 
BRANCH  30  31
ATOM     31  O   UNL d   1      -2.808  -0.957  -3.790  0.00  0.00    -0.311 OA
BRANCH  31  32
ATOM     32  C   UNL d   1      -2.610  -0.825  -2.454  0.00  0.00     0.255 C 
ATOM     33  O   UNL d   1      -3.475  -0.555  -1.637  0.00  0.00    -0.266 OA
ATOM     34  C   UNL d   1      -1.175  -1.099  -2.124  0.00  0.00     0.126 C 
ENDBRANCH  31  32
ENDBRANCH  30  31
BRANCH  30  35
ATOM     35  C   UNL d   1      -4.067   0.004  -5.642  0.00  0.00     0.196 C 
BRANCH  35  36
ATOM     36  O   UNL d   1      -5.304   0.048  -6.412  0.00  0.00    -0.311 OA
BRANCH  36  37
ATOM     37  C   UNL d   1      -6.447   0.545  -5.868  0.00  0.00     0.255 C 
ATOM     38  O   UNL d   1      -6.568   0.933  -4.716  0.00  0.00    -0.266 OA
ATOM     39  C   UNL d   1      -7.574   0.494  -6.851  0.00  0.00     0.126 C 
ENDBRANCH  36  37
ENDBRANCH  35  36
BRANCH  35  40
ATOM     40  C   UNL d   1      -3.418   1.409  -5.510  0.00  0.00     0.188 C 
BRANCH  40  41
ATOM     41  O   UNL d   1      -4.316   2.302  -4.819  0.00  0.00    -0.311 OA
BRANCH  41  42
ATOM     42  C   UNL d   1      -3.769   3.380  -4.202  0.00  0.00     0.255 C 
ATOM     43  O   UNL d   1      -2.579   3.654  -4.200  0.00  0.00    -0.266 OA
ATOM     44  C   UNL d   1      -4.828   4.204  -3.528  0.00  0.00     0.126 C 
ENDBRANCH  41  42
ENDBRANCH  40  41
BRANCH  40  45
ATOM     45  C   UNL d   1      -3.088   1.985  -6.902  0.00  0.00     0.213 C 
BRANCH  45  46
ATOM     46  O   UNL d   1      -2.114   1.144  -7.549  0.00  0.00    -0.319 OA
BRANCH  46  47
ATOM     47  C   UNL d   1      -2.467   0.587  -8.738  0.00  0.00     0.254 C 
ATOM     48  O   UNL d   1      -3.520   0.777  -9.328  0.00  0.00    -0.266 OA
ATOM     49  C   UNL d   1      -1.394  -0.346  -9.220  0.00  0.00     0.126 C 
ENDBRANCH  46  47
ENDBRANCH  45  46
ENDBRANCH  40  45
ENDBRANCH  35  40
ENDBRANCH  30  35
ENDBRANCH   3  30
TORSDOF 24
