REMARK  5 active torsions:
REMARK  status: ('A' for Active; 'I' for Inactive)
REMARK    1  A    between atoms: C_19  and  N_9 
REMARK    2  A    between atoms: O_22  and  C_13 
REMARK    3  A    between atoms: O_24  and  C_14 
REMARK    4  A    between atoms: C_23  and  C_19 
REMARK    5  A    between atoms: C_20  and  C_23 
ROOT
ATOM      1  C   UNL d   1       0.182  -0.174  -1.243  0.00  0.00     0.101 A 
ATOM      2  C   UNL d   1      -0.848  -0.239  -2.104  0.00  0.00     0.077 A 
ATOM      3  N   UNL d   1       1.357  -0.833  -1.548  0.00  0.00    -0.293 N 
ATOM      4  N   UNL d   1       0.520  -1.488  -3.659  0.00  0.00    -0.270 N 
ATOM      5  C   UNL d   1       1.570  -1.504  -2.753  0.00  0.00     0.332 A 
ATOM      6  C   UNL d   1      -0.706  -0.914  -3.405  0.00  0.00     0.262 A 
ATOM      7  N   UNL d   1       0.011   0.555  -0.069  0.00  0.00    -0.252 NA
ATOM      8  C   UNL d   1      -2.201   0.329  -1.796  0.00  0.00     0.321 C 
ATOM      9  N   UNL d   1      -2.432   0.578  -0.356  0.00  0.00     0.106 N 
ATOM     10  C   UNL d   1      -1.248   1.247   0.167  0.00  0.00     0.368 C 
ATOM     11  O   UNL d   1       2.635  -2.072  -2.998  0.00  0.00    -0.246 OA
ATOM     12  O   UNL d   1      -1.643  -0.925  -4.199  0.00  0.00    -0.267 OA
ATOM     13  C   UNL d   1       2.485  -0.827  -0.627  0.00  0.00     0.162 C 
ATOM     14  C   UNL d   1       0.693  -2.109  -4.957  0.00  0.00     0.164 C 
ATOM     15  H   UNL d   1       0.297   0.012   0.740  0.00  0.00     0.130 HD
ENDROOT
BRANCH   9  16
ATOM     16  C   UNL d   1      -3.658   1.356  -0.128  0.00  0.00     0.279 C 
BRANCH  16  17
ATOM     17  C   UNL d   1      -4.915   0.607  -0.604  0.00  0.00     0.069 C 
BRANCH  17  18
ATOM     18  C   UNL d   1      -6.181   1.396  -0.394  0.00  0.00    -0.054 A 
ATOM     19  C   UNL d   1      -6.630   2.281  -1.389  0.00  0.00     0.046 A 
ATOM     20  C   UNL d   1      -7.824   3.004  -1.242  0.00  0.00     0.102 A 
ATOM     21  C   UNL d   1      -8.576   2.831  -0.067  0.00  0.00     0.101 A 
ATOM     22  C   UNL d   1      -8.113   1.955   0.928  0.00  0.00     0.040 A 
ATOM     23  C   UNL d   1      -6.925   1.245   0.773  0.00  0.00     0.010 A 
BRANCH  20  24
ATOM     24  O   UNL d   1      -8.291   3.868  -2.195  0.00  0.00    -0.353 OA
ATOM     25  C   UNL d   1      -7.537   4.051  -3.385  0.00  0.00     0.210 C 
ENDBRANCH  20  24
BRANCH  21  26
ATOM     26  O   UNL d   1      -9.765   3.418   0.285  0.00  0.00    -0.353 OA
ATOM     27  C   UNL d   1     -10.371   4.326  -0.621  0.00  0.00     0.210 C 
ENDBRANCH  21  26
ENDBRANCH  17  18
ENDBRANCH  16  17
ENDBRANCH   9  16
TORSDOF 5
