REMARK  8 active torsions:
REMARK  status: ('A' for Active; 'I' for Inactive)
REMARK    1  A    between atoms: N_4  and  S_1 
REMARK    2  A    between atoms: C_10  and  S_1 
REMARK    3  A    between atoms: C_2  and  N_4 
REMARK    4  A    between atoms: C_9  and  C_3 
REMARK    5  A    between atoms: O_16  and  C_5 
REMARK    6  A    between atoms: O_17  and  C_6 
REMARK    7  A    between atoms: O_19  and  C_8 
REMARK    8  A    between atoms: O_18  and  C_9 
ROOT
ATOM      1  C   UNL d   1       0.938   1.224  -2.243  0.00  0.00     0.075 A 
ATOM      2  C   UNL d   1       2.304   1.570  -2.283  0.00  0.00     0.067 A 
ATOM      3  C   UNL d   1      -0.011   2.043  -2.898  0.00  0.00     0.127 A 
ATOM      4  C   UNL d   1       0.420   3.181  -3.614  0.00  0.00     0.137 A 
ATOM      5  C   UNL d   1       2.726   2.695  -3.001  0.00  0.00     0.059 A 
ATOM      6  C   UNL d   1       1.799   3.497  -3.665  0.00  0.00     0.105 A 
ENDROOT
BRANCH   1   7
ATOM      7  N   UNL d   1       0.508   0.065  -1.480  0.00  0.00    -0.177 NA
ATOM      8  H   UNL d   1       1.257  -0.643  -1.478  0.00  0.00     0.146 HD
BRANCH   7   9
ATOM      9  S   UNL d   1       0.128   0.397   0.152  0.00  0.00     0.246 S 
ATOM     10  O   UNL d   1      -1.021   1.272   0.208  0.00  0.00    -0.206 OA
ATOM     11  O   UNL d   1       1.360   0.715   0.844  0.00  0.00    -0.206 OA
BRANCH   9  12
ATOM     12  C   UNL d   1      -0.382  -1.222   0.694  0.00  0.00     0.074 A 
ATOM     13  C   UNL d   1       0.547  -2.271   0.686  0.00  0.00     0.026 A 
ATOM     14  C   UNL d   1       0.143  -3.549   1.079  0.00  0.00     0.025 A 
ATOM     15  C   UNL d   1      -1.172  -3.765   1.493  0.00  0.00     0.034 A 
ATOM     16  C   UNL d   1      -2.090  -2.713   1.519  0.00  0.00     0.025 A 
ATOM     17 CL   UNL d   1      -1.665  -5.340   1.978  0.00  0.00    -0.084 Cl
ATOM     18  C   UNL d   1      -1.697  -1.435   1.116  0.00  0.00     0.026 A 
ENDBRANCH   9  12
ENDBRANCH   7   9
ENDBRANCH   1   7
BRANCH   2  19
ATOM     19  C   UNL d   1       3.316   0.718  -1.609  0.00  0.00     0.294 C 
ATOM     20  O   UNL d   1       3.145  -0.475  -1.401  0.00  0.00    -0.259 OA
BRANCH  19  21
ATOM     21  O   UNL d   1       4.390   1.465  -1.256  0.00  0.00    -0.322 OA
ATOM     22  C   UNL d   1       5.416   0.775  -0.542  0.00  0.00     0.213 C 
ENDBRANCH  19  21
ENDBRANCH   2  19
BRANCH   3  23
ATOM     23  O   UNL d   1      -1.358   1.795  -2.798  0.00  0.00    -0.351 OA
ATOM     24  C   UNL d   1      -1.768   0.523  -3.293  0.00  0.00     0.210 C 
ENDBRANCH   3  23
BRANCH   4  25
ATOM     25  O   UNL d   1      -0.361   4.039  -4.352  0.00  0.00    -0.351 OA
ATOM     26  C   UNL d   1      -1.760   4.083  -4.128  0.00  0.00     0.210 C 
ENDBRANCH   4  25
BRANCH   6  27
ATOM     27  O   UNL d   1       2.144   4.605  -4.402  0.00  0.00    -0.353 OA
ATOM     28  C   UNL d   1       3.477   5.088  -4.290  0.00  0.00     0.210 C 
ENDBRANCH   6  27
TORSDOF 8
