REMARK  4 active torsions:
REMARK  status: ('A' for Active; 'I' for Inactive)
REMARK    1  A    between atoms: N_2  and  C_1 
REMARK    2  A    between atoms: N_4  and  N_2 
REMARK    3  A    between atoms: C_9  and  N_4 
REMARK    4  A    between atoms: C_10  and  C_5 
ROOT
ATOM      1  C   UNL d   1      -1.035   5.890   1.912  0.00  0.00    -0.055 A 
ATOM      2  C   UNL d   1      -1.402   4.605   2.334  0.00  0.00     0.009 A 
ATOM      3  C   UNL d   1       0.046   6.019   1.030  0.00  0.00     0.009 A 
ATOM      4  C   UNL d   1       0.404   3.615   1.039  0.00  0.00     0.027 A 
ATOM      5  C   UNL d   1       0.749   4.894   0.591  0.00  0.00     0.026 A 
ATOM      6  C   UNL d   1      -0.697   3.479   1.890  0.00  0.00     0.026 A 
ENDROOT
BRANCH   4   7
ATOM      7  N   UNL d   1       1.035   2.439   0.541  0.00  0.00    -0.204 NA
ATOM      8  H   UNL d   1       0.655   2.307  -0.405  0.00  0.00     0.153 HD
BRANCH   7   9
ATOM      9  N   UNL d   1       2.437   2.598   0.446  0.00  0.00    -0.293 N 
ATOM     10  H   UNL d   1       2.887   3.217   1.116  0.00  0.00     0.183 HD
BRANCH   9  11
ATOM     11  C   UNL d   1       3.139   2.072  -0.597  0.00  0.00     0.180 C 
ATOM     12  S   UNL d   1       4.732   2.445  -0.867  0.00  0.00    -0.040 SA
ATOM     13  N   UNL d   1       2.459   1.240  -1.427  0.00  0.00    -0.375 N 
ATOM     14  H   UNL d   1       1.751   0.664  -0.989  0.00  0.00     0.158 HD
ATOM     15  H   UNL d   1       3.022   0.766  -2.123  0.00  0.00     0.158 HD
ENDBRANCH   9  11
ENDBRANCH   7   9
ENDBRANCH   4   7
BRANCH   1  16
ATOM     16  C   UNL d   1      -1.807   7.107   2.396  0.00  0.00     0.010 C 
ATOM     17  C   UNL d   1      -0.904   8.072   3.169  0.00  0.00     0.015 C 
ATOM     18  C   UNL d   1      -2.501   7.826   1.235  0.00  0.00     0.015 C 
ENDBRANCH   1  16
TORSDOF 4
