REMARK  3 active torsions:
REMARK  status: ('A' for Active; 'I' for Inactive)
REMARK    1  A    between atoms: N_9  and  C_1 
REMARK    2  A    between atoms: C_3  and  C_5 
REMARK       I    between atoms: C_5  and  N_10 
REMARK       I    between atoms: C_11  and  N_9 
REMARK    3  A    between atoms: N_10  and  C_13 
ROOT
ATOM      1  C   UNL d   1      -1.815  -1.437   0.102  0.00  0.00     0.112 C 
ATOM      2  C   UNL d   1      -2.135   0.024   0.161  0.00  0.00     0.315 C 
ATOM      3  O   UNL d   1      -1.124   0.913  -0.175  0.00  0.00    -0.273 OA
ATOM      4  C   UNL d   1      -0.535  -1.831   0.072  0.00  0.00     0.050 C 
ATOM      5  C   UNL d   1       0.539  -0.850   0.004  0.00  0.00     0.002 A 
ATOM      6  C   UNL d   1       0.210   0.479  -0.228  0.00  0.00     0.090 A 
ATOM      7  C   UNL d   1       1.889  -1.212   0.100  0.00  0.00     0.043 A 
ATOM      8  C   UNL d   1       2.894  -0.254  -0.072  0.00  0.00     0.035 A 
ATOM      9  O   UNL d   1      -3.275   0.399   0.426  0.00  0.00    -0.257 OA
ATOM     10  C   UNL d   1       1.189   1.434  -0.474  0.00  0.00     0.040 A 
ATOM     11  C   UNL d   1       2.532   1.059  -0.411  0.00  0.00     0.032 A 
ENDROOT
BRANCH   8  12
ATOM     12  N   UNL d   1       4.272  -0.506   0.102  0.00  0.00    -0.323 N 
ATOM     13  C   UNL d   1       4.883  -1.669   0.568  0.00  0.00     0.277 C 
ATOM     14  O   UNL d   1       4.263  -2.708   0.813  0.00  0.00    -0.268 OA
ATOM     15  H   UNL d   1       4.889   0.289  -0.057  0.00  0.00     0.169 HD
BRANCH  13  16
ATOM     16  C   UNL d   1       6.417  -1.575   0.802  0.00  0.00     0.269 C 
ATOM     17 CL   UNL d   1       7.068   0.024   0.320  0.00  0.00    -0.073 Cl
ATOM     18 CL   UNL d   1       6.730  -1.817   2.543  0.00  0.00    -0.073 Cl
ATOM     19 CL   UNL d   1       7.221  -2.840  -0.159  0.00  0.00    -0.073 Cl
ENDBRANCH  13  16
ENDBRANCH   8  12
BRANCH   1  20
ATOM     20  N   UNL d   1      -2.920  -2.275   0.067  0.00  0.00    -0.322 N 
ATOM     21  C   UNL d   1      -2.948  -3.636  -0.174  0.00  0.00     0.218 C 
ATOM     22  O   UNL d   1      -1.970  -4.351  -0.345  0.00  0.00    -0.274 OA
ATOM     23  C   UNL d   1      -4.340  -4.204  -0.276  0.00  0.00     0.117 C 
ATOM     24  H   UNL d   1      -3.810  -1.785   0.141  0.00  0.00     0.169 HD
ENDBRANCH   1  20
TORSDOF 3
