REMARK  2 active torsions:
REMARK  status: ('A' for Active; 'I' for Inactive)
REMARK       I    between atoms: N_2  and  C_1 
REMARK    1  A    between atoms: C_4  and  C_1 
REMARK       I    between atoms: C_3  and  N_2 
REMARK       I    between atoms: N_5  and  C_3 
REMARK    2  A    between atoms: C_6  and  N_5 
ROOT
ATOM      1  C   UNL d   1       0.887  -0.064   0.007  0.00  0.00     0.261 C 
ATOM      2  N   UNL d   1       0.397   0.780  -0.976  0.00  0.00    -0.275 N 
ATOM      3  C   UNL d   1       1.013   1.437  -2.005  0.00  0.00     0.323 C 
ATOM      4  N   UNL d   1       2.370   1.346  -2.089  0.00  0.00    -0.338 N 
ATOM      5  O   UNL d   1       2.077  -0.256   0.236  0.00  0.00    -0.267 OA
ATOM      6  O   UNL d   1       0.314   2.069  -2.796  0.00  0.00    -0.247 OA
ATOM      7  H   UNL d   1      -0.604   0.895  -1.048  0.00  0.00     0.173 HD
ATOM      8  H   UNL d   1       2.861   0.830  -1.362  0.00  0.00     0.164 HD
ENDROOT
BRANCH   1   9
ATOM      9  C   UNL d   1      -0.176  -0.632   0.885  0.00  0.00     0.054 A 
ATOM     10  C   UNL d   1      -1.382  -1.148   0.385  0.00  0.00     0.049 A 
ATOM     11 CL   UNL d   1      -1.660  -1.425  -1.298  0.00  0.00    -0.083 Cl
ATOM     12  C   UNL d   1      -2.422  -1.471   1.262  0.00  0.00     0.025 A 
ATOM     13  C   UNL d   1      -2.254  -1.314   2.637  0.00  0.00     0.002 A 
ATOM     14  C   UNL d   1      -1.034  -0.867   3.142  0.00  0.00     0.001 A 
ATOM     15  C   UNL d   1       0.007  -0.531   2.271  0.00  0.00     0.019 A 
ENDBRANCH   1   9
BRANCH   4  16
ATOM     16  C   UNL d   1       3.091   2.076  -3.086  0.00  0.00     0.086 A 
ATOM     17  C   UNL d   1       4.587   2.058  -3.198  0.00  0.00     0.027 A 
ATOM     18  C   UNL d   1       3.892   3.283  -2.680  0.00  0.00     0.027 A 
ENDBRANCH   4  16
TORSDOF 2
