REMARK  5 active torsions:
REMARK  status: ('A' for Active; 'I' for Inactive)
REMARK    1  A    between atoms: C_6  and  C_1 
REMARK    2  A    between atoms: C_7  and  C_3 
REMARK    3  A    between atoms: O_10  and  C_4 
REMARK    4  A    between atoms: O_11  and  C_6 
REMARK    5  A    between atoms: O_12  and  C_7 
ROOT
ATOM      1  C   UNL d   1       1.094  -0.762  -0.005  0.00  0.00     0.114 A 
ATOM      2  S   UNL d   1       1.325   0.938  -0.001  0.00  0.00    -0.075 SA
ATOM      3  C   UNL d   1      -0.355   1.264   0.003  0.00  0.00     0.083 A 
ATOM      4  C   UNL d   1      -0.254  -1.063  -0.003  0.00  0.00     0.090 A 
ATOM      5  C   UNL d   1      -1.086   0.092   0.002  0.00  0.00     0.063 A 
ENDROOT
BRANCH   1   6
ATOM      6  C   UNL d   1       2.276  -1.599  -0.011  0.00  0.00     0.302 C 
ATOM      7  O   UNL d   1       3.438  -1.211  -0.011  0.00  0.00    -0.259 OA
BRANCH   6   8
ATOM      8  O   UNL d   1       1.924  -2.925  -0.017  0.00  0.00    -0.322 OA
ATOM      9  C   UNL d   1       3.059  -3.796  -0.026  0.00  0.00     0.213 C 
ENDBRANCH   6   8
ENDBRANCH   1   6
BRANCH   4  10
ATOM     10  O   UNL d   1      -0.753  -2.315  -0.005  0.00  0.00    -0.359 OA
ATOM     11  H   UNL d   1      -0.034  -2.977  -0.007  0.00  0.00     0.217 HD
ENDBRANCH   4  10
BRANCH   3  12
ATOM     12  C   UNL d   1      -0.782   2.653   0.007  0.00  0.00     0.300 C 
ATOM     13  O   UNL d   1      -0.046   3.632   0.010  0.00  0.00    -0.259 OA
BRANCH  12  14
ATOM     14  O   UNL d   1      -2.147   2.735   0.008  0.00  0.00    -0.322 OA
ATOM     15  C   UNL d   1      -2.620   4.083   0.011  0.00  0.00     0.213 C 
ENDBRANCH  12  14
ENDBRANCH   3  12
TORSDOF 5
