REMARK  6 active torsions:
REMARK  status: ('A' for Active; 'I' for Inactive)
REMARK    1  A    between atoms: N_7  and  C_1 
REMARK    2  A    between atoms: C_6  and  C_5 
REMARK    3  A    between atoms: C_9  and  C_6 
REMARK    4  A    between atoms: C_14  and  N_7 
REMARK       I    between atoms: N_10  and  C_9 
REMARK    5  A    between atoms: C_17  and  N_10 
REMARK    6  A    between atoms: C_18  and  C_12 
ROOT
ATOM      1  C   UNL d   1       1.800   3.041   0.873  0.00  0.00     0.148 C 
ATOM      2  N   UNL d   1       2.781   3.944   1.109  0.00  0.00    -0.306 N 
ATOM      3  C   UNL d   1       2.501   4.952   1.980  0.00  0.00     0.238 C 
ATOM      4  S   UNL d   1       0.253   3.758   1.263  0.00  0.00    -0.079 SA
ATOM      5  C   UNL d   1       1.047   4.934   2.426  0.00  0.00     0.156 C 
ATOM      6  O   UNL d   1       3.362   5.711   2.405  0.00  0.00    -0.272 OA
ATOM      7  H   UNL d   1       3.739   3.781   0.840  0.00  0.00     0.171 HD
ENDROOT
BRANCH   1   8
ATOM      8  N   UNL d   1       1.929   1.826   0.464  0.00  0.00    -0.337 N 
ATOM      9  HN  UNL d   1       1.101   1.277   0.232  1.00  0.00     0.168 HD
BRANCH   8  10
ATOM     10  C   UNL d   1       3.210   1.250   0.336  0.00  0.00     0.034 A 
ATOM     11  C   UNL d   1       4.188   1.365   1.331  0.00  0.00     0.030 A 
ATOM     12  C   UNL d   1       5.478   0.868   1.139  0.00  0.00     0.010 A 
ATOM     13  C   UNL d   1       5.820   0.171  -0.029  0.00  0.00    -0.054 A 
ATOM     14  C   UNL d   1       4.792  -0.081  -0.948  0.00  0.00     0.010 A 
ATOM     15  C   UNL d   1       3.512   0.474  -0.780  0.00  0.00     0.030 A 
BRANCH  13  16
ATOM     16  C   UNL d   1       7.274  -0.259  -0.214  0.00  0.00     0.018 C 
ATOM     17  C   UNL d   1       8.217   0.963  -0.282  0.00  0.00     0.009 C 
ATOM     18  C   UNL d   1       8.090   1.712  -1.607  0.00  0.00     0.001 C 
ATOM     19  C   UNL d   1       8.390   0.803  -2.793  0.00  0.00     0.000 C 
ATOM     20  C   UNL d   1       7.595  -0.498  -2.767  0.00  0.00     0.001 C 
ATOM     21  C   UNL d   1       7.595  -1.190  -1.400  0.00  0.00     0.009 C 
ENDBRANCH  13  16
ENDBRANCH   8  10
ENDBRANCH   1   8
BRANCH   5  22
ATOM     22  C   UNL d   1       0.509   6.351   2.442  0.00  0.00     0.128 C 
BRANCH  22  23
ATOM     23  C   UNL d   1      -0.791   6.555   3.191  0.00  0.00     0.223 C 
ATOM     24  N   UNL d   1      -1.881   5.914   2.637  0.00  0.00    -0.327 N 
ATOM     25  H   UNL d   1      -1.698   5.171   1.970  0.00  0.00     0.169 HD
ATOM     26  O   UNL d   1      -0.814   7.285   4.178  0.00  0.00    -0.273 OA
BRANCH  24  27
ATOM     27  C   UNL d   1      -3.232   6.126   2.983  0.00  0.00     0.034 A 
ATOM     28  C   UNL d   1      -3.670   7.214   3.750  0.00  0.00     0.032 A 
ATOM     29  C   UNL d   1      -5.031   7.377   4.045  0.00  0.00     0.044 A 
ATOM     30  C   UNL d   1      -5.947   6.455   3.573  0.00  0.00     0.116 A 
ATOM     31  C   UNL d   1      -5.540   5.376   2.797  0.00  0.00     0.044 A 
ATOM     32  F   UNL d   1      -7.247   6.607   3.861  0.00  0.00    -0.206 F 
ATOM     33  C   UNL d   1      -4.184   5.216   2.494  0.00  0.00     0.032 A 
ENDBRANCH  24  27
ENDBRANCH  22  23
ENDBRANCH   5  22
TORSDOF 6
