REMARK  4 active torsions:
REMARK  status: ('A' for Active; 'I' for Inactive)
REMARK    1  A    between atoms: C_2  and  C_1 
REMARK       I    between atoms: N_5  and  C_2 
REMARK    2  A    between atoms: C_11  and  N_5 
REMARK    3  A    between atoms: C_8  and  O_10 
REMARK    4  A    between atoms: O_10  and  C_12 
ROOT
ATOM      1  C   UNL d   1      -0.040   2.400  -0.567  0.00  0.00     0.260 C 
ATOM      2  N   UNL d   1      -1.090   3.302  -0.463  0.00  0.00    -0.320 N 
ATOM      3  O   UNL d   1      -0.118   1.234  -0.177  0.00  0.00    -0.267 OA
ATOM      4  H   UNL d   1      -1.091   4.072  -1.115  0.00  0.00     0.169 HD
ENDROOT
BRANCH   2   5
ATOM      5  C   UNL d   1      -2.318   2.966   0.175  0.00  0.00     0.069 A 
ATOM      6  C   UNL d   1      -3.564   3.354  -0.340  0.00  0.00     0.105 A 
ATOM      7  C   UNL d   1      -4.725   3.096   0.419  0.00  0.00     0.039 A 
ATOM      8  C   UNL d   1      -4.660   2.451   1.652  0.00  0.00     0.003 A 
ATOM      9  C   UNL d   1      -3.439   2.038   2.149  0.00  0.00     0.002 A 
ATOM     10  C   UNL d   1      -2.275   2.296   1.415  0.00  0.00     0.032 A 
BRANCH   6  11
ATOM     11  O   UNL d   1      -3.869   3.948  -1.527  0.00  0.00    -0.253 OA
BRANCH  11  12
ATOM     12  C   UNL d   1      -3.027   3.818  -2.655  0.00  0.00     0.530 C 
ATOM     13  F   UNL d   1      -2.266   2.708  -2.643  0.00  0.00    -0.144 F 
ATOM     14  F   UNL d   1      -3.788   3.789  -3.769  0.00  0.00    -0.144 F 
ATOM     15  F   UNL d   1      -2.215   4.899  -2.716  0.00  0.00    -0.144 F 
ENDBRANCH  11  12
ENDBRANCH   6  11
ENDBRANCH   2   5
BRANCH   1  16
ATOM     16  C   UNL d   1       1.164   2.872  -1.235  0.00  0.00     0.087 A 
ATOM     17  C   UNL d   1       2.142   2.021  -1.727  0.00  0.00     0.090 A 
ATOM     18  O   UNL d   1       3.161   2.743  -2.253  0.00  0.00    -0.242 OA
ATOM     19  C   UNL d   1       2.285   0.553  -1.820  0.00  0.00     0.080 C 
ATOM     20  N   UNL d   1       2.881   4.082  -2.143  0.00  0.00    -0.265 N 
ATOM     21  C   UNL d   1       1.684   4.166  -1.543  0.00  0.00     0.047 A 
ATOM     22  HN  UNL d   1       3.465   4.858  -2.455  1.00  0.00     0.194 HD
ATOM     23  C   UNL d   1       1.139   5.525  -1.318  0.00  0.00     0.071 C 
ENDBRANCH   1  16
TORSDOF 4
