REMARK  3 active torsions:
REMARK  status: ('A' for Active; 'I' for Inactive)
REMARK       I    between atoms: N_2  and  C_1 
REMARK    1  A    between atoms: C_5  and  C_1 
REMARK    2  A    between atoms: C_6  and  N_2 
REMARK    3  A    between atoms: C_7  and  C_8 
ROOT
ATOM      1  C   UNL d   1       4.817   0.429  -0.323  0.00  0.00    -0.086 C 
ATOM      2  C   UNL d   1       5.923   0.531   0.139  0.00  0.00     0.015 C 
ATOM      3  C   UNL d   1       3.456   0.301  -0.918  0.00  0.00     0.088 C 
ATOM      4  C   UNL d   1       3.433  -0.941  -1.824  0.00  0.00     0.053 C 
ATOM      5  C   UNL d   1       3.162   1.566  -1.741  0.00  0.00     0.053 C 
ENDROOT
BRANCH   3   6
ATOM      6  N   UNL d   1       2.507   0.162   0.185  0.00  0.00    -0.338 N 
ATOM      7  C   UNL d   1       1.145   0.035   0.016  0.00  0.00     0.253 C 
ATOM      8  O   UNL d   1       0.577   0.018  -1.069  0.00  0.00    -0.268 OA
ATOM      9  H   UNL d   1       2.897  -0.038   1.096  0.00  0.00     0.164 HD
BRANCH   7  10
ATOM     10  C   UNL d   1       0.348  -0.129   1.260  0.00  0.00     0.032 A 
ATOM     11  C   UNL d   1       0.728   0.481   2.455  0.00  0.00     0.017 A 
ATOM     12  C   UNL d   1      -0.035   0.287   3.610  0.00  0.00     0.009 A 
ATOM     13  C   UNL d   1      -1.195  -0.514   3.602  0.00  0.00    -0.051 A 
ATOM     14  C   UNL d   1      -1.577  -1.085   2.376  0.00  0.00     0.009 A 
ATOM     15  C   UNL d   1      -0.819  -0.892   1.216  0.00  0.00     0.017 A 
BRANCH  13  16
ATOM     16  C   UNL d   1      -1.979  -0.749   4.906  0.00  0.00    -0.024 C 
ATOM     17  C   UNL d   1      -3.213  -1.660   4.724  0.00  0.00     0.019 C 
ATOM     18  C   UNL d   1      -1.056  -1.426   5.943  0.00  0.00     0.019 C 
ATOM     19  C   UNL d   1      -2.479   0.593   5.482  0.00  0.00     0.019 C 
ENDBRANCH  13  16
ENDBRANCH   7  10
ENDBRANCH   3   6
TORSDOF 3
