REMARK  5 active torsions:
REMARK  status: ('A' for Active; 'I' for Inactive)
REMARK    1  A    between atoms: S_2  and  O_9 
REMARK    2  A    between atoms: C_11  and  S_2 
REMARK    3  A    between atoms: N_4  and  C_12 
REMARK    4  A    between atoms: O_9  and  C_23 
REMARK    5  A    between atoms: C_23  and  C_10 
ROOT
ATOM      1  C   UNL d   1      -0.805   0.065  -0.303  0.00  0.00     0.048 C 
ATOM      2  N   UNL d   1      -1.740  -1.073  -0.452  0.00  0.00    -0.190 NA
ATOM      3  O   UNL d   1      -2.953  -0.670   0.264  0.00  0.00    -0.295 OA
ATOM      4  C   UNL d   1       0.330   0.117  -1.372  0.00  0.00     0.012 C 
ATOM      5  C   UNL d   1      -0.097  -0.043   1.101  0.00  0.00     0.012 C 
ATOM      6  C   UNL d   1      -1.751   1.267  -0.379  0.00  0.00     0.064 C 
ATOM      7  C   UNL d   1      -3.073   0.756   0.171  0.00  0.00     0.172 C 
ATOM      8  C   UNL d   1       1.846  -1.300   0.075  0.00  0.00    -0.013 C 
ATOM      9  C   UNL d   1       1.931   1.208   0.254  0.00  0.00    -0.013 C 
ATOM     10  C   UNL d   1       1.252   1.330  -1.119  0.00  0.00     0.011 C 
ATOM     11  C   UNL d   1       1.190  -1.167  -1.306  0.00  0.00     0.011 C 
ATOM     12  C   UNL d   1       0.853   1.152   1.347  0.00  0.00     0.011 C 
ATOM     13  C   UNL d   1       0.762  -1.329   1.166  0.00  0.00     0.011 C 
ATOM     14  C   UNL d   1       2.761  -0.086   0.299  0.00  0.00     0.009 C 
ATOM     15  C   UNL d   1      -2.177  -1.405  -1.809  0.00  0.00     0.145 C 
ENDROOT
BRANCH   7  16
ATOM     16  C   UNL d   1      -3.439   1.331   1.534  0.00  0.00     0.224 C 
BRANCH  16  17
ATOM     17  O   UNL d   1      -3.570   2.747   1.456  0.00  0.00    -0.269 OA
BRANCH  17  18
ATOM     18  S   UNL d   1      -3.892   3.519   2.853  0.00  0.00     0.298 S 
ATOM     19  O   UNL d   1      -5.223   3.134   3.270  0.00  0.00    -0.193 OA
ATOM     20  O   UNL d   1      -2.748   3.360   3.731  0.00  0.00    -0.193 OA
BRANCH  18  21
ATOM     21  C   UNL d   1      -3.945   5.243   2.404  0.00  0.00     0.086 A 
ATOM     22  C   UNL d   1      -5.120   5.979   2.604  0.00  0.00     0.028 A 
ATOM     23  C   UNL d   1      -5.135   7.349   2.331  0.00  0.00     0.037 A 
ATOM     24  C   UNL d   1      -3.970   7.976   1.864  0.00  0.00     0.102 A 
ATOM     25  C   UNL d   1      -2.794   7.236   1.656  0.00  0.00     0.037 A 
ATOM     26  C   UNL d   1      -2.784   5.863   1.926  0.00  0.00     0.028 A 
BRANCH  24  27
ATOM     27  N   UNL d   1      -3.979   9.422   1.604  0.00  0.00    -0.116 N 
ATOM     28  O   UNL d   1      -5.037  10.036   1.799  0.00  0.00    -0.532 OA
ATOM     29  O   UNL d   1      -2.927   9.942   1.205  0.00  0.00    -0.532 OA
ENDBRANCH  24  27
ENDBRANCH  18  21
ENDBRANCH  17  18
ENDBRANCH  16  17
ENDBRANCH   7  16
TORSDOF 5
