REMARK  4 active torsions:
REMARK  status: ('A' for Active; 'I' for Inactive)
REMARK    1  A    between atoms: C_7  and  N_1 
REMARK    2  A    between atoms: C_5  and  C_2 
REMARK    3  A    between atoms: O_11  and  C_5 
REMARK    4  A    between atoms: C_10  and  C_7 
ROOT
ATOM      1  N   UNL d   1      -0.069  -1.065  -0.088  0.00  0.00    -0.347 N 
ATOM      2  C   UNL d   1      -1.517   0.762  -0.032  0.00  0.00     0.110 C 
ATOM      3  C   UNL d   1       0.678  -0.003  -0.558  0.00  0.00     0.221 C 
ATOM      4  C   UNL d   1      -1.306  -0.641   0.520  0.00  0.00     0.141 C 
ATOM      5  C   UNL d   1      -0.099   1.263  -0.300  0.00  0.00     0.119 C 
ATOM      6  O   UNL d   1       1.794  -0.044  -1.050  0.00  0.00    -0.273 OA
ENDROOT
BRANCH   1   7
ATOM      7  C   UNL d   1       0.433  -2.421   0.019  0.00  0.00     0.164 C 
BRANCH   7   8
ATOM      8  C   UNL d   1       1.208  -2.651   1.295  0.00  0.00    -0.040 A 
ATOM      9  C   UNL d   1       0.575  -3.121   2.452  0.00  0.00     0.009 A 
ATOM     10  C   UNL d   1       1.304  -3.316   3.630  0.00  0.00     0.007 A 
ATOM     11  C   UNL d   1       2.677  -3.045   3.672  0.00  0.00    -0.062 A 
ATOM     12  C   UNL d   1       3.310  -2.572   2.518  0.00  0.00     0.007 A 
ATOM     13  C   UNL d   1       3.446  -3.246   4.944  0.00  0.00     0.048 C 
ATOM     14  C   UNL d   1       2.581  -2.373   1.343  0.00  0.00     0.009 A 
ENDBRANCH   7   8
ENDBRANCH   1   7
BRANCH   2  15
ATOM     15  C   UNL d   1      -2.343   0.757  -1.303  0.00  0.00     0.145 C 
ATOM     16  O   UNL d   1      -2.801  -0.239  -1.839  0.00  0.00    -0.650 OA
BRANCH  15  17
ATOM     17  O   UNL d   1      -2.585   1.998  -1.786  0.00  0.00    -0.776 OA
ATOM     18  H   UNL d   1      -2.200   2.732  -1.271  0.00  0.00     0.167 HD
ENDBRANCH  15  17
ENDBRANCH   2  15
TORSDOF 4
