REMARK  7 active torsions:
REMARK  status: ('A' for Active; 'I' for Inactive)
REMARK    1  A    between atoms: C_12  and  C_1 
REMARK    2  A    between atoms: N_2  and  C_13 
REMARK    3  A    between atoms: C_15  and  N_6 
REMARK    4  A    between atoms: C_14  and  C_7 
REMARK    5  A    between atoms: C_16  and  C_11 
REMARK    6  A    between atoms: O_23  and  C_12 
REMARK    7  A    between atoms: C_31  and  O_23 
ROOT
ATOM      1  C   UNL d   1       4.307   3.177  -0.069  0.00  0.00     0.056 A 
ATOM      2  C   UNL d   1       2.078   1.446  -0.044  0.00  0.00     0.039 A 
ATOM      3  C   UNL d   1       4.140   2.220  -1.077  0.00  0.00     0.034 A 
ATOM      4  C   UNL d   1       3.330   3.276   0.911  0.00  0.00     0.034 A 
ATOM      5  C   UNL d   1       2.261   2.386   0.954  0.00  0.00     0.032 A 
ATOM      6  C   UNL d   1       3.028   1.368  -1.071  0.00  0.00     0.032 A 
ENDROOT
BRANCH   1   7
ATOM      7  N   UNL d   1       5.429   4.053  -0.088  0.00  0.00    -0.260 N 
ATOM      8  N   UNL d   1       6.000   4.294  -1.301  0.00  0.00    -0.297 N 
ATOM      9  C   UNL d   1       6.761   5.373  -1.140  0.00  0.00     0.036 C 
ATOM     10  HN  UNL d   1       5.869   3.757  -2.158  1.00  0.00     0.187 HD
ATOM     11  C   UNL d   1       6.852   5.706   0.228  0.00  0.00     0.055 C 
ATOM     12  C   UNL d   1       6.066   4.793   0.925  0.00  0.00     0.044 C 
BRANCH   9  13
ATOM     13  C   UNL d   1       7.431   6.057  -2.323  0.00  0.00    -0.007 C 
ATOM     14  C   UNL d   1       7.014   5.432  -3.674  0.00  0.00     0.021 C 
ATOM     15  C   UNL d   1       7.034   7.548  -2.357  0.00  0.00     0.021 C 
ATOM     16  C   UNL d   1       8.962   5.951  -2.204  0.00  0.00     0.021 C 
ENDBRANCH   9  13
BRANCH  12  17
ATOM     17  C   UNL d   1       5.998   4.610   2.452  0.00  0.00    -0.007 C 
ATOM     18  C   UNL d   1       5.872   3.134   2.892  0.00  0.00     0.021 C 
ATOM     19  C   UNL d   1       7.337   5.081   3.095  0.00  0.00     0.021 C 
ATOM     20  C   UNL d   1       4.931   5.524   3.100  0.00  0.00     0.021 C 
ENDBRANCH  12  17
ENDBRANCH   1   7
BRANCH   2  21
ATOM     21  N   UNL d   1       0.917   0.612  -0.022  0.00  0.00    -0.319 N 
ATOM     22  C   UNL d   1      -0.358   0.982   0.436  0.00  0.00     0.029 A 
ATOM     23  C   UNL d   1      -1.204  -0.120   0.328  0.00  0.00     0.064 A 
ATOM     24  C   UNL d   1      -0.728   2.358   0.909  0.00  0.00     0.070 C 
ATOM     25  C   UNL d   1      -0.442  -1.161  -0.249  0.00  0.00     0.044 A 
ATOM     26  C   UNL d   1       0.855  -0.724  -0.416  0.00  0.00     0.014 A 
ATOM     27  C   UNL d   1       2.023  -1.566  -0.810  0.00  0.00     0.068 C 
BRANCH  23  28
ATOM     28  C   UNL d   1      -2.595  -0.190   0.778  0.00  0.00     0.295 C 
ATOM     29  O   UNL d   1      -3.182   0.720   1.353  0.00  0.00    -0.259 OA
BRANCH  28  30
ATOM     30  O   UNL d   1      -3.126  -1.433   0.585  0.00  0.00    -0.318 OA
BRANCH  30  31
ATOM     31  C   UNL d   1      -4.272  -1.722   1.392  0.00  0.00     0.174 C 
ATOM     32  C   UNL d   1      -3.785  -2.233   2.737  0.00  0.00     0.034 C 
ENDBRANCH  30  31
ENDBRANCH  28  30
ENDBRANCH  23  28
ENDBRANCH   2  21
TORSDOF 7
