REMARK  6 active torsions:
REMARK  status: ('A' for Active; 'I' for Inactive)
REMARK    1  A    between atoms: N_2  and  S_1 
REMARK    2  A    between atoms: C_4  and  S_1 
REMARK    3  A    between atoms: C_9  and  C_3 
REMARK    4  A    between atoms: C_5  and  C_7 
REMARK    5  A    between atoms: C_6  and  C_8 
REMARK    6  A    between atoms: O_25  and  C_9 
ROOT
ATOM      1  C   UNL d   1       0.461  -1.694   0.241  0.00  0.00     0.082 A 
ATOM      2  C   UNL d   1       0.918  -4.044   0.659  0.00  0.00     0.050 A 
ATOM      3  C   UNL d   1      -1.379  -3.190   0.759  0.00  0.00     0.050 A 
ATOM      4  C   UNL d   1       1.371  -2.749   0.374  0.00  0.00     0.041 A 
ATOM      5  C   UNL d   1      -0.908  -1.907   0.436  0.00  0.00     0.041 A 
ATOM      6  C   UNL d   1      -0.460  -4.253   0.846  0.00  0.00     0.032 A 
ENDROOT
BRANCH   1   7
ATOM      7  S   UNL d   1       1.065  -0.044  -0.006  0.00  0.00     0.269 S 
ATOM      8  O   UNL d   1       0.446   0.776   1.021  0.00  0.00    -0.200 OA
ATOM      9  O   UNL d   1       2.500  -0.054  -0.198  0.00  0.00    -0.200 OA
BRANCH   7  10
ATOM     10  N   UNL d   1       0.419   0.505  -1.490  0.00  0.00    -0.241 N 
ATOM     11  C   UNL d   1       0.801   0.095  -2.754  0.00  0.00     0.125 A 
ATOM     12  C   UNL d   1       0.105   0.915  -3.639  0.00  0.00     0.038 A 
ATOM     13  C   UNL d   1      -0.697   1.813  -2.897  0.00  0.00     0.021 A 
ATOM     14  C   UNL d   1      -0.479   1.542  -1.567  0.00  0.00     0.110 A 
BRANCH  11  15
ATOM     15  C   UNL d   1       1.728  -0.960  -3.063  0.00  0.00     0.310 C 
ATOM     16  O   UNL d   1       1.996  -1.908  -2.343  0.00  0.00    -0.258 OA
BRANCH  15  17
ATOM     17  O   UNL d   1       2.230  -0.778  -4.317  0.00  0.00    -0.321 OA
ATOM     18  C   UNL d   1       3.155  -1.785  -4.731  0.00  0.00     0.213 C 
ENDBRANCH  15  17
ENDBRANCH  11  15
ENDBRANCH   7  10
ENDBRANCH   1   7
BRANCH   2  19
ATOM     19  C   UNL d   1       1.888  -5.196   0.798  0.00  0.00     0.417 C 
ATOM     20  F   UNL d   1       3.191  -4.841   0.627  0.00  0.00    -0.166 F 
ATOM     21  F   UNL d   1       1.818  -5.778   2.027  0.00  0.00    -0.166 F 
ATOM     22  F   UNL d   1       1.647  -6.190  -0.101  0.00  0.00    -0.166 F 
ENDBRANCH   2  19
BRANCH   3  23
ATOM     23  C   UNL d   1      -2.840  -3.434   1.067  0.00  0.00     0.417 C 
ATOM     24  F   UNL d   1      -3.602  -2.308   0.996  0.00  0.00    -0.166 F 
ATOM     25  F   UNL d   1      -3.411  -4.329   0.217  0.00  0.00    -0.166 F 
ATOM     26  F   UNL d   1      -3.024  -3.933   2.320  0.00  0.00    -0.166 F 
ENDBRANCH   3  23
TORSDOF 6
