REMARK  3 active torsions:
REMARK  status: ('A' for Active; 'I' for Inactive)
REMARK    1  A    between atoms: C_8  and  C_2 
REMARK    2  A    between atoms: C_7  and  C_3 
REMARK    3  A    between atoms: O_14  and  C_7 
ROOT
ATOM      1  C   UNL d   1      -1.230   0.153   0.042  0.00  0.00     0.132 C 
ATOM      2  C   UNL d   1       0.561  -0.538   1.164  0.00  0.00     0.090 C 
ATOM      3  C   UNL d   1      -2.484   0.160  -0.417  0.00  0.00     0.123 C 
ATOM      4  O   UNL d   1      -0.628  -0.979   0.570  0.00  0.00    -0.306 OA
ATOM      5  C   UNL d   1       0.828   0.762   0.986  0.00  0.00     0.095 C 
ATOM      6  C   UNL d   1      -0.280   1.284   0.177  0.00  0.00     0.208 C 
ATOM      7  O   UNL d   1      -0.303   2.378  -0.341  0.00  0.00    -0.285 OA
ENDROOT
BRANCH   2   8
ATOM      8  C   UNL d   1       1.339  -1.490   1.969  0.00  0.00    -0.002 A 
ATOM      9  C   UNL d   1       0.747  -2.663   2.464  0.00  0.00     0.016 A 
ATOM     10  C   UNL d   1       1.465  -3.538   3.288  0.00  0.00     0.024 A 
ATOM     11  C   UNL d   1       2.787  -3.253   3.619  0.00  0.00     0.034 A 
ATOM     12  C   UNL d   1       3.402  -2.110   3.119  0.00  0.00     0.024 A 
ATOM     13 CL   UNL d   1       3.661  -4.309   4.657  0.00  0.00    -0.084 Cl
ATOM     14  C   UNL d   1       2.682  -1.237   2.296  0.00  0.00     0.016 A 
ENDBRANCH   2   8
BRANCH   3  15
ATOM     15  C   UNL d   1      -3.231   1.405  -0.655  0.00  0.00     0.285 C 
ATOM     16  O   UNL d   1      -3.066   2.448  -0.047  0.00  0.00    -0.260 OA
BRANCH  15  17
ATOM     17  O   UNL d   1      -4.223   1.147  -1.546  0.00  0.00    -0.323 OA
ATOM     18  C   UNL d   1      -5.109   2.254  -1.734  0.00  0.00     0.213 C 
ENDBRANCH  15  17
ENDBRANCH   3  15
TORSDOF 3
