REMARK  4 active torsions:
REMARK  status: ('A' for Active; 'I' for Inactive)
REMARK    1  A    between atoms: C_8  and  C_3 
REMARK    2  A    between atoms: N_4  and  C_9 
REMARK    3  A    between atoms: C_6  and  C_10 
REMARK       I    between atoms: N_12  and  C_8 
REMARK       I    between atoms: C_10  and  N_13 
REMARK    4  A    between atoms: N_13  and  N_12 
ROOT
ATOM      1  C   UNL d   1      -4.571   0.604   0.185  0.00  0.00     0.277 C 
ATOM      2  N   UNL d   1      -4.865   1.949   0.339  0.00  0.00    -0.263 N 
ATOM      3  O   UNL d   1      -5.486  -0.224   0.177  0.00  0.00    -0.265 OA
ATOM      4  H   UNL d   1      -4.161   2.684   0.338  0.00  0.00     0.190 HD
ENDROOT
BRANCH   1   5
ATOM      5  C   UNL d   1      -3.169   0.231   0.056  0.00  0.00     0.075 A 
ATOM      6  S   UNL d   1      -1.878   1.358   0.148  0.00  0.00    -0.083 SA
ATOM      7  C   UNL d   1      -0.699   0.142  -0.039  0.00  0.00     0.023 A 
ATOM      8  C   UNL d   1      -1.272  -1.109  -0.186  0.00  0.00    -0.038 A 
ATOM      9  C   UNL d   1       0.761   0.343  -0.012  0.00  0.00    -0.012 A 
ATOM     10  C   UNL d   1      -2.692  -1.055  -0.136  0.00  0.00     0.033 A 
ATOM     11  C   UNL d   1      -0.408  -2.320  -0.370  0.00  0.00     0.044 C 
ATOM     12  C   UNL d   1       0.907  -2.164   0.412  0.00  0.00     0.044 C 
ATOM     13  C   UNL d   1       1.564  -0.812   0.175  0.00  0.00    -0.046 A 
ATOM     14  C   UNL d   1       2.961  -0.702   0.205  0.00  0.00     0.008 A 
ATOM     15  C   UNL d   1       3.565   0.538   0.015  0.00  0.00     0.001 A 
ATOM     16  C   UNL d   1       2.781   1.674  -0.189  0.00  0.00     0.001 A 
ATOM     17  C   UNL d   1       1.385   1.580  -0.199  0.00  0.00     0.013 A 
ENDBRANCH   1   5
BRANCH   2  18
ATOM     18  N   UNL d   1      -6.208   2.315   0.502  0.00  0.00    -0.263 N 
ATOM     19  C   UNL d   1      -6.583   3.632   0.342  0.00  0.00     0.272 C 
ATOM     20  O   UNL d   1      -5.800   4.541   0.091  0.00  0.00    -0.266 OA
ATOM     21  H   UNL d   1      -6.873   1.541   0.529  0.00  0.00     0.190 HD
BRANCH  19  22
ATOM     22  C   UNL d   1      -8.026   3.918   0.551  0.00  0.00     0.066 A 
ATOM     23  C   UNL d   1      -8.707   4.895  -0.178  0.00  0.00     0.118 A 
ATOM     24  C   UNL d   1     -10.048   5.215   0.097  0.00  0.00     0.037 A 
ATOM     25  C   UNL d   1     -10.715   4.545   1.122  0.00  0.00     0.002 A 
ATOM     26  C   UNL d   1     -10.048   3.568   1.861  0.00  0.00     0.001 A 
ATOM     27  C   UNL d   1      -8.712   3.260   1.586  0.00  0.00     0.020 A 
BRANCH  23  28
ATOM     28  N   UNL d   1      -8.087   5.553  -1.310  0.00  0.00    -0.115 N 
ATOM     29  O   UNL d   1      -7.742   4.829  -2.254  0.00  0.00    -0.532 OA
ATOM     30  O   UNL d   1      -8.054   6.790  -1.292  0.00  0.00    -0.532 OA
ENDBRANCH  23  28
ENDBRANCH  19  22
ENDBRANCH   2  18
TORSDOF 4
