REMARK  2 active torsions:
REMARK  status: ('A' for Active; 'I' for Inactive)
REMARK    1  A    between atoms: C_3  and  CA_2 
REMARK    2  A    between atoms: OXT_9  and  C_3 
ROOT
ATOM      1  N   UNL d   1       2.410   0.668   0.423  0.00  0.00     0.102 N 
ATOM      2  CA  UNL d   1       2.266  -0.826   0.538  0.00  0.00     0.321 C 
ATOM      3  C   UNL d   1       1.181  -1.480  -0.332  0.00  0.00     0.086 C 
ATOM      4  C   UNL d   1      -0.108  -0.720  -0.184  0.00  0.00    -0.048 A 
ATOM      5  C   UNL d   1       1.325   1.317  -0.335  0.00  0.00     0.310 C 
ATOM      6  C   UNL d   1      -0.024   0.681  -0.132  0.00  0.00    -0.024 A 
ATOM      7  C   UNL d   1      -1.347  -1.357  -0.086  0.00  0.00     0.008 A 
ATOM      8  C   UNL d   1      -1.189   1.436   0.030  0.00  0.00     0.009 A 
ATOM      9  C   UNL d   1      -2.501  -0.597   0.082  0.00  0.00     0.001 A 
ATOM     10  C   UNL d   1      -2.423   0.795   0.144  0.00  0.00     0.001 A 
ATOM     11  H   UNL d   1       3.282   0.861  -0.076  0.00  0.00     0.317 HD
ENDROOT
BRANCH   2  12
ATOM     12  C   UNL d   1       2.008  -1.165   2.022  0.00  0.00     0.174 C 
ATOM     13  O   UNL d   1       1.839  -2.291   2.468  0.00  0.00    -0.648 OA
BRANCH  12  14
ATOM     14  OXT UNL d   1       2.031  -0.054   2.805  0.00  0.00    -0.775 OA
ATOM     15  HXT UNL d   1       2.160   0.701   2.178  0.00  0.00     0.167 HD
ENDBRANCH  12  14
ENDBRANCH   2  12
TORSDOF 2
