REMARK  5 active torsions:
REMARK  status: ('A' for Active; 'I' for Inactive)
REMARK    1  A    between atoms: N_14  and  C_2 
REMARK    2  A    between atoms: N_11  and  C_15 
REMARK    3  A    between atoms: C_19  and  N_14 
REMARK    4  A    between atoms: C_15  and  C_16 
REMARK    5  A    between atoms: C_16  and  C_19 
ROOT
ATOM      1  C   UNL d   1      -0.175  -0.420   0.645  0.00  0.00     0.069 A 
ATOM      2  C   UNL d   1      -1.226  -1.339   0.759  0.00  0.00     0.100 A 
ATOM      3  N   UNL d   1      -2.482  -0.879   0.586  0.00  0.00    -0.342 N 
ATOM      4  HN  UNL d   1      -3.281  -1.511   0.646  1.00  0.00     0.167 HD
ATOM      5  S   UNL d   1       1.526  -0.674   0.780  0.00  0.00    -0.096 SA
ATOM      6  C   UNL d   1      -0.458   0.917   0.380  0.00  0.00     0.054 A 
ATOM      7  C   UNL d   1       1.869   0.976   0.500  0.00  0.00     0.053 A 
ATOM      8  C   UNL d   1       0.723   1.713   0.308  0.00  0.00     0.038 A 
ATOM      9  N   UNL d   1      -1.723   1.376   0.218  0.00  0.00    -0.351 N 
ATOM     10  HN  UNL d   1      -1.939   2.354   0.027  1.00  0.00     0.166 HD
ATOM     11  C   UNL d   1      -2.661   0.430   0.333  0.00  0.00     0.182 A 
ENDROOT
BRANCH   2  12
ATOM     12  N   UNL d   1      -0.991  -2.683   1.069  0.00  0.00    -0.278 NA
ATOM     13  H   UNL d   1      -0.017  -2.915   0.904  0.00  0.00     0.129 HD
BRANCH  12  14
ATOM     14  C   UNL d   1      -1.940  -3.652   0.529  0.00  0.00     0.095 C 
BRANCH  14  15
ATOM     15  C   UNL d   1      -1.457  -5.054   0.923  0.00  0.00     0.045 C 
BRANCH  15  16
ATOM     16  C   UNL d   1      -2.244  -6.210   0.290  0.00  0.00     0.273 C 
BRANCH  16  17
ATOM     17  N   UNL d   1      -2.444  -6.125  -1.159  0.00  0.00     0.092 N 
ATOM     18  C   UNL d   1      -3.260  -7.245  -1.673  0.00  0.00     0.298 C 
ATOM     19  C   UNL d   1      -2.458  -8.509  -2.020  0.00  0.00     0.198 C 
ATOM     20  O   UNL d   1      -1.429  -8.211  -2.969  0.00  0.00    -0.388 OA
ATOM     21  C   UNL d   1      -0.518  -7.258  -2.415  0.00  0.00     0.198 C 
ATOM     22  C   UNL d   1      -1.230  -5.964  -1.983  0.00  0.00     0.298 C 
ENDBRANCH  16  17
ENDBRANCH  15  16
ENDBRANCH  14  15
ENDBRANCH  12  14
ENDBRANCH   2  12
TORSDOF 5
