REMARK  7 active torsions:
REMARK  status: ('A' for Active; 'I' for Inactive)
REMARK    1  A    between atoms: O_2  and  C_1 
REMARK    2  A    between atoms: C_6  and  C_1 
REMARK    3  A    between atoms: C_3  and  O_2 
REMARK    4  A    between atoms: C_4  and  C_10 
REMARK    5  A    between atoms: O_11  and  C_4 
REMARK    6  A    between atoms: C_9  and  C_7 
REMARK    7  A    between atoms: C_10  and  C_9 
ROOT
ATOM      1  C   UNL d   1       0.980  -2.372  -0.087  0.00  0.00     0.085 A 
ATOM      2  C   UNL d   1       1.780  -2.578   1.049  0.00  0.00    -0.024 A 
ATOM      3  C   UNL d   1       0.686  -3.423  -0.963  0.00  0.00     0.038 A 
ATOM      4  C   UNL d   1       2.256  -3.880   1.292  0.00  0.00     0.010 A 
ATOM      5  C   UNL d   1       1.172  -4.703  -0.704  0.00  0.00     0.003 A 
ATOM      6  C   UNL d   1       1.961  -4.930   0.419  0.00  0.00     0.001 A 
ENDROOT
BRANCH   1   7
ATOM      7  O   UNL d   1       0.582  -1.054  -0.404  0.00  0.00    -0.274 OA
BRANCH   7   8
ATOM      8  C   UNL d   1      -0.694  -0.811  -0.900  0.00  0.00     0.298 C 
ATOM      9  O   UNL d   1      -1.627  -1.599  -0.934  0.00  0.00    -0.259 OA
BRANCH   8  10
ATOM     10  C   UNL d   1      -0.779   0.587  -1.410  0.00  0.00     0.039 A 
ATOM     11  C   UNL d   1      -2.031   1.065  -1.824  0.00  0.00     0.017 A 
ATOM     12  C   UNL d   1      -2.162   2.364  -2.321  0.00  0.00     0.001 A 
ATOM     13  C   UNL d   1      -1.044   3.192  -2.414  0.00  0.00     0.000 A 
ATOM     14  C   UNL d   1       0.208   2.721  -2.017  0.00  0.00     0.001 A 
ATOM     15  C   UNL d   1       0.343   1.422  -1.517  0.00  0.00     0.017 A 
ENDBRANCH   8  10
ENDBRANCH   7   8
ENDBRANCH   1   7
BRANCH   2  16
ATOM     16  C   UNL d   1       2.104  -1.477   2.035  0.00  0.00     0.052 C 
BRANCH  16  17
ATOM     17  C   UNL d   1       3.607  -1.236   2.189  0.00  0.00     0.115 C 
BRANCH  17  18
ATOM     18  C   UNL d   1       3.894  -0.175   3.223  0.00  0.00     0.139 C 
ATOM     19  O   UNL d   1       3.055   0.412   3.887  0.00  0.00    -0.650 OA
BRANCH  18  20
ATOM     20  O   UNL d   1       5.219   0.066   3.359  0.00  0.00    -0.776 OA
ATOM     21  H   UNL d   1       5.783  -0.477   2.776  0.00  0.00     0.167 HD
ENDBRANCH  18  20
ENDBRANCH  17  18
ENDBRANCH  16  17
ENDBRANCH   2  16
TORSDOF 7
