REMARK  4 active torsions:
REMARK  status: ('A' for Active; 'I' for Inactive)
REMARK    1  A    between atoms: S_2  and  C_1 
REMARK    2  A    between atoms: C_8  and  S_2 
REMARK    3  A    between atoms: C_7  and  C_4 
REMARK       I    between atoms: N_12  and  C_7 
REMARK    4  A    between atoms: N_17  and  N_12 
ROOT
ATOM      1  C   UNL d   1       0.694   1.294   0.026  0.00  0.00     0.078 A 
ATOM      2  C   UNL d   1       1.305  -0.022  -0.018  0.00  0.00    -0.017 A 
ATOM      3  C   UNL d   1       0.327  -1.026  -0.042  0.00  0.00     0.081 A 
ATOM      4  S   UNL d   1      -1.259  -0.367  -0.043  0.00  0.00    -0.094 SA
ATOM      5  C   UNL d   1      -0.684   1.226   0.007  0.00  0.00     0.075 A 
ATOM      6  C   UNL d   1       2.776  -0.331  -0.022  0.00  0.00     0.051 C 
ENDROOT
BRANCH   1   7
ATOM      7  S   UNL d   1       1.487   2.852   0.079  0.00  0.00     0.207 S 
ATOM      8  O   UNL d   1       0.492   3.755   0.618  0.00  0.00    -0.217 OA
ATOM      9  O   UNL d   1       2.757   2.641   0.737  0.00  0.00    -0.217 OA
BRANCH   7  10
ATOM     10  C   UNL d   1       1.769   3.288  -1.620  0.00  0.00     0.064 A 
ATOM     11  C   UNL d   1       0.822   4.069  -2.296  0.00  0.00     0.025 A 
ATOM     12  C   UNL d   1       1.054   4.441  -3.623  0.00  0.00     0.025 A 
ATOM     13  C   UNL d   1       2.229   4.042  -4.260  0.00  0.00     0.034 A 
ATOM     14  C   UNL d   1       3.183   3.285  -3.577  0.00  0.00     0.025 A 
ATOM     15 CL   UNL d   1       2.509   4.494  -5.896  0.00  0.00    -0.084 Cl
ATOM     16  C   UNL d   1       2.958   2.912  -2.249  0.00  0.00     0.025 A 
ENDBRANCH   7  10
ENDBRANCH   1   7
BRANCH   3  17
ATOM     17  C   UNL d   1       0.511  -2.484  -0.076  0.00  0.00     0.273 C 
ATOM     18  O   UNL d   1       1.611  -3.036  -0.132  0.00  0.00    -0.266 OA
ATOM     19  N   UNL d   1      -0.664  -3.242  -0.049  0.00  0.00    -0.289 N 
ATOM     20  H   UNL d   1      -1.550  -2.765   0.102  0.00  0.00     0.183 HD
BRANCH  19  21
ATOM     21  N   UNL d   1      -0.624  -4.653  -0.004  0.00  0.00    -0.247 NA
ATOM     22  H   UNL d   1       0.365  -4.926   0.083  0.00  0.00     0.143 HD
ATOM     23  H   UNL d   1      -0.908  -5.010  -0.920  0.00  0.00     0.143 HD
ENDBRANCH  19  21
ENDBRANCH   3  17
TORSDOF 4
