REMARK  5 active torsions:
REMARK  status: ('A' for Active; 'I' for Inactive)
REMARK    1  A    between atoms: C_5  and  C_1 
REMARK    2  A    between atoms: N_4  and  C_2 
REMARK       I    between atoms: C_3  and  N_4 
REMARK    3  A    between atoms: C_6  and  C_3 
REMARK       I    between atoms: N_8  and  C_5 
REMARK    4  A    between atoms: C_20  and  N_8 
REMARK    5  A    between atoms: C_10  and  C_20 
ROOT
ATOM      1  C   UNL d   1      -0.014  -1.030   0.346  0.00  0.00     0.097 C 
ATOM      2  C   UNL d   1      -1.070  -1.224  -0.562  0.00  0.00     0.053 C 
ATOM      3  C   UNL d   1       0.416   0.266   0.637  0.00  0.00     0.134 C 
ATOM      4  F   UNL d   1       1.517   0.485   1.373  0.00  0.00    -0.205 F 
ATOM      5  C   UNL d   1      -1.873  -0.125  -0.895  0.00  0.00     0.031 C 
ATOM      6  C   UNL d   1      -1.504   1.165  -0.494  0.00  0.00     0.005 C 
ATOM      7  C   UNL d   1      -0.313   1.366   0.201  0.00  0.00     0.043 C 
ENDROOT
BRANCH   1   8
ATOM      8  C   UNL d   1       0.353  -2.125   1.279  0.00  0.00     0.257 C 
ATOM      9  N   UNL d   1       1.646  -2.167   1.741  0.00  0.00    -0.352 N 
ATOM     10  H   UNL d   1       2.339  -1.529   1.374  0.00  0.00     0.163 HD
ATOM     11  O   UNL d   1      -0.514  -2.906   1.660  0.00  0.00    -0.267 OA
BRANCH   9  12
ATOM     12  C   UNL d   1       2.030  -3.168   2.705  0.00  0.00     0.169 C 
BRANCH  12  13
ATOM     13  C   UNL d   1       3.512  -3.133   2.864  0.00  0.00     0.000 A 
ATOM     14  S   UNL d   1       4.505  -4.080   1.837  0.00  0.00    -0.105 SA
ATOM     15  C   UNL d   1       5.929  -3.506   2.583  0.00  0.00     0.050 A 
ATOM     16  C   UNL d   1       5.661  -2.617   3.600  0.00  0.00     0.008 A 
ATOM     17  C   UNL d   1       4.262  -2.402   3.764  0.00  0.00     0.017 A 
ENDBRANCH  12  13
ENDBRANCH   9  12
ENDBRANCH   1   8
BRANCH   2  18
ATOM     18  N   UNL d   1      -1.327  -2.455  -1.233  0.00  0.00    -0.321 N 
ATOM     19  C   UNL d   1      -0.328  -3.393  -1.506  0.00  0.00     0.263 C 
ATOM     20  O   UNL d   1       0.854  -3.229  -1.182  0.00  0.00    -0.267 OA
ATOM     21  H   UNL d   1      -2.183  -2.555  -1.752  0.00  0.00     0.169 HD
BRANCH  19  22
ATOM     22  C   UNL d   1      -0.706  -4.562  -2.294  0.00  0.00     0.072 A 
ATOM     23  S   UNL d   1      -2.194  -4.696  -3.127  0.00  0.00    -0.097 SA
ATOM     24  C   UNL d   1      -1.731  -6.181  -3.848  0.00  0.00     0.050 A 
ATOM     25  C   UNL d   1      -0.486  -6.593  -3.434  0.00  0.00     0.009 A 
ATOM     26  C   UNL d   1       0.096  -5.663  -2.530  0.00  0.00     0.025 A 
ENDBRANCH  19  22
ENDBRANCH   2  18
TORSDOF 5
