REMARK  1 active torsions:
REMARK  status: ('A' for Active; 'I' for Inactive)
REMARK       I    between atoms: N_2  and  C_1 
REMARK       I    between atoms: N_4  and  C_1 
REMARK       I    between atoms: C_3  and  N_2 
REMARK       I    between atoms: N_11  and  C_3 
REMARK    1  A    between atoms: C_5  and  N_4 
ROOT
ATOM      1  C   UNL d   1       0.977  -0.008   0.020  0.00  0.00     0.678 C 
ATOM      2  N   UNL d   1       2.130  -0.261  -0.665  0.00  0.00    -0.167 N 
ATOM      3  C   UNL d   1       3.370  -0.691  -0.335  0.00  0.00     0.163 C 
ATOM      4  N   UNL d   1       0.105   0.737  -0.733  0.00  0.00    -0.189 N 
ATOM      5  N   UNL d   1       0.732  -0.436   1.214  0.00  0.00    -0.234 N 
ATOM      6  HN  UNL d   1      -0.109  -0.230   1.752  1.00  0.00     0.174 HD
ATOM      7  N   UNL d   1       3.933  -0.677   0.818  0.00  0.00    -0.376 N 
ATOM      8  HN  UNL d   1       4.856  -1.057   1.029  1.00  0.00     0.158 HD
ATOM      9  N   UNL d   1       4.077  -1.157  -1.391  0.00  0.00    -0.274 NA
ATOM     10  H   UNL d   1       2.023  -0.133  -1.662  0.00  0.00     0.187 HD
ATOM     11  H   UNL d   1       0.503   1.593  -1.109  0.00  0.00     0.184 HD
ATOM     12  H   UNL d   1       1.512  -1.014   1.535  0.00  0.00     0.174 HD
ATOM     13  H   UNL d   1       3.308  -0.223   1.495  0.00  0.00     0.158 HD
ATOM     14  H   UNL d   1       3.602  -1.884  -1.916  0.00  0.00     0.127 HD
ATOM     15  H   UNL d   1       4.968  -1.515  -1.054  0.00  0.00     0.127 HD
ENDROOT
BRANCH   4  16
ATOM     16  C   UNL d   1      -1.278   0.888  -0.482  0.00  0.00     0.087 A 
ATOM     17  C   UNL d   1      -1.922   2.075  -0.857  0.00  0.00     0.143 A 
ATOM     18  F   UNL d   1      -1.200   3.066  -1.405  0.00  0.00    -0.204 F 
ATOM     19  C   UNL d   1      -3.291   2.262  -0.670  0.00  0.00     0.044 A 
ATOM     20  C   UNL d   1      -4.052   1.236  -0.117  0.00  0.00     0.003 A 
ATOM     21  C   UNL d   1      -3.440   0.035   0.240  0.00  0.00     0.002 A 
ATOM     22  C   UNL d   1      -2.064  -0.137   0.057  0.00  0.00     0.033 A 
ENDBRANCH   4  16
TORSDOF 1
