REMARK  2 active torsions:
REMARK  status: ('A' for Active; 'I' for Inactive)
REMARK       I    between atoms: N_9  and  C_1 
REMARK       I    between atoms: N_10  and  C_1 
REMARK    1  A    between atoms: N_4  and  N_2 
REMARK    2  A    between atoms: C_7  and  C_8 
ROOT
ATOM      1  N   UNL d   1       0.381  -1.458   2.582  0.00  0.00    -0.309 N 
ATOM      2  HN  UNL d   1       0.019  -1.266   1.648  1.00  0.00     0.186 HD
ATOM      3  C   UNL d   1       0.635  -0.525   3.459  0.00  0.00     0.119 C 
ENDROOT
BRANCH   1   4
ATOM      4  N   UNL d   1       0.653  -2.743   3.050  0.00  0.00    -0.281 N 
ATOM      5  C   UNL d   1       0.369  -3.682   2.206  0.00  0.00     0.141 C 
ATOM      6  N   UNL d   1       0.414  -4.982   2.571  0.00  0.00    -0.278 NA
ATOM      7  N   UNL d   1       0.007  -3.497   0.916  0.00  0.00    -0.278 NA
ATOM      8  H   UNL d   1       0.469  -5.071   3.581  0.00  0.00     0.126 HD
ATOM      9  H   UNL d   1      -0.290  -5.578   2.163  0.00  0.00     0.126 HD
ATOM     10  H   UNL d   1      -0.107  -2.497   0.765  0.00  0.00     0.126 HD
ATOM     11  H   UNL d   1      -0.796  -4.021   0.608  0.00  0.00     0.126 HD
ATOM     12  HN  UNL d   1       1.042  -2.926   3.975  1.00  0.00     0.189 HD
ENDBRANCH   1   4
BRANCH   3  13
ATOM     13  C   UNL d   1       1.169  -0.652   4.841  0.00  0.00    -0.008 A 
ATOM     14  C   UNL d   1       0.692  -1.573   5.815  0.00  0.00    -0.014 A 
ATOM     15  C   UNL d   1       1.411  -1.679   7.031  0.00  0.00    -0.025 A 
ATOM     16  C   UNL d   1      -0.457  -2.391   5.668  0.00  0.00     0.013 A 
ATOM     17  C   UNL d   1       1.045  -2.646   7.982  0.00  0.00     0.012 A 
ATOM     18  C   UNL d   1       2.496  -0.823   7.284  0.00  0.00     0.012 A 
ATOM     19  C   UNL d   1      -0.041  -3.493   7.768  0.00  0.00     0.001 A 
ATOM     20  C   UNL d   1      -0.805  -3.353   6.618  0.00  0.00     0.001 A 
ATOM     21  C   UNL d   1       2.893   0.131   6.350  0.00  0.00     0.002 A 
ATOM     22  C   UNL d   1       2.239   0.210   5.126  0.00  0.00     0.014 A 
ENDBRANCH   3  13
TORSDOF 2
