REMARK  4 active torsions:
REMARK  status: ('A' for Active; 'I' for Inactive)
REMARK    1  A    between atoms: C_2  and  S_1 
REMARK    2  A    between atoms: N_5  and  S_1 
REMARK    3  A    between atoms: C_4  and  N_5 
REMARK    4  A    between atoms: N_8  and  C_9 
ROOT
ATOM      1  S   UNL d   1       0.679  -2.073  -1.803  0.00  0.00     0.252 S 
ATOM      2  O   UNL d   1       2.103  -2.272  -1.622  0.00  0.00    -0.205 OA
ATOM      3  O   UNL d   1      -0.272  -2.775  -0.968  0.00  0.00    -0.205 OA
ENDROOT
BRANCH   1   4
ATOM      4  C   UNL d   1       0.284  -2.552  -3.470  0.00  0.00     0.116 A 
ATOM      5  S   UNL d   1       1.578  -2.557  -4.583  0.00  0.00    -0.074 SA
ATOM      6  C   UNL d   1       0.561  -2.956  -5.898  0.00  0.00     0.042 A 
ATOM      7  C   UNL d   1       1.063  -3.058  -7.241  0.00  0.00     0.117 A 
ATOM      8  C   UNL d   1      -0.744  -3.135  -5.481  0.00  0.00     0.024 A 
ATOM      9  O   UNL d   1       0.256  -3.357  -8.310  0.00  0.00    -0.237 OA
ATOM     10  C   UNL d   1       2.344  -2.874  -7.727  0.00  0.00     0.059 A 
ATOM     11  N   UNL d   1       0.992  -3.358  -9.482  0.00  0.00    -0.272 N 
ATOM     12  C   UNL d   1       2.239  -3.065  -9.114  0.00  0.00     0.117 A 
ATOM     13  HN  UNL d   1       0.653  -3.543 -10.426  1.00  0.00     0.194 HD
ATOM     14  C   UNL d   1      -0.903  -2.911  -4.079  0.00  0.00     0.034 A 
ENDBRANCH   1   4
BRANCH   1  15
ATOM     15  N   UNL d   1       0.393  -0.413  -1.586  0.00  0.00    -0.179 NA
ATOM     16  H   UNL d   1       0.849  -0.144  -0.713  0.00  0.00     0.146 HD
BRANCH  15  17
ATOM     17  C   UNL d   1       0.710   0.467  -2.675  0.00  0.00     0.050 A 
ATOM     18  C   UNL d   1      -0.259   0.855  -3.621  0.00  0.00     0.060 A 
ATOM     19  C   UNL d   1       0.130   1.648  -4.714  0.00  0.00     0.032 A 
ATOM     20  C   UNL d   1       1.457   2.058  -4.858  0.00  0.00     0.009 A 
ATOM     21  C   UNL d   1       2.428   1.655  -3.938  0.00  0.00    -0.060 A 
ATOM     22  C   UNL d   1       2.048   0.851  -2.853  0.00  0.00     0.033 A 
ATOM     23  C   UNL d   1       3.846   2.113  -4.112  0.00  0.00     0.048 C 
BRANCH  18  24
ATOM     24  N   UNL d   1      -1.634   0.491  -3.507  0.00  0.00    -0.331 N 
ATOM     25  C   UNL d   1      -2.340   0.227  -2.349  0.00  0.00     0.096 A 
ATOM     26  C   UNL d   1      -3.630  -0.132  -2.670  0.00  0.00     0.019 A 
ATOM     27  C   UNL d   1      -3.742  -0.070  -4.071  0.00  0.00     0.019 A 
ATOM     28  C   UNL d   1      -2.519   0.335  -4.561  0.00  0.00     0.096 A 
ENDBRANCH  18  24
ENDBRANCH  15  17
ENDBRANCH   1  15
TORSDOF 4
