REMARK  3 active torsions:
REMARK  status: ('A' for Active; 'I' for Inactive)
REMARK    1  A    between atoms: C_6  and  C_1 
REMARK    2  A    between atoms: N_4  and  C_13 
REMARK    3  A    between atoms: C_14  and  N_5 
ROOT
ATOM      1  C   UNL d   1       4.323   3.215  -0.078  0.00  0.00     0.046 A 
ATOM      2  C   UNL d   1       2.058   1.499  -0.075  0.00  0.00     0.056 A 
ATOM      3  C   UNL d   1       4.099   2.297  -1.115  0.00  0.00     0.032 A 
ATOM      4  C   UNL d   1       3.388   3.247   0.968  0.00  0.00     0.032 A 
ATOM      5  C   UNL d   1       2.260   2.412   0.965  0.00  0.00     0.034 A 
ATOM      6  C   UNL d   1       2.992   1.439  -1.112  0.00  0.00     0.034 A 
ENDROOT
BRANCH   2   7
ATOM      7  N   UNL d   1       0.903   0.667  -0.081  0.00  0.00    -0.267 N 
ATOM      8  N   UNL d   1      -0.082   0.827   0.841  0.00  0.00    -0.290 N 
ATOM      9  C   UNL d   1      -1.050  -0.040   0.485  0.00  0.00     0.134 A 
ATOM     10  HN  UNL d   1      -0.087   1.467   1.635  1.00  0.00     0.187 HD
ATOM     11  C   UNL d   1      -0.651  -0.809  -0.634  0.00  0.00     0.055 A 
ATOM     12  C   UNL d   1       0.596  -0.342  -0.967  0.00  0.00     0.119 A 
BRANCH   9  13
ATOM     13  C   UNL d   1      -2.374  -0.145   1.194  0.00  0.00     0.434 C 
ATOM     14  F   UNL d   1      -2.501   0.696   2.254  0.00  0.00    -0.165 F 
ATOM     15  F   UNL d   1      -3.409   0.130   0.352  0.00  0.00    -0.165 F 
ATOM     16  F   UNL d   1      -2.591  -1.404   1.664  0.00  0.00    -0.165 F 
ENDBRANCH   9  13
ENDBRANCH   2   7
BRANCH   1  17
ATOM     17  N   UNL d   1       5.457   4.074  -0.094  0.00  0.00    -0.245 N 
ATOM     18  C   UNL d   1       5.978   4.723   0.993  0.00  0.00     0.255 A 
ATOM     19  C   UNL d   1       7.146   5.485   0.534  0.00  0.00     0.080 A 
ATOM     20  O   UNL d   1       5.656   4.713   2.168  0.00  0.00    -0.268 OA
ATOM     21  C   UNL d   1       7.281   5.279  -0.774  0.00  0.00     0.080 A 
ATOM     22  C   UNL d   1       6.204   4.380  -1.200  0.00  0.00     0.255 A 
ATOM     23  O   UNL d   1       6.077   4.064  -2.371  0.00  0.00    -0.268 OA
ENDBRANCH   1  17
TORSDOF 3
