REMARK  3 active torsions:
REMARK  status: ('A' for Active; 'I' for Inactive)
REMARK    1  A    between atoms: N_4  and  S_1 
REMARK    2  A    between atoms: C_9  and  S_1 
REMARK    3  A    between atoms: C_2  and  N_5 
ROOT
ATOM      1  N   UNL d   1       0.302  -1.250   0.531  0.00  0.00    -0.203 NA
ATOM      2  N   UNL d   1       0.820  -3.533  -1.198  0.00  0.00    -0.374 N 
ATOM      3  C   UNL d   1       1.136  -2.407   1.011  0.00  0.00     0.127 C 
ATOM      4  C   UNL d   1      -0.721  -1.755  -0.453  0.00  0.00     0.127 C 
ATOM      5  C   UNL d   1       1.806  -3.176  -0.161  0.00  0.00     0.138 C 
ATOM      6  C   UNL d   1      -0.043  -2.426  -1.653  0.00  0.00     0.138 C 
ENDROOT
BRANCH   2   7
ATOM      7  C   UNL d   1       0.749  -4.792  -1.785  0.00  0.00     0.104 A 
ATOM      8  C   UNL d   1      -0.560  -5.533  -1.733  0.00  0.00     0.213 A 
ATOM      9  C   UNL d   1      -0.596  -6.853  -2.387  0.00  0.00     0.050 A 
ATOM     10  O   UNL d   1      -1.551  -5.083  -1.163  0.00  0.00    -0.285 OA
ATOM     11  C   UNL d   1      -1.769  -7.615  -2.392  0.00  0.00     0.018 A 
ATOM     12  C   UNL d   1       0.556  -7.333  -3.004  0.00  0.00     0.089 A 
ATOM     13  C   UNL d   1      -1.781  -8.862  -3.019  0.00  0.00     0.001 A 
ATOM     14  C   UNL d   1      -0.626  -9.344  -3.637  0.00  0.00     0.003 A 
ATOM     15  C   UNL d   1       0.542  -8.579  -3.631  0.00  0.00     0.038 A 
ATOM     16  O   UNL d   1       1.734  -6.634  -3.028  0.00  0.00    -0.319 OA
ATOM     17  C   UNL d   1       1.760  -5.407  -2.414  0.00  0.00     0.176 A 
ENDBRANCH   2   7
BRANCH   1  18
ATOM     18  S   UNL d   1       1.159   0.143   0.029  0.00  0.00     0.243 S 
ATOM     19  O   UNL d   1       0.311   0.908  -0.854  0.00  0.00    -0.206 OA
ATOM     20  O   UNL d   1       2.495  -0.249  -0.365  0.00  0.00    -0.206 OA
BRANCH  18  21
ATOM     21  C   UNL d   1       1.303   1.096   1.526  0.00  0.00     0.074 A 
ATOM     22  C   UNL d   1       2.559   1.468   2.024  0.00  0.00     0.028 A 
ATOM     23  C   UNL d   1       2.631   2.320   3.129  0.00  0.00     0.044 A 
ATOM     24  C   UNL d   1       1.458   2.788   3.716  0.00  0.00     0.116 A 
ATOM     25  C   UNL d   1       0.210   2.420   3.223  0.00  0.00     0.044 A 
ATOM     26  F   UNL d   1       1.532   3.617   4.766  0.00  0.00    -0.206 F 
ATOM     27  C   UNL d   1       0.128   1.571   2.120  0.00  0.00     0.028 A 
ENDBRANCH  18  21
ENDBRANCH   1  18
TORSDOF 3
