REMARK  6 active torsions:
REMARK  status: ('A' for Active; 'I' for Inactive)
REMARK    1  A    between atoms: C_2  and  C_1 
REMARK       I    between atoms: N_6  and  C_1 
REMARK    2  A    between atoms: O_11  and  C_3 
REMARK    3  A    between atoms: C_4  and  N_6 
REMARK    4  A    between atoms: C_5  and  C_9 
REMARK    5  A    between atoms: N_8  and  C_7 
REMARK    6  A    between atoms: C_21  and  O_11 
ROOT
ATOM      1  C   UNL d   1       0.837   0.490  -0.085  0.00  0.00     0.260 C 
ATOM      2  N   UNL d   1       0.218   0.713   1.144  0.00  0.00    -0.321 N 
ATOM      3  O   UNL d   1       0.268   0.265  -1.147  0.00  0.00    -0.267 OA
ATOM      4  H   UNL d   1       0.670   1.399   1.732  0.00  0.00     0.169 HD
ENDROOT
BRANCH   2   5
ATOM      5  C   UNL d   1      -1.181   0.542   1.319  0.00  0.00     0.062 A 
ATOM      6  C   UNL d   1      -1.853  -0.655   0.956  0.00  0.00     0.057 A 
ATOM      7  C   UNL d   1      -3.255  -0.657   1.035  0.00  0.00     0.032 A 
ATOM      8  C   UNL d   1      -3.961   0.457   1.502  0.00  0.00     0.018 A 
ATOM      9  C   UNL d   1      -3.283   1.602   1.936  0.00  0.00     0.050 A 
ATOM     10  C   UNL d   1      -1.884   1.625   1.862  0.00  0.00     0.048 A 
BRANCH   6  11
ATOM     11  N   UNL d   1      -1.137  -1.801   0.602  0.00  0.00    -0.375 N 
ATOM     12  C   UNL d   1      -1.729  -2.783  -0.322  0.00  0.00     0.149 C 
ATOM     13  C   UNL d   1      -0.598  -3.670  -0.875  0.00  0.00     0.187 C 
ATOM     14  O   UNL d   1       0.124  -4.327   0.186  0.00  0.00    -0.388 OA
ATOM     15  C   UNL d   1       0.690  -3.352   1.080  0.00  0.00     0.187 C 
ATOM     16  C   UNL d   1      -0.397  -2.456   1.697  0.00  0.00     0.149 C 
ENDBRANCH   6  11
BRANCH   9  17
ATOM     17  C   UNL d   1      -4.054   2.802   2.425  0.00  0.00     0.417 C 
ATOM     18  F   UNL d   1      -3.258   3.809   2.881  0.00  0.00    -0.166 F 
ATOM     19  F   UNL d   1      -4.834   3.352   1.457  0.00  0.00    -0.166 F 
ATOM     20  F   UNL d   1      -4.893   2.499   3.456  0.00  0.00    -0.166 F 
ENDBRANCH   9  17
ENDBRANCH   2   5
BRANCH   1  21
ATOM     21  C   UNL d   1       2.318   0.574  -0.055  0.00  0.00     0.083 A 
ATOM     22  C   UNL d   1       3.071   1.108  -1.101  0.00  0.00     0.163 A 
ATOM     23  N   UNL d   1       4.434   1.109  -1.089  0.00  0.00    -0.346 N 
ATOM     24  C   UNL d   1       5.063   0.523  -0.053  0.00  0.00     0.090 A 
ATOM     25  HN  UNL d   1       4.964   1.543  -1.845  1.00  0.00     0.167 HD
ATOM     26  C   UNL d   1       4.399  -0.030   1.025  0.00  0.00     0.018 A 
ATOM     27  C   UNL d   1       3.008   0.005   1.027  0.00  0.00     0.023 A 
BRANCH  22  28
ATOM     28  O   UNL d   1       2.427   1.738  -2.163  0.00  0.00    -0.293 OA
BRANCH  28  29
ATOM     29  C   UNL d   1       3.197   2.019  -3.273  0.00  0.00     0.077 A 
ATOM     30  C   UNL d   1       3.812   1.002  -4.008  0.00  0.00     0.037 A 
ATOM     31  C   UNL d   1       4.608   1.323  -5.111  0.00  0.00     0.003 A 
ATOM     32  C   UNL d   1       4.760   2.654  -5.497  0.00  0.00     0.000 A 
ATOM     33  C   UNL d   1       4.108   3.666  -4.789  0.00  0.00     0.003 A 
ATOM     34  C   UNL d   1       3.317   3.349  -3.681  0.00  0.00     0.037 A 
ENDBRANCH  28  29
ENDBRANCH  22  28
ENDBRANCH   1  21
TORSDOF 6
