REMARK  4 active torsions:
REMARK  status: ('A' for Active; 'I' for Inactive)
REMARK    1  A    between atoms: C_6  and  C_1 
REMARK    2  A    between atoms: C_7  and  C_2 
REMARK    3  A    between atoms: C_9  and  C_5 
REMARK       I    between atoms: N_8  and  C_6 
REMARK    4  A    between atoms: C_16  and  N_8 
ROOT
ATOM      1  C   UNL d   1       1.125   0.663   0.064  0.00  0.00     0.073 A 
ATOM      2  C   UNL d   1      -0.174   1.132  -0.079  0.00  0.00     0.175 A 
ATOM      3  O   UNL d   1      -1.054   0.078  -0.036  0.00  0.00    -0.304 OA
ATOM      4  C   UNL d   1       0.990  -0.747   0.275  0.00  0.00     0.058 A 
ATOM      5  C   UNL d   1      -0.343  -1.066   0.173  0.00  0.00     0.087 A 
ENDROOT
BRANCH   1   6
ATOM      6  C   UNL d   1       2.418   1.347   0.058  0.00  0.00     0.259 C 
ATOM      7  N   UNL d   1       2.471   2.571  -0.577  0.00  0.00    -0.323 N 
ATOM      8  H   UNL d   1       1.605   2.994  -0.881  0.00  0.00     0.169 HD
ATOM      9  O   UNL d   1       3.377   0.786   0.579  0.00  0.00    -0.267 OA
BRANCH   7  10
ATOM     10  C   UNL d   1       3.618   3.377  -0.760  0.00  0.00     0.035 A 
ATOM     11  C   UNL d   1       4.923   2.951  -0.501  0.00  0.00     0.029 A 
ATOM     12  C   UNL d   1       6.001   3.825  -0.662  0.00  0.00     0.002 A 
ATOM     13  C   UNL d   1       5.785   5.132  -1.091  0.00  0.00     0.000 A 
ATOM     14  C   UNL d   1       4.492   5.557  -1.383  0.00  0.00     0.002 A 
ATOM     15  C   UNL d   1       3.415   4.681  -1.229  0.00  0.00     0.029 A 
ENDBRANCH   7  10
ENDBRANCH   1   6
BRANCH   2  16
ATOM     16  C   UNL d   1      -0.806   2.462  -0.244  0.00  0.00     0.440 C 
ATOM     17  F   UNL d   1       0.101   3.472  -0.166  0.00  0.00    -0.164 F 
ATOM     18  F   UNL d   1      -1.403   2.592  -1.456  0.00  0.00    -0.164 F 
ATOM     19  F   UNL d   1      -1.749   2.715   0.697  0.00  0.00    -0.164 F 
ENDBRANCH   2  16
BRANCH   5  20
ATOM     20  C   UNL d   1      -1.095  -2.315   0.241  0.00  0.00    -0.002 A 
ATOM     21  C   UNL d   1      -0.437  -3.518   0.548  0.00  0.00     0.016 A 
ATOM     22  C   UNL d   1      -1.136  -4.728   0.604  0.00  0.00     0.024 A 
ATOM     23  C   UNL d   1      -2.505  -4.748   0.351  0.00  0.00     0.034 A 
ATOM     24  C   UNL d   1      -3.177  -3.567   0.042  0.00  0.00     0.024 A 
ATOM     25 CL   UNL d   1      -3.365  -6.233   0.418  0.00  0.00    -0.084 Cl
ATOM     26  C   UNL d   1      -2.474  -2.358  -0.012  0.00  0.00     0.016 A 
ENDBRANCH   5  20
TORSDOF 4
