REMARK  8 active torsions:
REMARK  status: ('A' for Active; 'I' for Inactive)
REMARK    1  A    between atoms: N_4  and  S_1 
REMARK    2  A    between atoms: C_8  and  S_1 
REMARK    3  A    between atoms: C_6  and  C_2 
REMARK    4  A    between atoms: C_3  and  N_4 
REMARK    5  A    between atoms: O_16  and  C_6 
REMARK    6  A    between atoms: O_18  and  C_9 
REMARK    7  A    between atoms: O_19  and  C_10 
REMARK    8  A    between atoms: O_22  and  C_17 
ROOT
ATOM      1  C   UNL d   1       2.314  -2.373   1.848  0.00  0.00     0.064 A 
ATOM      2  C   UNL d   1       0.996  -1.894   1.848  0.00  0.00     0.042 A 
ATOM      3  C   UNL d   1       2.573  -3.673   2.294  0.00  0.00     0.059 A 
ATOM      4  C   UNL d   1      -0.034  -2.691   2.371  0.00  0.00     0.065 A 
ATOM      5  C   UNL d   1       1.536  -4.495   2.747  0.00  0.00     0.102 A 
ATOM      6  C   UNL d   1       0.225  -3.995   2.825  0.00  0.00     0.103 A 
ENDROOT
BRANCH   2   7
ATOM      7  N   UNL d   1       0.663  -0.573   1.359  0.00  0.00    -0.180 NA
ATOM      8  H   UNL d   1       1.359  -0.275   0.659  0.00  0.00     0.146 HD
BRANCH   7   9
ATOM      9  S   UNL d   1       0.629   0.643   2.557  0.00  0.00     0.245 S 
ATOM     10  O   UNL d   1       1.990   0.886   2.983  0.00  0.00    -0.206 OA
ATOM     11  O   UNL d   1      -0.417   0.329   3.506  0.00  0.00    -0.206 OA
BRANCH   9  12
ATOM     12  C   UNL d   1       0.092   2.035   1.584  0.00  0.00     0.075 A 
ATOM     13  C   UNL d   1      -1.271   2.335   1.507  0.00  0.00     0.027 A 
ATOM     14  C   UNL d   1      -1.703   3.410   0.725  0.00  0.00     0.038 A 
ATOM     15  C   UNL d   1      -0.775   4.185   0.025  0.00  0.00     0.068 A 
ATOM     16  C   UNL d   1       0.591   3.905   0.146  0.00  0.00     0.038 A 
ATOM     17  C   UNL d   1       1.034   2.829   0.920  0.00  0.00     0.027 A 
BRANCH  15  18
ATOM     18  O   UNL d   1      -1.083   5.253  -0.773  0.00  0.00    -0.356 OA
ATOM     19  C   UNL d   1      -2.388   5.247  -1.342  0.00  0.00     0.210 C 
ENDBRANCH  15  18
ENDBRANCH   9  12
ENDBRANCH   7   9
ENDBRANCH   2   7
BRANCH   1  20
ATOM     20  C   UNL d   1       3.417  -1.538   1.317  0.00  0.00     0.294 C 
ATOM     21  O   UNL d   1       3.241  -0.664   0.480  0.00  0.00    -0.259 OA
BRANCH  20  22
ATOM     22  O   UNL d   1       4.582  -1.885   1.911  0.00  0.00    -0.322 OA
ATOM     23  C   UNL d   1       5.731  -1.130   1.529  0.00  0.00     0.213 C 
ENDBRANCH  20  22
ENDBRANCH   1  20
BRANCH   6  24
ATOM     24  O   UNL d   1      -0.724  -4.825   3.358  0.00  0.00    -0.353 OA
ATOM     25  C   UNL d   1      -2.037  -4.318   3.548  0.00  0.00     0.210 C 
ENDBRANCH   6  24
BRANCH   5  26
ATOM     26  O   UNL d   1       1.964  -5.741   3.128  0.00  0.00    -0.353 OA
ATOM     27  C   UNL d   1       1.077  -6.822   2.856  0.00  0.00     0.210 C 
ENDBRANCH   5  26
TORSDOF 8
