REMARK  3 active torsions:
REMARK  status: ('A' for Active; 'I' for Inactive)
REMARK    1  A    between atoms: N_2  and  C_1 
REMARK    2  A    between atoms: C_9  and  C_12 
REMARK    3  A    between atoms: C_13  and  C_9 
ROOT
ATOM      1  N   UNL d   1      -3.830  -0.069   0.075  0.00  0.00    -0.384 N 
ATOM      2  C   UNL d   1      -4.620   0.604  -0.969  0.00  0.00     0.123 C 
ATOM      3  C   UNL d   1      -4.648  -0.765   1.082  0.00  0.00     0.123 C 
ATOM      4  C   UNL d   1      -5.550   1.627  -0.322  0.00  0.00     0.025 C 
ATOM      5  C   UNL d   1      -5.626   0.215   1.737  0.00  0.00     0.025 C 
ATOM      6  C   UNL d   1      -6.486   0.975   0.709  0.00  0.00    -0.007 C 
ENDROOT
BRANCH   1   7
ATOM      7  C   UNL d   1      -2.437  -0.112   0.059  0.00  0.00     0.012 A 
ATOM      8  C   UNL d   1      -1.605  -0.745   0.911  0.00  0.00     0.037 A 
ATOM      9  C   UNL d   1      -0.230  -0.490   0.520  0.00  0.00    -0.028 A 
ATOM     10  C   UNL d   1       0.952  -0.922   1.096  0.00  0.00     0.012 A 
ATOM     11  C   UNL d   1      -0.221   0.327  -0.612  0.00  0.00    -0.042 A 
ATOM     12  C   UNL d   1       2.157  -0.517   0.514  0.00  0.00     0.001 A 
ATOM     13  C   UNL d   1       2.162   0.305  -0.626  0.00  0.00     0.001 A 
ATOM     14  C   UNL d   1       0.964   0.736  -1.200  0.00  0.00     0.008 A 
ATOM     15  C   UNL d   1      -1.629   0.635  -1.010  0.00  0.00     0.096 A 
ENDBRANCH   1   7
BRANCH   6  16
ATOM     16  C   UNL d   1      -7.543   0.036   0.084  0.00  0.00     0.043 C 
BRANCH  16  17
ATOM     17  C   UNL d   1      -8.434   0.679  -0.951  0.00  0.00    -0.058 A 
ATOM     18  C   UNL d   1      -8.431   0.212  -2.274  0.00  0.00     0.007 A 
ATOM     19  C   UNL d   1      -9.259   0.793  -3.235  0.00  0.00     0.001 A 
ATOM     20  C   UNL d   1     -10.100   1.846  -2.885  0.00  0.00     0.000 A 
ATOM     21  C   UNL d   1     -10.116   2.317  -1.573  0.00  0.00     0.001 A 
ATOM     22  C   UNL d   1      -9.290   1.734  -0.609  0.00  0.00     0.007 A 
ENDBRANCH  16  17
ENDBRANCH   6  16
TORSDOF 3
