REMARK  2 active torsions:
REMARK  status: ('A' for Active; 'I' for Inactive)
REMARK    1  A    between atoms: C_2  and  N_1 
REMARK    2  A    between atoms: C_6  and  C_3 
ROOT
ATOM      1  C   UNL d   1       1.285   2.176  -1.091  0.00  0.00     0.059 A 
ATOM      2  C   UNL d   1       1.955   1.907  -2.306  0.00  0.00     0.037 A 
ATOM      3  C   UNL d   1       1.249   3.494  -0.609  0.00  0.00     0.031 A 
ATOM      4  C   UNL d   1       2.575   2.955  -3.006  0.00  0.00     0.017 A 
ATOM      5  C   UNL d   1       1.875   4.526  -1.310  0.00  0.00     0.002 A 
ATOM      6  C   UNL d   1       2.537   4.257  -2.505  0.00  0.00     0.001 A 
ENDROOT
BRANCH   1   7
ATOM      7  N   UNL d   1       0.632   1.129  -0.353  0.00  0.00    -0.250 N 
ATOM      8  C   UNL d   1       1.452   0.068   0.079  0.00  0.00     0.240 C 
ATOM      9  O   UNL d   1       2.689   0.110   0.004  0.00  0.00    -0.272 OA
ATOM     10  C   UNL d   1       0.808  -1.193   0.618  0.00  0.00     0.178 C 
ATOM     11  S   UNL d   1      -0.750  -0.917   1.467  0.00  0.00    -0.150 SA
ATOM     12  C   UNL d   1      -1.519   0.003   0.132  0.00  0.00     0.178 C 
ATOM     13  C   UNL d   1      -0.753   1.274  -0.144  0.00  0.00     0.240 C 
ATOM     14  O   UNL d   1      -1.368   2.339  -0.248  0.00  0.00    -0.272 OA
ENDBRANCH   1   7
BRANCH   2  15
ATOM     15  C   UNL d   1       1.908   0.547  -2.928  0.00  0.00     0.158 C 
ATOM     16  O   UNL d   1       0.944  -0.190  -2.733  0.00  0.00    -0.293 OA
ATOM     17  C   UNL d   1       3.043   0.122  -3.824  0.00  0.00     0.097 C 
ENDBRANCH   2  15
TORSDOF 2
