REMARK  1 active torsions:
REMARK  status: ('A' for Active; 'I' for Inactive)
REMARK    1  A    between atoms: C_2  and  N_1 
ROOT
ATOM      1  C   UNL d   1       0.030   2.289   0.033  0.00  0.00     0.054 A 
ATOM      2  C   UNL d   1       0.749   2.970  -0.962  0.00  0.00     0.073 A 
ATOM      3  C   UNL d   1      -0.670   3.036   1.007  0.00  0.00    -0.034 A 
ATOM      4  C   UNL d   1      -0.680   4.442   0.919  0.00  0.00     0.012 A 
ATOM      5  C   UNL d   1       0.718   4.358  -1.027  0.00  0.00     0.118 A 
ATOM      6  C   UNL d   1       0.005   5.101  -0.099  0.00  0.00     0.043 A 
ATOM      7  F   UNL d   1       1.375   4.987  -2.010  0.00  0.00    -0.206 F 
ATOM      8  C   UNL d   1      -1.351   2.426   2.204  0.00  0.00     0.050 C 
ENDROOT
BRANCH   1   9
ATOM      9  N   UNL d   1       0.028   0.877   0.022  0.00  0.00    -0.245 N 
ATOM     10  C   UNL d   1       1.128   0.097  -0.184  0.00  0.00     0.255 A 
ATOM     11  C   UNL d   1       0.675  -1.300  -0.166  0.00  0.00     0.080 A 
ATOM     12  O   UNL d   1       2.299   0.402  -0.327  0.00  0.00    -0.268 OA
ATOM     13  C   UNL d   1      -0.650  -1.299  -0.028  0.00  0.00     0.080 A 
ATOM     14  C   UNL d   1      -1.095   0.098   0.066  0.00  0.00     0.255 A 
ATOM     15  O   UNL d   1      -2.273   0.403   0.107  0.00  0.00    -0.268 OA
ENDBRANCH   1   9
TORSDOF 1
