REMARK  8 active torsions:
REMARK  status: ('A' for Active; 'I' for Inactive)
REMARK    1  A    between atoms: C_4  and  C_1 
REMARK    2  A    between atoms: N_14  and  C_1 
REMARK    3  A    between atoms: O_7  and  N_2 
REMARK    4  A    between atoms: C_5  and  O_7 
REMARK    5  A    between atoms: C_8  and  C_5 
REMARK    6  A    between atoms: C_9  and  C_8 
REMARK    7  A    between atoms: C_20  and  C_17 
REMARK    8  A    between atoms: C_22  and  C_20 
ROOT
ATOM      1  C   UNL d   1      -1.536  -1.797  -3.889  0.00  0.00     0.289 C 
ATOM      2  O   UNL d   1      -0.744  -1.902  -4.816  0.00  0.00    -0.262 OA
ENDROOT
BRANCH   1   3
ATOM      3  O   UNL d   1      -2.769  -1.184  -3.984  0.00  0.00    -0.198 OA
BRANCH   3   4
ATOM      4  N   UNL d   1      -2.593   0.111  -4.535  0.00  0.00    -0.245 N 
ATOM      5  C   UNL d   1      -3.610   0.498  -5.261  0.00  0.00     0.116 C 
ATOM      6  HN  UNL d   1      -1.761   0.681  -4.381  1.00  0.00     0.196 HD
BRANCH   5   7
ATOM      7  C   UNL d   1      -3.559   1.886  -5.739  0.00  0.00     0.044 A 
ATOM      8  S   UNL d   1      -4.812   2.521  -6.727  0.00  0.00    -0.099 SA
ATOM      9  C   UNL d   1      -4.063   4.057  -6.824  0.00  0.00     0.050 A 
ATOM     10  C   UNL d   1      -2.885   4.099  -6.114  0.00  0.00     0.009 A 
ATOM     11  C   UNL d   1      -2.597   2.850  -5.488  0.00  0.00     0.023 A 
ENDBRANCH   5   7
BRANCH   5  12
ATOM     12  N   UNL d   1      -4.653  -0.343  -5.574  0.00  0.00    -0.286 NA
ATOM     13  H   UNL d   1      -4.406  -1.321  -5.514  0.00  0.00     0.125 HD
ATOM     14  H   UNL d   1      -5.130  -0.105  -6.441  0.00  0.00     0.125 HD
ENDBRANCH   5  12
ENDBRANCH   3   4
ENDBRANCH   1   3
BRANCH   1  15
ATOM     15  C   UNL d   1      -1.309  -2.342  -2.481  0.00  0.00     0.116 C 
ATOM     16  C   UNL d   1       0.163  -2.190  -2.068  0.00  0.00     0.025 C 
BRANCH  15  17
ATOM     17  C   UNL d   1      -1.764  -3.779  -2.290  0.00  0.00    -0.045 A 
ATOM     18  C   UNL d   1      -1.312  -4.819  -3.115  0.00  0.00     0.008 A 
ATOM     19  C   UNL d   1      -1.672  -6.149  -2.855  0.00  0.00     0.007 A 
ATOM     20  C   UNL d   1      -2.480  -6.473  -1.758  0.00  0.00    -0.058 A 
ATOM     21  C   UNL d   1      -2.942  -5.434  -0.942  0.00  0.00     0.007 A 
ATOM     22  C   UNL d   1      -2.592  -4.106  -1.206  0.00  0.00     0.008 A 
BRANCH  20  23
ATOM     23  C   UNL d   1      -2.788  -7.918  -1.425  0.00  0.00     0.042 C 
BRANCH  23  24
ATOM     24  C   UNL d   1      -4.288  -8.273  -1.350  0.00  0.00    -0.019 C 
ATOM     25  C   UNL d   1      -4.994  -8.072  -2.692  0.00  0.00     0.010 C 
ATOM     26  C   UNL d   1      -4.464  -9.726  -0.894  0.00  0.00     0.010 C 
ENDBRANCH  23  24
ENDBRANCH  20  23
ENDBRANCH  15  17
ENDBRANCH   1  15
TORSDOF 8
