REMARK  8 active torsions:
REMARK  status: ('A' for Active; 'I' for Inactive)
REMARK    1  A    between atoms: C_8  and  C_1 
REMARK    2  A    between atoms: N_13  and  C_2 
REMARK    3  A    between atoms: C_5  and  C_3 
REMARK    4  A    between atoms: C_9  and  C_5 
REMARK    5  A    between atoms: O_18  and  C_8 
REMARK    6  A    between atoms: O_19  and  C_9 
REMARK    7  A    between atoms: C_23  and  O_18 
REMARK    8  A    between atoms: C_22  and  O_19 
ROOT
ATOM      1  C   UNL d   1      -1.199   2.149   1.241  0.00  0.00     0.205 C 
ATOM      2  C   UNL d   1      -0.061   3.078   1.329  0.00  0.00     0.075 C 
ATOM      3  N   UNL d   1       0.822   3.831   1.369  0.00  0.00    -0.196 NA
ENDROOT
BRANCH   1   4
ATOM      4  C   UNL d   1      -1.195   1.329  -0.079  0.00  0.00     0.091 C 
ATOM      5  C   UNL d   1      -2.471   0.506  -0.239  0.00  0.00     0.073 C 
ATOM      6  C   UNL d   1      -2.457  -0.836  -0.102  0.00  0.00     0.134 C 
ATOM      7  O   UNL d   1      -1.305  -1.514   0.277  0.00  0.00    -0.298 OA
ATOM      8  C   UNL d   1      -0.089  -0.925   0.051  0.00  0.00     0.084 A 
ATOM      9  C   UNL d   1       0.031   0.438  -0.223  0.00  0.00    -0.012 A 
ATOM     10  C   UNL d   1       1.030  -1.756   0.085  0.00  0.00     0.039 A 
ATOM     11  C   UNL d   1       1.290   0.942  -0.584  0.00  0.00     0.029 A 
ATOM     12  C   UNL d   1       2.406   0.103  -0.580  0.00  0.00     0.011 A 
ATOM     13 BR   UNL d   1       4.101   0.795  -1.052  0.00  0.00    -0.051 Br
ATOM     14  C   UNL d   1       2.286  -1.238  -0.222  0.00  0.00     0.022 A 
BRANCH   5  15
ATOM     15  C   UNL d   1      -3.694   1.286  -0.571  0.00  0.00     0.293 C 
ATOM     16  O   UNL d   1      -3.647   2.444  -0.963  0.00  0.00    -0.259 OA
BRANCH  15  17
ATOM     17  O   UNL d   1      -4.827   0.596  -0.280  0.00  0.00    -0.318 OA
BRANCH  17  18
ATOM     18  C   UNL d   1      -6.080   1.253  -0.534  0.00  0.00     0.174 C 
ATOM     19  C   UNL d   1      -6.503   1.022  -1.973  0.00  0.00     0.034 C 
ENDBRANCH  17  18
ENDBRANCH  15  17
ENDBRANCH   5  15
BRANCH   6  20
ATOM     20  N   UNL d   1      -3.527  -1.688  -0.256  0.00  0.00    -0.282 NA
ATOM     21  H   UNL d   1      -4.429  -1.234  -0.133  0.00  0.00     0.126 HD
ATOM     22  H   UNL d   1      -3.419  -2.537   0.291  0.00  0.00     0.126 HD
ENDBRANCH   6  20
ENDBRANCH   1   4
BRANCH   1  23
ATOM     23  C   UNL d   1      -1.210   1.267   2.474  0.00  0.00     0.277 C 
ATOM     24  O   UNL d   1      -0.235   0.885   3.098  0.00  0.00    -0.264 OA
BRANCH  23  25
ATOM     25  O   UNL d   1      -2.503   0.933   2.784  0.00  0.00    -0.321 OA
BRANCH  25  26
ATOM     26  C   UNL d   1      -2.677   0.079   3.926  0.00  0.00     0.174 C 
ATOM     27  C   UNL d   1      -2.476  -1.375   3.538  0.00  0.00     0.034 C 
ENDBRANCH  25  26
ENDBRANCH  23  25
ENDBRANCH   1  23
TORSDOF 8
