REMARK  4 active torsions:
REMARK  status: ('A' for Active; 'I' for Inactive)
REMARK    1  A    between atoms: N_6  and  C_1 
REMARK    2  A    between atoms: N_8  and  C_1 
REMARK    3  A    between atoms: N_2  and  N_8 
REMARK    4  A    between atoms: C_4  and  N_6 
ROOT
ATOM      1  N   UNL d   1      -1.911  -0.091   0.279  0.00  0.00    -0.276 N 
ATOM      2  H   UNL d   1      -2.871   0.028  -0.012  0.00  0.00     0.189 HD
ENDROOT
BRANCH   1   3
ATOM      3  N   UNL d   1      -1.255  -1.253   0.023  0.00  0.00    -0.301 N 
ATOM      4  C   UNL d   1      -1.941  -2.336  -0.230  0.00  0.00     0.046 C 
ATOM      5  C   UNL d   1      -1.187  -3.610  -0.490  0.00  0.00    -0.004 A 
ATOM      6  C   UNL d   1      -3.453  -2.426  -0.281  0.00  0.00     0.133 C 
ATOM      7  C   UNL d   1      -1.801  -4.872  -0.358  0.00  0.00    -0.037 A 
ATOM      8  C   UNL d   1       0.167  -3.527  -0.854  0.00  0.00     0.014 A 
ATOM      9  C   UNL d   1      -1.036  -6.024  -0.634  0.00  0.00     0.009 A 
ATOM     10  C   UNL d   1      -3.242  -5.085   0.025  0.00  0.00     0.113 C 
ATOM     11  C   UNL d   1       0.303  -5.929  -1.005  0.00  0.00     0.001 A 
ATOM     12  C   UNL d   1       0.907  -4.680  -1.112  0.00  0.00     0.001 A 
ATOM     13  S   UNL d   1      -4.022  -3.697   0.862  0.00  0.00    -0.158 SA
ATOM     14  HN  UNL d   1      -0.236  -1.280   0.029  1.00  0.00     0.186 HD
ENDBRANCH   1   3
BRANCH   1  15
ATOM     15  C   UNL d   1      -1.266   1.050   0.753  0.00  0.00     0.191 C 
ATOM     16  S   UNL d   1       0.396   1.238   0.848  0.00  0.00    -0.039 SA
BRANCH  15  17
ATOM     17  N   UNL d   1      -2.229   1.941   1.232  0.00  0.00    -0.331 N 
ATOM     18  H   UNL d   1      -2.951   1.472   1.774  0.00  0.00     0.168 HD
BRANCH  17  19
ATOM     19  C   UNL d   1      -2.084   3.313   1.537  0.00  0.00     0.057 A 
ATOM     20  C   UNL d   1      -1.307   4.160   0.742  0.00  0.00     0.055 A 
ATOM     21  C   UNL d   1      -1.212   5.516   1.057  0.00  0.00     0.036 A 
ATOM     22 CL   UNL d   1      -0.267   6.556   0.064  0.00  0.00    -0.084 Cl
ATOM     23  C   UNL d   1      -1.889   6.042   2.156  0.00  0.00     0.026 A 
ATOM     24  C   UNL d   1      -2.693   5.210   2.937  0.00  0.00     0.028 A 
ATOM     25  C   UNL d   1      -2.804   3.856   2.616  0.00  0.00     0.060 A 
ATOM     26 CL   UNL d   1      -3.828   2.862   3.595  0.00  0.00    -0.082 Cl
ENDBRANCH  17  19
ENDBRANCH  15  17
ENDBRANCH   1  15
TORSDOF 4
