REMARK  4 active torsions:
REMARK  status: ('A' for Active; 'I' for Inactive)
REMARK    1  A    between atoms: N_6  and  C_1 
REMARK    2  A    between atoms: C_4  and  C_9 
REMARK    3  A    between atoms: C_5  and  C_7 
REMARK    4  A    between atoms: C_9  and  N_8 
ROOT
ATOM      1  N   UNL d   1       0.130   2.649  -0.230  0.00  0.00    -0.214 N 
ATOM      2  N   UNL d   1       0.684   5.522   0.081  0.00  0.00     0.096 N 
ATOM      3  C   UNL d   1      -0.593   3.417   0.788  0.00  0.00     0.171 C 
ATOM      4  C   UNL d   1       1.438   3.182  -0.624  0.00  0.00     0.171 C 
ATOM      5  C   UNL d   1      -0.631   4.918   0.410  0.00  0.00     0.293 C 
ATOM      6  C   UNL d   1       1.323   4.686  -0.961  0.00  0.00     0.293 C 
ENDROOT
BRANCH   1   7
ATOM      7  C   UNL d   1       0.060   1.269  -0.079  0.00  0.00     0.680 A 
ATOM      8  N   UNL d   1       1.071   0.509  -0.525  0.00  0.00    -0.186 N 
ATOM      9  C   UNL d   1       0.967  -0.843  -0.428  0.00  0.00     0.133 A 
ATOM     10  HN  UNL d   1       1.903   0.938  -0.930  1.00  0.00     0.184 HD
ATOM     11  C   UNL d   1      -0.156  -1.446   0.100  0.00  0.00     0.052 A 
ATOM     12  C   UNL d   1      -1.140  -0.601   0.534  0.00  0.00     0.108 A 
ATOM     13  N   UNL d   1      -1.046   0.739   0.464  0.00  0.00    -0.202 N 
ATOM     14  HN  UNL d   1      -1.796   1.336   0.814  1.00  0.00     0.183 HD
BRANCH   9  15
ATOM     15  C   UNL d   1       2.113  -1.712  -0.908  0.00  0.00     0.433 C 
ATOM     16  F   UNL d   1       3.191  -1.024  -1.377  0.00  0.00    -0.165 F 
ATOM     17  F   UNL d   1       2.594  -2.525   0.080  0.00  0.00    -0.165 F 
ATOM     18  F   UNL d   1       1.741  -2.554  -1.917  0.00  0.00    -0.165 F 
ENDBRANCH   9  15
ENDBRANCH   1   7
BRANCH   2  19
ATOM     19  C   UNL d   1       1.502   5.671   1.294  0.00  0.00     0.316 C 
BRANCH  19  20
ATOM     20  C   UNL d   1       2.830   6.364   1.091  0.00  0.00     0.030 A 
ATOM     21  C   UNL d   1       4.007   5.668   1.400  0.00  0.00     0.126 A 
ATOM     22  F   UNL d   1       3.941   4.393   1.812  0.00  0.00    -0.205 F 
ATOM     23  C   UNL d   1       5.264   6.259   1.303  0.00  0.00     0.043 A 
ATOM     24  C   UNL d   1       5.372   7.578   0.880  0.00  0.00     0.005 A 
ATOM     25  C   UNL d   1       4.220   8.290   0.548  0.00  0.00     0.024 A 
ATOM     26  C   UNL d   1       2.956   7.691   0.656  0.00  0.00     0.045 A 
ATOM     27 CL   UNL d   1       1.587   8.668   0.261  0.00  0.00    -0.084 Cl
ENDBRANCH  19  20
ENDBRANCH   2  19
TORSDOF 4
