REMARK  5 active torsions:
REMARK  status: ('A' for Active; 'I' for Inactive)
REMARK    1  A    between atoms: N_9  and  C_3 
REMARK    2  A    between atoms: C_19  and  C_4 
REMARK       I    between atoms: C_7  and  N_11 
REMARK    3  A    between atoms: C_10  and  C_7 
REMARK    4  A    between atoms: C_13  and  C_12 
REMARK    5  A    between atoms: O_21  and  C_13 
ROOT
ATOM      1  C   UNL d   1      -0.987  -6.619  -0.010  0.00  0.00     0.255 C 
ATOM      2  N   UNL d   1       0.182  -2.517   0.015  0.00  0.00    -0.357 N 
ATOM      3  N   UNL d   1      -0.547  -5.310  -0.192  0.00  0.00    -0.345 N 
ATOM      4  O   UNL d   1      -0.363  -7.458   0.640  0.00  0.00    -0.267 OA
ATOM      5  C   UNL d   1       0.767  -3.502   0.950  0.00  0.00     0.145 C 
ATOM      6  C   UNL d   1      -1.160  -2.897  -0.459  0.00  0.00     0.145 C 
ATOM      7  C   UNL d   1       0.767  -4.921   0.340  0.00  0.00     0.146 C 
ATOM      8  C   UNL d   1      -1.151  -4.299  -1.075  0.00  0.00     0.146 C 
ENDROOT
BRANCH   2   9
ATOM      9  C   UNL d   1       0.346  -1.181   0.274  0.00  0.00     0.165 A 
ATOM     10  N   UNL d   1      -0.554  -0.254  -0.014  0.00  0.00    -0.321 N 
ATOM     11  C   UNL d   1      -0.091   1.006   0.368  0.00  0.00     0.123 A 
ATOM     12  HN  UNL d   1      -1.457  -0.435  -0.452  1.00  0.00     0.169 HD
ATOM     13  N   UNL d   1       1.135   1.092   0.897  0.00  0.00    -0.309 N 
ATOM     14  S   UNL d   1       1.760  -0.445   0.945  0.00  0.00     0.024 SA
ATOM     15  HN  UNL d   1       1.599   1.944   1.211  1.00  0.00     0.176 HD
BRANCH  11  16
ATOM     16  C   UNL d   1      -0.952   2.186   0.210  0.00  0.00     0.009 A 
ATOM     17  C   UNL d   1      -2.188   2.094  -0.449  0.00  0.00     0.015 A 
ATOM     18  C   UNL d   1      -3.019   3.213  -0.567  0.00  0.00     0.001 A 
ATOM     19  C   UNL d   1      -2.625   4.437  -0.028  0.00  0.00     0.000 A 
ATOM     20  C   UNL d   1      -1.397   4.547   0.619  0.00  0.00     0.001 A 
ATOM     21  C   UNL d   1      -0.566   3.429   0.735  0.00  0.00     0.015 A 
ENDBRANCH  11  16
ENDBRANCH   2   9
BRANCH   1  22
ATOM     22  C   UNL d   1      -2.271  -7.073  -0.589  0.00  0.00     0.049 A 
ATOM     23  C   UNL d   1      -3.276  -7.674   0.189  0.00  0.00     0.053 A 
ATOM     24  C   UNL d   1      -4.501  -7.998  -0.432  0.00  0.00     0.019 A 
ATOM     25  C   UNL d   1      -4.715  -7.751  -1.789  0.00  0.00     0.001 A 
ATOM     26  C   UNL d   1      -3.692  -7.220  -2.563  0.00  0.00     0.001 A 
ATOM     27  C   UNL d   1      -2.465  -6.918  -1.974  0.00  0.00     0.018 A 
BRANCH  23  28
ATOM     28  C   UNL d   1      -3.225  -7.961   1.651  0.00  0.00     0.177 C 
ATOM     29  O   UNL d   1      -4.241  -7.919   2.331  0.00  0.00    -0.646 OA
BRANCH  28  30
ATOM     30  O   UNL d   1      -2.057  -8.387   2.162  0.00  0.00    -0.773 OA
ATOM     31  H   UNL d   1      -1.264  -8.314   1.579  0.00  0.00     0.167 HD
ENDBRANCH  28  30
ENDBRANCH  23  28
ENDBRANCH   1  22
TORSDOF 5
