REMARK  4 active torsions:
REMARK  status: ('A' for Active; 'I' for Inactive)
REMARK    1  A    between atoms: C_15  and  N_1 
REMARK    2  A    between atoms: C_16  and  N_2 
REMARK    3  A    between atoms: O_33  and  C_27 
REMARK    4  A    between atoms: O_34  and  C_28 
ROOT
ATOM      1  N   UNL d   1      -3.122  -1.131   0.125  0.00  0.00    -0.153 NA
ATOM      2  N   UNL d   1       3.107   1.417   0.208  0.00  0.00    -0.153 NA
ATOM      3  C   UNL d   1      -0.577   1.563  -0.579  0.00  0.00    -0.001 C 
ATOM      4  C   UNL d   1      -2.914   0.208  -0.182  0.00  0.00     0.217 C 
ATOM      5  C   UNL d   1       2.033   2.220  -0.156  0.00  0.00     0.217 C 
ATOM      6  C   UNL d   1       2.772   0.185  -0.305  0.00  0.00     0.216 C 
ATOM      7  C   UNL d   1      -1.996  -1.755  -0.372  0.00  0.00     0.216 C 
ATOM      8  C   UNL d   1      -1.469   0.518   0.170  0.00  0.00     0.099 C 
ATOM      9  C   UNL d   1       0.781   1.433   0.191  0.00  0.00     0.099 C 
ATOM     10  C   UNL d   1       1.331  -0.015   0.060  0.00  0.00     0.095 C 
ATOM     11  C   UNL d   1      -0.838  -0.892   0.032  0.00  0.00     0.095 C 
ATOM     12  C   UNL d   1       0.429  -0.878  -0.829  0.00  0.00     0.040 C 
ATOM     13  C   UNL d   1      -0.373   1.078  -1.998  0.00  0.00    -0.013 C 
ATOM     14  C   UNL d   1       0.136  -0.159  -2.128  0.00  0.00    -0.081 C 
ATOM     15  O   UNL d   1      -1.921  -2.822  -0.949  0.00  0.00    -0.278 OA
ATOM     16  O   UNL d   1      -3.717   0.985  -0.677  0.00  0.00    -0.278 OA
ATOM     17  O   UNL d   1       3.488  -0.630  -0.863  0.00  0.00    -0.278 OA
ATOM     18  O   UNL d   1       2.073   3.311  -0.686  0.00  0.00    -0.278 OA
ATOM     19  C   UNL d   1      -1.151   2.976  -0.535  0.00  0.00     0.021 C 
ATOM     20  C   UNL d   1       0.370  -0.826  -3.445  0.00  0.00     0.043 C 
ENDROOT
BRANCH   1  21
ATOM     21  C   UNL d   1      -3.426  -1.399   1.527  0.00  0.00     0.025 A 
ATOM     22  C   UNL d   1      -2.611  -2.245   2.308  0.00  0.00     0.027 A 
ATOM     23  C   UNL d   1      -2.750  -2.323   3.696  0.00  0.00     0.038 A 
ATOM     24  C   UNL d   1      -3.778  -1.641   4.331  0.00  0.00     0.068 A 
ATOM     25  C   UNL d   1      -4.658  -0.877   3.557  0.00  0.00     0.038 A 
ATOM     26  C   UNL d   1      -4.475  -0.736   2.170  0.00  0.00     0.027 A 
BRANCH  24  27
ATOM     27  O   UNL d   1      -4.017  -1.652   5.678  0.00  0.00    -0.356 OA
ATOM     28  C   UNL d   1      -3.085  -2.368   6.488  0.00  0.00     0.210 C 
ENDBRANCH  24  27
ENDBRANCH   1  21
BRANCH   2  29
ATOM     29  C   UNL d   1       3.468   1.430   1.623  0.00  0.00     0.025 A 
ATOM     30  C   UNL d   1       3.815   0.243   2.302  0.00  0.00     0.027 A 
ATOM     31  C   UNL d   1       3.960   0.209   3.698  0.00  0.00     0.038 A 
ATOM     32  C   UNL d   1       3.799   1.370   4.446  0.00  0.00     0.068 A 
ATOM     33  C   UNL d   1       3.518   2.566   3.778  0.00  0.00     0.038 A 
ATOM     34  C   UNL d   1       3.356   2.601   2.384  0.00  0.00     0.027 A 
BRANCH  32  35
ATOM     35  O   UNL d   1       3.876   1.465   5.808  0.00  0.00    -0.356 OA
ATOM     36  C   UNL d   1       4.179   0.276   6.533  0.00  0.00     0.210 C 
ENDBRANCH  32  35
ENDBRANCH   2  29
TORSDOF 4
