REMARK  3 active torsions:
REMARK  status: ('A' for Active; 'I' for Inactive)
REMARK       I    between atoms: N_2  and  C_1 
REMARK    1  A    between atoms: C_4  and  C_1 
REMARK    2  A    between atoms: C_11  and  N_2 
REMARK    3  A    between atoms: C_5  and  C_11 
ROOT
ATOM      1  C   UNL d   1       1.091   0.042  -0.082  0.00  0.00     0.252 C 
ATOM      2  N   UNL d   1       0.376   0.512  -1.162  0.00  0.00    -0.352 N 
ATOM      3  O   UNL d   1       2.307   0.168   0.027  0.00  0.00    -0.268 OA
ATOM      4  H   UNL d   1      -0.628   0.617  -1.096  0.00  0.00     0.163 HD
ENDROOT
BRANCH   1   5
ATOM      5  C   UNL d   1       0.320  -0.632   0.993  0.00  0.00     0.033 A 
ATOM      6  C   UNL d   1       0.801  -0.565   2.306  0.00  0.00     0.041 A 
ATOM      7  C   UNL d   1       0.126  -1.236   3.323  0.00  0.00     0.035 A 
ATOM      8 CL   UNL d   1       0.709  -1.153   4.939  0.00  0.00    -0.084 Cl
ATOM      9  C   UNL d   1      -1.017  -1.985   3.040  0.00  0.00     0.024 A 
ATOM     10  C   UNL d   1      -1.492  -2.061   1.730  0.00  0.00     0.003 A 
ATOM     11  C   UNL d   1      -0.827  -1.384   0.705  0.00  0.00     0.017 A 
ENDBRANCH   1   5
BRANCH   2  12
ATOM     12  C   UNL d   1       1.073   1.204  -2.221  0.00  0.00     0.169 C 
BRANCH  12  13
ATOM     13  C   UNL d   1       0.102   1.640  -3.269  0.00  0.00     0.000 A 
ATOM     14  S   UNL d   1      -0.642   3.183  -3.164  0.00  0.00    -0.105 SA
ATOM     15  C   UNL d   1      -1.460   2.961  -4.649  0.00  0.00     0.050 A 
ATOM     16  C   UNL d   1      -1.196   1.730  -5.206  0.00  0.00     0.008 A 
ATOM     17  C   UNL d   1      -0.298   0.965  -4.407  0.00  0.00     0.017 A 
ENDBRANCH  12  13
ENDBRANCH   2  12
TORSDOF 3
