REMARK  6 active torsions:
REMARK  status: ('A' for Active; 'I' for Inactive)
REMARK    1  A    between atoms: C_11  and  N_1 
REMARK    2  A    between atoms: C_7  and  C_2 
REMARK    3  A    between atoms: C_9  and  C_10 
REMARK    4  A    between atoms: C_16  and  C_11 
REMARK    5  A    between atoms: C_21  and  C_16 
REMARK    6  A    between atoms: O_17  and  C_21 
ROOT
ATOM      1  N   UNL d   1       0.731  -0.576  -0.558  0.00  0.00    -0.307 N 
ATOM      2  C   UNL d   1       0.811   0.710  -0.083  0.00  0.00     0.134 A 
ATOM      3  N   UNL d   1      -0.288   1.133   0.484  0.00  0.00    -0.282 N 
ATOM      4  HN  UNL d   1      -0.455   2.040   0.918  1.00  0.00     0.188 HD
ATOM      5  C   UNL d   1      -0.561  -0.969  -0.277  0.00  0.00     0.194 A 
ATOM      6  N   UNL d   1      -1.159   0.099   0.368  0.00  0.00    -0.274 N 
ATOM      7  S   UNL d   1      -1.352  -2.394  -0.583  0.00  0.00    -0.039 SA
ATOM      8  H   UNL d   1      -2.110   0.147   0.713  0.00  0.00     0.189 HD
ENDROOT
BRANCH   2   9
ATOM      9  C   UNL d   1       2.014   1.570  -0.141  0.00  0.00     0.009 A 
ATOM     10  C   UNL d   1       2.894   1.591  -1.220  0.00  0.00     0.016 A 
ATOM     11  C   UNL d   1       4.034   2.404  -1.187  0.00  0.00     0.009 A 
ATOM     12  C   UNL d   1       4.301   3.263  -0.104  0.00  0.00    -0.051 A 
ATOM     13  C   UNL d   1       3.374   3.273   0.948  0.00  0.00     0.009 A 
ATOM     14  C   UNL d   1       2.247   2.435   0.931  0.00  0.00     0.016 A 
BRANCH  12  15
ATOM     15  C   UNL d   1       5.565   4.141  -0.111  0.00  0.00    -0.024 C 
ATOM     16  C   UNL d   1       5.660   5.107   1.092  0.00  0.00     0.019 C 
ATOM     17  C   UNL d   1       6.815   3.236  -0.075  0.00  0.00     0.019 C 
ATOM     18  C   UNL d   1       5.601   5.006  -1.390  0.00  0.00     0.019 C 
ENDBRANCH  12  15
ENDBRANCH   2   9
BRANCH   1  19
ATOM     19  C   UNL d   1       1.743  -1.418  -1.205  0.00  0.00     0.135 C 
BRANCH  19  20
ATOM     20  C   UNL d   1       2.964  -1.724  -0.345  0.00  0.00     0.046 C 
BRANCH  20  21
ATOM     21  C   UNL d   1       2.642  -2.585   0.867  0.00  0.00     0.168 C 
BRANCH  21  22
ATOM     22  O   UNL d   1       3.872  -2.833   1.548  0.00  0.00    -0.396 OA
ATOM     23  C   UNL d   1       3.679  -3.628   2.711  0.00  0.00     0.201 C 
ENDBRANCH  21  22
ENDBRANCH  20  21
ENDBRANCH  19  20
ENDBRANCH   1  19
TORSDOF 6
