REMARK  4 active torsions:
REMARK  status: ('A' for Active; 'I' for Inactive)
REMARK    1  A    between atoms: N_3  and  C_6 
REMARK    2  A    between atoms: N_4  and  C_5 
REMARK    3  A    between atoms: C_15  and  C_9 
REMARK    4  A    between atoms: C_16  and  C_10 
ROOT
ATOM      1  C   UNL d   1       0.018  -0.696   0.011  0.00  0.00     0.010 A 
ATOM      2  C   UNL d   1      -0.028   0.715   0.012  0.00  0.00     0.010 A 
ATOM      3  C   UNL d   1      -1.226  -1.380   0.017  0.00  0.00     0.114 A 
ATOM      4  C   UNL d   1       1.214   1.401   0.025  0.00  0.00     0.114 A 
ATOM      5  C   UNL d   1       1.296  -1.336   0.005  0.00  0.00     0.023 A 
ATOM      6  C   UNL d   1      -1.304   1.356  -0.010  0.00  0.00     0.023 A 
ATOM      7  C   UNL d   1       2.524  -0.642  -0.019  0.00  0.00    -0.047 A 
ATOM      8  C   UNL d   1      -2.533   0.665  -0.003  0.00  0.00    -0.047 A 
ATOM      9  C   UNL d   1       2.459   0.750   0.002  0.00  0.00     0.045 A 
ATOM     10  C   UNL d   1      -2.470  -0.727   0.018  0.00  0.00     0.045 A 
ENDROOT
BRANCH   7  11
ATOM     11  C   UNL d   1       3.855  -1.413  -0.087  0.00  0.00    -0.024 C 
ATOM     12  C   UNL d   1       3.892  -2.260  -1.379  0.00  0.00     0.019 C 
ATOM     13  C   UNL d   1       5.099  -0.497  -0.106  0.00  0.00     0.019 C 
ATOM     14  C   UNL d   1       3.993  -2.347   1.133  0.00  0.00     0.019 C 
ENDBRANCH   7  11
BRANCH   4  15
ATOM     15  N   UNL d   1       1.257   2.854   0.074  0.00  0.00    -0.115 N 
ATOM     16  O   UNL d   1       0.745   3.407   1.057  0.00  0.00    -0.532 OA
ATOM     17  O   UNL d   1       1.829   3.431  -0.860  0.00  0.00    -0.532 OA
ENDBRANCH   4  15
BRANCH   3  18
ATOM     18  N   UNL d   1      -1.274  -2.834   0.027  0.00  0.00    -0.115 N 
ATOM     19  O   UNL d   1      -0.779  -3.426  -0.942  0.00  0.00    -0.532 OA
ATOM     20  O   UNL d   1      -1.833  -3.372   0.991  0.00  0.00    -0.532 OA
ENDBRANCH   3  18
BRANCH   8  21
ATOM     21  C   UNL d   1      -3.863   1.440  -0.003  0.00  0.00    -0.024 C 
ATOM     22  C   UNL d   1      -5.110   0.526   0.022  0.00  0.00     0.019 C 
ATOM     23  C   UNL d   1      -3.936   2.346   1.246  0.00  0.00     0.019 C 
ATOM     24  C   UNL d   1      -3.965   2.316  -1.270  0.00  0.00     0.019 C 
ENDBRANCH   8  21
TORSDOF 4
