REMARK  10 active torsions:
REMARK  status: ('A' for Active; 'I' for Inactive)
REMARK    1  A    between atoms: N_2  and  S_1 
REMARK    2  A    between atoms: C_9  and  S_1 
REMARK       I    between atoms: C_3  and  N_2 
REMARK       I    between atoms: N_6  and  C_3 
REMARK    3  A    between atoms: C_4  and  C_8 
REMARK    4  A    between atoms: C_5  and  N_6 
REMARK       I    between atoms: C_7  and  N_23 
REMARK    5  A    between atoms: O_14  and  C_7 
REMARK    6  A    between atoms: N_26  and  C_13 
REMARK    7  A    between atoms: C_22  and  O_14 
REMARK    8  A    between atoms: N_23  and  C_30 
REMARK    9  A    between atoms: C_34  and  N_26 
REMARK   10  A    between atoms: C_30  and  C_34 
ROOT
ATOM      1  C   UNL d   1       2.591   2.311  -0.370  0.00  0.00     0.058 A 
ATOM      2  C   UNL d   1       3.845   0.921   1.220  0.00  0.00     0.050 A 
ATOM      3  C   UNL d   1       3.375   1.186  -0.068  0.00  0.00     0.047 A 
ATOM      4  C   UNL d   1       2.335   3.268   0.650  0.00  0.00     0.035 A 
ATOM      5  C   UNL d   1       3.587   1.847   2.223  0.00  0.00     0.018 A 
ATOM      6  C   UNL d   1       2.845   2.998   1.938  0.00  0.00     0.026 A 
ENDROOT
BRANCH   1   7
ATOM      7  N   UNL d   1       1.972   2.425  -1.658  0.00  0.00    -0.306 N 
ATOM      8  C   UNL d   1       2.237   1.604  -2.743  0.00  0.00     0.334 C 
ATOM      9  N   UNL d   1       1.343   1.721  -3.804  0.00  0.00    -0.232 N 
ATOM     10  O   UNL d   1       3.156   0.814  -2.827  0.00  0.00    -0.246 OA
ATOM     11  H   UNL d   1       0.562   2.354  -3.804  0.00  0.00     0.183 HD
ATOM     12  H   UNL d   1       1.252   3.124  -1.727  0.00  0.00     0.170 HD
BRANCH   9  13
ATOM     13  S   UNL d   1       1.608   0.993  -5.289  0.00  0.00     0.266 S 
ATOM     14  O   UNL d   1       2.957   1.284  -5.728  0.00  0.00    -0.200 OA
ATOM     15  O   UNL d   1       0.482   1.412  -6.102  0.00  0.00    -0.200 OA
BRANCH  13  16
ATOM     16  C   UNL d   1       1.442  -0.775  -5.061  0.00  0.00     0.080 A 
ATOM     17  C   UNL d   1       0.166  -1.347  -5.070  0.00  0.00     0.026 A 
ATOM     18  C   UNL d   1       0.019  -2.736  -5.168  0.00  0.00     0.008 A 
ATOM     19  C   UNL d   1       1.140  -3.570  -5.272  0.00  0.00    -0.062 A 
ATOM     20  C   UNL d   1       2.416  -2.993  -5.226  0.00  0.00     0.008 A 
ATOM     21  C   UNL d   1       0.955  -5.046  -5.491  0.00  0.00     0.048 C 
ATOM     22  C   UNL d   1       2.571  -1.604  -5.124  0.00  0.00     0.026 A 
ENDBRANCH  13  16
ENDBRANCH   9  13
ENDBRANCH   1   7
BRANCH   4  23
ATOM     23  N   UNL d   1       1.514   4.389   0.405  0.00  0.00    -0.290 NA
ATOM     24  H   UNL d   1       1.753   4.837  -0.478  0.00  0.00     0.127 HD
BRANCH  23  25
ATOM     25  C   UNL d   1       1.271   5.403   1.453  0.00  0.00     0.112 C 
BRANCH  25  26
ATOM     26  C   UNL d   1       2.408   6.441   1.536  0.00  0.00     0.139 C 
BRANCH  26  27
ATOM     27  N   UNL d   1       2.556   7.200   0.309  0.00  0.00    -0.336 N 
ATOM     28  C   UNL d   1       1.644   8.137  -0.076  0.00  0.00     0.361 C 
ATOM     29  O   UNL d   1       0.637   8.422   0.550  0.00  0.00    -0.238 OA
ATOM     30  H   UNL d   1       3.403   7.138  -0.238  0.00  0.00     0.164 HD
BRANCH  28  31
ATOM     31  O   UNL d   1       2.039   8.678  -1.248  0.00  0.00    -0.294 OA
BRANCH  31  32
ATOM     32  C   UNL d   1       1.266   9.745  -1.863  0.00  0.00     0.061 C 
ATOM     33  C   UNL d   1       1.161  10.960  -0.929  0.00  0.00     0.046 C 
ATOM     34  C   UNL d   1       2.061  10.127  -3.123  0.00  0.00     0.046 C 
ATOM     35  C   UNL d   1      -0.119   9.245  -2.293  0.00  0.00     0.046 C 
ENDBRANCH  31  32
ENDBRANCH  28  31
ENDBRANCH  26  27
ENDBRANCH  25  26
ENDBRANCH  23  25
ENDBRANCH   4  23
BRANCH   2  36
ATOM     36  C   UNL d   1       4.538  -0.385   1.519  0.00  0.00     0.417 C 
ATOM     37  F   UNL d   1       4.637  -1.214   0.443  0.00  0.00    -0.166 F 
ATOM     38  F   UNL d   1       5.806  -0.216   1.981  0.00  0.00    -0.166 F 
ATOM     39  F   UNL d   1       3.881  -1.101   2.474  0.00  0.00    -0.166 F 
ENDBRANCH   2  36
TORSDOF 10
