REMARK  4 active torsions:
REMARK  status: ('A' for Active; 'I' for Inactive)
REMARK    1  A    between atoms: C_7  and  C_2 
REMARK    2  A    between atoms: C_11  and  C_7 
REMARK    3  A    between atoms: C_8  and  C_9 
REMARK    4  A    between atoms: C_9  and  C_11 
ROOT
ATOM      1  C   UNL d   1      -0.206  -0.453  -0.312  0.00  0.00     0.057 A 
ATOM      2  C   UNL d   1       2.087   0.317  -0.316  0.00  0.00     0.059 A 
ATOM      3  S   UNL d   1       1.268  -1.196  -0.479  0.00  0.00    -0.078 SA
ATOM      4  C   UNL d   1       1.186   1.395  -0.183  0.00  0.00    -0.029 A 
ATOM      5  C   UNL d   1      -0.147   0.884  -0.169  0.00  0.00     0.002 A 
ATOM      6  S   UNL d   1      -1.743  -1.098  -0.291  0.00  0.00    -0.093 SA
ATOM      7  C   UNL d   1      -1.431   1.487  -0.033  0.00  0.00    -0.043 A 
ATOM      8  C   UNL d   1      -2.397   0.477  -0.072  0.00  0.00     0.058 A 
ATOM      9  C   UNL d   1       1.658   2.807  -0.046  0.00  0.00     0.050 C 
ATOM     10  C   UNL d   1      -1.845   2.909   0.131  0.00  0.00     0.049 C 
ENDROOT
BRANCH   2  11
ATOM     11  C   UNL d   1       3.550   0.362  -0.375  0.00  0.00     0.174 C 
ATOM     12  O   UNL d   1       4.171   1.356  -0.754  0.00  0.00    -0.291 OA
BRANCH  11  13
ATOM     13  C   UNL d   1       4.346  -0.827   0.127  0.00  0.00     0.172 C 
BRANCH  13  14
ATOM     14  C   UNL d   1       5.656  -1.021  -0.590  0.00  0.00     0.239 C 
ATOM     15  O   UNL d   1       6.684  -1.233   0.065  0.00  0.00    -0.288 OA
BRANCH  14  16
ATOM     16  C   UNL d   1       5.606  -1.131  -2.107  0.00  0.00     0.451 C 
ATOM     17  F   UNL d   1       4.422  -0.725  -2.639  0.00  0.00    -0.163 F 
ATOM     18  F   UNL d   1       6.580  -0.412  -2.724  0.00  0.00    -0.163 F 
ATOM     19  F   UNL d   1       5.761  -2.423  -2.515  0.00  0.00    -0.163 F 
ENDBRANCH  14  16
ENDBRANCH  13  14
ENDBRANCH  11  13
ENDBRANCH   2  11
TORSDOF 4
