REMARK  3 active torsions:
REMARK  status: ('A' for Active; 'I' for Inactive)
REMARK    1  A    between atoms: C_2  and  S_1 
REMARK    2  A    between atoms: N_8  and  S_1 
REMARK    3  A    between atoms: C_11  and  N_8 
ROOT
ATOM      1  S   UNL d   1       0.867  -0.062  -0.009  0.00  0.00     0.267 S 
ATOM      2  O   UNL d   1       0.096   0.672  -0.987  0.00  0.00    -0.200 OA
ATOM      3  O   UNL d   1       2.306  -0.114  -0.063  0.00  0.00    -0.200 OA
ENDROOT
BRANCH   1   4
ATOM      4  C   UNL d   1       0.352  -1.686  -0.171  0.00  0.00     0.135 A 
ATOM      5  C   UNL d   1       1.024  -2.836   0.178  0.00  0.00     0.098 A 
ATOM      6  O   UNL d   1       0.229  -3.905  -0.102  0.00  0.00    -0.241 OA
ATOM      7  C   UNL d   1       2.336  -3.178   0.760  0.00  0.00     0.081 C 
ATOM      8  N   UNL d   1      -0.970  -3.472  -0.628  0.00  0.00    -0.264 N 
ATOM      9  C   UNL d   1      -0.891  -2.136  -0.674  0.00  0.00     0.054 A 
ATOM     10  HN  UNL d   1      -1.757  -4.051  -0.921  1.00  0.00     0.194 HD
ATOM     11  C   UNL d   1      -2.040  -1.361  -1.202  0.00  0.00     0.072 C 
ENDBRANCH   1   4
BRANCH   1  12
ATOM     12  N   UNL d   1       0.391   0.518   1.487  0.00  0.00    -0.281 N 
ATOM     13  H   UNL d   1      -0.376   1.184   1.500  0.00  0.00     0.179 HD
BRANCH  12  14
ATOM     14  C   UNL d   1       0.858  -0.068   2.685  0.00  0.00     0.042 A 
ATOM     15  C   UNL d   1       2.020   0.418   3.282  0.00  0.00     0.032 A 
ATOM     16  C   UNL d   1       2.442  -0.103   4.508  0.00  0.00     0.026 A 
ATOM     17  C   UNL d   1       1.694  -1.102   5.130  0.00  0.00     0.034 A 
ATOM     18  C   UNL d   1       0.542  -1.602   4.523  0.00  0.00     0.026 A 
ATOM     19 CL   UNL d   1       2.189  -1.716   6.659  0.00  0.00    -0.084 Cl
ATOM     20  C   UNL d   1       0.121  -1.082   3.296  0.00  0.00     0.032 A 
ENDBRANCH  12  14
ENDBRANCH   1  12
TORSDOF 3
