REMARK  1 active torsions:
REMARK  status: ('A' for Active; 'I' for Inactive)
REMARK    1  A    between atoms: C_8  and  C_3 
ROOT
ATOM      1  C   UNL d   1       0.090   0.966  -0.076  0.00  0.00     0.182 A 
ATOM      2  C   UNL d   1       0.876  -0.304   0.174  0.00  0.00     0.182 A 
ATOM      3  C   UNL d   1      -0.622  -0.385  -0.124  0.00  0.00     0.100 A 
ATOM      4  C   UNL d   1      -0.170   1.837   1.035  0.00  0.00     0.088 C 
ATOM      5  C   UNL d   1       0.313   1.713  -1.282  0.00  0.00     0.088 C 
ATOM      6  C   UNL d   1       1.874  -0.697  -0.778  0.00  0.00     0.088 C 
ATOM      7  C   UNL d   1       1.272  -0.663   1.508  0.00  0.00     0.088 C 
ATOM      8  N   UNL d   1      -0.357   2.509   1.962  0.00  0.00    -0.195 NA
ATOM      9  N   UNL d   1       0.495   2.308  -2.259  0.00  0.00    -0.195 NA
ATOM     10  N   UNL d   1       2.683  -1.027  -1.538  0.00  0.00    -0.195 NA
ATOM     11  N   UNL d   1       1.557  -0.960   2.590  0.00  0.00    -0.195 NA
ENDROOT
BRANCH   3  12
ATOM     12  C   UNL d   1      -1.194  -0.977  -1.411  0.00  0.00    -0.027 A 
ATOM     13  C   UNL d   1      -2.289  -0.401  -2.095  0.00  0.00     0.041 A 
ATOM     14 CL   UNL d   1      -3.064   1.019  -1.480  0.00  0.00    -0.084 Cl
ATOM     15  C   UNL d   1      -2.818  -0.972  -3.259  0.00  0.00     0.024 A 
ATOM     16  C   UNL d   1      -2.282  -2.153  -3.760  0.00  0.00     0.002 A 
ATOM     17  C   UNL d   1      -1.234  -2.770  -3.088  0.00  0.00     0.001 A 
ATOM     18  C   UNL d   1      -0.709  -2.195  -1.925  0.00  0.00     0.009 A 
ENDBRANCH   3  12
TORSDOF 1
