REMARK  5 active torsions:
REMARK  status: ('A' for Active; 'I' for Inactive)
REMARK    1  A    between atoms: C_13  and  C_3 
REMARK    2  A    between atoms: N_4  and  C_9 
REMARK    3  A    between atoms: C_20  and  C_7 
REMARK    4  A    between atoms: C_19  and  O_21 
REMARK    5  A    between atoms: O_21  and  C_20 
ROOT
ATOM      1  N   UNL d   1       0.148  -0.302   0.965  0.00  0.00    -0.321 N 
ATOM      2  HN  UNL d   1       0.039  -0.550   1.948  1.00  0.00     0.169 HD
ATOM      3  C   UNL d   1      -0.191   0.872   0.331  0.00  0.00     0.138 A 
ATOM      4  N   UNL d   1       0.072   0.876  -0.986  0.00  0.00    -0.242 N 
ATOM      5  HN  UNL d   1      -0.097   1.622  -1.660  1.00  0.00     0.196 HD
ATOM      6  C   UNL d   1       0.646  -1.024  -0.014  0.00  0.00     0.172 A 
ATOM      7  O   UNL d   1       0.633  -0.382  -1.216  0.00  0.00    -0.220 OA
ENDROOT
BRANCH   6   8
ATOM      8  C   UNL d   1       1.172  -2.409   0.012  0.00  0.00     0.262 C 
BRANCH   8   9
ATOM      9  O   UNL d   1       2.582  -2.307   0.204  0.00  0.00    -0.343 OA
BRANCH   9  10
ATOM     10  C   UNL d   1       3.281  -3.480   0.161  0.00  0.00     0.070 A 
ATOM     11  C   UNL d   1       4.605  -3.356  -0.255  0.00  0.00     0.045 A 
ATOM     12  C   UNL d   1       5.445  -4.476  -0.344  0.00  0.00    -0.037 A 
ATOM     13  C   UNL d   1       6.845  -4.289  -0.864  0.00  0.00     0.050 C 
ATOM     14  C   UNL d   1       4.944  -5.738   0.029  0.00  0.00     0.046 A 
ATOM     15  C   UNL d   1       3.612  -5.876   0.464  0.00  0.00    -0.037 A 
ATOM     16 CL   UNL d   1       5.992  -7.118  -0.054  0.00  0.00    -0.083 Cl
ATOM     17  C   UNL d   1       2.791  -4.732   0.526  0.00  0.00     0.045 A 
ATOM     18  C   UNL d   1       2.990  -7.191   0.858  0.00  0.00     0.050 C 
ENDBRANCH   9  10
ENDBRANCH   8   9
ENDBRANCH   6   8
BRANCH   3  19
ATOM     19  C   UNL d   1      -0.822   1.972   1.052  0.00  0.00     0.012 A 
ATOM     20  C   UNL d   1      -1.013   1.873   2.439  0.00  0.00     0.051 A 
ATOM     21  C   UNL d   1      -1.660   2.903   3.133  0.00  0.00     0.103 A 
ATOM     22  C   UNL d   1      -2.116   4.043   2.459  0.00  0.00     0.036 A 
ATOM     23  C   UNL d   1      -1.915   4.149   1.082  0.00  0.00     0.003 A 
ATOM     24  C   UNL d   1      -1.271   3.123   0.385  0.00  0.00     0.015 A 
BRANCH  21  25
ATOM     25  N   UNL d   1      -1.875   2.777   4.581  0.00  0.00    -0.116 N 
ATOM     26  O   UNL d   1      -1.454   1.756   5.143  0.00  0.00    -0.532 OA
ATOM     27  O   UNL d   1      -2.457   3.706   5.157  0.00  0.00    -0.532 OA
ENDBRANCH  21  25
ENDBRANCH   3  19
TORSDOF 5
