REMARK  4 active torsions:
REMARK  status: ('A' for Active; 'I' for Inactive)
REMARK    1  A    between atoms: C_6  and  N_1 
REMARK    2  A    between atoms: S_19  and  C_4 
REMARK    3  A    between atoms: N_7  and  C_5 
REMARK    4  A    between atoms: N_10  and  C_12 
ROOT
ATOM      1  C   UNL d   1      -1.602   2.947   1.064  0.00  0.00     0.133 A 
ATOM      2  C   UNL d   1      -0.748   2.386   0.087  0.00  0.00     0.087 A 
ATOM      3  C   UNL d   1      -2.064   4.275   1.013  0.00  0.00     0.074 A 
ATOM      4  C   UNL d   1      -1.675   5.077  -0.060  0.00  0.00     0.105 A 
ATOM      5  C   UNL d   1      -0.433   3.216  -1.007  0.00  0.00     0.036 A 
ATOM      6  C   UNL d   1      -0.878   4.547  -1.081  0.00  0.00     0.038 A 
ENDROOT
BRANCH   2   7
ATOM      7  N   UNL d   1      -0.169   1.103   0.246  0.00  0.00    -0.245 N 
ATOM      8  C   UNL d   1       0.992   0.582  -0.298  0.00  0.00     0.165 C 
ATOM      9  N   UNL d   1       0.962  -0.700  -0.534  0.00  0.00    -0.291 N 
ATOM     10  C   UNL d   1      -0.300  -1.089  -0.140  0.00  0.00     0.319 C 
ATOM     11  HN  UNL d   1       1.704  -1.283  -0.922  1.00  0.00     0.172 HD
ATOM     12  N   UNL d   1      -1.063   0.030   0.139  0.00  0.00    -0.145 NA
ATOM     13  O   UNL d   1      -0.682  -2.235   0.015  0.00  0.00    -0.252 OA
ATOM     14  H   UNL d   1      -1.793  -0.091   0.837  0.00  0.00     0.158 HD
BRANCH   8  15
ATOM     15  S   UNL d   1       2.420   1.538  -0.591  0.00  0.00    -0.097 SA
ATOM     16  C   UNL d   1       3.542   0.289  -1.255  0.00  0.00     0.099 C 
ENDBRANCH   8  15
ENDBRANCH   2   7
BRANCH   1  17
ATOM     17  N   UNL d   1      -2.005   2.169   2.217  0.00  0.00    -0.113 N 
ATOM     18  O   UNL d   1      -2.667   1.142   2.007  0.00  0.00    -0.532 OA
ATOM     19  O   UNL d   1      -1.673   2.600   3.328  0.00  0.00    -0.532 OA
ENDBRANCH   1  17
BRANCH   4  20
ATOM     20  N   UNL d   1      -2.088   6.486  -0.108  0.00  0.00    -0.116 N 
ATOM     21  O   UNL d   1      -2.806   6.901   0.813  0.00  0.00    -0.532 OA
ATOM     22  O   UNL d   1      -1.690   7.170  -1.058  0.00  0.00    -0.532 OA
ENDBRANCH   4  20
TORSDOF 4
