REMARK  5 active torsions:
REMARK  status: ('A' for Active; 'I' for Inactive)
REMARK    1  A    between atoms: C_7  and  C_3 
REMARK    2  A    between atoms: C_9  and  C_4 
REMARK    3  A    between atoms: C_8  and  C_7 
REMARK    4  A    between atoms: N_14  and  C_8 
REMARK    5  A    between atoms: O_16  and  N_10 
ROOT
ATOM      1  N   UNL d   1       3.984  -4.398   0.038  0.00  0.00    -0.352 N 
ATOM      2  HN  UNL d   1       3.914  -3.381   0.080  1.00  0.00     0.166 HD
ATOM      3  C   UNL d   1       2.957  -5.224  -0.009  0.00  0.00     0.058 A 
ATOM      4  C   UNL d   1       5.174  -5.112   0.020  0.00  0.00     0.049 A 
ATOM      5  S   UNL d   1       3.358  -6.893  -0.083  0.00  0.00    -0.086 SA
ATOM      6  C   UNL d   1       5.022  -6.483  -0.054  0.00  0.00     0.081 A 
ENDROOT
BRANCH   3   7
ATOM      7  C   UNL d   1       1.531  -4.782  -0.004  0.00  0.00     0.142 C 
BRANCH   7   8
ATOM      8  C   UNL d   1       1.065  -4.446  -1.415  0.00  0.00     0.101 C 
ATOM      9  N   UNL d   1      -0.184  -4.689  -1.701  0.00  0.00    -0.257 N 
ATOM     10  HN  UNL d   1      -0.850  -5.123  -1.063  1.00  0.00     0.195 HD
BRANCH   9  11
ATOM     11  O   UNL d   1      -0.485  -4.270  -3.008  0.00  0.00    -0.288 OA
ATOM     12  H   UNL d   1      -1.411  -4.563  -3.107  0.00  0.00     0.244 HD
ENDBRANCH   9  11
BRANCH   8  13
ATOM     13  N   UNL d   1       1.927  -3.846  -2.301  0.00  0.00    -0.387 N 
ATOM     14  H   UNL d   1       2.715  -3.334  -1.915  0.00  0.00     0.157 HD
ATOM     15  H   UNL d   1       1.447  -3.405  -3.078  0.00  0.00     0.157 HD
ENDBRANCH   8  13
ENDBRANCH   7   8
ENDBRANCH   3   7
BRANCH   4  16
ATOM     16  C   UNL d   1       6.462  -4.424   0.031  0.00  0.00    -0.009 A 
ATOM     17  C   UNL d   1       7.626  -5.023   0.533  0.00  0.00     0.015 A 
ATOM     18  C   UNL d   1       8.846  -4.338   0.505  0.00  0.00     0.024 A 
ATOM     19  C   UNL d   1       8.909  -3.051  -0.023  0.00  0.00     0.034 A 
ATOM     20  C   UNL d   1       7.763  -2.437  -0.514  0.00  0.00     0.024 A 
ATOM     21 CL   UNL d   1      10.412  -2.217  -0.069  0.00  0.00    -0.084 Cl
ATOM     22  C   UNL d   1       6.542  -3.119  -0.481  0.00  0.00     0.015 A 
ENDBRANCH   4  16
TORSDOF 5
