REMARK  5 active torsions:
REMARK  status: ('A' for Active; 'I' for Inactive)
REMARK    1  A    between atoms: C_2  and  C_1 
REMARK       I    between atoms: N_4  and  C_2 
REMARK    2  A    between atoms: C_7  and  C_3 
REMARK    3  A    between atoms: C_6  and  N_4 
REMARK    4  A    between atoms: C_10  and  C_5 
REMARK    5  A    between atoms: O_18  and  C_7 
ROOT
ATOM      1  C   UNL d   1       1.340  -1.084  -2.213  0.00  0.00     0.113 C 
ATOM      2  C   UNL d   1       2.472  -1.591  -1.663  0.00  0.00     0.040 C 
ATOM      3  C   UNL d   1       1.192  -1.167  -3.628  0.00  0.00     0.105 C 
ATOM      4  N   UNL d   1       1.069  -1.284  -4.769  0.00  0.00    -0.191 NA
ENDROOT
BRANCH   1   5
ATOM      5  C   UNL d   1       0.253  -0.447  -1.377  0.00  0.00     0.266 C 
ATOM      6  N   UNL d   1      -0.804   0.142  -2.051  0.00  0.00    -0.321 N 
ATOM      7  H   UNL d   1      -0.941  -0.046  -3.047  0.00  0.00     0.169 HD
ATOM      8  O   UNL d   1       0.358  -0.403  -0.155  0.00  0.00    -0.267 OA
BRANCH   6   9
ATOM      9  C   UNL d   1      -1.531   1.276  -1.559  0.00  0.00     0.051 C 
ATOM     10  C   UNL d   1      -2.309   2.051  -2.441  0.00  0.00     0.066 C 
ATOM     11  C   UNL d   1      -2.717   3.343  -2.060  0.00  0.00     0.020 C 
ATOM     12  C   UNL d   1      -2.454   3.828  -0.781  0.00  0.00     0.001 C 
ATOM     13  C   UNL d   1      -1.843   3.000   0.145  0.00  0.00     0.002 C 
ATOM     14  C   UNL d   1      -1.395   1.735  -0.238  0.00  0.00     0.030 C 
BRANCH  10  15
ATOM     15  C   UNL d   1      -2.723   1.516  -3.768  0.00  0.00     0.295 C 
ATOM     16  O   UNL d   1      -2.198   0.555  -4.306  0.00  0.00    -0.259 OA
BRANCH  15  17
ATOM     17  O   UNL d   1      -3.809   2.197  -4.207  0.00  0.00    -0.322 OA
ATOM     18  C   UNL d   1      -4.441   1.695  -5.386  0.00  0.00     0.213 C 
ENDBRANCH  15  17
ENDBRANCH  10  15
ENDBRANCH   6   9
ENDBRANCH   1   5
BRANCH   2  19
ATOM     19  C   UNL d   1       2.656  -1.844  -0.225  0.00  0.00    -0.031 A 
ATOM     20  C   UNL d   1       2.321  -3.133   0.214  0.00  0.00     0.035 A 
ATOM     21  C   UNL d   1       2.149  -3.383   1.571  0.00  0.00     0.036 A 
ATOM     22 CL   UNL d   1       1.638  -4.947   2.075  0.00  0.00    -0.084 Cl
ATOM     23  C   UNL d   1       2.321  -2.370   2.507  0.00  0.00     0.047 A 
ATOM     24  C   UNL d   1       2.722  -1.106   2.074  0.00  0.00     0.036 A 
ATOM     25  C   UNL d   1       2.924  -0.841   0.716  0.00  0.00     0.035 A 
ATOM     26 CL   UNL d   1       2.876   0.166   3.226  0.00  0.00    -0.084 Cl
ENDBRANCH   2  19
TORSDOF 5
