REMARK  6 active torsions:
REMARK  status: ('A' for Active; 'I' for Inactive)
REMARK    1  A    between atoms: O_10  and  C_3 
REMARK    2  A    between atoms: S_9  and  C_4 
REMARK    3  A    between atoms: C_11  and  C_5 
REMARK    4  A    between atoms: C_13  and  C_11 
REMARK    5  A    between atoms: C_15  and  C_13 
REMARK    6  A    between atoms: C_14  and  C_15 
ROOT
ATOM      1  N   UNL d   1      -0.425   1.224   0.570  0.00  0.00    -0.317 N 
ATOM      2  HN  UNL d   1      -0.787   2.068   1.014  1.00  0.00     0.170 HD
ATOM      3  C   UNL d   1      -1.097   0.067   0.568  0.00  0.00     0.150 A 
ATOM      4  C   UNL d   1       0.755   1.189  -0.054  0.00  0.00     0.143 A 
ATOM      5  C   UNL d   1      -0.698  -1.113  -0.029  0.00  0.00     0.015 A 
ATOM      6  N   UNL d   1       1.285   0.113  -0.644  0.00  0.00    -0.340 N 
ATOM      7  HN  UNL d   1       2.199   0.151  -1.095  1.00  0.00     0.167 HD
ATOM      8  C   UNL d   1       0.560  -1.030  -0.621  0.00  0.00     0.018 A 
ATOM      9  C   UNL d   1       1.220  -2.213  -1.271  0.00  0.00     0.069 C 
ENDROOT
BRANCH   5  10
ATOM     10  C   UNL d   1      -1.474  -2.404   0.013  0.00  0.00     0.045 C 
BRANCH  10  11
ATOM     11  C   UNL d   1      -3.008  -2.353   0.015  0.00  0.00     0.005 C 
BRANCH  11  12
ATOM     12  C   UNL d   1      -3.600  -1.638  -1.203  0.00  0.00    -0.000 C 
BRANCH  12  13
ATOM     13  C   UNL d   1      -5.125  -1.597  -1.111  0.00  0.00    -0.005 C 
ATOM     14  C   UNL d   1      -5.743  -0.873  -2.295  0.00  0.00     0.005 C 
ENDBRANCH  12  13
ENDBRANCH  11  12
ENDBRANCH  10  11
ENDBRANCH   5  10
BRANCH   3  15
ATOM     15  O   UNL d   1      -2.268   0.169   1.245  0.00  0.00    -0.346 OA
ATOM     16  H   UNL d   1      -2.256   1.112   1.487  0.00  0.00     0.219 HD
ENDBRANCH   3  15
BRANCH   4  17
ATOM     17  S   UNL d   1       1.684   2.692  -0.082  0.00  0.00    -0.107 SA
ATOM     18  H   UNL d   1       0.756   3.378   0.595  0.00  0.00     0.110 HD
ENDBRANCH   4  17
TORSDOF 6
