REMARK  3 active torsions:
REMARK  status: ('A' for Active; 'I' for Inactive)
REMARK    1  A    between atoms: N_2  and  S_1 
REMARK    2  A    between atoms: C_4  and  S_1 
REMARK       I    between atoms: C_3  and  N_2 
REMARK    3  A    between atoms: C_8  and  C_3 
ROOT
ATOM      1  S   UNL d   1       0.816  -0.064   0.087  0.00  0.00     0.265 S 
ATOM      2  O   UNL d   1      -0.003   0.970   0.679  0.00  0.00    -0.200 OA
ATOM      3  O   UNL d   1       2.250  -0.091   0.294  0.00  0.00    -0.200 OA
ENDROOT
BRANCH   1   4
ATOM      4  N   UNL d   1       0.607  -0.060  -1.571  0.00  0.00    -0.246 N 
ATOM      5  C   UNL d   1      -0.629  -0.281  -2.198  0.00  0.00     0.265 C 
ATOM      6  O   UNL d   1      -1.669  -0.431  -1.580  0.00  0.00    -0.267 OA
ATOM      7  H   UNL d   1       1.490  -0.137  -2.057  0.00  0.00     0.182 HD
BRANCH   5   8
ATOM      8  C   UNL d   1      -0.617  -0.351  -3.688  0.00  0.00     0.033 A 
ATOM      9  C   UNL d   1       0.493  -0.012  -4.474  0.00  0.00     0.017 A 
ATOM     10  C   UNL d   1       0.416  -0.088  -5.869  0.00  0.00     0.001 A 
ATOM     11  C   UNL d   1      -0.763  -0.500  -6.487  0.00  0.00     0.000 A 
ATOM     12  C   UNL d   1      -1.869  -0.847  -5.716  0.00  0.00     0.001 A 
ATOM     13  C   UNL d   1      -1.796  -0.776  -4.324  0.00  0.00     0.017 A 
ENDBRANCH   5   8
ENDBRANCH   1   4
BRANCH   1  14
ATOM     14  C   UNL d   1       0.195  -1.665   0.531  0.00  0.00     0.080 A 
ATOM     15  C   UNL d   1       0.838  -2.796   0.022  0.00  0.00     0.026 A 
ATOM     16  C   UNL d   1       0.283  -4.054   0.238  0.00  0.00     0.008 A 
ATOM     17  C   UNL d   1      -0.903  -4.186   0.973  0.00  0.00    -0.062 A 
ATOM     18  C   UNL d   1      -1.509  -3.046   1.521  0.00  0.00     0.008 A 
ATOM     19  C   UNL d   1      -1.524  -5.542   1.139  0.00  0.00     0.048 C 
ATOM     20  C   UNL d   1      -0.962  -1.780   1.303  0.00  0.00     0.026 A 
ENDBRANCH   1  14
TORSDOF 3
