REMARK  6 active torsions:
REMARK  status: ('A' for Active; 'I' for Inactive)
REMARK    1  A    between atoms: C_3  and  N_1 
REMARK    2  A    between atoms: N_2  and  C_4 
REMARK    3  A    between atoms: C_7  and  C_5 
REMARK    4  A    between atoms: O_13  and  C_7 
REMARK    5  A    between atoms: C_12  and  C_16 
REMARK    6  A    between atoms: C_16  and  O_13 
ROOT
ATOM      1  C   UNL d   1       0.335  -0.228   3.501  0.00  0.00     0.106 A 
ATOM      2  C   UNL d   1       0.481  -0.578   1.123  0.00  0.00     0.106 A 
ATOM      3  C   UNL d   1      -1.587  -1.102   2.286  0.00  0.00     0.044 A 
ATOM      4  C   UNL d   1       1.082  -0.169   2.320  0.00  0.00     0.072 A 
ATOM      5  C   UNL d   1      -0.993  -0.678   3.489  0.00  0.00     0.053 A 
ATOM      6  C   UNL d   1      -0.844  -1.049   1.096  0.00  0.00     0.053 A 
ENDROOT
BRANCH   3   7
ATOM      7  C   UNL d   1      -2.981  -1.635   2.351  0.00  0.00     0.293 C 
ATOM      8  O   UNL d   1      -3.588  -1.740   3.406  0.00  0.00    -0.259 OA
BRANCH   7   9
ATOM      9  O   UNL d   1      -3.429  -1.998   1.130  0.00  0.00    -0.313 OA
BRANCH   9  10
ATOM     10  C   UNL d   1      -4.728  -2.619   1.077  0.00  0.00     0.219 C 
BRANCH  10  11
ATOM     11  C   UNL d   1      -5.667  -1.809   0.212  0.00  0.00    -0.018 A 
ATOM     12  C   UNL d   1      -5.498  -1.628  -1.172  0.00  0.00     0.015 A 
ATOM     13  I   UNL d   1      -3.937  -2.515  -2.264  0.00  0.00    -0.044 I 
ATOM     14  C   UNL d   1      -6.401  -0.843  -1.904  0.00  0.00     0.019 A 
ATOM     15  C   UNL d   1      -7.488  -0.241  -1.271  0.00  0.00     0.001 A 
ATOM     16  C   UNL d   1      -7.684  -0.430   0.092  0.00  0.00     0.001 A 
ATOM     17  C   UNL d   1      -6.783  -1.205   0.826  0.00  0.00     0.011 A 
ENDBRANCH  10  11
ENDBRANCH   9  10
ENDBRANCH   7   9
ENDBRANCH   3   7
BRANCH   1  18
ATOM     18  N   UNL d   1       0.962   0.163   4.773  0.00  0.00    -0.116 N 
ATOM     19  O   UNL d   1       2.154   0.495   4.745  0.00  0.00    -0.532 OA
ATOM     20  O   UNL d   1       0.262   0.128   5.793  0.00  0.00    -0.532 OA
ENDBRANCH   1  18
BRANCH   2  21
ATOM     21  N   UNL d   1       1.262  -0.524  -0.122  0.00  0.00    -0.116 N 
ATOM     22  O   UNL d   1       2.432  -0.122  -0.050  0.00  0.00    -0.532 OA
ATOM     23  O   UNL d   1       0.701  -0.883  -1.166  0.00  0.00    -0.532 OA
ENDBRANCH   2  21
TORSDOF 6
