REMARK  2 active torsions:
REMARK  status: ('A' for Active; 'I' for Inactive)
REMARK    1  A    between atoms: C_8  and  C_2 
REMARK    2  A    between atoms: S_11  and  C_5 
ROOT
ATOM      1  N   UNL d   1      -0.623   0.985  -0.535  0.00  0.00    -0.320 N 
ATOM      2  C   UNL d   1      -1.859   0.703  -0.003  0.00  0.00     0.133 A 
ATOM      3  N   UNL d   1      -1.793  -0.485   0.572  0.00  0.00    -0.283 N 
ATOM      4  HN  UNL d   1      -2.554  -0.950   1.066  1.00  0.00     0.188 HD
ATOM      5  C   UNL d   1       0.164  -0.090  -0.264  0.00  0.00     0.157 A 
ATOM      6  N   UNL d   1      -0.522  -0.990   0.392  0.00  0.00    -0.278 N 
ATOM      7  HN  UNL d   1      -0.181  -1.897   0.711  1.00  0.00     0.189 HD
ATOM      8  H   UNL d   1      -0.343   1.833  -1.001  0.00  0.00     0.169 HD
ENDROOT
BRANCH   2   9
ATOM      9  C   UNL d   1      -3.009   1.596  -0.039  0.00  0.00     0.025 A 
ATOM     10  C   UNL d   1      -3.195   2.545  -1.040  0.00  0.00     0.102 A 
ATOM     11  N   UNL d   1      -4.238   3.407  -1.099  0.00  0.00    -0.374 N 
ATOM     12  C   UNL d   1      -5.159   3.310  -0.117  0.00  0.00     0.087 A 
ATOM     13  HN  UNL d   1      -4.323   4.096  -1.847  1.00  0.00     0.164 HD
ATOM     14  C   UNL d   1      -5.083   2.393   0.917  0.00  0.00     0.018 A 
ATOM     15  C   UNL d   1      -3.993   1.524   0.951  0.00  0.00     0.018 A 
ENDBRANCH   2   9
BRANCH   5  16
ATOM     16  S   UNL d   1       1.813  -0.168  -0.742  0.00  0.00    -0.106 SA
ATOM     17  H   UNL d   1       1.977   1.071  -1.220  0.00  0.00     0.110 HD
ENDBRANCH   5  16
TORSDOF 2
