REMARK  3 active torsions:
REMARK  status: ('A' for Active; 'I' for Inactive)
REMARK    1  A    between atoms: N_6  and  C_1 
REMARK    2  A    between atoms: S_13  and  C_4 
REMARK    3  A    between atoms: C_11  and  C_5 
REMARK       I    between atoms: C_7  and  N_6 
REMARK       I    between atoms: N_8  and  C_7 
ROOT
ATOM      1  C   UNL d   1       1.270  -1.185  -0.126  0.00  0.00     0.072 C 
ATOM      2  C   UNL d   1      -0.780  -0.109  -0.036  0.00  0.00     0.081 C 
ATOM      3  S   UNL d   1       1.685   0.420  -0.482  0.00  0.00    -0.068 SA
ATOM      4  C   UNL d   1       0.091   0.956  -0.205  0.00  0.00     0.064 C 
ATOM      5  C   UNL d   1      -0.096  -1.391   0.021  0.00  0.00     0.025 C 
ATOM      6  C   UNL d   1      -2.200   0.089   0.063  0.00  0.00     0.102 C 
ATOM      7  N   UNL d   1      -3.345   0.249   0.169  0.00  0.00    -0.191 NA
ENDROOT
BRANCH   5   8
ATOM      8  C   UNL d   1      -0.716  -2.729   0.141  0.00  0.00    -0.022 A 
ATOM      9  C   UNL d   1      -0.204  -3.826  -0.574  0.00  0.00     0.014 A 
ATOM     10  C   UNL d   1      -0.809  -5.088  -0.495  0.00  0.00     0.024 A 
ATOM     11  C   UNL d   1      -1.954  -5.261   0.273  0.00  0.00     0.034 A 
ATOM     12  C   UNL d   1      -2.494  -4.187   0.972  0.00  0.00     0.024 A 
ATOM     13 CL   UNL d   1      -2.707  -6.805   0.354  0.00  0.00    -0.084 Cl
ATOM     14  C   UNL d   1      -1.865  -2.935   0.920  0.00  0.00     0.014 A 
ENDBRANCH   5   8
BRANCH   4  15
ATOM     15  S   UNL d   1      -0.282   2.679  -0.230  0.00  0.00    -0.126 SA
ATOM     16  C   UNL d   1      -0.522   2.977   1.542  0.00  0.00     0.096 C 
ENDBRANCH   4  15
BRANCH   1  17
ATOM     17  N   UNL d   1       2.386  -2.004  -0.050  0.00  0.00    -0.203 NA
ATOM     18  C   UNL d   1       2.615  -2.696   1.122  0.00  0.00     0.301 C 
ATOM     19  N   UNL d   1       3.788  -3.436   1.142  0.00  0.00    -0.335 N 
ATOM     20  O   UNL d   1       1.867  -2.639   2.101  0.00  0.00    -0.254 OA
ATOM     21  C   UNL d   1       4.211  -4.065   2.397  0.00  0.00     0.153 C 
ATOM     22  C   UNL d   1       4.728  -3.646   0.034  0.00  0.00     0.153 C 
ATOM     23  C   UNL d   1       4.566  -5.536   2.170  0.00  0.00     0.187 C 
ATOM     24  O   UNL d   1       5.571  -5.664   1.151  0.00  0.00    -0.388 OA
ATOM     25  C   UNL d   1       5.099  -5.131  -0.095  0.00  0.00     0.187 C 
ATOM     26  H   UNL d   1       3.227  -1.561  -0.396  0.00  0.00     0.139 HD
ENDBRANCH   1  17
TORSDOF 3
