REMARK  6 active torsions:
REMARK  status: ('A' for Active; 'I' for Inactive)
REMARK    1  A    between atoms: N_5  and  C_1 
REMARK       I    between atoms: C_7  and  N_5 
REMARK    2  A    between atoms: C_12  and  C_7 
REMARK    3  A    between atoms: C_9  and  C_13 
REMARK    4  A    between atoms: O_15  and  C_9 
REMARK    5  A    between atoms: C_14  and  C_12 
REMARK    6  A    between atoms: C_13  and  C_14 
ROOT
ATOM      1  N   UNL d   1      -2.641  -1.530  -0.055  0.00  0.00    -0.312 N 
ATOM      2  C   UNL d   1      -2.584  -2.848  -0.453  0.00  0.00     0.223 C 
ATOM      3  O   UNL d   1      -1.762  -3.341  -1.224  0.00  0.00    -0.273 OA
ATOM      4  H   UNL d   1      -3.435  -1.201   0.477  0.00  0.00     0.170 HD
ENDROOT
BRANCH   2   5
ATOM      5  C   UNL d   1      -3.720  -3.692   0.098  0.00  0.00     0.108 C 
BRANCH   5   6
ATOM      6  C   UNL d   1      -3.331  -5.182   0.181  0.00  0.00    -0.000 C 
ATOM      7  C   UNL d   1      -4.525  -6.030   0.625  0.00  0.00     0.011 C 
BRANCH   6   8
ATOM      8  C   UNL d   1      -2.089  -5.466   1.053  0.00  0.00     0.114 C 
BRANCH   8   9
ATOM      9  C   UNL d   1      -2.244  -5.123   2.519  0.00  0.00     0.139 C 
ATOM     10  O   UNL d   1      -2.970  -4.252   2.967  0.00  0.00    -0.650 OA
BRANCH   9  11
ATOM     11  O   UNL d   1      -1.443  -5.868   3.317  0.00  0.00    -0.776 OA
ATOM     12  H   UNL d   1      -0.876  -6.497   2.832  0.00  0.00     0.167 HD
ENDBRANCH   9  11
ENDBRANCH   8   9
ENDBRANCH   6   8
ENDBRANCH   5   6
ENDBRANCH   2   5
BRANCH   1  13
ATOM     13  C   UNL d   1      -1.695  -0.591  -0.426  0.00  0.00     0.130 A 
ATOM     14  N   UNL d   1      -0.518  -0.868  -0.993  0.00  0.00    -0.245 N 
ATOM     15  O   UNL d   1       0.092   0.339  -1.245  0.00  0.00    -0.241 OA
ATOM     16  HN  UNL d   1      -0.144  -1.794  -1.200  1.00  0.00     0.196 HD
ATOM     17  C   UNL d   1      -0.716   1.346  -0.829  0.00  0.00     0.076 A 
ATOM     18  C   UNL d   1      -1.846   0.808  -0.261  0.00  0.00     0.084 A 
ATOM     19  C   UNL d   1      -0.229   2.709  -1.095  0.00  0.00     0.079 C 
ENDBRANCH   1  13
TORSDOF 6
