REMARK  6 active torsions:
REMARK  status: ('A' for Active; 'I' for Inactive)
REMARK    1  A    between atoms: S_12  and  C_2 
REMARK    2  A    between atoms: S_13  and  C_3 
REMARK    3  A    between atoms: C_16  and  S_12 
REMARK    4  A    between atoms: C_17  and  S_13 
REMARK    5  A    between atoms: C_21  and  C_16 
REMARK    6  A    between atoms: C_20  and  C_17 
ROOT
ATOM      1  N   UNL d   1       2.982  -8.113   3.378  0.00  0.00    -0.191 NA
ATOM      2  C   UNL d   1       2.838  -7.532   2.383  0.00  0.00     0.099 C 
ATOM      3  C   UNL d   1       2.667  -6.811   1.153  0.00  0.00     0.045 A 
ATOM      4  C   UNL d   1       2.400  -5.434   1.172  0.00  0.00     0.030 A 
ATOM      5  C   UNL d   1       2.236  -4.715  -0.025  0.00  0.00    -0.047 A 
ATOM      6  C   UNL d   1       2.600  -6.779  -1.264  0.00  0.00     0.002 A 
ATOM      7  C   UNL d   1       2.768  -7.481  -0.070  0.00  0.00     0.022 A 
ATOM      8  C   UNL d   1       2.334  -5.409  -1.243  0.00  0.00     0.008 A 
ENDROOT
BRANCH   5   9
ATOM      9  C   UNL d   1       1.931  -3.230  -0.007  0.00  0.00     0.120 C 
BRANCH   9  10
ATOM     10  S   UNL d   1       0.147  -2.923   0.028  0.00  0.00    -0.099 SA
BRANCH  10  11
ATOM     11  C   UNL d   1      -0.020  -1.176   0.044  0.00  0.00     0.129 A 
ATOM     12  S   UNL d   1       1.234  -0.011  -0.092  0.00  0.00    -0.038 SA
ATOM     13  C   UNL d   1       0.028   1.205   0.023  0.00  0.00     0.129 A 
ATOM     14  N   UNL d   1      -1.194   0.741   0.157  0.00  0.00    -0.287 N 
ATOM     15  N   UNL d   1      -1.220  -0.643   0.164  0.00  0.00    -0.287 N 
ATOM     16  HN  UNL d   1      -2.022   1.329   0.246  1.00  0.00     0.188 HD
ATOM     17  HN  UNL d   1      -2.075  -1.191   0.251  1.00  0.00     0.188 HD
BRANCH  13  18
ATOM     18  S   UNL d   1       0.377   2.917  -0.070  0.00  0.00    -0.099 SA
BRANCH  18  19
ATOM     19  C   UNL d   1      -0.588   3.531   1.344  0.00  0.00     0.120 C 
BRANCH  19  20
ATOM     20  C   UNL d   1      -0.518   5.039   1.460  0.00  0.00    -0.047 A 
ATOM     21  C   UNL d   1       0.578   5.663   2.082  0.00  0.00     0.030 A 
ATOM     22  C   UNL d   1       0.644   7.060   2.184  0.00  0.00     0.045 A 
ATOM     23  C   UNL d   1       1.766   7.683   2.825  0.00  0.00     0.099 C 
ATOM     24  C   UNL d   1      -0.388   7.845   1.662  0.00  0.00     0.022 A 
ATOM     25  N   UNL d   1       2.674   8.185   3.345  0.00  0.00    -0.191 NA
ATOM     26  C   UNL d   1      -1.478   7.237   1.040  0.00  0.00     0.002 A 
ATOM     27  C   UNL d   1      -1.542   5.845   0.937  0.00  0.00     0.008 A 
ENDBRANCH  19  20
ENDBRANCH  18  19
ENDBRANCH  13  18
ENDBRANCH  10  11
ENDBRANCH   9  10
ENDBRANCH   5   9
TORSDOF 6
