REMARK  1 active torsions:
REMARK  status: ('A' for Active; 'I' for Inactive)
REMARK    1  A    between atoms: C_7  and  C_4 
ROOT
ATOM      1  C   UNL d   1       1.048  -1.488   0.061  0.00  0.00     0.188 C 
ATOM      2  C   UNL d   1       2.091  -0.704  -0.682  0.00  0.00    -0.011 C 
ATOM      3  C   UNL d   1      -0.309  -0.880   0.139  0.00  0.00     0.021 A 
ATOM      4  C   UNL d   1       2.505  -1.245  -1.852  0.00  0.00    -0.011 C 
ATOM      5  O   UNL d   1       1.263  -2.622   0.460  0.00  0.00    -0.287 OA
ATOM      6  C   UNL d   1      -0.552   0.443   0.544  0.00  0.00    -0.044 A 
ATOM      7  C   UNL d   1       2.624   0.530  -0.020  0.00  0.00     0.042 C 
ATOM      8  C   UNL d   1      -1.376  -1.692  -0.279  0.00  0.00     0.016 A 
ATOM      9  C   UNL d   1       1.604   1.658   0.105  0.00  0.00     0.009 C 
ATOM     10  C   UNL d   1       0.518   1.330   1.120  0.00  0.00     0.040 C 
ATOM     11  C   UNL d   1      -1.861   0.952   0.447  0.00  0.00     0.008 A 
ATOM     12  C   UNL d   1      -2.667  -1.172  -0.366  0.00  0.00     0.001 A 
ATOM     13  C   UNL d   1      -2.905   0.154  -0.024  0.00  0.00     0.001 A 
ENDROOT
BRANCH   4  14
ATOM     14  C   UNL d   1       3.539  -0.671  -2.808  0.00  0.00     0.009 C 
ATOM     15  C   UNL d   1       3.005  -0.554  -4.245  0.00  0.00     0.008 C 
ATOM     16  C   UNL d   1       2.888  -1.890  -4.978  0.00  0.00     0.001 C 
ATOM     17  C   UNL d   1       4.147  -2.748  -4.886  0.00  0.00     0.000 C 
ATOM     18  C   UNL d   1       4.737  -2.832  -3.481  0.00  0.00     0.001 C 
ATOM     19  C   UNL d   1       4.851  -1.466  -2.804  0.00  0.00     0.008 C 
ENDBRANCH   4  14
TORSDOF 1
