REMARK  4 active torsions:
REMARK  status: ('A' for Active; 'I' for Inactive)
REMARK    1  A    between atoms: N_2  and  C_1 
REMARK       I    between atoms: C_3  and  N_2 
REMARK    2  A    between atoms: C_4  and  C_3 
REMARK    3  A    between atoms: C_5  and  C_6 
REMARK    4  A    between atoms: O_13  and  C_5 
ROOT
ATOM      1  N   UNL d   1       0.188   2.141  -0.088  0.00  0.00    -0.319 N 
ATOM      2  C   UNL d   1       1.334   2.891   0.042  0.00  0.00     0.246 C 
ATOM      3  O   UNL d   1       2.489   2.486  -0.006  0.00  0.00    -0.268 OA
ATOM      4  H   UNL d   1      -0.684   2.626  -0.279  0.00  0.00     0.169 HD
ENDROOT
BRANCH   1   5
ATOM      5  C   UNL d   1       0.155   0.739  -0.301  0.00  0.00     0.113 A 
ATOM      6  C   UNL d   1       1.160  -0.158   0.076  0.00  0.00     0.146 A 
ATOM      7  F   UNL d   1       2.183   0.217   0.855  0.00  0.00    -0.204 F 
ATOM      8  C   UNL d   1       1.089  -1.509  -0.271  0.00  0.00     0.045 A 
ATOM      9  C   UNL d   1      -0.007  -1.994  -0.981  0.00  0.00     0.006 A 
ATOM     10  C   UNL d   1      -1.049  -1.130  -1.308  0.00  0.00     0.045 A 
ATOM     11  C   UNL d   1      -0.965   0.217  -0.956  0.00  0.00     0.146 A 
ATOM     12  F   UNL d   1      -1.973   1.037  -1.296  0.00  0.00    -0.204 F 
ENDBRANCH   1   5
BRANCH   2  13
ATOM     13  C   UNL d   1       1.066   4.348   0.132  0.00  0.00     0.081 C 
ATOM     14  C   UNL d   1       2.124   5.170   0.188  0.00  0.00     0.086 C 
BRANCH  14  15
ATOM     15  C   UNL d   1       1.918   6.622   0.216  0.00  0.00     0.165 C 
ATOM     16  O   UNL d   1       0.837   7.158   0.391  0.00  0.00    -0.647 OA
BRANCH  15  17
ATOM     17  O   UNL d   1       3.061   7.298  -0.002  0.00  0.00    -0.773 OA
ATOM     18  H   UNL d   1       3.847   6.747  -0.181  0.00  0.00     0.167 HD
ENDBRANCH  15  17
ENDBRANCH  14  15
ENDBRANCH   2  13
TORSDOF 4
