REMARK  7 active torsions:
REMARK  status: ('A' for Active; 'I' for Inactive)
REMARK    1  A    between atoms: C_10  and  C_3 
REMARK    2  A    between atoms: N_4  and  C_9 
REMARK    3  A    between atoms: C_17  and  C_7 
REMARK    4  A    between atoms: C_14  and  C_21 
REMARK    5  A    between atoms: O_16  and  C_14 
REMARK    6  A    between atoms: C_20  and  C_17 
REMARK    7  A    between atoms: C_21  and  C_20 
ROOT
ATOM      1  N   UNL d   1       1.251   0.155  -0.176  0.00  0.00    -0.323 N 
ATOM      2  HN  UNL d   1       2.252   0.301  -0.310  1.00  0.00     0.169 HD
ATOM      3  C   UNL d   1       0.256   1.096  -0.046  0.00  0.00     0.138 A 
ATOM      4  N   UNL d   1      -0.969   0.573   0.124  0.00  0.00    -0.242 N 
ATOM      5  HN  UNL d   1      -1.853   1.066   0.245  1.00  0.00     0.196 HD
ATOM      6  C   UNL d   1       0.594  -0.974  -0.085  0.00  0.00     0.148 A 
ATOM      7  O   UNL d   1      -0.746  -0.805   0.095  0.00  0.00    -0.223 OA
ENDROOT
BRANCH   3   8
ATOM      8  C   UNL d   1       0.566   2.519  -0.024  0.00  0.00     0.012 A 
ATOM      9  C   UNL d   1       1.899   2.933  -0.181  0.00  0.00     0.051 A 
ATOM     10  C   UNL d   1       2.221   4.293  -0.115  0.00  0.00     0.103 A 
ATOM     11  C   UNL d   1       1.224   5.252   0.101  0.00  0.00     0.036 A 
ATOM     12  C   UNL d   1      -0.102   4.842   0.249  0.00  0.00     0.003 A 
ATOM     13  C   UNL d   1      -0.429   3.484   0.186  0.00  0.00     0.015 A 
BRANCH  10  14
ATOM     14  N   UNL d   1       3.622   4.710  -0.256  0.00  0.00    -0.116 N 
ATOM     15  O   UNL d   1       4.474   3.828  -0.427  0.00  0.00    -0.532 OA
ATOM     16  O   UNL d   1       3.871   5.923  -0.190  0.00  0.00    -0.532 OA
ENDBRANCH  10  14
ENDBRANCH   3   8
BRANCH   6  17
ATOM     17  C   UNL d   1       1.130  -2.351  -0.015  0.00  0.00     0.087 C 
BRANCH  17  18
ATOM     18  C   UNL d   1       2.104  -2.507   1.164  0.00  0.00     0.018 C 
BRANCH  18  19
ATOM     19  C   UNL d   1       1.466  -2.249   2.534  0.00  0.00     0.110 C 
BRANCH  19  20
ATOM     20  C   UNL d   1       0.336  -3.210   2.815  0.00  0.00     0.139 C 
ATOM     21  O   UNL d   1       0.278  -4.349   2.380  0.00  0.00    -0.650 OA
BRANCH  20  22
ATOM     22  O   UNL d   1      -0.622  -2.690   3.612  0.00  0.00    -0.776 OA
ATOM     23  H   UNL d   1      -0.465  -1.768   3.889  0.00  0.00     0.167 HD
ENDBRANCH  20  22
ENDBRANCH  19  20
ENDBRANCH  18  19
ENDBRANCH  17  18
ENDBRANCH   6  17
TORSDOF 7
