REMARK  3 active torsions:
REMARK  status: ('A' for Active; 'I' for Inactive)
REMARK    1  A    between atoms: C_7  and  N_1 
REMARK    2  A    between atoms: S_14  and  C_2 
REMARK    3  A    between atoms: C_16  and  S_14 
ROOT
ATOM      1  C   UNL d   1      -3.599   1.779  -2.690  0.00  0.00    -0.107 C 
ATOM      2  C   UNL d   1      -4.586   1.971  -3.353  0.00  0.00     0.013 C 
ATOM      3  C   UNL d   1      -2.371   1.567  -1.914  0.00  0.00     0.175 C 
ENDROOT
BRANCH   3   4
ATOM      4  S   UNL d   1      -2.452   0.039  -0.923  0.00  0.00    -0.079 SA
BRANCH   4   5
ATOM      5  C   UNL d   1      -0.775  -0.112  -0.507  0.00  0.00     0.178 A 
ATOM      6  N   UNL d   1      -0.125  -1.255  -0.060  0.00  0.00    -0.218 N 
ATOM      7  N   UNL d   1       1.121  -0.864   0.333  0.00  0.00     0.001 NA
ATOM      8  N   UNL d   1       1.214   0.430   0.077  0.00  0.00    -0.006 NA
ATOM      9  N   UNL d   1       0.049   0.911  -0.442  0.00  0.00    -0.264 N 
ATOM     10  HN  UNL d   1      -0.144   1.872  -0.724  1.00  0.00     0.186 HD
BRANCH   6  11
ATOM     11  C   UNL d   1      -0.469  -2.638  -0.023  0.00  0.00     0.068 A 
ATOM     12  C   UNL d   1      -1.058  -3.292  -1.133  0.00  0.00    -0.033 A 
ATOM     13  C   UNL d   1      -1.274  -4.687  -1.067  0.00  0.00     0.015 A 
ATOM     14  C   UNL d   1      -1.411  -2.664  -2.455  0.00  0.00     0.050 C 
ATOM     15  C   UNL d   1      -0.858  -5.450   0.024  0.00  0.00    -0.061 A 
ATOM     16  C   UNL d   1      -0.275  -4.801   1.108  0.00  0.00     0.015 A 
ATOM     17  C   UNL d   1      -1.020  -6.941   0.007  0.00  0.00     0.048 C 
ATOM     18  C   UNL d   1      -0.092  -3.404   1.117  0.00  0.00    -0.033 A 
ATOM     19  C   UNL d   1       0.514  -2.837   2.379  0.00  0.00     0.050 C 
ENDBRANCH   6  11
ENDBRANCH   4   5
ENDBRANCH   3   4
TORSDOF 3
