REMARK  4 active torsions:
REMARK  status: ('A' for Active; 'I' for Inactive)
REMARK    1  A    between atoms: C_2  and  S_1 
REMARK    2  A    between atoms: N_7  and  S_1 
REMARK    3  A    between atoms: C_8  and  C_3 
REMARK    4  A    between atoms: O_12  and  C_8 
ROOT
ATOM      1  C   UNL d   1       0.597  -0.817   1.543  0.00  0.00     0.186 A 
ATOM      2  C   UNL d   1       0.270  -2.405   3.150  0.00  0.00     0.070 A 
ATOM      3  C   UNL d   1       1.084  -2.018   2.045  0.00  0.00     0.072 A 
ATOM      4  O   UNL d   1      -0.497  -0.461   2.295  0.00  0.00    -0.301 OA
ATOM      5  C   UNL d   1      -0.681  -1.403   3.254  0.00  0.00     0.067 A 
ATOM      6  C   UNL d   1      -1.813  -1.162   4.178  0.00  0.00     0.078 C 
ENDROOT
BRANCH   1   7
ATOM      7  S   UNL d   1       1.178   0.203   0.191  0.00  0.00     0.266 S 
ATOM      8  O   UNL d   1       1.044  -0.629  -0.986  0.00  0.00    -0.204 OA
ATOM      9  O   UNL d   1       2.472   0.679   0.633  0.00  0.00    -0.204 OA
BRANCH   7  10
ATOM     10  N   UNL d   1       0.130   1.532   0.041  0.00  0.00    -0.205 NA
ATOM     11  C   UNL d   1      -1.248   1.220  -0.419  0.00  0.00     0.107 C 
ATOM     12  C   UNL d   1      -1.310   1.780  -1.829  0.00  0.00     0.017 C 
ATOM     13  C   UNL d   1      -0.498   3.053  -1.703  0.00  0.00     0.017 C 
ATOM     14  C   UNL d   1       0.655   2.645  -0.796  0.00  0.00     0.107 C 
ENDBRANCH   7  10
ENDBRANCH   1   7
BRANCH   2  15
ATOM     15  C   UNL d   1       0.343  -3.563   4.029  0.00  0.00     0.178 C 
ATOM     16  O   UNL d   1      -0.453  -3.777   4.931  0.00  0.00    -0.646 OA
BRANCH  15  17
ATOM     17  O   UNL d   1       1.371  -4.413   3.784  0.00  0.00    -0.773 OA
ATOM     18  H   UNL d   1       1.957  -4.135   3.060  0.00  0.00     0.167 HD
ENDBRANCH  15  17
ENDBRANCH   2  15
TORSDOF 4
