REMARK  4 active torsions:
REMARK  status: ('A' for Active; 'I' for Inactive)
REMARK    1  A    between atoms: C_2  and  C_1 
REMARK       I    between atoms: N_5  and  C_1 
REMARK    2  A    between atoms: C_3  and  C_4 
REMARK    3  A    between atoms: O_10  and  C_3 
REMARK    4  A    between atoms: C_6  and  N_5 
ROOT
ATOM      1  C   UNL d   1       0.988   0.080   0.514  0.00  0.00     0.245 C 
ATOM      2  N   UNL d   1       0.200   1.086  -0.004  0.00  0.00    -0.324 N 
ATOM      3  O   UNL d   1       0.616  -0.935   1.090  0.00  0.00    -0.268 OA
ATOM      4  H   UNL d   1       0.646   1.795  -0.571  0.00  0.00     0.169 HD
ENDROOT
BRANCH   2   5
ATOM      5  C   UNL d   1      -1.207   1.172   0.093  0.00  0.00     0.035 A 
ATOM      6  C   UNL d   1      -1.967   0.377   0.956  0.00  0.00     0.036 A 
ATOM      7  C   UNL d   1      -3.366   0.470   0.985  0.00  0.00    -0.060 A 
ATOM      8  C   UNL d   1      -4.167  -0.412   1.895  0.00  0.00     0.048 C 
ATOM      9  C   UNL d   1      -4.006   1.379   0.137  0.00  0.00     0.007 A 
ATOM     10  C   UNL d   1      -3.256   2.199  -0.705  0.00  0.00     0.003 A 
ATOM     11  C   UNL d   1      -1.862   2.104  -0.719  0.00  0.00     0.029 A 
ENDBRANCH   2   5
BRANCH   1  12
ATOM     12  C   UNL d   1       2.435   0.311   0.280  0.00  0.00     0.081 C 
ATOM     13  C   UNL d   1       3.306  -0.605   0.729  0.00  0.00     0.086 C 
BRANCH  13  14
ATOM     14  C   UNL d   1       4.744  -0.384   0.527  0.00  0.00     0.165 C 
ATOM     15  O   UNL d   1       5.215   0.576  -0.060  0.00  0.00    -0.647 OA
BRANCH  14  16
ATOM     16  O   UNL d   1       5.492  -1.365   1.067  0.00  0.00    -0.773 OA
ATOM     17  H   UNL d   1       4.998  -2.075   1.516  0.00  0.00     0.167 HD
ENDBRANCH  14  16
ENDBRANCH  13  14
ENDBRANCH   1  12
TORSDOF 4
