REMARK  5 active torsions:
REMARK  status: ('A' for Active; 'I' for Inactive)
REMARK    1  A    between atoms: C_2  and  S_1 
REMARK    2  A    between atoms: N_4  and  S_1 
REMARK    3  A    between atoms: C_6  and  C_3 
REMARK    4  A    between atoms: C_5  and  N_4 
REMARK    5  A    between atoms: O_20  and  C_6 
ROOT
ATOM      1  S   UNL d   1       1.214   0.095   0.124  0.00  0.00     0.248 S 
ATOM      2  O   UNL d   1       0.545  -0.016  -1.153  0.00  0.00    -0.205 OA
ATOM      3  O   UNL d   1       2.659   0.088   0.218  0.00  0.00    -0.205 OA
ENDROOT
BRANCH   1   4
ATOM      4  C   UNL d   1       0.734  -1.375   0.924  0.00  0.00     0.098 A 
ATOM      5  C   UNL d   1      -0.571  -1.813   1.107  0.00  0.00     0.102 A 
ATOM      6  S   UNL d   1      -0.589  -3.393   1.804  0.00  0.00    -0.094 SA
ATOM      7  C   UNL d   1       1.111  -3.497   1.827  0.00  0.00     0.052 A 
ATOM      8  C   UNL d   1       1.698  -2.355   1.337  0.00  0.00     0.033 A 
BRANCH   5   9
ATOM      9  C   UNL d   1      -1.858  -1.220   0.795  0.00  0.00     0.301 C 
ATOM     10  O   UNL d   1      -2.908  -1.832   0.631  0.00  0.00    -0.259 OA
BRANCH   9  11
ATOM     11  O   UNL d   1      -1.770   0.141   0.763  0.00  0.00    -0.322 OA
ATOM     12  C   UNL d   1      -3.012   0.805   0.498  0.00  0.00     0.213 C 
ENDBRANCH   9  11
ENDBRANCH   5   9
ENDBRANCH   1   4
BRANCH   1  13
ATOM     13  N   UNL d   1       0.596   1.445   0.895  0.00  0.00    -0.165 NA
ATOM     14  H   UNL d   1      -0.417   1.335   0.969  0.00  0.00     0.147 HD
BRANCH  13  15
ATOM     15  C   UNL d   1       1.109   1.754   2.173  0.00  0.00     0.111 A 
ATOM     16  N   UNL d   1       0.275   1.326   3.143  0.00  0.00    -0.354 N 
ATOM     17  C   UNL d   1       0.568   1.718   4.405  0.00  0.00     0.096 A 
ATOM     18  HN  UNL d   1      -0.534   0.739   2.936  1.00  0.00     0.166 HD
ATOM     19  C   UNL d   1       1.653   2.520   4.743  0.00  0.00    -0.045 A 
ATOM     20  C   UNL d   1       2.530   2.887   3.718  0.00  0.00     0.030 A 
ATOM     21  C   UNL d   1       1.882   2.963   6.154  0.00  0.00     0.049 C 
ATOM     22  C   UNL d   1       2.254   2.513   2.402  0.00  0.00     0.050 A 
ATOM     23 BR   UNL d   1       3.354   3.197   1.024  0.00  0.00    -0.048 Br
ENDBRANCH  13  15
ENDBRANCH   1  13
TORSDOF 5
