REMARK  5 active torsions:
REMARK  status: ('A' for Active; 'I' for Inactive)
REMARK    1  A    between atoms: C_6  and  C_1 
REMARK    2  A    between atoms: C_7  and  C_2 
REMARK    3  A    between atoms: S_12  and  C_5 
REMARK    4  A    between atoms: O_16  and  C_7 
REMARK    5  A    between atoms: C_17  and  S_12 
ROOT
ATOM      1  C   UNL d   1      -0.067  -1.385  -0.002  0.00  0.00     0.027 A 
ATOM      2  C   UNL d   1       1.319  -1.253  -0.002  0.00  0.00     0.092 A 
ATOM      3  C   UNL d   1      -0.721  -0.090   0.018  0.00  0.00     0.081 A 
ATOM      4  S   UNL d   1       1.789   0.400   0.009  0.00  0.00    -0.074 SA
ATOM      5  C   UNL d   1       0.179   0.959   0.025  0.00  0.00     0.063 A 
ATOM      6  C   UNL d   1      -2.136   0.133  -0.066  0.00  0.00     0.102 C 
ATOM      7  N   UNL d   1      -3.276   0.348  -0.129  0.00  0.00    -0.191 NA
ENDROOT
BRANCH   1   8
ATOM      8  C   UNL d   1      -0.794  -2.719  -0.064  0.00  0.00     0.018 A 
ATOM      9  S   UNL d   1      -2.332  -3.006   0.642  0.00  0.00    -0.101 SA
ATOM     10  C   UNL d   1      -2.374  -4.622   0.100  0.00  0.00     0.050 A 
ATOM     11  C   UNL d   1      -1.245  -4.951  -0.612  0.00  0.00     0.008 A 
ATOM     12  C   UNL d   1      -0.335  -3.854  -0.706  0.00  0.00     0.020 A 
ENDBRANCH   1   8
BRANCH   5  13
ATOM     13  S   UNL d   1      -0.129   2.695  -0.074  0.00  0.00    -0.121 SA
BRANCH  13  14
ATOM     14  C   UNL d   1      -1.075   3.020   1.444  0.00  0.00     0.075 C 
ATOM     15  C   UNL d   1      -1.372   4.507   1.554  0.00  0.00     0.016 C 
ENDBRANCH  13  14
ENDBRANCH   5  13
BRANCH   2  16
ATOM     16  C   UNL d   1       2.365  -2.263   0.073  0.00  0.00     0.184 C 
ATOM     17  O   UNL d   1       2.270  -3.365   0.591  0.00  0.00    -0.646 OA
BRANCH  16  18
ATOM     18  O   UNL d   1       3.519  -1.873  -0.533  0.00  0.00    -0.772 OA
ATOM     19  H   UNL d   1       3.467  -0.966  -0.892  0.00  0.00     0.167 HD
ENDBRANCH  16  18
ENDBRANCH   2  16
TORSDOF 5
