REMARK  5 active torsions:
REMARK  status: ('A' for Active; 'I' for Inactive)
REMARK    1  A    between atoms: N_2  and  C_1 
REMARK    2  A    between atoms: C_3  and  C_6 
REMARK    3  A    between atoms: O_7  and  C_4 
REMARK    4  A    between atoms: C_8  and  O_7 
REMARK    5  A    between atoms: O_17  and  C_13 
ROOT
ATOM      1  C   UNL d   1      -0.498  -0.624  -0.422  0.00  0.00     0.137 A 
ATOM      2  C   UNL d   1       0.761  -1.190  -0.681  0.00  0.00     0.109 A 
ATOM      3  C   UNL d   1      -0.783   0.692  -0.848  0.00  0.00     0.055 A 
ATOM      4  C   UNL d   1       0.174   1.446  -1.546  0.00  0.00     0.050 A 
ATOM      5  C   UNL d   1       1.701  -0.441  -1.408  0.00  0.00     0.040 A 
ATOM      6  C   UNL d   1       1.419   0.864  -1.819  0.00  0.00     0.019 A 
ENDROOT
BRANCH   2   7
ATOM      7  O   UNL d   1       1.044  -2.484  -0.296  0.00  0.00    -0.305 OA
BRANCH   7   8
ATOM      8  C   UNL d   1       2.315  -2.781   0.149  0.00  0.00     0.109 A 
ATOM      9  C   UNL d   1       2.982  -3.928  -0.306  0.00  0.00     0.102 A 
ATOM     10  C   UNL d   1       4.279  -4.182   0.165  0.00  0.00     0.039 A 
ATOM     11  C   UNL d   1       4.904  -3.327   1.074  0.00  0.00     0.003 A 
ATOM     12  C   UNL d   1       4.226  -2.211   1.548  0.00  0.00     0.003 A 
ATOM     13  C   UNL d   1       2.930  -1.950   1.104  0.00  0.00     0.040 A 
BRANCH   9  14
ATOM     14  O   UNL d   1       2.562  -4.873  -1.202  0.00  0.00    -0.353 OA
ATOM     15  C   UNL d   1       1.229  -4.829  -1.681  0.00  0.00     0.210 C 
ENDBRANCH   9  14
ENDBRANCH   7   8
ENDBRANCH   2   7
BRANCH   1  16
ATOM     16  N   UNL d   1      -1.559  -1.363   0.289  0.00  0.00    -0.113 N 
ATOM     17  O   UNL d   1      -1.318  -2.493   0.722  0.00  0.00    -0.532 OA
ATOM     18  O   UNL d   1      -2.654  -0.792   0.415  0.00  0.00    -0.532 OA
ENDBRANCH   1  16
BRANCH   4  19
ATOM     19  C   UNL d   1      -0.116   2.854  -2.011  0.00  0.00     0.417 C 
ATOM     20  F   UNL d   1      -1.395   3.251  -1.772  0.00  0.00    -0.166 F 
ATOM     21  F   UNL d   1       0.683   3.773  -1.404  0.00  0.00    -0.166 F 
ATOM     22  F   UNL d   1       0.081   3.008  -3.349  0.00  0.00    -0.166 F 
ENDBRANCH   4  19
TORSDOF 5
