REMARK  6 active torsions:
REMARK  status: ('A' for Active; 'I' for Inactive)
REMARK    1  A    between atoms: N_9  and  C_1 
REMARK    2  A    between atoms: N_10  and  C_1 
REMARK    3  A    between atoms: N_2  and  N_10 
REMARK    4  A    between atoms: C_4  and  C_13 
REMARK    5  A    between atoms: C_5  and  C_12 
REMARK    6  A    between atoms: C_13  and  N_9 
ROOT
ATOM      1  N   UNL d   1       3.095  -0.677  -1.087  0.00  0.00    -0.309 N 
ATOM      2  HN  UNL d   1       2.605  -1.129  -1.859  1.00  0.00     0.186 HD
ATOM      3  C   UNL d   1       4.388  -0.678  -1.002  0.00  0.00     0.120 C 
ENDROOT
BRANCH   1   4
ATOM      4  N   UNL d   1       2.427  -0.039  -0.084  0.00  0.00    -0.277 N 
ATOM      5  H   UNL d   1       2.926   0.432   0.661  0.00  0.00     0.189 HD
BRANCH   4   6
ATOM      6  C   UNL d   1       1.051  -0.134  -0.000  0.00  0.00     0.186 C 
ATOM      7  S   UNL d   1       0.248   0.560   1.283  0.00  0.00    -0.040 SA
BRANCH   6   8
ATOM      8  N   UNL d   1       0.503  -0.847  -1.035  0.00  0.00    -0.366 N 
ATOM      9  H   UNL d   1       1.216  -1.153  -1.690  0.00  0.00     0.161 HD
BRANCH   8  10
ATOM     10  C   UNL d   1      -0.793  -1.484  -1.085  0.00  0.00     0.126 C 
BRANCH  10  11
ATOM     11  C   UNL d   1      -1.626  -0.907  -2.183  0.00  0.00     0.003 A 
ATOM     12  C   UNL d   1      -2.985  -1.510  -2.445  0.00  0.00     0.007 A 
ATOM     13  C   UNL d   1      -1.890  -1.665  -3.462  0.00  0.00     0.007 A 
ENDBRANCH  10  11
ENDBRANCH   8  10
ENDBRANCH   6   8
ENDBRANCH   4   6
ENDBRANCH   1   4
BRANCH   3  14
ATOM     14  C   UNL d   1       5.200  -1.335  -2.052  0.00  0.00     0.002 A 
ATOM     15  C   UNL d   1       6.598  -1.372  -2.002  0.00  0.00     0.045 A 
ATOM     16 CL   UNL d   1       7.511  -0.687  -0.707  0.00  0.00    -0.083 Cl
ATOM     17  C   UNL d   1       7.312  -1.994  -3.034  0.00  0.00     0.024 A 
ATOM     18  C   UNL d   1       6.637  -2.574  -4.112  0.00  0.00     0.002 A 
ATOM     19  C   UNL d   1       5.247  -2.546  -4.160  0.00  0.00     0.001 A 
ATOM     20  C   UNL d   1       4.531  -1.931  -3.134  0.00  0.00     0.014 A 
ENDBRANCH   3  14
TORSDOF 6
