REMARK  4 active torsions:
REMARK  status: ('A' for Active; 'I' for Inactive)
REMARK    1  A    between atoms: N_8  and  C_1 
REMARK       I    between atoms: C_9  and  N_8 
REMARK    2  A    between atoms: C_12  and  C_9 
REMARK    3  A    between atoms: O_21  and  C_13 
REMARK    4  A    between atoms: O_22  and  C_14 
ROOT
ATOM      1  C   UNL d   1       2.329   0.750   0.230  0.00  0.00     0.155 C 
ATOM      2  S   UNL d   1       2.546  -0.822   0.928  0.00  0.00    -0.011 SA
ATOM      3  C   UNL d   1      -0.061  -0.802   0.075  0.00  0.00     0.051 A 
ATOM      4  C   UNL d   1       1.180  -1.577   0.155  0.00  0.00     0.229 C 
ATOM      5  N   UNL d   1       1.208   1.293  -0.097  0.00  0.00    -0.336 N 
ATOM      6  HN  UNL d   1       1.195   2.248  -0.453  1.00  0.00     0.168 HD
ATOM      7  C   UNL d   1       0.002   0.585   0.032  0.00  0.00     0.051 A 
ATOM      8  C   UNL d   1      -1.285  -1.481   0.066  0.00  0.00     0.058 A 
ATOM      9  C   UNL d   1      -1.205   1.290   0.030  0.00  0.00     0.070 A 
ATOM     10  C   UNL d   1      -2.490  -0.772   0.090  0.00  0.00     0.102 A 
ATOM     11  C   UNL d   1      -2.451   0.633   0.077  0.00  0.00     0.103 A 
ATOM     12  O   UNL d   1       1.227  -2.745  -0.206  0.00  0.00    -0.279 OA
ENDROOT
BRANCH   1  13
ATOM     13  N   UNL d   1       3.553   1.338   0.068  0.00  0.00    -0.301 N 
ATOM     14  C   UNL d   1       3.873   2.475  -0.651  0.00  0.00     0.281 C 
ATOM     15  O   UNL d   1       3.067   3.285  -1.093  0.00  0.00    -0.265 OA
ATOM     16  H   UNL d   1       4.342   0.774   0.356  0.00  0.00     0.171 HD
BRANCH  14  17
ATOM     17  C   UNL d   1       5.306   2.616  -0.835  0.00  0.00     0.142 A 
ATOM     18  O   UNL d   1       6.149   1.702  -0.249  0.00  0.00    -0.317 OA
ATOM     19  C   UNL d   1       7.417   2.053  -0.584  0.00  0.00     0.143 A 
ATOM     20  C   UNL d   1       7.412   3.173  -1.383  0.00  0.00     0.027 A 
ATOM     21  C   UNL d   1       6.053   3.538  -1.543  0.00  0.00     0.045 A 
ENDBRANCH  14  17
ENDBRANCH   1  13
BRANCH  11  22
ATOM     22  O   UNL d   1      -3.505   1.510   0.108  0.00  0.00    -0.353 OA
ATOM     23  C   UNL d   1      -4.819   1.000   0.288  0.00  0.00     0.210 C 
ENDBRANCH  11  22
BRANCH  10  24
ATOM     24  O   UNL d   1      -3.699  -1.416   0.076  0.00  0.00    -0.353 OA
ATOM     25  C   UNL d   1      -3.739  -2.700   0.693  0.00  0.00     0.210 C 
ENDBRANCH  10  24
TORSDOF 4
