REMARK  7 active torsions:
REMARK  status: ('A' for Active; 'I' for Inactive)
REMARK    1  A    between atoms: O_8  and  S_1 
REMARK    2  A    between atoms: C_9  and  S_1 
REMARK    3  A    between atoms: S_2  and  C_3 
REMARK    4  A    between atoms: C_14  and  S_2 
REMARK    5  A    between atoms: N_4  and  O_8 
REMARK    6  A    between atoms: C_6  and  C_11 
REMARK    7  A    between atoms: C_7  and  C_10 
ROOT
ATOM      1  C   UNL d   1       0.830   3.455   1.184  0.00  0.00     0.235 C 
ATOM      2  N   UNL d   1       0.798   2.163   1.331  0.00  0.00    -0.228 N 
ATOM      3  HN  UNL d   1       0.213   1.556   0.757  1.00  0.00     0.197 HD
ATOM      4  C   UNL d   1       1.634   4.267   2.048  0.00  0.00     0.132 C 
ATOM      5  N   UNL d   1       2.294   4.893   2.772  0.00  0.00    -0.189 NA
ENDROOT
BRANCH   1   6
ATOM      6  S   UNL d   1      -0.073   4.255  -0.077  0.00  0.00     0.234 S 
ATOM      7  O   UNL d   1      -1.061   5.089   0.585  0.00  0.00    -0.215 OA
ATOM      8  O   UNL d   1       0.900   4.816  -0.994  0.00  0.00    -0.215 OA
BRANCH   6   9
ATOM      9  C   UNL d   1      -0.942   2.958  -0.931  0.00  0.00     0.066 A 
ATOM     10  C   UNL d   1      -2.239   2.616  -0.531  0.00  0.00     0.025 A 
ATOM     11  C   UNL d   1      -2.922   1.604  -1.209  0.00  0.00     0.025 A 
ATOM     12  C   UNL d   1      -2.314   0.952  -2.283  0.00  0.00     0.034 A 
ATOM     13  C   UNL d   1      -1.024   1.300  -2.685  0.00  0.00     0.025 A 
ATOM     14 CL   UNL d   1      -3.165  -0.285  -3.122  0.00  0.00    -0.084 Cl
ATOM     15  C   UNL d   1      -0.333   2.311  -2.012  0.00  0.00     0.025 A 
ENDBRANCH   6   9
ENDBRANCH   1   6
BRANCH   2  16
ATOM     16  O   UNL d   1       1.649   1.670   2.358  0.00  0.00    -0.146 OA
BRANCH  16  17
ATOM     17  S   UNL d   1       2.122   0.112   2.078  0.00  0.00     0.318 S 
ATOM     18  O   UNL d   1       3.020   0.127   0.936  0.00  0.00    -0.191 OA
ATOM     19  O   UNL d   1       0.955  -0.749   2.103  0.00  0.00    -0.191 OA
BRANCH  17  20
ATOM     20  C   UNL d   1       3.091  -0.336   3.505  0.00  0.00     0.089 A 
ATOM     21  C   UNL d   1       2.481  -0.349   4.764  0.00  0.00     0.042 A 
ATOM     22  C   UNL d   1       3.198  -0.798   5.885  0.00  0.00     0.050 A 
ATOM     23  C   UNL d   1       4.526  -1.234   5.715  0.00  0.00     0.032 A 
ATOM     24  C   UNL d   1       5.135  -1.251   4.446  0.00  0.00     0.050 A 
ATOM     25  C   UNL d   1       4.409  -0.781   3.341  0.00  0.00     0.042 A 
BRANCH  22  26
ATOM     26  C   UNL d   1       2.550  -0.863   7.252  0.00  0.00     0.417 C 
ATOM     27  F   UNL d   1       1.247  -0.470   7.247  0.00  0.00    -0.166 F 
ATOM     28  F   UNL d   1       2.564  -2.120   7.769  0.00  0.00    -0.166 F 
ATOM     29  F   UNL d   1       3.180  -0.071   8.161  0.00  0.00    -0.166 F 
ENDBRANCH  22  26
BRANCH  24  30
ATOM     30  C   UNL d   1       6.527  -1.823   4.280  0.00  0.00     0.417 C 
ATOM     31  F   UNL d   1       6.952  -1.848   2.988  0.00  0.00    -0.166 F 
ATOM     32  F   UNL d   1       7.463  -1.122   4.974  0.00  0.00    -0.166 F 
ATOM     33  F   UNL d   1       6.609  -3.106   4.726  0.00  0.00    -0.166 F 
ENDBRANCH  24  30
ENDBRANCH  17  20
ENDBRANCH  16  17
ENDBRANCH   2  16
TORSDOF 7
