REMARK  3 active torsions:
REMARK  status: ('A' for Active; 'I' for Inactive)
REMARK    1  A    between atoms: C_10  and  C_3 
REMARK    2  A    between atoms: O_12  and  C_4 
REMARK    3  A    between atoms: C_16  and  O_12 
ROOT
ATOM      1  C   UNL d   1       0.129   0.632  -0.084  0.00  0.00     0.090 A 
ATOM      2  C   UNL d   1       0.111  -0.734  -0.018  0.00  0.00     0.039 A 
ATOM      3  C   UNL d   1      -2.307  -0.650  -0.314  0.00  0.00     0.111 A 
ATOM      4  C   UNL d   1      -1.184  -1.388  -0.079  0.00  0.00     0.101 A 
ATOM      5  C   UNL d   1      -2.174   0.853  -0.470  0.00  0.00     0.263 A 
ATOM      6  N   UNL d   1      -0.953   1.430  -0.270  0.00  0.00    -0.316 N 
ATOM      7  S   UNL d   1       1.636   1.347   0.045  0.00  0.00    -0.083 SA
ATOM      8  C   UNL d   1       1.460  -1.247   0.059  0.00  0.00    -0.040 A 
ATOM      9  C   UNL d   1       2.374  -0.197   0.128  0.00  0.00     0.059 A 
ATOM     10  O   UNL d   1      -3.146   1.556  -0.749  0.00  0.00    -0.267 OA
ATOM     11  C   UNL d   1       1.922  -2.669   0.051  0.00  0.00     0.049 C 
ATOM     12  H   UNL d   1      -0.853   2.432  -0.362  0.00  0.00     0.169 HD
ENDROOT
BRANCH   3  13
ATOM     13  C   UNL d   1      -3.705  -1.174  -0.385  0.00  0.00     0.164 C 
ATOM     14  O   UNL d   1      -4.008  -2.102  -1.135  0.00  0.00    -0.292 OA
ATOM     15  C   UNL d   1      -4.771  -0.488   0.436  0.00  0.00     0.097 C 
ENDBRANCH   3  13
BRANCH   4  16
ATOM     16  O   UNL d   1      -1.046  -2.723   0.187  0.00  0.00    -0.349 OA
BRANCH  16  17
ATOM     17  C   UNL d   1      -2.023  -3.715  -0.081  0.00  0.00     0.171 C 
ATOM     18  C   UNL d   1      -1.375  -5.070   0.165  0.00  0.00     0.034 C 
ENDBRANCH  16  17
ENDBRANCH   4  16
TORSDOF 3
