REMARK  5 active torsions:
REMARK  status: ('A' for Active; 'I' for Inactive)
REMARK    1  A    between atoms: C_9  and  C_1 
REMARK    2  A    between atoms: C_3  and  O_11 
REMARK       I    between atoms: C_5  and  N_7 
REMARK    3  A    between atoms: C_10  and  C_5 
REMARK    4  A    between atoms: N_7  and  C_9 
REMARK    5  A    between atoms: O_11  and  C_18 
ROOT
ATOM      1  C   UNL d   1      -0.465  -5.092  -0.086  0.00  0.00     0.251 C 
ATOM      2  N   UNL d   1      -0.248  -3.760   0.183  0.00  0.00    -0.353 N 
ATOM      3  O   UNL d   1       0.387  -5.835  -0.557  0.00  0.00    -0.268 OA
ATOM      4  H   UNL d   1      -1.012  -3.160   0.459  0.00  0.00     0.163 HD
ENDROOT
BRANCH   1   5
ATOM      5  C   UNL d   1      -1.829  -5.619   0.206  0.00  0.00     0.032 A 
ATOM      6  C   UNL d   1      -2.290  -6.725  -0.519  0.00  0.00     0.020 A 
ATOM      7  C   UNL d   1      -3.550  -7.283  -0.250  0.00  0.00     0.038 A 
ATOM      8  C   UNL d   1      -4.342  -6.752   0.767  0.00  0.00     0.078 A 
ATOM      9  C   UNL d   1      -3.888  -5.633   1.473  0.00  0.00     0.038 A 
ATOM     10  C   UNL d   1      -2.635  -5.073   1.208  0.00  0.00     0.020 A 
BRANCH   8  11
ATOM     11  O   UNL d   1      -5.556  -7.216   1.180  0.00  0.00    -0.255 OA
BRANCH  11  12
ATOM     12  C   UNL d   1      -5.951  -8.522   0.793  0.00  0.00     0.530 C 
ATOM     13  F   UNL d   1      -4.930  -9.405   0.841  0.00  0.00    -0.144 F 
ATOM     14  F   UNL d   1      -6.905  -8.949   1.648  0.00  0.00    -0.144 F 
ATOM     15  F   UNL d   1      -6.473  -8.505  -0.451  0.00  0.00    -0.144 F 
ENDBRANCH  11  12
ENDBRANCH   8  11
ENDBRANCH   1   5
BRANCH   2  16
ATOM     16  C   UNL d   1       1.037  -3.134  -0.037  0.00  0.00     0.162 C 
BRANCH  16  17
ATOM     17  C   UNL d   1       1.466  -2.486   1.244  0.00  0.00    -0.022 A 
ATOM     18  C   UNL d   1       1.762  -3.202   2.390  0.00  0.00     0.060 A 
ATOM     19  S   UNL d   1       2.222  -2.216   3.695  0.00  0.00    -0.101 SA
ATOM     20  C   UNL d   1       2.067  -0.782   2.758  0.00  0.00     0.015 A 
ATOM     21  C   UNL d   1       1.653  -1.062   1.451  0.00  0.00    -0.011 A 
ATOM     22  C   UNL d   1       2.316   0.535   3.195  0.00  0.00     0.019 A 
ATOM     23  C   UNL d   1       1.491   0.038   0.568  0.00  0.00     0.013 A 
ATOM     24  C   UNL d   1       1.740   1.348   0.997  0.00  0.00     0.001 A 
ATOM     25  C   UNL d   1       2.148   1.591   2.299  0.00  0.00     0.001 A 
ENDBRANCH  16  17
ENDBRANCH   2  16
TORSDOF 5
