REMARK  7 active torsions:
REMARK  status: ('A' for Active; 'I' for Inactive)
REMARK       I    between atoms: C_2  and  N_1 
REMARK    1  A    between atoms: C_5  and  N_1 
REMARK    2  A    between atoms: C_6  and  N_1 
REMARK    3  A    between atoms: C_3  and  C_2 
REMARK    4  A    between atoms: C_11  and  C_5 
REMARK    5  A    between atoms: C_12  and  C_6 
REMARK    6  A    between atoms: O_23  and  C_13 
REMARK    7  A    between atoms: O_24  and  C_14 
ROOT
ATOM      1  N   UNL d   1       0.842  -0.054   0.100  0.00  0.00    -0.339 N 
ATOM      2  C   UNL d   1       0.150   0.092   1.317  0.00  0.00     0.261 C 
ATOM      3  O   UNL d   1      -1.074   0.250   1.306  0.00  0.00    -0.267 OA
ENDROOT
BRANCH   1   4
ATOM      4  C   UNL d   1       0.079   0.107  -1.137  0.00  0.00     0.165 C 
BRANCH   4   5
ATOM      5  C   UNL d   1      -0.157  -1.158  -1.929  0.00  0.00    -0.040 A 
ATOM      6  C   UNL d   1      -1.022  -2.155  -1.459  0.00  0.00     0.011 A 
ATOM      7  C   UNL d   1      -1.388  -3.228  -2.282  0.00  0.00     0.037 A 
ATOM      8  C   UNL d   1      -0.895  -3.315  -3.584  0.00  0.00     0.068 A 
ATOM      9  C   UNL d   1       0.016  -2.359  -4.034  0.00  0.00     0.037 A 
ATOM     10  C   UNL d   1       0.381  -1.288  -3.216  0.00  0.00     0.011 A 
BRANCH   8  11
ATOM     11  O   UNL d   1      -1.225  -4.271  -4.506  0.00  0.00    -0.356 OA
ATOM     12  C   UNL d   1      -2.403  -5.024  -4.241  0.00  0.00     0.210 C 
ENDBRANCH   8  11
ENDBRANCH   4   5
ENDBRANCH   1   4
BRANCH   1  13
ATOM     13  C   UNL d   1       2.299  -0.091  -0.026  0.00  0.00     0.165 C 
BRANCH  13  14
ATOM     14  C   UNL d   1       3.001   1.250   0.080  0.00  0.00    -0.040 A 
ATOM     15  C   UNL d   1       4.323   1.294   0.549  0.00  0.00     0.011 A 
ATOM     16  C   UNL d   1       5.060   2.487   0.537  0.00  0.00     0.037 A 
ATOM     17  C   UNL d   1       4.492   3.656   0.037  0.00  0.00     0.068 A 
ATOM     18  C   UNL d   1       3.171   3.633  -0.398  0.00  0.00     0.037 A 
ATOM     19  C   UNL d   1       2.431   2.446  -0.375  0.00  0.00     0.011 A 
BRANCH  17  20
ATOM     20  O   UNL d   1       5.108   4.871  -0.078  0.00  0.00    -0.356 OA
ATOM     21  C   UNL d   1       6.513   4.898   0.134  0.00  0.00     0.210 C 
ENDBRANCH  17  20
ENDBRANCH  13  14
ENDBRANCH   1  13
BRANCH   2  22
ATOM     22  C   UNL d   1       0.882   0.071   2.576  0.00  0.00     0.072 A 
ATOM     23  S   UNL d   1       0.571   1.326   3.710  0.00  0.00    -0.097 SA
ATOM     24  C   UNL d   1       1.615   0.634   4.873  0.00  0.00     0.050 A 
ATOM     25  C   UNL d   1       2.198  -0.526   4.417  0.00  0.00     0.009 A 
ATOM     26  C   UNL d   1       1.755  -0.864   3.101  0.00  0.00     0.025 A 
ENDBRANCH   2  22
TORSDOF 7
