REMARK  7 active torsions:
REMARK  status: ('A' for Active; 'I' for Inactive)
REMARK    1  A    between atoms: C_5  and  C_1 
REMARK    2  A    between atoms: C_16  and  C_4 
REMARK       I    between atoms: N_9  and  C_5 
REMARK    3  A    between atoms: C_8  and  C_11 
REMARK    4  A    between atoms: C_10  and  N_9 
REMARK    5  A    between atoms: O_14  and  C_12 
REMARK    6  A    between atoms: C_22  and  O_14 
REMARK    7  A    between atoms: O_29  and  C_23 
ROOT
ATOM      1  C   UNL d   1      -2.262   3.076  -0.027  0.00  0.00     0.070 A 
ATOM      2  C   UNL d   1      -4.625   3.465  -0.467  0.00  0.00     0.050 A 
ATOM      3  C   UNL d   1      -2.594   2.165   0.992  0.00  0.00     0.102 A 
ATOM      4  C   UNL d   1      -3.275   3.767  -0.701  0.00  0.00     0.048 A 
ATOM      5  C   UNL d   1      -4.946   2.472   0.470  0.00  0.00     0.019 A 
ATOM      6  C   UNL d   1      -3.939   1.840   1.201  0.00  0.00     0.040 A 
ENDROOT
BRANCH   1   7
ATOM      7  N   UNL d   1      -0.935   3.325  -0.421  0.00  0.00    -0.319 N 
ATOM      8  C   UNL d   1      -0.219   2.639  -1.387  0.00  0.00     0.275 C 
ATOM      9  O   UNL d   1       0.921   3.018  -1.657  0.00  0.00    -0.266 OA
ATOM     10  H   UNL d   1      -0.564   4.255  -0.270  0.00  0.00     0.169 HD
BRANCH   8  11
ATOM     11  C   UNL d   1      -0.853   1.526  -2.092  0.00  0.00     0.132 A 
ATOM     12  N   UNL d   1      -2.216   1.411  -2.282  0.00  0.00    -0.330 N 
ATOM     13  C   UNL d   1      -2.372   0.291  -2.950  0.00  0.00     0.158 A 
ATOM     14  HN  UNL d   1      -2.943   2.055  -1.970  1.00  0.00     0.168 HD
ATOM     15  O   UNL d   1      -1.197  -0.330  -3.276  0.00  0.00    -0.295 OA
ATOM     16  C   UNL d   1      -0.227   0.480  -2.741  0.00  0.00     0.084 A 
ATOM     17  C   UNL d   1       1.172   0.064  -2.946  0.00  0.00     0.079 C 
BRANCH  13  18
ATOM     18  C   UNL d   1      -3.624  -0.336  -3.352  0.00  0.00     0.015 A 
ATOM     19  C   UNL d   1      -4.816   0.400  -3.242  0.00  0.00     0.016 A 
ATOM     20  C   UNL d   1      -6.046  -0.167  -3.570  0.00  0.00     0.001 A 
ATOM     21  C   UNL d   1      -6.103  -1.483  -4.015  0.00  0.00     0.000 A 
ATOM     22  C   UNL d   1      -4.926  -2.232  -4.135  0.00  0.00     0.001 A 
ATOM     23  C   UNL d   1      -3.693  -1.658  -3.807  0.00  0.00     0.016 A 
ENDBRANCH  13  18
ENDBRANCH   8  11
ENDBRANCH   1   7
BRANCH   3  24
ATOM     24  O   UNL d   1      -1.723   1.492   1.823  0.00  0.00    -0.309 OA
BRANCH  24  25
ATOM     25  C   UNL d   1      -0.581   2.100   2.286  0.00  0.00     0.076 C 
ATOM     26  C   UNL d   1      -0.424   3.473   2.492  0.00  0.00     0.040 C 
ATOM     27  C   UNL d   1       0.842   3.994   2.772  0.00  0.00     0.039 C 
ATOM     28  C   UNL d   1       1.930   3.134   2.922  0.00  0.00     0.068 C 
ATOM     29  C   UNL d   1       1.733   1.755   2.897  0.00  0.00     0.039 C 
ATOM     30  C   UNL d   1       0.480   1.238   2.570  0.00  0.00     0.040 C 
BRANCH  28  31
ATOM     31  O   UNL d   1       3.213   3.561   3.132  0.00  0.00    -0.356 OA
ATOM     32  C   UNL d   1       3.589   4.655   2.295  0.00  0.00     0.210 C 
ENDBRANCH  28  31
ENDBRANCH  24  25
ENDBRANCH   3  24
BRANCH   2  33
ATOM     33  C   UNL d   1      -5.720   4.160  -1.234  0.00  0.00     0.417 C 
ATOM     34  F   UNL d   1      -5.267   5.145  -2.059  0.00  0.00    -0.166 F 
ATOM     35  F   UNL d   1      -6.429   3.307  -2.024  0.00  0.00    -0.166 F 
ATOM     36  F   UNL d   1      -6.630   4.753  -0.413  0.00  0.00    -0.166 F 
ENDBRANCH   2  33
TORSDOF 7
