REMARK  4 active torsions:
REMARK  status: ('A' for Active; 'I' for Inactive)
REMARK    1  A    between atoms: C_5  and  C_1 
REMARK    2  A    between atoms: C_7  and  C_2 
REMARK       I    between atoms: N_9  and  C_7 
REMARK    3  A    between atoms: C_19  and  N_9 
REMARK    4  A    between atoms: C_18  and  C_19 
ROOT
ATOM      1  C   UNL d   1      -1.325  -0.694   0.381  0.00  0.00     0.086 A 
ATOM      2  C   UNL d   1      -0.062  -1.297   0.032  0.00  0.00     0.092 A 
ATOM      3  N   UNL d   1      -1.173   0.640   0.468  0.00  0.00    -0.259 N 
ATOM      4  HN  UNL d   1      -1.886   1.310   0.755  1.00  0.00     0.195 HD
ATOM      5  O   UNL d   1       0.109   0.932   0.102  0.00  0.00    -0.241 OA
ATOM      6  C   UNL d   1       0.780  -0.211  -0.151  0.00  0.00     0.090 A 
ATOM      7  C   UNL d   1       2.191  -0.031  -0.555  0.00  0.00     0.080 C 
ENDROOT
BRANCH   2   8
ATOM      8  C   UNL d   1       0.423  -2.662  -0.088  0.00  0.00     0.256 C 
ATOM      9  N   UNL d   1      -0.431  -3.617  -0.590  0.00  0.00    -0.352 N 
ATOM     10  H   UNL d   1      -1.402  -3.408  -0.764  0.00  0.00     0.163 HD
ATOM     11  O   UNL d   1       1.581  -2.949   0.224  0.00  0.00    -0.267 OA
BRANCH   9  12
ATOM     12  C   UNL d   1       0.006  -5.000  -0.595  0.00  0.00     0.161 C 
BRANCH  12  13
ATOM     13  C   UNL d   1      -0.770  -5.863  -1.553  0.00  0.00    -0.040 A 
ATOM     14  C   UNL d   1      -1.212  -7.138  -1.154  0.00  0.00     0.018 A 
ATOM     15  C   UNL d   1      -1.851  -7.941  -2.085  0.00  0.00    -0.022 A 
ATOM     16  C   UNL d   1      -2.437  -9.292  -1.934  0.00  0.00     0.068 C 
ATOM     17  C   UNL d   1      -2.069  -7.494  -3.379  0.00  0.00     0.075 A 
ATOM     18  C   UNL d   1      -2.654  -9.627  -3.411  0.00  0.00     0.180 C 
ATOM     19  O   UNL d   1      -2.728  -8.398  -4.170  0.00  0.00    -0.350 OA
ATOM     20  C   UNL d   1      -1.650  -6.253  -3.804  0.00  0.00     0.038 A 
ATOM     21  C   UNL d   1      -0.979  -5.441  -2.886  0.00  0.00     0.011 A 
ENDBRANCH  12  13
ENDBRANCH   9  12
ENDBRANCH   2   8
BRANCH   1  22
ATOM     22  C   UNL d   1      -2.656  -1.251   0.694  0.00  0.00     0.037 A 
ATOM     23  C   UNL d   1      -2.835  -2.334   1.577  0.00  0.00     0.048 A 
ATOM     24 CL   UNL d   1      -1.542  -3.073   2.459  0.00  0.00    -0.083 Cl
ATOM     25  C   UNL d   1      -4.116  -2.840   1.859  0.00  0.00     0.025 A 
ATOM     26  C   UNL d   1      -5.253  -2.234   1.334  0.00  0.00     0.003 A 
ATOM     27  C   UNL d   1      -5.112  -1.127   0.514  0.00  0.00     0.025 A 
ATOM     28  C   UNL d   1      -3.834  -0.650   0.176  0.00  0.00     0.048 A 
ATOM     29 CL   UNL d   1      -3.834   0.694  -0.926  0.00  0.00    -0.083 Cl
ENDBRANCH   1  22
TORSDOF 4
