REMARK  5 active torsions:
REMARK  status: ('A' for Active; 'I' for Inactive)
REMARK    1  A    between atoms: C_3  and  C_1 
REMARK    2  A    between atoms: C_9  and  C_2 
REMARK    3  A    between atoms: C_16  and  C_8 
REMARK    4  A    between atoms: C_15  and  O_19 
REMARK    5  A    between atoms: O_19  and  C_25 
ROOT
ATOM      1  C   UNL d   1       0.226  -2.716   0.136  0.00  0.00     0.187 A 
ATOM      2  N   UNL d   1       1.221  -3.258   0.808  0.00  0.00    -0.318 N 
ATOM      3  HN  UNL d   1       1.940  -2.794   1.363  1.00  0.00     0.169 HD
ATOM      4  C   UNL d   1       1.049  -4.605   0.576  0.00  0.00     0.138 A 
ATOM      5  N   UNL d   1       0.016  -4.894  -0.227  0.00  0.00    -0.242 N 
ATOM      6  HN  UNL d   1      -0.282  -5.808  -0.567  1.00  0.00     0.196 HD
ATOM      7  O   UNL d   1      -0.553  -3.656  -0.486  0.00  0.00    -0.217 OA
ENDROOT
BRANCH   1   8
ATOM      8  C   UNL d   1      -0.056  -1.266   0.049  0.00  0.00     0.078 A 
ATOM      9  C   UNL d   1       0.786  -0.146   0.290  0.00  0.00     0.087 A 
ATOM     10  N   UNL d   1       0.102   0.991   0.062  0.00  0.00    -0.259 N 
ATOM     11  O   UNL d   1      -1.177   0.621  -0.293  0.00  0.00    -0.241 OA
ATOM     12  HN  UNL d   1       0.462   1.942   0.137  1.00  0.00     0.195 HD
ATOM     13  C   UNL d   1      -1.272  -0.733  -0.310  0.00  0.00     0.089 A 
ATOM     14  C   UNL d   1      -2.595  -1.294  -0.646  0.00  0.00     0.080 C 
BRANCH   9  15
ATOM     15  C   UNL d   1       2.207  -0.101   0.626  0.00  0.00     0.054 A 
ATOM     16  C   UNL d   1       2.729   0.701   1.654  0.00  0.00     0.049 A 
ATOM     17 CL   UNL d   1       1.739   1.672   2.691  0.00  0.00    -0.083 Cl
ATOM     18  C   UNL d   1       4.109   0.725   1.908  0.00  0.00     0.025 A 
ATOM     19  C   UNL d   1       4.983  -0.059   1.155  0.00  0.00     0.005 A 
ATOM     20  C   UNL d   1       4.480  -0.856   0.134  0.00  0.00     0.043 A 
ATOM     21  C   UNL d   1       3.111  -0.860  -0.131  0.00  0.00     0.130 A 
ATOM     22  F   UNL d   1       2.680  -1.604  -1.162  0.00  0.00    -0.205 F 
ENDBRANCH   9  15
ENDBRANCH   1   8
BRANCH   4  23
ATOM     23  C   UNL d   1       1.840  -5.635   1.233  0.00  0.00     0.010 A 
ATOM     24  C   UNL d   1       2.292  -5.452   2.547  0.00  0.00     0.018 A 
ATOM     25  C   UNL d   1       2.905  -6.504   3.239  0.00  0.00     0.038 A 
ATOM     26  C   UNL d   1       3.067  -7.745   2.627  0.00  0.00     0.078 A 
ATOM     27  C   UNL d   1       2.702  -7.901   1.285  0.00  0.00     0.038 A 
ATOM     28  C   UNL d   1       2.079  -6.859   0.596  0.00  0.00     0.018 A 
BRANCH  26  29
ATOM     29  O   UNL d   1       3.568  -8.867   3.216  0.00  0.00    -0.255 OA
BRANCH  29  30
ATOM     30  C   UNL d   1       3.293  -9.033   4.600  0.00  0.00     0.530 C 
ATOM     31  F   UNL d   1       2.104  -8.504   4.964  0.00  0.00    -0.144 F 
ATOM     32  F   UNL d   1       3.258 -10.356   4.873  0.00  0.00    -0.144 F 
ATOM     33  F   UNL d   1       4.274  -8.473   5.338  0.00  0.00    -0.144 F 
ENDBRANCH  29  30
ENDBRANCH  26  29
ENDBRANCH   4  23
TORSDOF 5
