REMARK  3 active torsions:
REMARK  status: ('A' for Active; 'I' for Inactive)
REMARK    1  A    between atoms: N_2  and  C_1 
REMARK    2  A    between atoms: C_9  and  C_4 
REMARK    3  A    between atoms: S_17  and  C_16 
ROOT
ATOM      1  C   UNL d   1       2.360  -0.834  -0.033  0.00  0.00     0.115 C 
ATOM      2  C   UNL d   1       1.228  -1.546  -0.056  0.00  0.00     0.049 C 
ATOM      3  C   UNL d   1       2.455   0.656   0.031  0.00  0.00     0.218 C 
ATOM      4  O   UNL d   1       1.182   1.349  -0.065  0.00  0.00    -0.334 OA
ATOM      5  C   UNL d   1      -0.012  -0.784  -0.024  0.00  0.00     0.001 A 
ATOM      6  C   UNL d   1       0.027   0.616  -0.033  0.00  0.00     0.080 A 
ATOM      7  C   UNL d   1      -1.248  -1.439  -0.005  0.00  0.00     0.038 A 
ATOM      8  C   UNL d   1      -1.159   1.353  -0.020  0.00  0.00     0.039 A 
ATOM      9  C   UNL d   1      -2.429  -0.696   0.005  0.00  0.00     0.035 A 
ATOM     10  C   UNL d   1      -2.391   0.697   0.000  0.00  0.00     0.026 A 
ATOM     11 CL   UNL d   1      -3.946  -1.508   0.020  0.00  0.00    -0.084 Cl
ENDROOT
BRANCH   3  12
ATOM     12  C   UNL d   1       3.120   1.168   1.305  0.00  0.00    -0.023 A 
ATOM     13  C   UNL d   1       4.304   1.914   1.237  0.00  0.00     0.011 A 
ATOM     14  C   UNL d   1       4.920   2.381   2.404  0.00  0.00     0.019 A 
ATOM     15  C   UNL d   1       4.373   2.109   3.663  0.00  0.00    -0.000 A 
ATOM     16  C   UNL d   1       3.182   1.384   3.732  0.00  0.00     0.019 A 
ATOM     17  C   UNL d   1       2.563   0.915   2.568  0.00  0.00     0.011 A 
BRANCH  15  18
ATOM     18  S   UNL d   1       5.215   2.764   5.097  0.00  0.00    -0.134 SA
ATOM     19  C   UNL d   1       4.845   1.516   6.361  0.00  0.00     0.095 C 
ENDBRANCH  15  18
ENDBRANCH   3  12
BRANCH   1  20
ATOM     20  N   UNL d   1       3.615  -1.548  -0.128  0.00  0.00    -0.117 N 
ATOM     21  O   UNL d   1       3.658  -2.706   0.310  0.00  0.00    -0.532 OA
ATOM     22  O   UNL d   1       4.563  -0.958  -0.661  0.00  0.00    -0.532 OA
ENDBRANCH   1  20
TORSDOF 3
