REMARK  3 active torsions:
REMARK  status: ('A' for Active; 'I' for Inactive)
REMARK    1  A    between atoms: N_2  and  C_1 
REMARK    2  A    between atoms: C_5  and  N_2 
REMARK    3  A    between atoms: C_8  and  C_5 
ROOT
ATOM      1  N   UNL d   1       3.716  -1.554   2.489  0.00  0.00    -0.195 NA
ATOM      2  C   UNL d   1       3.438  -1.928   1.421  0.00  0.00     0.084 C 
ATOM      3  C   UNL d   1       3.101  -2.407   0.056  0.00  0.00     0.201 C 
ENDROOT
BRANCH   3   4
ATOM      4  N   UNL d   1       1.674  -2.263  -0.302  0.00  0.00    -0.272 NA
ATOM      5  H   UNL d   1       1.146  -3.025   0.117  0.00  0.00     0.129 HD
BRANCH   4   6
ATOM      6  C   UNL d   1       0.981  -1.049  -0.166  0.00  0.00     0.018 A 
ATOM      7  C   UNL d   1      -0.343  -1.133   0.315  0.00  0.00     0.066 A 
ATOM      8  C   UNL d   1      -1.140  -0.001   0.470  0.00  0.00     0.118 A 
ATOM      9  F   UNL d   1      -2.388  -0.132   0.938  0.00  0.00    -0.206 F 
ATOM     10  C   UNL d   1      -0.661   1.252   0.146  0.00  0.00     0.043 A 
ATOM     11  C   UNL d   1       0.627   1.363  -0.367  0.00  0.00     0.011 A 
ATOM     12  C   UNL d   1       1.446   0.224  -0.563  0.00  0.00    -0.041 A 
ATOM     13  C   UNL d   1       2.779   0.489  -1.208  0.00  0.00     0.050 C 
ENDBRANCH   4   6
ENDBRANCH   3   4
BRANCH   3  14
ATOM     14  C   UNL d   1       3.494  -3.878  -0.127  0.00  0.00    -0.027 A 
ATOM     15  C   UNL d   1       3.041  -4.882   0.752  0.00  0.00     0.010 A 
ATOM     16  C   UNL d   1       3.433  -6.212   0.581  0.00  0.00     0.001 A 
ATOM     17  C   UNL d   1       4.279  -6.562  -0.469  0.00  0.00     0.000 A 
ATOM     18  C   UNL d   1       4.724  -5.587  -1.357  0.00  0.00     0.001 A 
ATOM     19  C   UNL d   1       4.330  -4.256  -1.192  0.00  0.00     0.010 A 
ENDBRANCH   3  14
TORSDOF 3
