REMARK  7 active torsions:
REMARK  status: ('A' for Active; 'I' for Inactive)
REMARK    1  A    between atoms: N_4  and  S_1 
REMARK    2  A    between atoms: C_9  and  S_1 
REMARK    3  A    between atoms: S_2  and  C_3 
REMARK    4  A    between atoms: C_5  and  S_2 
REMARK    5  A    between atoms: C_3  and  C_6 
REMARK    6  A    between atoms: C_6  and  N_4 
REMARK    7  A    between atoms: C_17  and  N_4 
ROOT
ATOM      1  N   UNL d   1       0.343  -0.558  -1.375  0.00  0.00    -0.306 N 
ENDROOT
BRANCH   1   2
ATOM      2  S   UNL d   1       1.105   0.304  -0.081  0.00  0.00     0.260 S 
ATOM      3  O   UNL d   1       2.486  -0.133  -0.049  0.00  0.00    -0.200 OA
ATOM      4  O   UNL d   1       0.283   0.225   1.106  0.00  0.00    -0.200 OA
BRANCH   2   5
ATOM      5  C   UNL d   1       1.106   2.009  -0.606  0.00  0.00     0.079 A 
ATOM      6  C   UNL d   1      -0.047   2.788  -0.492  0.00  0.00     0.025 A 
ATOM      7  C   UNL d   1       0.001   4.135  -0.861  0.00  0.00     0.002 A 
ATOM      8  C   UNL d   1       1.198   4.699  -1.322  0.00  0.00     0.000 A 
ATOM      9  C   UNL d   1       2.346   3.917  -1.425  0.00  0.00     0.002 A 
ATOM     10  C   UNL d   1       2.305   2.572  -1.063  0.00  0.00     0.025 A 
ENDBRANCH   2   5
ENDBRANCH   1   2
BRANCH   1  11
ATOM     11  C   UNL d   1      -1.151  -0.672  -1.369  0.00  0.00     0.150 C 
BRANCH  11  12
ATOM     12  C   UNL d   1      -1.695  -1.482  -0.200  0.00  0.00     0.166 C 
BRANCH  12  13
ATOM     13  S   UNL d   1      -3.465  -1.633  -0.269  0.00  0.00     0.177 S 
ATOM     14  O   UNL d   1      -3.900  -2.407   0.875  0.00  0.00    -0.223 OA
ATOM     15  O   UNL d   1      -4.005  -0.306  -0.516  0.00  0.00    -0.223 OA
BRANCH  13  16
ATOM     16  C   UNL d   1      -3.816  -2.628  -1.700  0.00  0.00     0.059 A 
ATOM     17  C   UNL d   1      -3.373  -3.952  -1.744  0.00  0.00     0.024 A 
ATOM     18  C   UNL d   1      -3.731  -4.757  -2.828  0.00  0.00     0.008 A 
ATOM     19  C   UNL d   1      -4.536  -4.248  -3.857  0.00  0.00    -0.062 A 
ATOM     20  C   UNL d   1      -4.966  -2.917  -3.800  0.00  0.00     0.008 A 
ATOM     21  C   UNL d   1      -4.977  -5.147  -4.977  0.00  0.00     0.048 C 
ATOM     22  C   UNL d   1      -4.606  -2.104  -2.724  0.00  0.00     0.024 A 
ENDBRANCH  13  16
ENDBRANCH  12  13
ENDBRANCH  11  12
ENDBRANCH   1  11
BRANCH   1  23
ATOM     23  C   UNL d   1       0.954  -0.228  -2.707  0.00  0.00     0.131 C 
ATOM     24  C   UNL d   1       0.558  -1.165  -3.834  0.00  0.00     0.027 C 
ENDBRANCH   1  23
TORSDOF 7
