REMARK  8 active torsions:
REMARK  status: ('A' for Active; 'I' for Inactive)
REMARK    1  A    between atoms: N_8  and  C_1 
REMARK    2  A    between atoms: C_2  and  O_14 
REMARK    3  A    between atoms: N_3  and  C_9 
REMARK    4  A    between atoms: C_4  and  O_15 
REMARK    5  A    between atoms: C_6  and  O_16 
REMARK    6  A    between atoms: C_7  and  C_17 
REMARK    7  A    between atoms: C_13  and  N_8 
REMARK    8  A    between atoms: O_19  and  C_17 
ROOT
ATOM      1  C   UNL d   1       0.990   1.382  -0.280  0.00  0.00     0.230 C 
ATOM      2  C   UNL d   1       1.060  -0.032   0.339  0.00  0.00     0.193 C 
ATOM      3  C   UNL d   1      -0.180  -0.836  -0.039  0.00  0.00     0.182 C 
ATOM      4  O   UNL d   1      -0.190   2.046   0.158  0.00  0.00    -0.358 OA
ATOM      5  C   UNL d   1      -1.477  -0.074   0.243  0.00  0.00     0.180 C 
ATOM      6  C   UNL d   1      -1.414   1.393  -0.216  0.00  0.00     0.178 C 
ENDROOT
BRANCH   1   7
ATOM      7  N   UNL d   1       1.105   1.355  -1.744  0.00  0.00    -0.264 NA
ATOM      8  H   UNL d   1       0.543   0.625  -2.174  0.00  0.00     0.130 HD
BRANCH   7   9
ATOM      9  C   UNL d   1       0.980   2.565  -2.443  0.00  0.00     0.012 A 
ATOM     10  C   UNL d   1       1.519   3.765  -1.973  0.00  0.00     0.059 A 
ATOM     11  C   UNL d   1       1.375   4.947  -2.715  0.00  0.00     0.104 A 
ATOM     12  C   UNL d   1       0.703   4.949  -3.942  0.00  0.00     0.036 A 
ATOM     13  C   UNL d   1       0.196   3.751  -4.435  0.00  0.00     0.004 A 
ATOM     14  C   UNL d   1       0.350   2.571  -3.699  0.00  0.00     0.024 A 
BRANCH  11  15
ATOM     15  N   UNL d   1       1.938   6.192  -2.190  0.00  0.00    -0.116 N 
ATOM     16  O   UNL d   1       2.549   6.150  -1.114  0.00  0.00    -0.532 OA
ATOM     17  O   UNL d   1       1.767   7.226  -2.857  0.00  0.00    -0.532 OA
ENDBRANCH  11  15
ENDBRANCH   7   9
ENDBRANCH   1   7
BRANCH   2  18
ATOM     18  O   UNL d   1       2.220  -0.782  -0.053  0.00  0.00    -0.389 OA
ATOM     19  H   UNL d   1       2.862  -0.158  -0.443  0.00  0.00     0.210 HD
ENDBRANCH   2  18
BRANCH   3  20
ATOM     20  O   UNL d   1      -0.208  -2.076   0.691  0.00  0.00    -0.390 OA
ATOM     21  H   UNL d   1       0.723  -2.373   0.744  0.00  0.00     0.210 HD
ENDBRANCH   3  20
BRANCH   6  22
ATOM     22  C   UNL d   1      -2.555   2.214   0.403  0.00  0.00     0.198 C 
BRANCH  22  23
ATOM     23  O   UNL d   1      -2.373   2.341   1.815  0.00  0.00    -0.398 OA
ATOM     24  H   UNL d   1      -1.500   2.760   1.932  0.00  0.00     0.209 HD
ENDBRANCH  22  23
ENDBRANCH   6  22
BRANCH   5  25
ATOM     25  O   UNL d   1      -2.541  -0.741  -0.455  0.00  0.00    -0.390 OA
ATOM     26  H   UNL d   1      -2.432  -1.693  -0.254  0.00  0.00     0.210 HD
ENDBRANCH   5  25
TORSDOF 8
