REMARK  5 active torsions:
REMARK  status: ('A' for Active; 'I' for Inactive)
REMARK    1  A    between atoms: N_2  and  C_1 
REMARK    2  A    between atoms: N_3  and  C_1 
REMARK    3  A    between atoms: N_5  and  N_2 
REMARK    4  A    between atoms: C_7  and  N_3 
REMARK    5  A    between atoms: C_6  and  N_5 
ROOT
ATOM      1  C   UNL d   1       1.214  -0.128   0.022  0.00  0.00     0.186 C 
ATOM      2  S   UNL d   1       2.870  -0.352   0.206  0.00  0.00    -0.040 SA
ENDROOT
BRANCH   1   3
ATOM      3  N   UNL d   1       0.397  -1.036  -0.677  0.00  0.00    -0.297 N 
ATOM      4  H   UNL d   1      -0.469  -0.669  -1.065  0.00  0.00     0.183 HD
BRANCH   3   5
ATOM      5  N   UNL d   1       0.943  -2.172  -1.328  0.00  0.00    -0.230 NA
ATOM      6  H   UNL d   1       1.966  -2.104  -1.248  0.00  0.00     0.147 HD
BRANCH   5   7
ATOM      7  C   UNL d   1       0.506  -3.452  -0.725  0.00  0.00     0.019 C 
ATOM      8  C   UNL d   1      -0.994  -3.666  -0.978  0.00  0.00     0.033 C 
ATOM      9  C   UNL d   1       1.295  -4.568  -1.434  0.00  0.00     0.033 C 
ATOM     10  C   UNL d   1       0.807  -3.528   0.782  0.00  0.00     0.033 C 
ENDBRANCH   5   7
ENDBRANCH   3   5
ENDBRANCH   1   3
BRANCH   1  11
ATOM     11  N   UNL d   1       0.423   0.873   0.584  0.00  0.00    -0.332 N 
ATOM     12  H   UNL d   1      -0.535   0.586   0.743  0.00  0.00     0.168 HD
BRANCH  11  13
ATOM     13  C   UNL d   1       0.794   2.083   1.213  0.00  0.00     0.034 A 
ATOM     14  C   UNL d   1       1.987   2.758   0.953  0.00  0.00     0.030 A 
ATOM     15  C   UNL d   1       2.297   3.944   1.624  0.00  0.00     0.009 A 
ATOM     16  C   UNL d   1       1.407   4.495   2.547  0.00  0.00    -0.062 A 
ATOM     17  C   UNL d   1       0.190   3.847   2.779  0.00  0.00     0.009 A 
ATOM     18  C   UNL d   1       1.766   5.766   3.256  0.00  0.00     0.048 C 
ATOM     19  C   UNL d   1      -0.116   2.656   2.110  0.00  0.00     0.030 A 
ENDBRANCH  11  13
ENDBRANCH   1  11
TORSDOF 5
