REMARK  4 active torsions:
REMARK  status: ('A' for Active; 'I' for Inactive)
REMARK       I    between atoms: C_2  and  N_1 
REMARK    1  A    between atoms: O_11  and  C_2 
REMARK    2  A    between atoms: C_4  and  N_3 
REMARK    3  A    between atoms: O_12  and  C_10 
REMARK    4  A    between atoms: C_15  and  O_11 
ROOT
ATOM      1  N   UNL d   1      -1.358   0.098   0.748  0.00  0.00    -0.325 N 
ATOM      2  C   UNL d   1      -2.616   0.223   1.290  0.00  0.00     0.362 C 
ATOM      3  N   UNL d   1       1.221  -0.088  -0.444  0.00  0.00    -0.376 N 
ATOM      4  C   UNL d   1      -0.769  -1.217   0.450  0.00  0.00     0.148 C 
ATOM      5  C   UNL d   1      -0.775   1.248   0.061  0.00  0.00     0.148 C 
ATOM      6  C   UNL d   1       0.776  -1.198   0.417  0.00  0.00     0.143 C 
ATOM      7  C   UNL d   1       0.760   1.223   0.060  0.00  0.00     0.143 C 
ATOM      8  O   UNL d   1      -3.163   1.302   1.516  0.00  0.00    -0.238 OA
ENDROOT
BRANCH   3   9
ATOM      9  C   UNL d   1       2.457  -0.180  -1.084  0.00  0.00     0.064 A 
ATOM     10  C   UNL d   1       2.779  -1.203  -2.008  0.00  0.00     0.094 A 
ATOM     11  C   UNL d   1       3.987  -1.178  -2.723  0.00  0.00     0.039 A 
ATOM     12  C   UNL d   1       4.906  -0.150  -2.539  0.00  0.00     0.003 A 
ATOM     13  C   UNL d   1       4.643   0.835  -1.600  0.00  0.00     0.002 A 
ATOM     14  C   UNL d   1       3.440   0.812  -0.887  0.00  0.00     0.032 A 
BRANCH  10  15
ATOM     15  O   UNL d   1       2.029  -2.328  -2.254  0.00  0.00    -0.354 OA
ATOM     16  C   UNL d   1       0.700  -2.097  -2.696  0.00  0.00     0.210 C 
ENDBRANCH  10  15
ENDBRANCH   3   9
BRANCH   2  17
ATOM     17  O   UNL d   1      -3.159  -0.983   1.588  0.00  0.00    -0.304 OA
BRANCH  17  18
ATOM     18  C   UNL d   1      -4.207  -0.975   2.559  0.00  0.00     0.176 C 
ATOM     19  C   UNL d   1      -3.552  -1.144   3.917  0.00  0.00     0.034 C 
ENDBRANCH  17  18
ENDBRANCH   2  17
TORSDOF 4
