REMARK  4 active torsions:
REMARK  status: ('A' for Active; 'I' for Inactive)
REMARK    1  A    between atoms: N_3  and  C_1 
REMARK    2  A    between atoms: N_2  and  N_3 
REMARK    3  A    between atoms: C_5  and  N_2 
REMARK    4  A    between atoms: C_8  and  C_6 
ROOT
ATOM      1  N   UNL d   1       1.094   2.089  -1.187  0.00  0.00    -0.203 NA
ATOM      2  H   UNL d   1       1.716   2.452  -0.463  0.00  0.00     0.153 HD
ENDROOT
BRANCH   1   3
ATOM      3  N   UNL d   1       1.758   1.231  -2.082  0.00  0.00    -0.293 N 
ATOM      4  H   UNL d   1       1.136   0.632  -2.622  0.00  0.00     0.183 HD
BRANCH   3   5
ATOM      5  C   UNL d   1       2.982   0.714  -1.755  0.00  0.00     0.180 C 
ATOM      6  S   UNL d   1       3.524  -0.719  -2.393  0.00  0.00    -0.040 SA
ATOM      7  N   UNL d   1       3.736   1.422  -0.880  0.00  0.00    -0.375 N 
ATOM      8  H   UNL d   1       3.690   2.431  -0.944  0.00  0.00     0.158 HD
ATOM      9  H   UNL d   1       4.670   1.058  -0.730  0.00  0.00     0.158 HD
ENDBRANCH   3   5
ENDBRANCH   1   3
BRANCH   1  10
ATOM     10  C   UNL d   1       0.384   3.149  -1.808  0.00  0.00     0.034 A 
ATOM     11  C   UNL d   1      -0.694   3.778  -1.149  0.00  0.00    -0.036 A 
ATOM     12  C   UNL d   1      -1.345   4.855  -1.798  0.00  0.00     0.009 A 
ATOM     13  C   UNL d   1      -0.934   5.322  -3.044  0.00  0.00     0.001 A 
ATOM     14  C   UNL d   1       0.147   4.726  -3.673  0.00  0.00     0.002 A 
ATOM     15  C   UNL d   1       0.801   3.658  -3.057  0.00  0.00     0.026 A 
BRANCH  11  16
ATOM     16  C   UNL d   1      -1.294   3.398   0.195  0.00  0.00     0.036 C 
ATOM     17  C   UNL d   1      -0.679   2.301   1.050  0.00  0.00     0.010 C 
ENDBRANCH  11  16
ENDBRANCH   1  10
TORSDOF 4
