REMARK  5 active torsions:
REMARK  status: ('A' for Active; 'I' for Inactive)
REMARK    1  A    between atoms: C_5  and  S_1 
REMARK    2  A    between atoms: N_12  and  S_1 
REMARK    3  A    between atoms: N_2  and  C_3 
REMARK    4  A    between atoms: C_4  and  O_6 
REMARK    5  A    between atoms: O_6  and  C_15 
ROOT
ATOM      1  C   UNL d   1       0.471  -0.114   1.585  0.00  0.00     0.074 A 
ATOM      2  C   UNL d   1       0.446  -1.416   2.096  0.00  0.00     0.027 A 
ATOM      3  C   UNL d   1       0.196   0.981   2.407  0.00  0.00     0.027 A 
ATOM      4  C   UNL d   1      -0.251  -0.545   4.239  0.00  0.00     0.076 A 
ATOM      5  C   UNL d   1       0.113  -1.629   3.436  0.00  0.00     0.039 A 
ATOM      6  C   UNL d   1      -0.163   0.759   3.737  0.00  0.00     0.039 A 
ENDROOT
BRANCH   4   7
ATOM      7  O   UNL d   1      -0.696  -0.649   5.536  0.00  0.00    -0.307 OA
BRANCH   7   8
ATOM      8  C   UNL d   1      -1.463  -1.720   5.939  0.00  0.00     0.130 A 
ATOM      9  C   UNL d   1      -1.216  -2.235   7.222  0.00  0.00     0.138 A 
ATOM     10  C   UNL d   1      -1.942  -3.309   7.760  0.00  0.00     0.039 A 
ATOM     11  C   UNL d   1      -2.947  -3.895   7.000  0.00  0.00     0.004 A 
ATOM     12  C   UNL d   1      -3.241  -3.379   5.738  0.00  0.00     0.027 A 
ATOM     13  C   UNL d   1      -2.535  -2.278   5.222  0.00  0.00     0.070 A 
ATOM     14 CL   UNL d   1      -3.141  -1.635   3.733  0.00  0.00    -0.081 Cl
BRANCH   9  15
ATOM     15  N   UNL d   1      -0.195  -1.641   8.066  0.00  0.00    -0.113 N 
ATOM     16  O   UNL d   1      -0.303  -0.439   8.338  0.00  0.00    -0.532 OA
ATOM     17  O   UNL d   1       0.678  -2.403   8.503  0.00  0.00    -0.532 OA
ENDBRANCH   9  15
ENDBRANCH   7   8
ENDBRANCH   4   7
BRANCH   1  18
ATOM     18  S   UNL d   1       0.833   0.144  -0.129  0.00  0.00     0.239 S 
ATOM     19  O   UNL d   1       0.800  -1.123  -0.816  0.00  0.00    -0.206 OA
ATOM     20  O   UNL d   1       1.935   1.064  -0.237  0.00  0.00    -0.206 OA
BRANCH  18  21
ATOM     21  N   UNL d   1      -0.530   0.968  -0.673  0.00  0.00    -0.225 NA
ATOM     22  H   UNL d   1      -1.082   0.362  -1.279  0.00  0.00     0.136 HD
ATOM     23  H   UNL d   1      -0.241   1.837  -1.122  0.00  0.00     0.136 HD
ENDBRANCH  18  21
ENDBRANCH   1  18
TORSDOF 5
