REMARK  2 active torsions:
REMARK  status: ('A' for Active; 'I' for Inactive)
REMARK    1  A    between atoms: O_10  and  C_4 
REMARK    2  A    between atoms: O_11  and  C_6 
ROOT
ATOM      1  C   UNL d   1      -0.028   0.657   0.029  0.00  0.00    -0.017 A 
ATOM      2  C   UNL d   1       1.197   1.345   0.023  0.00  0.00     0.049 A 
ATOM      3  C   UNL d   1      -0.022  -0.746  -0.024  0.00  0.00    -0.045 A 
ATOM      4  C   UNL d   1       2.413   0.655  -0.040  0.00  0.00     0.102 A 
ATOM      5  C   UNL d   1       1.198  -1.439  -0.084  0.00  0.00     0.047 A 
ATOM      6  C   UNL d   1       2.416  -0.751  -0.080  0.00  0.00     0.102 A 
ATOM      7  N   UNL d   1      -2.508   0.661  -0.295  0.00  0.00     0.092 N 
ATOM      8  C   UNL d   1      -1.328   1.438   0.128  0.00  0.00     0.250 C 
ATOM      9  C   UNL d   1      -2.525  -0.663   0.334  0.00  0.00     0.275 C 
ATOM     10  C   UNL d   1      -1.320  -1.511  -0.083  0.00  0.00     0.069 C 
ATOM     11  C   UNL d   1      -1.529   2.022   1.531  0.00  0.00     0.048 C 
ATOM     12  H   UNL d   1      -2.441   0.532  -1.306  0.00  0.00     0.316 HD
ENDROOT
BRANCH   4  13
ATOM     13  O   UNL d   1       3.639   1.276  -0.023  0.00  0.00    -0.353 OA
ATOM     14  C   UNL d   1       3.677   2.613  -0.504  0.00  0.00     0.210 C 
ENDBRANCH   4  13
BRANCH   6  15
ATOM     15  O   UNL d   1       3.649  -1.353  -0.131  0.00  0.00    -0.353 OA
ATOM     16  C   UNL d   1       3.687  -2.772  -0.162  0.00  0.00     0.210 C 
ENDBRANCH   6  15
TORSDOF 2
