REMARK  4 active torsions:
REMARK  status: ('A' for Active; 'I' for Inactive)
REMARK    1  A    between atoms: N_2  and  S_1 
REMARK    2  A    between atoms: C_4  and  S_1 
REMARK       I    between atoms: C_3  and  N_5 
REMARK    3  A    between atoms: C_8  and  C_3 
REMARK    4  A    between atoms: N_5  and  C_15 
ROOT
ATOM      1  C   UNL d   1       0.677   0.779   1.369  0.00  0.00     0.079 A 
ATOM      2  C   UNL d   1      -0.007   0.116   2.390  0.00  0.00     0.027 A 
ATOM      3  C   UNL d   1       0.950   2.142   1.476  0.00  0.00     0.027 A 
ATOM      4  C   UNL d   1      -0.082   2.177   3.681  0.00  0.00     0.035 A 
ATOM      5  C   UNL d   1       0.561   2.837   2.628  0.00  0.00     0.031 A 
ATOM      6  C   UNL d   1      -0.394   0.818   3.536  0.00  0.00     0.031 A 
ENDROOT
BRANCH   4   7
ATOM      7  N   UNL d   1      -0.410   2.787   4.912  0.00  0.00    -0.323 N 
ATOM      8  C   UNL d   1      -0.084   4.070   5.319  0.00  0.00     0.256 C 
ATOM      9  O   UNL d   1       0.497   4.923   4.662  0.00  0.00    -0.267 OA
ATOM     10  H   UNL d   1      -0.930   2.214   5.561  0.00  0.00     0.169 HD
BRANCH   8  11
ATOM     11  C   UNL d   1      -0.526   4.427   6.698  0.00  0.00     0.032 A 
ATOM     12  C   UNL d   1      -0.534   3.502   7.750  0.00  0.00     0.017 A 
ATOM     13  C   UNL d   1      -1.024   3.879   9.004  0.00  0.00     0.007 A 
ATOM     14  C   UNL d   1      -1.496   5.181   9.224  0.00  0.00    -0.062 A 
ATOM     15  C   UNL d   1      -1.438   6.113   8.182  0.00  0.00     0.007 A 
ATOM     16  C   UNL d   1      -2.098   5.550  10.547  0.00  0.00     0.048 C 
ATOM     17  C   UNL d   1      -0.948   5.740   6.929  0.00  0.00     0.017 A 
ENDBRANCH   8  11
ENDBRANCH   4   7
BRANCH   1  18
ATOM     18  S   UNL d   1       1.328  -0.160   0.000  0.00  0.00     0.261 S 
ATOM     19  O   UNL d   1       2.461   0.562  -0.539  0.00  0.00    -0.200 OA
ATOM     20  O   UNL d   1       1.464  -1.530   0.457  0.00  0.00    -0.200 OA
BRANCH  18  21
ATOM     21  N   UNL d   1       0.050  -0.079  -1.107  0.00  0.00    -0.303 N 
ATOM     22  C   UNL d   1       0.081   1.051  -2.080  0.00  0.00     0.161 C 
ATOM     23  C   UNL d   1       0.911   0.666  -3.312  0.00  0.00     0.188 C 
ATOM     24  O   UNL d   1       0.366  -0.507  -3.939  0.00  0.00    -0.388 OA
ATOM     25  C   UNL d   1       0.409  -1.625  -3.038  0.00  0.00     0.188 C 
ATOM     26  C   UNL d   1      -0.387  -1.346  -1.758  0.00  0.00     0.161 C 
ENDBRANCH  18  21
ENDBRANCH   1  18
TORSDOF 4
