REMARK  3 active torsions:
REMARK  status: ('A' for Active; 'I' for Inactive)
REMARK    1  A    between atoms: C_12  and  C_1 
REMARK    2  A    between atoms: C_9  and  O_13 
REMARK    3  A    between atoms: C_10  and  O_14 
ROOT
ATOM      1  C   UNL d   1      -0.211   1.524   0.675  0.00  0.00     0.024 C 
ATOM      2  C   UNL d   1      -0.004   1.073  -0.833  0.00  0.00     0.013 C 
ATOM      3  C   UNL d   1       0.436   0.275   1.353  0.00  0.00     0.036 C 
ATOM      4  C   UNL d   1      -0.523  -0.848   0.808  0.00  0.00     0.005 C 
ATOM      5  C   UNL d   1       1.078  -0.074  -0.746  0.00  0.00     0.025 C 
ATOM      6  C   UNL d   1      -1.763  -0.056   0.301  0.00  0.00     0.025 C 
ATOM      7  C   UNL d   1      -1.307   0.254  -1.140  0.00  0.00    -0.002 C 
ATOM      8  C   UNL d   1       0.158  -1.286  -0.527  0.00  0.00    -0.002 C 
ATOM      9  C   UNL d   1      -1.705   1.292   0.975  0.00  0.00     0.137 C 
ATOM     10  C   UNL d   1       1.743   0.072   0.602  0.00  0.00     0.128 C 
ATOM     11  C   UNL d   1      -0.869  -1.111  -1.623  0.00  0.00     0.011 C 
ENDROOT
BRANCH   1  12
ATOM     12  C   UNL d   1       0.207   2.891   1.167  0.00  0.00    -0.046 A 
ATOM     13  C   UNL d   1       0.353   3.977   0.294  0.00  0.00     0.008 A 
ATOM     14  C   UNL d   1       0.561   5.273   0.783  0.00  0.00     0.001 A 
ATOM     15  C   UNL d   1       0.636   5.505   2.153  0.00  0.00     0.000 A 
ATOM     16  C   UNL d   1       0.517   4.437   3.037  0.00  0.00     0.001 A 
ATOM     17  C   UNL d   1       0.306   3.145   2.548  0.00  0.00     0.008 A 
ENDBRANCH   1  12
BRANCH   9  18
ATOM     18  O   UNL d   1      -2.580   2.214   0.346  0.00  0.00    -0.394 OA
ATOM     19  H   UNL d   1      -2.285   3.107   0.598  0.00  0.00     0.210 HD
ENDBRANCH   9  18
BRANCH  10  20
ATOM     20  O   UNL d   1       2.632   1.159   0.620  0.00  0.00    -0.395 OA
ATOM     21  H   UNL d   1       2.892   1.322   1.546  0.00  0.00     0.210 HD
ENDBRANCH  10  20
TORSDOF 3
