REMARK  5 active torsions:
REMARK  status: ('A' for Active; 'I' for Inactive)
REMARK    1  A    between atoms: N_7  and  S_1 
REMARK    2  A    between atoms: C_11  and  S_1 
REMARK    3  A    between atoms: C_2  and  N_7 
REMARK    4  A    between atoms: C_8  and  C_3 
REMARK    5  A    between atoms: C_12  and  C_5 
ROOT
ATOM      1  C   UNL d   1       0.985  -0.454  -2.890  0.00  0.00     0.045 C 
ATOM      2  C   UNL d   1       2.133   0.066  -3.459  0.00  0.00     0.073 C 
ATOM      3  S   UNL d   1       1.830   0.714  -5.007  0.00  0.00    -0.084 SA
ATOM      4  C   UNL d   1       0.239   0.070  -5.070  0.00  0.00     0.017 C 
ATOM      5  C   UNL d   1      -0.098  -0.468  -3.838  0.00  0.00     0.045 C 
ENDROOT
BRANCH   1   6
ATOM      6  N   UNL d   1       0.827  -0.866  -1.543  0.00  0.00    -0.180 NA
ATOM      7  H   UNL d   1       1.506  -0.451  -0.899  0.00  0.00     0.146 HD
BRANCH   6   8
ATOM      8  S   UNL d   1       0.804  -2.530  -1.161  0.00  0.00     0.245 S 
ATOM      9  O   UNL d   1       1.982  -2.747  -0.350  0.00  0.00    -0.206 OA
ATOM     10  O   UNL d   1       0.540  -3.306  -2.352  0.00  0.00    -0.206 OA
BRANCH   8  11
ATOM     11  C   UNL d   1      -0.620  -2.640  -0.113  0.00  0.00     0.074 A 
ATOM     12  C   UNL d   1      -1.889  -2.474  -0.674  0.00  0.00     0.025 A 
ATOM     13  C   UNL d   1      -3.015  -2.554   0.142  0.00  0.00     0.002 A 
ATOM     14  C   UNL d   1      -2.872  -2.810   1.507  0.00  0.00     0.000 A 
ATOM     15  C   UNL d   1      -1.604  -2.997   2.060  0.00  0.00     0.002 A 
ATOM     16  C   UNL d   1      -0.470  -2.914   1.250  0.00  0.00     0.025 A 
ENDBRANCH   8  11
ENDBRANCH   6   8
ENDBRANCH   1   6
BRANCH   2  17
ATOM     17  C   UNL d   1       3.504   0.127  -2.986  0.00  0.00     0.164 C 
ATOM     18  O   UNL d   1       4.253   1.087  -3.180  0.00  0.00    -0.292 OA
ATOM     19  C   UNL d   1       4.025  -1.078  -2.245  0.00  0.00     0.097 C 
ENDBRANCH   2  17
BRANCH   4  20
ATOM     20  C   UNL d   1      -0.542   0.202  -6.318  0.00  0.00    -0.019 A 
ATOM     21  C   UNL d   1      -1.940   0.330  -6.298  0.00  0.00     0.016 A 
ATOM     22  C   UNL d   1      -2.660   0.495  -7.490  0.00  0.00     0.043 A 
ATOM     23  C   UNL d   1      -1.991   0.529  -8.707  0.00  0.00     0.116 A 
ATOM     24  C   UNL d   1      -0.614   0.385  -8.761  0.00  0.00     0.043 A 
ATOM     25  F   UNL d   1      -2.680   0.705  -9.842  0.00  0.00    -0.206 F 
ATOM     26  C   UNL d   1       0.101   0.213  -7.574  0.00  0.00     0.016 A 
ENDBRANCH   4  20
TORSDOF 5
