REMARK  2 active torsions:
REMARK  status: ('A' for Active; 'I' for Inactive)
REMARK    1  A    between atoms: C_5  and  C_1 
REMARK    2  A    between atoms: C_8  and  C_2 
REMARK       I    between atoms: N_12  and  C_8 
ROOT
ATOM      1  C   UNL d   1      -1.298  -0.846   0.174  0.00  0.00     0.086 A 
ATOM      2  C   UNL d   1       0.042  -1.291  -0.091  0.00  0.00     0.092 A 
ATOM      3  N   UNL d   1      -1.286   0.441   0.558  0.00  0.00    -0.259 N 
ATOM      4  HN  UNL d   1      -2.090   0.995   0.852  1.00  0.00     0.195 HD
ATOM      5  O   UNL d   1       0.018   0.865   0.478  0.00  0.00    -0.241 OA
ATOM      6  C   UNL d   1       0.817  -0.164   0.100  0.00  0.00     0.090 A 
ATOM      7  C   UNL d   1       2.245   0.172  -0.047  0.00  0.00     0.080 C 
ENDROOT
BRANCH   1   8
ATOM      8  C   UNL d   1      -2.564  -1.593   0.127  0.00  0.00     0.037 A 
ATOM      9  C   UNL d   1      -2.724  -2.822   0.800  0.00  0.00     0.048 A 
ATOM     10 CL   UNL d   1      -1.525  -3.486   1.865  0.00  0.00    -0.083 Cl
ATOM     11  C   UNL d   1      -3.921  -3.550   0.709  0.00  0.00     0.025 A 
ATOM     12  C   UNL d   1      -5.004  -3.043   0.002  0.00  0.00     0.003 A 
ATOM     13  C   UNL d   1      -4.890  -1.806  -0.624  0.00  0.00     0.025 A 
ATOM     14  C   UNL d   1      -3.680  -1.094  -0.581  0.00  0.00     0.048 A 
ATOM     15 CL   UNL d   1      -3.665   0.403  -1.458  0.00  0.00    -0.083 Cl
ENDBRANCH   1   8
BRANCH   2  16
ATOM     16  C   UNL d   1       0.496  -2.597  -0.494  0.00  0.00     0.254 C 
ATOM     17  O   UNL d   1      -0.118  -3.320  -1.271  0.00  0.00    -0.268 OA
ATOM     18  N   UNL d   1       1.639  -3.034   0.119  0.00  0.00    -0.366 N 
ATOM     19  H   UNL d   1       1.968  -2.597   0.968  0.00  0.00     0.159 HD
ATOM     20  H   UNL d   1       1.861  -4.017  -0.011  0.00  0.00     0.159 HD
ENDBRANCH   2  16
TORSDOF 2
