REMARK  2 active torsions:
REMARK  status: ('A' for Active; 'I' for Inactive)
REMARK    1  A    between atoms: C_2  and  C_1 
REMARK       I    between atoms: N_6  and  C_2 
REMARK    2  A    between atoms: C_5  and  N_6 
ROOT
ATOM      1  C   UNL d   1      -0.021   2.420  -0.055  0.00  0.00     0.261 C 
ATOM      2  N   UNL d   1      -1.277   2.992  -0.057  0.00  0.00    -0.307 N 
ATOM      3  O   UNL d   1       1.027   3.060  -0.045  0.00  0.00    -0.267 OA
ATOM      4  H   UNL d   1      -2.101   2.424   0.025  0.00  0.00     0.170 HD
ENDROOT
BRANCH   1   5
ATOM      5  C   UNL d   1       0.034   0.960  -0.074  0.00  0.00     0.087 A 
ATOM      6  C   UNL d   1       1.232   0.264  -0.005  0.00  0.00     0.090 A 
ATOM      7  O   UNL d   1       1.001  -1.069  -0.039  0.00  0.00    -0.242 OA
ATOM      8  C   UNL d   1       2.653   0.673   0.074  0.00  0.00     0.080 C 
ATOM      9  N   UNL d   1      -0.348  -1.296  -0.163  0.00  0.00    -0.265 N 
ATOM     10  C   UNL d   1      -0.927  -0.088  -0.218  0.00  0.00     0.047 A 
ATOM     11  HN  UNL d   1      -0.815  -2.201  -0.206  1.00  0.00     0.194 HD
ATOM     12  C   UNL d   1      -2.394  -0.052  -0.429  0.00  0.00     0.071 C 
ENDBRANCH   1   5
BRANCH   2  13
ATOM     13  C   UNL d   1      -1.484   4.345  -0.291  0.00  0.00     0.130 A 
ATOM     14  N   UNL d   1      -0.524   5.261  -0.441  0.00  0.00    -0.245 N 
ATOM     15  O   UNL d   1      -1.146   6.433  -0.801  0.00  0.00    -0.241 OA
ATOM     16  HN  UNL d   1       0.478   5.119  -0.313  1.00  0.00     0.196 HD
ATOM     17  C   UNL d   1      -2.485   6.229  -0.864  0.00  0.00     0.076 A 
ATOM     18  C   UNL d   1      -2.759   4.938  -0.477  0.00  0.00     0.084 A 
ATOM     19  C   UNL d   1      -3.283   7.363  -1.359  0.00  0.00     0.079 C 
ENDBRANCH   2  13
TORSDOF 2
