REMARK  2 active torsions:
REMARK  status: ('A' for Active; 'I' for Inactive)
REMARK       I    between atoms: N_2  and  C_1 
REMARK       I    between atoms: N_6  and  C_1 
REMARK    1  A    between atoms: C_8  and  N_2 
REMARK    2  A    between atoms: C_7  and  C_8 
ROOT
ATOM      1  C   UNL d   1       1.088   1.864  -1.643  0.00  0.00     0.181 C 
ENDROOT
BRANCH   1   2
ATOM      2  C   UNL d   1       0.142   2.769  -2.395  0.00  0.00     0.026 A 
ATOM      3  N   UNL d   1       0.354   4.109  -2.309  0.00  0.00    -0.368 N 
ATOM      4  C   UNL d   1      -0.483   4.913  -3.002  0.00  0.00     0.088 A 
ATOM      5  HN  UNL d   1       1.112   4.492  -1.745  1.00  0.00     0.165 HD
ATOM      6  C   UNL d   1      -1.537   4.451  -3.773  0.00  0.00     0.017 A 
ATOM      7  C   UNL d   1      -1.755   3.080  -3.831  0.00  0.00     0.003 A 
ATOM      8  C   UNL d   1      -0.910   2.224  -3.129  0.00  0.00     0.027 A 
ENDBRANCH   1   2
BRANCH   1   9
ATOM      9  N   UNL d   1       0.657   1.653  -0.278  0.00  0.00    -0.338 N 
ATOM     10  C   UNL d   1       0.473   0.409   0.235  0.00  0.00     0.314 C 
ATOM     11  O   UNL d   1       0.549  -0.636  -0.390  0.00  0.00    -0.248 OA
ATOM     12  N   UNL d   1       0.196   0.425   1.562  0.00  0.00    -0.352 N 
ATOM     13  H   UNL d   1      -0.331   1.203   1.927  0.00  0.00     0.160 HD
ATOM     14  H   UNL d   1      -0.056  -0.483   1.933  0.00  0.00     0.160 HD
ATOM     15  H   UNL d   1       0.739   2.434   0.354  0.00  0.00     0.164 HD
ENDBRANCH   1   9
TORSDOF 2
