REMARK  2 active torsions:
REMARK  status: ('A' for Active; 'I' for Inactive)
REMARK    1  A    between atoms: S_11  and  C_7 
REMARK    2  A    between atoms: S_12  and  C_7 
ROOT
ATOM      1  S   UNL d   1      -2.628   0.867  -0.474  0.00  0.00     0.270 S 
ATOM      2  C   UNL d   1      -2.614  -0.658   0.329  0.00  0.00     0.154 C 
ATOM      3  N   UNL d   1      -1.256   1.554   0.273  0.00  0.00    -0.275 N 
ATOM      4  C   UNL d   1      -1.384  -1.402  -0.041  0.00  0.00     0.209 C 
ATOM      5  C   UNL d   1      -0.096  -0.639  -0.016  0.00  0.00     0.043 A 
ATOM      6  C   UNL d   1      -0.044   0.770   0.111  0.00  0.00     0.059 A 
ATOM      7  C   UNL d   1      -3.429  -1.034   1.341  0.00  0.00     0.063 C 
ATOM      8  O   UNL d   1      -2.289   0.679  -1.875  0.00  0.00    -0.200 OA
ATOM      9  O   UNL d   1      -3.770   1.695  -0.155  0.00  0.00    -0.200 OA
ATOM     10  O   UNL d   1      -1.411  -2.585  -0.364  0.00  0.00    -0.286 OA
ATOM     11  C   UNL d   1      -1.219   3.019   0.372  0.00  0.00     0.170 C 
ATOM     12  C   UNL d   1       1.092  -1.382  -0.118  0.00  0.00     0.018 A 
ATOM     13  C   UNL d   1       1.214   1.386   0.188  0.00  0.00     0.031 A 
ATOM     14  C   UNL d   1       2.330  -0.744  -0.066  0.00  0.00     0.001 A 
ATOM     15  C   UNL d   1       2.390   0.637   0.090  0.00  0.00     0.002 A 
ENDROOT
BRANCH   7  16
ATOM     16  S   UNL d   1      -3.014  -2.462   2.309  0.00  0.00    -0.126 SA
ATOM     17  C   UNL d   1      -4.614  -3.149   2.780  0.00  0.00     0.096 C 
ENDBRANCH   7  16
BRANCH   7  18
ATOM     18  S   UNL d   1      -4.727  -0.043   1.986  0.00  0.00    -0.126 SA
ATOM     19  C   UNL d   1      -6.050  -0.404   0.808  0.00  0.00     0.096 C 
ENDBRANCH   7  18
TORSDOF 2
