REMARK  5 active torsions:
REMARK  status: ('A' for Active; 'I' for Inactive)
REMARK    1  A    between atoms: C_5  and  C_1 
REMARK    2  A    between atoms: C_12  and  C_2 
REMARK    3  A    between atoms: C_16  and  C_6 
REMARK    4  A    between atoms: C_19  and  C_7 
REMARK    5  A    between atoms: C_13  and  C_15 
ROOT
ATOM      1  N   UNL d   1       3.587   1.041  -0.204  0.00  0.00    -0.317 N 
ATOM      2  HN  UNL d   1       3.861   0.064  -0.307  1.00  0.00     0.169 HD
ATOM      3  C   UNL d   1       2.375   1.542  -0.082  0.00  0.00     0.185 A 
ATOM      4  C   UNL d   1       4.399   2.159  -0.159  0.00  0.00     0.154 A 
ATOM      5  N   UNL d   1       3.717   3.306  -0.007  0.00  0.00    -0.241 N 
ATOM      6  HN  UNL d   1       4.087   4.254   0.056  1.00  0.00     0.196 HD
ATOM      7  O   UNL d   1       2.389   2.901   0.042  0.00  0.00    -0.217 OA
ENDROOT
BRANCH   3   8
ATOM      8  C   UNL d   1       1.160   0.689  -0.066  0.00  0.00     0.059 A 
ATOM      9  C   UNL d   1      -0.162   1.083   0.004  0.00  0.00     0.174 A 
ATOM     10  O   UNL d   1      -0.959  -0.038   0.028  0.00  0.00    -0.304 OA
ATOM     11  C   UNL d   1      -0.150  -1.139  -0.027  0.00  0.00     0.089 A 
ATOM     12  C   UNL d   1       1.163  -0.729  -0.121  0.00  0.00     0.056 A 
BRANCH   9  13
ATOM     13  C   UNL d   1      -0.876   2.382   0.048  0.00  0.00     0.440 C 
ATOM     14  F   UNL d   1      -0.059   3.447  -0.135  0.00  0.00    -0.164 F 
ATOM     15  F   UNL d   1      -1.829   2.465  -0.918  0.00  0.00    -0.164 F 
ATOM     16  F   UNL d   1      -1.504   2.574   1.236  0.00  0.00    -0.164 F 
ENDBRANCH   9  13
BRANCH  11  17
ATOM     17  C   UNL d   1      -0.823  -2.438   0.006  0.00  0.00     0.019 A 
ATOM     18  C   UNL d   1      -0.267  -3.584   0.606  0.00  0.00     0.047 A 
ATOM     19 CL   UNL d   1       1.231  -3.566   1.476  0.00  0.00    -0.083 Cl
ATOM     20  C   UNL d   1      -0.936  -4.815   0.556  0.00  0.00     0.025 A 
ATOM     21  C   UNL d   1      -2.172  -4.921  -0.078  0.00  0.00     0.002 A 
ATOM     22  C   UNL d   1      -2.749  -3.796  -0.655  0.00  0.00     0.001 A 
ATOM     23  C   UNL d   1      -2.082  -2.567  -0.612  0.00  0.00     0.016 A 
ENDBRANCH  11  17
ENDBRANCH   3   8
BRANCH   4  24
ATOM     24  C   UNL d   1       5.858   2.076  -0.277  0.00  0.00     0.078 A 
ATOM     25  N   UNL d   1       6.559   3.239  -0.219  0.00  0.00    -0.362 N 
ATOM     26  C   UNL d   1       7.904   3.174  -0.336  0.00  0.00     0.104 A 
ATOM     27  HN  UNL d   1       6.084   4.133  -0.091  1.00  0.00     0.165 HD
ATOM     28  C   UNL d   1       8.611   1.995  -0.512  0.00  0.00     0.063 A 
ATOM     29  C   UNL d   1       7.875   0.807  -0.568  0.00  0.00     0.020 A 
ATOM     30  C   UNL d   1       6.486   0.845  -0.449  0.00  0.00     0.034 A 
BRANCH  28  31
ATOM     31  C   UNL d   1      10.102   2.006  -0.639  0.00  0.00     0.418 C 
ATOM     32  F   UNL d   1      10.649   3.251  -0.565  0.00  0.00    -0.166 F 
ATOM     33  F   UNL d   1      10.712   1.273   0.333  0.00  0.00    -0.166 F 
ATOM     34  F   UNL d   1      10.527   1.482  -1.822  0.00  0.00    -0.166 F 
ENDBRANCH  28  31
ENDBRANCH   4  24
TORSDOF 5
