REMARK  7 active torsions:
REMARK  status: ('A' for Active; 'I' for Inactive)
REMARK    1  A    between atoms: N_4  and  C_1 
REMARK    2  A    between atoms: N_7  and  C_1 
REMARK    3  A    between atoms: C_2  and  C_5 
REMARK    4  A    between atoms: C_3  and  C_6 
REMARK    5  A    between atoms: C_8  and  N_7 
REMARK    6  A    between atoms: C_9  and  C_17 
REMARK    7  A    between atoms: C_14  and  C_9 
ROOT
ATOM      1  C   UNL d   1       0.950  -0.093   0.098  0.00  0.00     0.174 C 
ATOM      2  S   UNL d   1       2.603  -0.339   0.289  0.00  0.00    -0.041 SA
ENDROOT
BRANCH   1   3
ATOM      3  N   UNL d   1       0.136   0.380   1.125  0.00  0.00    -0.358 N 
ATOM      4  C   UNL d   1      -0.896  -0.460   1.712  0.00  0.00     0.126 C 
ATOM      5  C   UNL d   1      -2.137   0.370   2.016  0.00  0.00     0.032 C 
ATOM      6  C   UNL d   1      -1.835   1.674   2.776  0.00  0.00     0.064 C 
ATOM      7  C   UNL d   1      -0.566   2.391   2.288  0.00  0.00     0.032 C 
ATOM      8  C   UNL d   1       0.596   1.450   2.009  0.00  0.00     0.126 C 
BRANCH   6   9
ATOM      9  C   UNL d   1      -1.796   1.419   4.278  0.00  0.00     0.163 C 
ATOM     10  O   UNL d   1      -0.741   1.188   4.867  0.00  0.00    -0.292 OA
BRANCH   9  11
ATOM     11  C   UNL d   1      -3.080   1.431   5.050  0.00  0.00     0.010 A 
ATOM     12  C   UNL d   1      -4.328   1.588   4.436  0.00  0.00     0.015 A 
ATOM     13  C   UNL d   1      -5.498   1.610   5.197  0.00  0.00     0.007 A 
ATOM     14  C   UNL d   1      -5.443   1.464   6.583  0.00  0.00    -0.062 A 
ATOM     15  C   UNL d   1      -4.199   1.304   7.207  0.00  0.00     0.007 A 
ATOM     16  C   UNL d   1      -6.713   1.506   7.384  0.00  0.00     0.048 C 
ATOM     17  C   UNL d   1      -3.028   1.285   6.444  0.00  0.00     0.015 A 
ENDBRANCH   9  11
ENDBRANCH   6   9
ENDBRANCH   1   3
BRANCH   1  18
ATOM     18  N   UNL d   1       0.226  -0.288  -1.080  0.00  0.00    -0.333 N 
ATOM     19  H   UNL d   1      -0.709  -0.653  -0.965  0.00  0.00     0.168 HD
BRANCH  18  20
ATOM     20  C   UNL d   1       0.728  -0.212  -2.395  0.00  0.00     0.035 A 
ATOM     21  C   UNL d   1       0.183  -1.030  -3.385  0.00  0.00     0.045 A 
ATOM     22  C   UNL d   1       0.752  -1.061  -4.672  0.00  0.00     0.050 A 
ATOM     23  C   UNL d   1       1.823  -0.200  -4.972  0.00  0.00     0.032 A 
ATOM     24  C   UNL d   1       2.326   0.682  -4.006  0.00  0.00     0.050 A 
ATOM     25  C   UNL d   1       1.750   0.680  -2.731  0.00  0.00     0.045 A 
BRANCH  22  26
ATOM     26  C   UNL d   1       0.247  -2.052  -5.693  0.00  0.00     0.417 C 
ATOM     27  F   UNL d   1       1.013  -2.110  -6.818  0.00  0.00    -0.166 F 
ATOM     28  F   UNL d   1       0.209  -3.323  -5.204  0.00  0.00    -0.166 F 
ATOM     29  F   UNL d   1      -1.016  -1.773  -6.112  0.00  0.00    -0.166 F 
ENDBRANCH  22  26
BRANCH  24  30
ATOM     30  C   UNL d   1       3.492   1.602  -4.282  0.00  0.00     0.417 C 
ATOM     31  F   UNL d   1       4.050   1.407  -5.510  0.00  0.00    -0.166 F 
ATOM     32  F   UNL d   1       3.140   2.915  -4.236  0.00  0.00    -0.166 F 
ATOM     33  F   UNL d   1       4.502   1.448  -3.386  0.00  0.00    -0.166 F 
ENDBRANCH  24  30
ENDBRANCH  18  20
ENDBRANCH   1  18
TORSDOF 7
