REMARK  4 active torsions:
REMARK  status: ('A' for Active; 'I' for Inactive)
REMARK    1  A    between atoms: C_5  and  C_1 
REMARK    2  A    between atoms: S_2  and  C_10 
REMARK    3  A    between atoms: C_7  and  S_2 
REMARK    4  A    between atoms: C_10  and  C_6 
ROOT
ATOM      1  C   UNL d   1       0.466  -1.080  -0.073  0.00  0.00     0.186 A 
ATOM      2  N   UNL d   1       1.190   0.003   0.130  0.00  0.00    -0.322 N 
ATOM      3  HN  UNL d   1       2.177   0.068   0.382  1.00  0.00     0.169 HD
ATOM      4  C   UNL d   1       0.293   1.022  -0.078  0.00  0.00     0.118 A 
ATOM      5  N   UNL d   1      -0.959   0.615  -0.318  0.00  0.00    -0.246 N 
ATOM      6  HN  UNL d   1      -1.794   1.185  -0.455  1.00  0.00     0.196 HD
ATOM      7  O   UNL d   1      -0.847  -0.774  -0.334  0.00  0.00    -0.217 OA
ENDROOT
BRANCH   4   8
ATOM      8  C   UNL d   1       0.647   2.446   0.042  0.00  0.00     0.224 C 
BRANCH   8   9
ATOM      9  S   UNL d   1       1.243   3.140  -1.477  0.00  0.00     0.182 S 
ATOM     10  O   UNL d   1       1.433   4.566  -1.290  0.00  0.00    -0.222 OA
ATOM     11  O   UNL d   1       2.289   2.311  -2.046  0.00  0.00    -0.222 OA
BRANCH   9  12
ATOM     12  C   UNL d   1      -0.063   3.036  -2.615  0.00  0.00     0.066 A 
ATOM     13  C   UNL d   1      -0.279   1.926  -3.488  0.00  0.00     0.031 A 
ATOM     14  C   UNL d   1      -1.393   2.102  -4.280  0.00  0.00     0.051 A 
ATOM     15  S   UNL d   1      -2.162   3.603  -3.985  0.00  0.00    -0.112 SA
ATOM     16  C   UNL d   1      -0.999   4.032  -2.802  0.00  0.00     0.072 A 
ENDBRANCH   9  12
ENDBRANCH   8   9
ENDBRANCH   4   8
BRANCH   1  17
ATOM     17  C   UNL d   1       0.990  -2.464  -0.051  0.00  0.00     0.073 A 
ATOM     18  C   UNL d   1       2.278  -2.854   0.228  0.00  0.00     0.089 A 
ATOM     19  O   UNL d   1       2.356  -4.210   0.126  0.00  0.00    -0.242 OA
ATOM     20  C   UNL d   1       3.531  -2.161   0.580  0.00  0.00     0.080 C 
ATOM     21  N   UNL d   1       1.122  -4.723  -0.225  0.00  0.00    -0.265 N 
ATOM     22  C   UNL d   1       0.305  -3.668  -0.337  0.00  0.00     0.045 A 
ATOM     23  HN  UNL d   1       0.883  -5.704  -0.369  1.00  0.00     0.194 HD
ATOM     24  C   UNL d   1      -1.105  -3.871  -0.745  0.00  0.00     0.071 C 
ENDBRANCH   1  17
TORSDOF 4
