REMARK  8 active torsions:
REMARK  status: ('A' for Active; 'I' for Inactive)
REMARK    1  A    between atoms: O_9  and  C_1 
REMARK    2  A    between atoms: C_11  and  C_1 
REMARK    3  A    between atoms: C_2  and  C_10 
REMARK    4  A    between atoms: O_8  and  C_2 
REMARK    5  A    between atoms: C_5  and  S_6 
REMARK    6  A    between atoms: S_7  and  C_5 
REMARK    7  A    between atoms: S_6  and  C_11 
REMARK    8  A    between atoms: C_10  and  S_7 
ROOT
ATOM      1  C   UNL d   1       4.821   1.284   1.344  0.00  0.00     0.148 C 
ENDROOT
BRANCH   1   2
ATOM      2  S   UNL d   1       3.005   1.238   1.278  0.00  0.00    -0.148 SA
BRANCH   2   3
ATOM      3  C   UNL d   1       2.630   2.984   0.883  0.00  0.00     0.184 C 
BRANCH   3   4
ATOM      4  C   UNL d   1       3.146   3.392  -0.479  0.00  0.00     0.149 C 
ATOM      5  O   UNL d   1       3.494   4.530  -0.756  0.00  0.00    -0.649 OA
BRANCH   4   6
ATOM      6  O   UNL d   1       3.131   2.399  -1.399  0.00  0.00    -0.776 OA
ATOM      7  H   UNL d   1       2.805   1.558  -1.015  0.00  0.00     0.167 HD
ENDBRANCH   4   6
ENDBRANCH   3   4
ENDBRANCH   2   3
ENDBRANCH   1   2
BRANCH   1   8
ATOM      8  S   UNL d   1       5.503   2.387   2.616  0.00  0.00    -0.148 SA
BRANCH   8   9
ATOM      9  C   UNL d   1       4.820   1.627   4.134  0.00  0.00     0.184 C 
BRANCH   9  10
ATOM     10  C   UNL d   1       5.355   0.233   4.372  0.00  0.00     0.149 C 
ATOM     11  O   UNL d   1       4.726  -0.644   4.947  0.00  0.00    -0.649 OA
BRANCH  10  12
ATOM     12  O   UNL d   1       6.629   0.046   3.953  0.00  0.00    -0.776 OA
ATOM     13  H   UNL d   1       6.991   0.856   3.534  0.00  0.00     0.167 HD
ENDBRANCH  10  12
ENDBRANCH   9  10
ENDBRANCH   8   9
ENDBRANCH   1   8
TORSDOF 8
