REMARK  1 active torsions:
REMARK  status: ('A' for Active; 'I' for Inactive)
REMARK    1  A    between atoms: C_7  and  C_1 
ROOT
ATOM      1  C   UNL d   1      -1.842  -1.538  -0.038  0.00  0.00     0.090 A 
ATOM      2  C   UNL d   1      -2.312  -0.281  -0.041  0.00  0.00     0.093 A 
ATOM      3  O   UNL d   1      -0.491  -1.857   0.017  0.00  0.00    -0.309 OA
ATOM      4  C   UNL d   1      -1.367   0.847   0.023  0.00  0.00     0.187 A 
ATOM      5  C   UNL d   1       0.061   0.506   0.026  0.00  0.00     0.048 A 
ATOM      6  C   UNL d   1       0.425  -0.837   0.024  0.00  0.00     0.090 A 
ATOM      7  O   UNL d   1      -1.768   2.003   0.060  0.00  0.00    -0.287 OA
ATOM      8  C   UNL d   1       1.038   1.507   0.021  0.00  0.00     0.018 A 
ATOM      9  C   UNL d   1       1.774  -1.191   0.021  0.00  0.00     0.038 A 
ATOM     10  C   UNL d   1       2.387   1.151   0.010  0.00  0.00     0.001 A 
ATOM     11  C   UNL d   1       2.754  -0.197   0.011  0.00  0.00     0.003 A 
ENDROOT
BRANCH   1  12
ATOM     12  C   UNL d   1      -2.737  -2.716  -0.127  0.00  0.00    -0.002 A 
ATOM     13  C   UNL d   1      -2.288  -3.890  -0.755  0.00  0.00     0.014 A 
ATOM     14  C   UNL d   1      -3.106  -5.019  -0.846  0.00  0.00     0.001 A 
ATOM     15  C   UNL d   1      -4.389  -4.995  -0.307  0.00  0.00     0.000 A 
ATOM     16  C   UNL d   1      -4.851  -3.844   0.326  0.00  0.00     0.001 A 
ATOM     17  C   UNL d   1      -4.030  -2.716   0.420  0.00  0.00     0.014 A 
ENDBRANCH   1  12
TORSDOF 1
