REMARK  2 active torsions:
REMARK  status: ('A' for Active; 'I' for Inactive)
REMARK       I    between atoms: C_8  and  N_1 
REMARK    1  A    between atoms: S_14  and  C_6 
REMARK    2  A    between atoms: C_9  and  C_7 
REMARK       I    between atoms: N_10  and  C_8 
ROOT
ATOM      1  N   UNL d   1      -0.277  -1.187   0.096  0.00  0.00    -0.181 N 
ATOM      2  N   UNL d   1      -0.339   1.020  -0.036  0.00  0.00    -0.320 N 
ATOM      3  HN  UNL d   1      -0.649   1.991  -0.078  1.00  0.00     0.169 HD
ATOM      4  N   UNL d   1       1.037  -0.783   0.119  0.00  0.00    -0.272 N 
ATOM      5  HN  UNL d   1       1.877  -1.358   0.188  1.00  0.00     0.189 HD
ATOM      6  C   UNL d   1      -1.075  -0.066  -0.034  0.00  0.00     0.172 A 
ATOM      7  C   UNL d   1       0.943   0.547   0.029  0.00  0.00     0.133 A 
ATOM      8  C   UNL d   1      -0.614  -2.560   0.090  0.00  0.00     0.345 C 
ATOM      9  N   UNL d   1       0.275  -3.391   0.788  0.00  0.00    -0.341 N 
ATOM     10  O   UNL d   1      -1.592  -2.938  -0.539  0.00  0.00    -0.245 OA
ATOM     11  C   UNL d   1       0.201  -4.823   0.561  0.00  0.00     0.154 C 
ATOM     12  C   UNL d   1       1.030  -2.984   1.971  0.00  0.00     0.154 C 
ENDROOT
BRANCH   7  13
ATOM     13  C   UNL d   1       2.090   1.440   0.007  0.00  0.00     0.013 A 
ATOM     14  C   UNL d   1       3.375   0.950  -0.261  0.00  0.00     0.039 A 
ATOM     15  C   UNL d   1       4.460   1.824  -0.304  0.00  0.00     0.036 A 
ATOM     16 CL   UNL d   1       6.030   1.214  -0.657  0.00  0.00    -0.084 Cl
ATOM     17  C   UNL d   1       4.286   3.186  -0.074  0.00  0.00     0.047 A 
ATOM     18  C   UNL d   1       3.011   3.672   0.201  0.00  0.00     0.036 A 
ATOM     19  C   UNL d   1       1.915   2.812   0.239  0.00  0.00     0.039 A 
ATOM     20 CL   UNL d   1       2.784   5.353   0.493  0.00  0.00    -0.084 Cl
ENDBRANCH   7  13
BRANCH   6  21
ATOM     21  S   UNL d   1      -2.808  -0.057  -0.036  0.00  0.00    -0.096 SA
ATOM     22  C   UNL d   1      -3.126   1.725   0.057  0.00  0.00     0.099 C 
ENDBRANCH   6  21
TORSDOF 2
