REMARK  4 active torsions:
REMARK  status: ('A' for Active; 'I' for Inactive)
REMARK    1  A    between atoms: C_3  and  C_1 
REMARK       I    between atoms: N_4  and  C_1 
REMARK    2  A    between atoms: C_2  and  N_5 
REMARK    3  A    between atoms: C_13  and  C_2 
REMARK    4  A    between atoms: N_5  and  N_4 
ROOT
ATOM      1  N   UNL d   1      -1.014  -1.301   0.781  0.00  0.00    -0.187 NA
ATOM      2  H   UNL d   1      -1.515  -0.647   0.167  0.00  0.00     0.154 HD
ENDROOT
BRANCH   1   3
ATOM      3  C   UNL d   1      -1.755  -1.826   1.823  0.00  0.00     0.102 C 
ATOM      4  N   UNL d   1      -1.258  -2.000   3.012  0.00  0.00    -0.388 N 
ATOM      5  H   UNL d   1      -0.302  -1.641   2.991  0.00  0.00     0.157 HD
ATOM      6  HN  UNL d   1      -1.732  -2.417   3.813  1.00  0.00     0.157 HD
BRANCH   3   7
ATOM      7  C   UNL d   1      -3.172  -2.231   1.589  0.00  0.00     0.006 A 
ATOM      8  C   UNL d   1      -3.627  -2.543   0.308  0.00  0.00     0.032 A 
ATOM      9  C   UNL d   1      -4.945  -2.943   0.172  0.00  0.00     0.088 A 
ATOM     10  N   UNL d   1      -5.813  -3.041   1.203  0.00  0.00    -0.375 N 
ATOM     11  C   UNL d   1      -5.341  -2.737   2.431  0.00  0.00     0.088 A 
ATOM     12  HN  UNL d   1      -6.780  -3.331   1.060  1.00  0.00     0.164 HD
ATOM     13  C   UNL d   1      -4.042  -2.335   2.674  0.00  0.00     0.032 A 
ENDBRANCH   3   7
ENDBRANCH   1   3
BRANCH   1  14
ATOM     14  N   UNL d   1       0.276  -0.839   1.112  0.00  0.00    -0.281 N 
ATOM     15  C   UNL d   1       0.695   0.319   0.480  0.00  0.00     0.267 C 
ATOM     16  O   UNL d   1      -0.026   0.989  -0.251  0.00  0.00    -0.266 OA
ATOM     17  H   UNL d   1       0.951  -1.575   1.308  0.00  0.00     0.184 HD
BRANCH  15  18
ATOM     18  C   UNL d   1       2.111   0.682   0.714  0.00  0.00     0.048 A 
ATOM     19  C   UNL d   1       2.820   1.343  -0.279  0.00  0.00     0.104 A 
ATOM     20  N   UNL d   1       4.123   1.699  -0.158  0.00  0.00    -0.374 N 
ATOM     21  C   UNL d   1       4.732   1.407   1.013  0.00  0.00     0.087 A 
ATOM     22  HN  UNL d   1       4.621   2.166  -0.916  1.00  0.00     0.164 HD
ATOM     23  C   UNL d   1       4.101   0.770   2.069  0.00  0.00     0.018 A 
ATOM     24  C   UNL d   1       2.766   0.400   1.917  0.00  0.00     0.020 A 
ENDBRANCH  15  18
ENDBRANCH   1  14
TORSDOF 4
