REMARK  5 active torsions:
REMARK  status: ('A' for Active; 'I' for Inactive)
REMARK    1  A    between atoms: C_8  and  N_1 
REMARK    2  A    between atoms: C_9  and  C_4 
REMARK    3  A    between atoms: C_10  and  C_6 
REMARK    4  A    between atoms: C_7  and  C_11 
REMARK       I    between atoms: N_13  and  C_7 
REMARK    5  A    between atoms: N_18  and  N_13 
ROOT
ATOM      1  N   UNL d   1       0.951  -0.731   0.000  0.00  0.00    -0.260 N 
ATOM      2  N   UNL d   1       0.936   0.604   0.272  0.00  0.00    -0.297 N 
ATOM      3  HN  UNL d   1       1.715   1.172   0.606  1.00  0.00     0.187 HD
ATOM      4  C   UNL d   1      -0.359  -1.232  -0.121  0.00  0.00     0.044 C 
ATOM      5  C   UNL d   1      -1.142  -0.088  -0.233  0.00  0.00     0.055 C 
ATOM      6  C   UNL d   1      -0.304   1.016   0.012  0.00  0.00     0.036 C 
ENDROOT
BRANCH   1   7
ATOM      7  C   UNL d   1       2.238  -1.340  -0.153  0.00  0.00     0.056 A 
ATOM      8  C   UNL d   1       3.344  -0.800   0.524  0.00  0.00     0.032 A 
ATOM      9  C   UNL d   1       4.615  -1.389   0.409  0.00  0.00     0.019 A 
ATOM     10  C   UNL d   1       4.804  -2.509  -0.410  0.00  0.00     0.033 A 
ATOM     11  C   UNL d   1       3.708  -3.015  -1.119  0.00  0.00     0.019 A 
ATOM     12  C   UNL d   1       2.446  -2.424  -1.002  0.00  0.00     0.032 A 
BRANCH  10  13
ATOM     13  C   UNL d   1       6.106  -3.220  -0.568  0.00  0.00     0.265 C 
ATOM     14  O   UNL d   1       6.148  -4.332  -1.091  0.00  0.00    -0.266 OA
ATOM     15  N   UNL d   1       7.253  -2.570  -0.129  0.00  0.00    -0.290 N 
ATOM     16  H   UNL d   1       7.241  -1.589   0.133  0.00  0.00     0.183 HD
BRANCH  15  17
ATOM     17  N   UNL d   1       8.512  -3.177  -0.367  0.00  0.00    -0.247 NA
ATOM     18  H   UNL d   1       8.374  -3.821  -1.161  0.00  0.00     0.143 HD
ATOM     19  H   UNL d   1       8.692  -3.817   0.413  0.00  0.00     0.143 HD
ENDBRANCH  15  17
ENDBRANCH  10  13
ENDBRANCH   1   7
BRANCH   4  20
ATOM     20  C   UNL d   1      -0.864  -2.679  -0.048  0.00  0.00    -0.007 C 
ATOM     21  C   UNL d   1      -0.039  -3.572   0.899  0.00  0.00     0.021 C 
ATOM     22  C   UNL d   1      -2.301  -2.698   0.559  0.00  0.00     0.021 C 
ATOM     23  C   UNL d   1      -1.018  -3.299  -1.450  0.00  0.00     0.021 C 
ENDBRANCH   4  20
BRANCH   6  24
ATOM     24  C   UNL d   1      -0.694   2.485   0.038  0.00  0.00    -0.007 C 
ATOM     25  C   UNL d   1       0.522   3.412   0.255  0.00  0.00     0.021 C 
ATOM     26  C   UNL d   1      -1.348   2.878  -1.304  0.00  0.00     0.021 C 
ATOM     27  C   UNL d   1      -1.703   2.753   1.175  0.00  0.00     0.021 C 
ENDBRANCH   6  24
TORSDOF 5
