REMARK  2 active torsions:
REMARK  status: ('A' for Active; 'I' for Inactive)
REMARK    1  A    between atoms: C_5  and  N_1 
REMARK    2  A    between atoms: C_9  and  N_3 
ROOT
ATOM      1  N   UNL d   1       0.305   0.754  -0.062  0.00  0.00    -0.314 N 
ATOM      2  C   UNL d   1       1.647   0.376  -0.040  0.00  0.00     0.121 A 
ATOM      3  N   UNL d   1       2.631   1.224  -0.075  0.00  0.00    -0.328 N 
ATOM      4  HN  UNL d   1       2.379   2.212  -0.038  1.00  0.00     0.169 HD
ATOM      5  C   UNL d   1      -0.617  -0.372  -0.068  0.00  0.00     0.171 A 
ATOM      6  C   UNL d   1       1.661  -1.115   0.034  0.00  0.00     0.016 A 
ATOM      7  C   UNL d   1       0.327  -1.536  -0.071  0.00  0.00    -0.026 A 
ATOM      8  C   UNL d   1       2.667  -2.050   0.214  0.00  0.00     0.016 A 
ATOM      9  C   UNL d   1      -0.008  -2.884  -0.122  0.00  0.00     0.010 A 
ATOM     10  C   UNL d   1       2.341  -3.411   0.166  0.00  0.00     0.001 A 
ATOM     11  C   UNL d   1       1.016  -3.825  -0.024  0.00  0.00     0.001 A 
ENDROOT
BRANCH   1  12
ATOM     12  C   UNL d   1      -0.265   2.028  -0.067  0.00  0.00     0.109 A 
ATOM     13  N   UNL d   1      -1.522   2.166   0.429  0.00  0.00    -0.352 N 
ATOM     14  C   UNL d   1      -2.069   3.402   0.473  0.00  0.00     0.090 A 
ATOM     15  HN  UNL d   1      -2.043   1.354   0.761  1.00  0.00     0.166 HD
ATOM     16  C   UNL d   1      -1.450   4.540  -0.007  0.00  0.00     0.024 A 
ATOM     17  C   UNL d   1      -0.187   4.406  -0.571  0.00  0.00    -0.057 A 
ATOM     18  C   UNL d   1       0.409   3.139  -0.577  0.00  0.00     0.055 A 
ATOM     19  C   UNL d   1       0.523   5.593  -1.145  0.00  0.00     0.048 C 
ENDBRANCH   1  12
BRANCH   3  20
ATOM     20  C   UNL d   1       3.986   0.934  -0.158  0.00  0.00     0.106 A 
ATOM     21  N   UNL d   1       4.395  -0.013  -1.024  0.00  0.00    -0.352 N 
ATOM     22  C   UNL d   1       5.727  -0.213  -1.134  0.00  0.00     0.090 A 
ATOM     23  HN  UNL d   1       3.728  -0.556  -1.573  1.00  0.00     0.166 HD
ATOM     24  C   UNL d   1       6.683   0.539  -0.472  0.00  0.00     0.024 A 
ATOM     25  C   UNL d   1       6.253   1.578   0.351  0.00  0.00    -0.057 A 
ATOM     26  C   UNL d   1       4.878   1.759   0.519  0.00  0.00     0.055 A 
ATOM     27  C   UNL d   1       7.245   2.473   1.028  0.00  0.00     0.048 C 
ENDBRANCH   3  20
TORSDOF 2
