REMARK  4 active torsions:
REMARK  status: ('A' for Active; 'I' for Inactive)
REMARK       I    between atoms: N_2  and  C_1 
REMARK    1  A    between atoms: C_7  and  C_1 
REMARK    2  A    between atoms: C_10  and  N_2 
REMARK    3  A    between atoms: C_9  and  N_3 
REMARK    4  A    between atoms: C_8  and  C_9 
ROOT
ATOM      1  N   UNL d   1       1.175  -5.173  -0.223  0.00  0.00     0.092 N 
ATOM      2  C   UNL d   1       1.197  -2.297   0.002  0.00  0.00     0.088 C 
ATOM      3  C   UNL d   1       1.167  -2.979  -1.371  0.00  0.00     0.055 C 
ATOM      4  C   UNL d   1       0.964  -3.181   1.237  0.00  0.00     0.055 C 
ATOM      5  C   UNL d   1       0.669  -4.418  -1.382  0.00  0.00     0.275 C 
ATOM      6  C   UNL d   1       0.516  -4.616   0.968  0.00  0.00     0.275 C 
ENDROOT
BRANCH   1   7
ATOM      7  C   UNL d   1       0.843  -6.602  -0.402  0.00  0.00     0.311 C 
BRANCH   7   8
ATOM      8  C   UNL d   1       1.419  -7.532   0.650  0.00  0.00    -0.029 A 
ATOM      9  C   UNL d   1       0.566  -8.278   1.478  0.00  0.00     0.021 A 
ATOM     10  C   UNL d   1       1.072  -9.201   2.409  0.00  0.00    -0.025 A 
ATOM     11  C   UNL d   1       0.214  -9.956   3.229  0.00  0.00     0.012 A 
ATOM     12  C   UNL d   1       2.466  -9.386   2.520  0.00  0.00    -0.026 A 
ATOM     13  C   UNL d   1       0.725 -10.883   4.141  0.00  0.00     0.001 A 
ATOM     14  C   UNL d   1       2.099 -11.068   4.244  0.00  0.00     0.001 A 
ATOM     15  C   UNL d   1       2.964 -10.322   3.439  0.00  0.00     0.012 A 
ATOM     16  C   UNL d   1       3.319  -8.627   1.701  0.00  0.00     0.013 A 
ATOM     17  C   UNL d   1       2.802  -7.709   0.778  0.00  0.00     0.010 A 
ENDBRANCH   7   8
ENDBRANCH   1   7
BRANCH   2  18
ATOM     18  N   UNL d   1       0.431  -1.048   0.038  0.00  0.00    -0.352 N 
ATOM     19  C   UNL d   1      -0.941  -0.973  -0.064  0.00  0.00     0.252 C 
ATOM     20  O   UNL d   1      -1.661  -1.952  -0.221  0.00  0.00    -0.268 OA
ATOM     21  H   UNL d   1       0.966  -0.193  -0.016  0.00  0.00     0.163 HD
BRANCH  19  22
ATOM     22  C   UNL d   1      -1.527   0.405  -0.007  0.00  0.00     0.032 A 
ATOM     23  C   UNL d   1      -2.762   0.636  -0.627  0.00  0.00     0.017 A 
ATOM     24  C   UNL d   1      -3.341   1.909  -0.595  0.00  0.00     0.001 A 
ATOM     25  C   UNL d   1      -2.696   2.955   0.062  0.00  0.00     0.000 A 
ATOM     26  C   UNL d   1      -1.475   2.731   0.696  0.00  0.00     0.001 A 
ATOM     27  C   UNL d   1      -0.892   1.460   0.667  0.00  0.00     0.017 A 
ENDBRANCH  19  22
ENDBRANCH   2  18
TORSDOF 4
