REMARK  2 active torsions:
REMARK  status: ('A' for Active; 'I' for Inactive)
REMARK    1  A    between atoms: N_6  and  S_1 
REMARK    2  A    between atoms: C_7  and  S_1 
ROOT
ATOM      1  C   UNL d   1      -2.155   4.039   0.099  0.00  0.00     0.148 A 
ATOM      2  N   UNL d   1      -3.433   3.917   0.393  0.00  0.00    -0.336 N 
ATOM      3  HN  UNL d   1      -3.914   3.025   0.504  1.00  0.00     0.168 HD
ATOM      4  S   UNL d   1      -1.623   5.684  -0.006  0.00  0.00    -0.052 SA
ATOM      5  N   UNL d   1       0.282   0.784  -1.130  0.00  0.00    -0.203 NA
ATOM      6  N   UNL d   1      -1.335   2.985  -0.177  0.00  0.00    -0.359 N 
ATOM      7  C   UNL d   1      -3.201   6.249   0.326  0.00  0.00     0.036 A 
ATOM      8  C   UNL d   1      -4.038   5.156   0.531  0.00  0.00     0.051 A 
ATOM      9  C   UNL d   1       0.807   2.189  -1.133  0.00  0.00     0.127 C 
ATOM     10  C   UNL d   1      -1.214   0.788  -1.254  0.00  0.00     0.127 C 
ATOM     11  C   UNL d   1      -3.660   7.573   0.396  0.00  0.00     0.045 A 
ATOM     12  C   UNL d   1       0.129   3.072  -0.060  0.00  0.00     0.140 C 
ATOM     13  C   UNL d   1      -1.874   1.617  -0.136  0.00  0.00     0.140 C 
ATOM     14  C   UNL d   1      -5.393   5.394   0.840  0.00  0.00     0.032 A 
ATOM     15  C   UNL d   1      -5.006   7.779   0.695  0.00  0.00     0.035 A 
ATOM     16  C   UNL d   1      -5.868   6.709   0.920  0.00  0.00     0.026 A 
ATOM     17 CL   UNL d   1      -5.606   9.391   0.783  0.00  0.00    -0.084 Cl
ENDROOT
BRANCH   5  18
ATOM     18  S   UNL d   1       0.912  -0.237   0.074  0.00  0.00     0.250 S 
ATOM     19  O   UNL d   1       0.015  -1.365   0.227  0.00  0.00    -0.205 OA
ATOM     20  O   UNL d   1       1.305   0.561   1.212  0.00  0.00    -0.205 OA
BRANCH  18  21
ATOM     21  C   UNL d   1       2.429  -0.994  -0.468  0.00  0.00     0.115 A 
ATOM     22  S   UNL d   1       3.007  -0.616  -2.029  0.00  0.00    -0.089 SA
ATOM     23  C   UNL d   1       4.368  -1.638  -1.844  0.00  0.00     0.051 A 
ATOM     24  C   UNL d   1       4.377  -2.269  -0.620  0.00  0.00     0.009 A 
ATOM     25  C   UNL d   1       3.256  -1.897   0.174  0.00  0.00     0.033 A 
ENDBRANCH  18  21
ENDBRANCH   5  18
TORSDOF 2
