REMARK  7 active torsions:
REMARK  status: ('A' for Active; 'I' for Inactive)
REMARK    1  A    between atoms: C_8  and  N_1 
REMARK    2  A    between atoms: C_6  and  C_3 
REMARK    3  A    between atoms: C_7  and  C_6 
REMARK    4  A    between atoms: C_13  and  C_8 
REMARK    5  A    between atoms: O_14  and  C_9 
REMARK    6  A    between atoms: O_15  and  C_12 
REMARK    7  A    between atoms: C_16  and  C_13 
ROOT
ATOM      1  N   UNL d   1       0.207  -1.014  -0.066  0.00  0.00    -0.298 N 
ATOM      2  C   UNL d   1       0.974   0.131  -0.148  0.00  0.00     0.148 C 
ATOM      3  C   UNL d   1      -1.505   0.631  -0.140  0.00  0.00     0.076 C 
ATOM      4  C   UNL d   1      -1.167  -0.823  -0.182  0.00  0.00     0.266 C 
ATOM      5  S   UNL d   1      -0.063   1.560  -0.170  0.00  0.00    -0.055 SA
ATOM      6  S   UNL d   1       2.628   0.317  -0.230  0.00  0.00    -0.052 SA
ATOM      7  O   UNL d   1      -1.989  -1.703  -0.369  0.00  0.00    -0.266 OA
ENDROOT
BRANCH   3   8
ATOM      8  C   UNL d   1      -2.724   1.186  -0.067  0.00  0.00     0.039 C 
BRANCH   8   9
ATOM      9  C   UNL d   1      -3.962   0.410   0.073  0.00  0.00     0.001 A 
ATOM     10  C   UNL d   1      -4.445   0.008   1.337  0.00  0.00     0.109 A 
ATOM     11  C   UNL d   1      -5.567  -0.827   1.428  0.00  0.00     0.102 A 
ATOM     12  C   UNL d   1      -6.205  -1.230   0.247  0.00  0.00     0.039 A 
ATOM     13  C   UNL d   1      -5.747  -0.815  -1.003  0.00  0.00     0.004 A 
ATOM     14  C   UNL d   1      -4.626   0.005  -1.091  0.00  0.00     0.014 A 
BRANCH  10  15
ATOM     15  O   UNL d   1      -3.809   0.431   2.478  0.00  0.00    -0.357 OA
ATOM     16  H   UNL d   1      -3.155   1.111   2.253  0.00  0.00     0.217 HD
ENDBRANCH  10  15
BRANCH  11  17
ATOM     17  O   UNL d   1      -6.164  -1.339   2.550  0.00  0.00    -0.353 OA
ATOM     18  C   UNL d   1      -5.590  -1.048   3.815  0.00  0.00     0.210 C 
ENDBRANCH  11  17
ENDBRANCH   8   9
ENDBRANCH   3   8
BRANCH   1  19
ATOM     19  C   UNL d   1       0.675  -2.415  -0.165  0.00  0.00     0.138 C 
BRANCH  19  20
ATOM     20  C   UNL d   1       1.833  -2.837   0.751  0.00  0.00     0.059 C 
BRANCH  20  21
ATOM     21  C   UNL d   1       2.212  -4.304   0.717  0.00  0.00    -0.057 A 
ATOM     22  C   UNL d   1       3.569  -4.646   0.865  0.00  0.00     0.007 A 
ATOM     23  C   UNL d   1       3.979  -5.980   0.883  0.00  0.00     0.001 A 
ATOM     24  C   UNL d   1       3.038  -6.996   0.763  0.00  0.00     0.000 A 
ATOM     25  C   UNL d   1       1.688  -6.677   0.630  0.00  0.00     0.001 A 
ATOM     26  C   UNL d   1       1.276  -5.341   0.615  0.00  0.00     0.007 A 
ENDBRANCH  20  21
ENDBRANCH  19  20
ENDBRANCH   1  19
TORSDOF 7
