REMARK  8 active torsions:
REMARK  status: ('A' for Active; 'I' for Inactive)
REMARK    1  A    between atoms: S_9  and  C_3 
REMARK       I    between atoms: C_4  and  N_6 
REMARK       I    between atoms: N_10  and  C_4 
REMARK    2  A    between atoms: C_5  and  O_12 
REMARK    3  A    between atoms: N_6  and  C_8 
REMARK    4  A    between atoms: S_11  and  C_7 
REMARK    5  A    between atoms: C_21  and  S_9 
REMARK    6  A    between atoms: C_18  and  N_10 
REMARK    7  A    between atoms: C_22  and  S_11 
REMARK    8  A    between atoms: O_12  and  C_20 
ROOT
ATOM      1  N   UNL d   1      -1.566  -0.138   0.187  0.00  0.00    -0.343 N 
ATOM      2  HN  UNL d   1      -2.541  -0.164  -0.109  1.00  0.00     0.167 HD
ATOM      3  C   UNL d   1      -0.865   1.033   0.164  0.00  0.00     0.102 A 
ATOM      4  C   UNL d   1      -0.946  -1.258   0.607  0.00  0.00     0.075 A 
ATOM      5  C   UNL d   1       0.477   1.119   0.586  0.00  0.00     0.070 A 
ATOM      6  C   UNL d   1       1.061  -0.036   1.108  0.00  0.00     0.035 A 
ATOM      7  C   UNL d   1       0.351  -1.234   1.105  0.00  0.00     0.039 A 
ENDROOT
BRANCH   5   8
ATOM      8  N   UNL d   1       1.305   2.278   0.546  0.00  0.00    -0.306 N 
ATOM      9  C   UNL d   1       1.399   3.070  -0.589  0.00  0.00     0.325 C 
ATOM     10  N   UNL d   1       2.293   4.120  -0.411  0.00  0.00    -0.309 N 
ATOM     11  O   UNL d   1       0.823   2.822  -1.638  0.00  0.00    -0.247 OA
ATOM     12  H   UNL d   1       2.955   4.039   0.345  0.00  0.00     0.170 HD
ATOM     13  H   UNL d   1       2.159   2.223   1.079  0.00  0.00     0.171 HD
BRANCH  10  14
ATOM     14  C   UNL d   1       2.556   5.112  -1.382  0.00  0.00     0.036 A 
ATOM     15  C   UNL d   1       1.618   5.481  -2.346  0.00  0.00     0.032 A 
ATOM     16  C   UNL d   1       1.934   6.436  -3.313  0.00  0.00     0.039 A 
ATOM     17  C   UNL d   1       3.193   7.040  -3.342  0.00  0.00     0.078 A 
ATOM     18  C   UNL d   1       4.128   6.691  -2.367  0.00  0.00     0.039 A 
ATOM     19  C   UNL d   1       3.800   5.750  -1.375  0.00  0.00     0.032 A 
BRANCH  17  20
ATOM     20  O   UNL d   1       3.350   7.941  -4.352  0.00  0.00    -0.255 OA
BRANCH  20  21
ATOM     21  C   UNL d   1       4.592   8.605  -4.483  0.00  0.00     0.530 C 
ATOM     22  F   UNL d   1       4.947   9.228  -3.338  0.00  0.00    -0.144 F 
ATOM     23  F   UNL d   1       5.564   7.743  -4.847  0.00  0.00    -0.144 F 
ATOM     24  F   UNL d   1       4.478   9.545  -5.448  0.00  0.00    -0.144 F 
ENDBRANCH  20  21
ENDBRANCH  17  20
ENDBRANCH  10  14
ENDBRANCH   5   8
BRANCH   3  25
ATOM     25  S   UNL d   1      -1.865   2.487  -0.149  0.00  0.00    -0.070 SA
BRANCH  25  26
ATOM     26  C   UNL d   1      -2.567   2.213  -1.770  0.00  0.00     0.007 A 
ATOM     27  C   UNL d   1      -3.808   2.801  -2.051  0.00  0.00     0.019 A 
ATOM     28  C   UNL d   1      -4.392   2.675  -3.315  0.00  0.00     0.001 A 
ATOM     29  C   UNL d   1      -3.739   1.960  -4.314  0.00  0.00     0.000 A 
ATOM     30  C   UNL d   1      -2.502   1.378  -4.053  0.00  0.00     0.001 A 
ATOM     31  C   UNL d   1      -1.915   1.512  -2.790  0.00  0.00     0.019 A 
ENDBRANCH  25  26
ENDBRANCH   3  25
BRANCH   4  32
ATOM     32  S   UNL d   1      -1.817  -2.809   0.702  0.00  0.00    -0.073 SA
BRANCH  32  33
ATOM     33  C   UNL d   1      -3.018  -2.939  -0.608  0.00  0.00     0.007 A 
ATOM     34  C   UNL d   1      -3.320  -1.963  -1.559  0.00  0.00     0.019 A 
ATOM     35  C   UNL d   1      -4.326  -2.168  -2.511  0.00  0.00     0.001 A 
ATOM     36  C   UNL d   1      -5.037  -3.364  -2.539  0.00  0.00     0.000 A 
ATOM     37  C   UNL d   1      -4.735  -4.361  -1.618  0.00  0.00     0.001 A 
ATOM     38  C   UNL d   1      -3.735  -4.148  -0.664  0.00  0.00     0.019 A 
ENDBRANCH  32  33
ENDBRANCH   4  32
TORSDOF 8
