REMARK  3 active torsions:
REMARK  status: ('A' for Active; 'I' for Inactive)
REMARK    1  A    between atoms: C_2  and  N_1 
REMARK    2  A    between atoms: O_14  and  C_8 
REMARK    3  A    between atoms: O_15  and  C_12 
ROOT
ATOM      1  C   UNL d   1       0.016   2.220  -0.033  0.00  0.00     0.082 A 
ATOM      2  C   UNL d   1      -0.645   2.929   0.989  0.00  0.00     0.069 A 
ATOM      3  C   UNL d   1       0.719   2.920  -1.026  0.00  0.00     0.095 A 
ATOM      4  C   UNL d   1       0.794   4.316  -0.946  0.00  0.00     0.042 A 
ATOM      5  C   UNL d   1      -0.546   4.319   1.072  0.00  0.00     0.070 A 
ATOM      6  C   UNL d   1       0.172   5.007   0.097  0.00  0.00     0.039 A 
ENDROOT
BRANCH   1   7
ATOM      7  N   UNL d   1       0.001   0.814   0.026  0.00  0.00    -0.242 N 
ATOM      8  C   UNL d   1      -1.126   0.046   0.120  0.00  0.00     0.255 C 
ATOM      9  C   UNL d   1      -0.681  -1.350   0.173  0.00  0.00     0.080 C 
ATOM     10  O   UNL d   1      -2.298   0.370   0.130  0.00  0.00    -0.268 OA
ATOM     11  C   UNL d   1       0.651  -1.353   0.220  0.00  0.00     0.080 C 
ATOM     12  C   UNL d   1       1.112   0.040   0.179  0.00  0.00     0.255 C 
ATOM     13  O   UNL d   1       2.285   0.347   0.317  0.00  0.00    -0.268 OA
ENDBRANCH   1   7
BRANCH   3  14
ATOM     14  O   UNL d   1       1.372   2.398  -2.111  0.00  0.00    -0.354 OA
ATOM     15  C   UNL d   1       0.759   1.299  -2.775  0.00  0.00     0.210 C 
ENDBRANCH   3  14
BRANCH   5  16
ATOM     16  O   UNL d   1      -1.077   5.106   2.056  0.00  0.00    -0.356 OA
ATOM     17  C   UNL d   1      -1.760   4.445   3.114  0.00  0.00     0.210 C 
ENDBRANCH   5  16
TORSDOF 3
