REMARK  9 active torsions:
REMARK  status: ('A' for Active; 'I' for Inactive)
REMARK    1  A    between atoms: C_9  and  C_1 
REMARK    2  A    between atoms: O_19  and  C_6 
REMARK    3  A    between atoms: C_7  and  N_10 
REMARK    4  A    between atoms: N_18  and  C_7 
REMARK    5  A    between atoms: C_8  and  C_20 
REMARK    6  A    between atoms: N_10  and  C_14 
REMARK    7  A    between atoms: C_24  and  N_18 
REMARK    8  A    between atoms: C_20  and  C_25 
REMARK    9  A    between atoms: C_25  and  C_24 
ROOT
ATOM      1  C   UNL d   1       3.135  -4.426   0.846  0.00  0.00     0.172 C 
ATOM      2  S   UNL d   1       3.953  -2.995   0.549  0.00  0.00    -0.041 SA
ENDROOT
BRANCH   1   3
ATOM      3  N   UNL d   1       1.761  -4.639   0.746  0.00  0.00    -0.333 N 
ATOM      4  H   UNL d   1       1.400  -5.207   1.502  0.00  0.00     0.168 HD
BRANCH   3   5
ATOM      5  C   UNL d   1       0.818  -3.824   0.087  0.00  0.00     0.035 A 
ATOM      6  C   UNL d   1       1.101  -3.222  -1.140  0.00  0.00     0.045 A 
ATOM      7  C   UNL d   1       0.172  -2.378  -1.762  0.00  0.00     0.050 A 
ATOM      8  C   UNL d   1      -1.072  -2.174  -1.151  0.00  0.00     0.016 A 
ATOM      9  C   UNL d   1      -1.383  -2.816   0.049  0.00  0.00     0.003 A 
ATOM     10  C   UNL d   1      -0.445  -3.652   0.660  0.00  0.00     0.029 A 
BRANCH   7  11
ATOM     11  C   UNL d   1       0.518  -1.693  -3.060  0.00  0.00     0.417 C 
ATOM     12  F   UNL d   1       1.774  -1.971  -3.510  0.00  0.00    -0.166 F 
ATOM     13  F   UNL d   1       0.447  -0.336  -2.970  0.00  0.00    -0.166 F 
ATOM     14  F   UNL d   1      -0.322  -2.045  -4.073  0.00  0.00    -0.166 F 
ENDBRANCH   7  11
ENDBRANCH   3   5
ENDBRANCH   1   3
BRANCH   1  15
ATOM     15  N   UNL d   1       3.737  -5.578   1.337  0.00  0.00    -0.367 N 
ATOM     16  H   UNL d   1       3.306  -6.419   0.973  0.00  0.00     0.161 HD
BRANCH  15  17
ATOM     17  C   UNL d   1       5.147  -5.676   1.701  0.00  0.00     0.122 C 
BRANCH  17  18
ATOM     18  C   UNL d   1       5.465  -6.968   2.449  0.00  0.00     0.021 C 
BRANCH  18  19
ATOM     19  C   UNL d   1       5.405  -8.184   1.523  0.00  0.00     0.020 C 
BRANCH  19  20
ATOM     20  C   UNL d   1       5.837  -9.475   2.202  0.00  0.00     0.102 A 
ATOM     21  C   UNL d   1       5.734 -10.610   1.260  0.00  0.00     0.139 A 
ATOM     22  N   UNL d   1       4.865 -11.515   1.573  0.00  0.00    -0.284 N 
ATOM     23  N   UNL d   1       4.278 -11.114   2.812  0.00  0.00    -0.313 N 
ATOM     24  HN  UNL d   1       4.642 -12.354   1.038  1.00  0.00     0.188 HD
ATOM     25  C   UNL d   1       4.818  -9.994   3.168  0.00  0.00     0.093 A 
ATOM     26  HN  UNL d   1       3.558 -11.622   3.327  1.00  0.00     0.185 HD
BRANCH  21  27
ATOM     27  O   UNL d   1       6.466 -10.655   0.158  0.00  0.00    -0.348 OA
ATOM     28  H   UNL d   1       6.216 -11.454  -0.336  0.00  0.00     0.219 HD
ENDBRANCH  21  27
ENDBRANCH  19  20
ENDBRANCH  18  19
ENDBRANCH  17  18
ENDBRANCH  15  17
ENDBRANCH   1  15
TORSDOF 9
