REMARK  0 active torsions:
REMARK  status: ('A' for Active; 'I' for Inactive)
ROOT
ATOM      1  C   UNL d   1       0.024  -0.680  -0.015  0.00  0.00     0.018 A 
ATOM      2  C   UNL d   1      -1.234  -1.482   0.031  0.00  0.00     0.169 C 
ATOM      3  S   UNL d   1      -2.697   0.761  -0.552  0.00  0.00    -0.157 SA
ATOM      4  C   UNL d   1       0.024   0.727   0.019  0.00  0.00    -0.035 A 
ATOM      5  O   UNL d   1      -1.183  -2.704  -0.102  0.00  0.00    -0.291 OA
ATOM      6  C   UNL d   1      -2.531  -0.787   0.357  0.00  0.00     0.158 C 
ATOM      7  C   UNL d   1      -1.223   1.563   0.105  0.00  0.00     0.113 C 
ATOM      8  C   UNL d   1       1.240  -1.381  -0.077  0.00  0.00     0.016 A 
ATOM      9  C   UNL d   1       1.264   1.396   0.034  0.00  0.00     0.009 A 
ATOM     10  C   UNL d   1       2.457  -0.699  -0.079  0.00  0.00     0.001 A 
ATOM     11  C   UNL d   1       2.466   0.691  -0.017  0.00  0.00     0.001 A 
ENDROOT
TORSDOF 0
