REMARK  0 active torsions:
REMARK  status: ('A' for Active; 'I' for Inactive)
ROOT
ATOM      1  C   UNL d   1       0.154  -0.662   0.141  0.00  0.00    -0.018 A 
ATOM      2  C   UNL d   1      -0.227   0.707  -0.002  0.00  0.00    -0.018 A 
ATOM      3  C   UNL d   1      -0.843  -1.692   0.185  0.00  0.00    -0.033 A 
ATOM      4  C   UNL d   1       0.770   1.734  -0.028  0.00  0.00    -0.033 A 
ATOM      5  C   UNL d   1      -2.199  -1.342   0.080  0.00  0.00     0.017 A 
ATOM      6  C   UNL d   1       2.129   1.381   0.036  0.00  0.00     0.017 A 
ATOM      7  C   UNL d   1       1.532  -0.950   0.234  0.00  0.00     0.014 A 
ATOM      8  C   UNL d   1      -1.602   0.992  -0.118  0.00  0.00     0.014 A 
ATOM      9  C   UNL d   1       2.503   0.046   0.172  0.00  0.00     0.016 A 
ATOM     10  C   UNL d   1      -2.570  -0.010  -0.080  0.00  0.00     0.016 A 
ATOM     11  C   UNL d   1      -3.278  -2.360   0.164  0.00  0.00     0.160 C 
ATOM     12  C   UNL d   1       3.208   2.405  -0.063  0.00  0.00     0.160 C 
ATOM     13  O   UNL d   1      -4.444  -2.049  -0.067  0.00  0.00    -0.292 OA
ATOM     14  O   UNL d   1       4.391   2.069  -0.002  0.00  0.00    -0.292 OA
ATOM     15  C   UNL d   1       0.392   3.195  -0.180  0.00  0.00     0.041 C 
ATOM     16  C   UNL d   1      -0.453  -3.138   0.412  0.00  0.00     0.041 C 
ATOM     17  C   UNL d   1       2.817   3.833  -0.319  0.00  0.00     0.084 C 
ATOM     18  C   UNL d   1      -2.913  -3.743   0.631  0.00  0.00     0.084 C 
ATOM     19  C   UNL d   1      -1.544  -4.168   0.144  0.00  0.00     0.012 C 
ATOM     20  C   UNL d   1       1.476   4.153   0.304  0.00  0.00     0.012 C 
ENDROOT
TORSDOF 0
