REMARK  7 active torsions:
REMARK  status: ('A' for Active; 'I' for Inactive)
REMARK    1  A    between atoms: C_8  and  N_1 
REMARK    2  A    between atoms: C_12  and  C_5 
REMARK    3  A    between atoms: C_11  and  C_8 
REMARK    4  A    between atoms: C_9  and  C_14 
REMARK    5  A    between atoms: C_10  and  C_13 
REMARK       I    between atoms: N_17  and  C_11 
REMARK       I    between atoms: C_15  and  N_20 
REMARK    6  A    between atoms: C_16  and  C_15 
REMARK    7  A    between atoms: N_20  and  N_17 
ROOT
ATOM      1  N   UNL d   1      -0.170  -1.228  -0.339  0.00  0.00    -0.203 N 
ATOM      2  N   UNL d   1      -1.042  -0.357   0.189  0.00  0.00    -0.268 N 
ATOM      3  HN  UNL d   1      -1.839  -0.527   0.802  1.00  0.00     0.190 HD
ATOM      4  N   UNL d   1       0.804  -0.684  -1.089  0.00  0.00    -0.002 NA
ATOM      5  C   UNL d   1      -0.578   0.799  -0.312  0.00  0.00     0.144 A 
ATOM      6  N   UNL d   1       0.551   0.620  -1.077  0.00  0.00    -0.266 N 
ATOM      7  HN  UNL d   1       1.090   1.349  -1.545  1.00  0.00     0.186 HD
ENDROOT
BRANCH   5   8
ATOM      8  C   UNL d   1      -1.236   2.079  -0.095  0.00  0.00     0.012 A 
ATOM      9  C   UNL d   1      -2.381   2.132   0.718  0.00  0.00     0.031 A 
ATOM     10  C   UNL d   1      -3.071   3.330   0.938  0.00  0.00     0.049 A 
ATOM     11  C   UNL d   1      -2.598   4.498   0.322  0.00  0.00     0.032 A 
ATOM     12  C   UNL d   1      -1.447   4.478  -0.487  0.00  0.00     0.049 A 
ATOM     13  C   UNL d   1      -0.773   3.259  -0.691  0.00  0.00     0.031 A 
BRANCH  10  14
ATOM     14  C   UNL d   1      -4.295   3.359   1.821  0.00  0.00     0.417 C 
ATOM     15  F   UNL d   1      -4.600   2.151   2.371  0.00  0.00    -0.166 F 
ATOM     16  F   UNL d   1      -4.157   4.220   2.866  0.00  0.00    -0.166 F 
ATOM     17  F   UNL d   1      -5.410   3.756   1.150  0.00  0.00    -0.166 F 
ENDBRANCH  10  14
BRANCH  12  18
ATOM     18  C   UNL d   1      -0.955   5.762  -1.115  0.00  0.00     0.417 C 
ATOM     19  F   UNL d   1       0.184   5.614  -1.844  0.00  0.00    -0.166 F 
ATOM     20  F   UNL d   1      -1.873   6.310  -1.958  0.00  0.00    -0.166 F 
ATOM     21  F   UNL d   1      -0.684   6.718  -0.184  0.00  0.00    -0.166 F 
ENDBRANCH  12  18
ENDBRANCH   5   8
BRANCH   1  22
ATOM     22  C   UNL d   1      -0.347  -2.655  -0.185  0.00  0.00     0.214 C 
ATOM     23  C   UNL d   1       0.920  -3.383   0.245  0.00  0.00     0.046 C 
BRANCH  22  24
ATOM     24  C   UNL d   1      -0.980  -3.248  -1.431  0.00  0.00     0.262 C 
ATOM     25  N   UNL d   1      -0.307  -3.088  -2.627  0.00  0.00    -0.266 N 
ATOM     26  H   UNL d   1       0.425  -2.385  -2.769  0.00  0.00     0.190 HD
ATOM     27  O   UNL d   1      -2.027  -3.902  -1.372  0.00  0.00    -0.269 OA
BRANCH  25  28
ATOM     28  N   UNL d   1      -0.956  -3.535  -3.792  0.00  0.00    -0.267 N 
ATOM     29  C   UNL d   1      -0.431  -3.211  -5.021  0.00  0.00     0.240 C 
ATOM     30  O   UNL d   1       0.610  -2.572  -5.159  0.00  0.00    -0.271 OA
ATOM     31  H   UNL d   1      -1.832  -4.043  -3.667  0.00  0.00     0.190 HD
BRANCH  29  32
ATOM     32  C   UNL d   1      -1.215  -3.692  -6.193  0.00  0.00     0.080 A 
ATOM     33  C   UNL d   1      -0.512  -4.342  -7.365  0.00  0.00     0.015 A 
ATOM     34  C   UNL d   1      -1.109  -2.975  -7.522  0.00  0.00     0.015 A 
ENDBRANCH  29  32
ENDBRANCH  25  28
ENDBRANCH  22  24
ENDBRANCH   1  22
TORSDOF 7
