REMARK  5 active torsions:
REMARK  status: ('A' for Active; 'I' for Inactive)
REMARK    1  A    between atoms: C_7  and  C_3 
REMARK    2  A    between atoms: C_15  and  C_4 
REMARK    3  A    between atoms: C_16  and  C_5 
REMARK    4  A    between atoms: O_18  and  C_6 
REMARK    5  A    between atoms: C_17  and  C_8 
ROOT
ATOM      1  N   UNL d   1       0.028  -3.557  -2.526  0.00  0.00    -0.197 NA
ATOM      2  C   UNL d   1      -0.447  -2.521  -2.302  0.00  0.00     0.065 C 
ATOM      3  C   UNL d   1      -1.082  -1.228  -2.025  0.00  0.00     0.188 C 
ENDROOT
BRANCH   3   4
ATOM      4  C   UNL d   1      -0.300  -0.491  -0.988  0.00  0.00     0.064 A 
ATOM      5  N   UNL d   1       0.702   0.324  -1.247  0.00  0.00    -0.352 N 
ATOM      6  C   UNL d   1       1.250   0.808  -0.063  0.00  0.00     0.049 A 
ATOM      7  HN  UNL d   1       1.030   0.566  -2.182  1.00  0.00     0.166 HD
ATOM      8  C   UNL d   1       0.622   0.354   1.083  0.00  0.00     0.081 A 
ATOM      9  S   UNL d   1      -0.686  -0.677   0.679  0.00  0.00    -0.085 SA
BRANCH   6  10
ATOM     10  C   UNL d   1       2.428   1.672  -0.059  0.00  0.00    -0.008 A 
ATOM     11  C   UNL d   1       2.671   2.570   0.988  0.00  0.00     0.024 A 
ATOM     12  C   UNL d   1       3.837   3.358   1.046  0.00  0.00    -0.016 A 
ATOM     13  C   UNL d   1       4.760   3.201  -0.020  0.00  0.00     0.079 A 
ATOM     14  C   UNL d   1       4.536   2.353  -1.134  0.00  0.00    -0.016 A 
ATOM     15  C   UNL d   1       3.347   1.594  -1.109  0.00  0.00     0.024 A 
BRANCH  12  16
ATOM     16  C   UNL d   1       4.057   4.341   2.225  0.00  0.00    -0.021 C 
ATOM     17  C   UNL d   1       2.877   4.373   3.236  0.00  0.00     0.019 C 
ATOM     18  C   UNL d   1       5.308   3.954   3.042  0.00  0.00     0.019 C 
ATOM     19  C   UNL d   1       4.201   5.791   1.709  0.00  0.00     0.019 C 
ENDBRANCH  12  16
BRANCH  13  20
ATOM     20  O   UNL d   1       5.937   3.894   0.052  0.00  0.00    -0.360 OA
ATOM     21  H   UNL d   1       5.824   4.678  -0.507  0.00  0.00     0.217 HD
ENDBRANCH  13  20
BRANCH  14  22
ATOM     22  C   UNL d   1       5.505   2.242  -2.340  0.00  0.00    -0.021 C 
ATOM     23  C   UNL d   1       5.040   1.226  -3.420  0.00  0.00     0.019 C 
ATOM     24  C   UNL d   1       5.612   3.601  -3.068  0.00  0.00     0.019 C 
ATOM     25  C   UNL d   1       6.912   1.778  -1.903  0.00  0.00     0.019 C 
ENDBRANCH  14  22
ENDBRANCH   6  10
ENDBRANCH   3   4
TORSDOF 5
