REMARK  5 active torsions:
REMARK  status: ('A' for Active; 'I' for Inactive)
REMARK    1  A    between atoms: C_9  and  C_7 
REMARK    2  A    between atoms: O_12  and  C_8 
REMARK    3  A    between atoms: C_17  and  O_12 
REMARK    4  A    between atoms: O_18  and  C_14 
REMARK    5  A    between atoms: C_21  and  C_17 
ROOT
ATOM      1  C   UNL d   1      -2.983   3.134  -2.737  0.00  0.00     0.103 A 
ATOM      2  C   UNL d   1      -3.102   1.208  -1.232  0.00  0.00    -0.032 A 
ATOM      3  C   UNL d   1      -2.437   1.947  -2.224  0.00  0.00     0.051 A 
ATOM      4  C   UNL d   1      -4.224   3.574  -2.247  0.00  0.00     0.101 A 
ATOM      5  C   UNL d   1      -4.884   2.828  -1.260  0.00  0.00     0.040 A 
ATOM      6  C   UNL d   1      -4.335   1.647  -0.759  0.00  0.00     0.014 A 
ENDROOT
BRANCH   2   7
ATOM      7  C   UNL d   1      -2.442   0.029  -0.664  0.00  0.00     0.035 C 
ATOM      8  C   UNL d   1      -1.623   0.047   0.407  0.00  0.00     0.115 C 
ATOM      9  C   UNL d   1      -1.388   1.240   1.230  0.00  0.00     0.302 C 
ATOM     10  C   UNL d   1      -0.871  -1.178   0.706  0.00  0.00     0.302 C 
ATOM     11  O   UNL d   1      -0.160   1.324   1.774  0.00  0.00    -0.280 OA
ATOM     12  O   UNL d   1      -2.235   2.094   1.456  0.00  0.00    -0.259 OA
ATOM     13  C   UNL d   1       0.821   0.348   1.432  0.00  0.00     0.175 C 
ATOM     14  O   UNL d   1       0.293  -0.983   1.362  0.00  0.00    -0.280 OA
ATOM     15  C   UNL d   1       1.523   0.725   0.124  0.00  0.00     0.080 C 
ATOM     16  C   UNL d   1       1.839   0.363   2.572  0.00  0.00     0.080 C 
ATOM     17  O   UNL d   1      -1.240  -2.295   0.367  0.00  0.00    -0.259 OA
ENDBRANCH   2   7
BRANCH   1  18
ATOM     18  O   UNL d   1      -2.293   3.935  -3.610  0.00  0.00    -0.344 OA
BRANCH  18  19
ATOM     19  C   UNL d   1      -1.415   3.286  -4.533  0.00  0.00     0.214 C 
BRANCH  19  20
ATOM     20  C   UNL d   1      -0.788   4.329  -5.428  0.00  0.00    -0.034 A 
ATOM     21  C   UNL d   1      -0.011   5.361  -4.877  0.00  0.00     0.009 A 
ATOM     22  C   UNL d   1       0.558   6.337  -5.697  0.00  0.00     0.001 A 
ATOM     23  C   UNL d   1       0.371   6.283  -7.077  0.00  0.00     0.000 A 
ATOM     24  C   UNL d   1      -0.373   5.247  -7.638  0.00  0.00     0.001 A 
ATOM     25  C   UNL d   1      -0.950   4.274  -6.819  0.00  0.00     0.009 A 
ENDBRANCH  19  20
ENDBRANCH  18  19
ENDBRANCH   1  18
BRANCH   4  26
ATOM     26  O   UNL d   1      -4.893   4.723  -2.581  0.00  0.00    -0.353 OA
ATOM     27  C   UNL d   1      -4.735   5.203  -3.909  0.00  0.00     0.210 C 
ENDBRANCH   4  26
TORSDOF 5
