REMARK  6 active torsions:
REMARK  status: ('A' for Active; 'I' for Inactive)
REMARK    1  A    between atoms: C_1  and  C_7 
REMARK    2  A    between atoms: C_3  and  O_10 
REMARK    3  A    between atoms: C_4  and  O_9 
REMARK    4  A    between atoms: C_5  and  O_11 
REMARK    5  A    between atoms: C_6  and  O_12 
REMARK    6  A    between atoms: O_13  and  C_7 
ROOT
ATOM      1  C   UNL d   1       0.840   1.158  -0.168  0.00  0.00     0.255 C 
ATOM      2  O   UNL d   1       1.387  -0.073   0.326  0.00  0.00    -0.341 OA
ATOM      3  C   UNL d   1      -0.609   1.275   0.317  0.00  0.00     0.188 C 
ATOM      4  C   UNL d   1      -0.745  -1.256   0.206  0.00  0.00     0.204 C 
ATOM      5  C   UNL d   1      -1.411   0.070  -0.212  0.00  0.00     0.183 C 
ATOM      6  C   UNL d   1       0.740  -1.217  -0.215  0.00  0.00     0.289 C 
ENDROOT
BRANCH   1   7
ATOM      7  C   UNL d   1       1.697   2.325   0.316  0.00  0.00     0.290 C 
ATOM      8  O   UNL d   1       2.673   2.216   1.054  0.00  0.00    -0.262 OA
BRANCH   7   9
ATOM      9  O   UNL d   1       1.273   3.502  -0.225  0.00  0.00    -0.324 OA
ATOM     10  C   UNL d   1       2.103   4.614   0.126  0.00  0.00     0.213 C 
ENDBRANCH   7   9
ENDBRANCH   1   7
BRANCH   3  11
ATOM     11  O   UNL d   1      -0.696   1.246   1.756  0.00  0.00    -0.390 OA
ATOM     12  H   UNL d   1       0.122   0.835   2.106  0.00  0.00     0.210 HD
ENDBRANCH   3  11
BRANCH   6  13
ATOM     13  O   UNL d   1       1.446  -2.366   0.226  0.00  0.00    -0.368 OA
ATOM     14  H   UNL d   1       1.060  -2.635   1.075  0.00  0.00     0.212 HD
ENDBRANCH   6  13
BRANCH   5  15
ATOM     15  O   UNL d   1      -2.756   0.125   0.274  0.00  0.00    -0.390 OA
ATOM     16  H   UNL d   1      -2.695   0.316   1.231  0.00  0.00     0.210 HD
ENDBRANCH   5  15
BRANCH   4  17
ATOM     17  O   UNL d   1      -1.406  -2.397  -0.352  0.00  0.00    -0.388 OA
ATOM     18  H   UNL d   1      -1.732  -2.171  -1.240  0.00  0.00     0.210 HD
ENDBRANCH   4  17
TORSDOF 6
