REMARK  6 active torsions:
REMARK  status: ('A' for Active; 'I' for Inactive)
REMARK    1  A    between atoms: C_12  and  N_3 
REMARK    2  A    between atoms: C_7  and  C_4 
REMARK    3  A    between atoms: C_11  and  C_5 
REMARK    4  A    between atoms: O_17  and  C_8 
REMARK    5  A    between atoms: O_21  and  C_15 
REMARK    6  A    between atoms: O_22  and  C_18 
ROOT
ATOM      1  N   UNL d   1       1.130  -0.236  -0.045  0.00  0.00    -0.301 N 
ATOM      2  HN  UNL d   1       2.133  -0.408   0.025  1.00  0.00     0.187 HD
ATOM      3  N   UNL d   1       0.150  -1.186  -0.087  0.00  0.00    -0.283 N 
ATOM      4  C   UNL d   1       0.558   0.921  -0.112  0.00  0.00     0.041 C 
ATOM      5  C   UNL d   1      -1.200  -0.626  -0.162  0.00  0.00     0.147 C 
ATOM      6  C   UNL d   1      -0.938   0.871  -0.319  0.00  0.00     0.091 C 
ENDROOT
BRANCH   4   7
ATOM      7  C   UNL d   1       1.288   2.214  -0.056  0.00  0.00     0.021 A 
ATOM      8  C   UNL d   1       2.469   2.439   0.674  0.00  0.00     0.083 A 
ATOM      9  C   UNL d   1       3.119   3.688   0.568  0.00  0.00     0.074 A 
ATOM     10  C   UNL d   1       2.622   4.703  -0.247  0.00  0.00     0.070 A 
ATOM     11  C   UNL d   1       1.459   4.472  -0.972  0.00  0.00     0.038 A 
ATOM     12  C   UNL d   1       0.794   3.247  -0.873  0.00  0.00     0.019 A 
BRANCH   8  13
ATOM     13  O   UNL d   1       3.185   1.548   1.428  0.00  0.00    -0.355 OA
ATOM     14  C   UNL d   1       2.488   0.787   2.405  0.00  0.00     0.210 C 
ENDBRANCH   8  13
BRANCH  10  15
ATOM     15  O   UNL d   1       3.178   5.938  -0.439  0.00  0.00    -0.356 OA
ATOM     16  C   UNL d   1       4.373   6.224   0.277  0.00  0.00     0.210 C 
ENDBRANCH  10  15
ENDBRANCH   4   7
BRANCH   3  17
ATOM     17  C   UNL d   1       0.468  -2.543  -0.043  0.00  0.00     0.051 A 
ATOM     18  C   UNL d   1       1.783  -2.967   0.221  0.00  0.00     0.031 A 
ATOM     19  C   UNL d   1       2.121  -4.322   0.298  0.00  0.00     0.002 A 
ATOM     20  C   UNL d   1       1.147  -5.294   0.101  0.00  0.00     0.000 A 
ATOM     21  C   UNL d   1      -0.161  -4.907  -0.170  0.00  0.00     0.002 A 
ATOM     22  C   UNL d   1      -0.492  -3.549  -0.240  0.00  0.00     0.031 A 
ENDBRANCH   3  17
BRANCH   5  23
ATOM     23  C   UNL d   1      -2.065  -0.925   1.055  0.00  0.00    -0.033 A 
ATOM     24  C   UNL d   1      -1.532  -1.025   2.350  0.00  0.00     0.012 A 
ATOM     25  C   UNL d   1      -2.353  -1.312   3.448  0.00  0.00     0.037 A 
ATOM     26  C   UNL d   1      -3.723  -1.491   3.271  0.00  0.00     0.068 A 
ATOM     27  C   UNL d   1      -4.266  -1.373   1.991  0.00  0.00     0.037 A 
ATOM     28  C   UNL d   1      -3.448  -1.099   0.892  0.00  0.00     0.012 A 
BRANCH  26  29
ATOM     29  O   UNL d   1      -4.630  -1.747   4.262  0.00  0.00    -0.356 OA
ATOM     30  C   UNL d   1      -4.116  -2.357   5.439  0.00  0.00     0.210 C 
ENDBRANCH  26  29
ENDBRANCH   5  23
TORSDOF 6
