REMARK  4 active torsions:
REMARK  status: ('A' for Active; 'I' for Inactive)
REMARK    1  A    between atoms: C_2  and  C_1 
REMARK    2  A    between atoms: C_4  and  C_1 
REMARK    3  A    between atoms: N_3  and  C_4 
REMARK    4  A    between atoms: C_9  and  N_3 
ROOT
ATOM      1  C   UNL d   1       0.289   1.087   0.685  0.00  0.00     0.203 C 
ENDROOT
BRANCH   1   2
ATOM      2  N   UNL d   1      -1.163   0.899   0.654  0.00  0.00    -0.383 N 
ATOM      3  H   UNL d   1      -1.467  -0.067   0.728  0.00  0.00     0.160 HD
BRANCH   2   4
ATOM      4  C   UNL d   1      -1.980   1.802   1.341  0.00  0.00     0.029 A 
ATOM      5  C   UNL d   1      -1.645   3.149   1.526  0.00  0.00     0.052 A 
ATOM      6  C   UNL d   1      -2.531   4.027   2.156  0.00  0.00     0.036 A 
ATOM      7 CL   UNL d   1      -2.090   5.679   2.365  0.00  0.00    -0.084 Cl
ATOM      8  C   UNL d   1      -3.771   3.585   2.606  0.00  0.00     0.024 A 
ATOM      9  C   UNL d   1      -4.132   2.256   2.408  0.00  0.00     0.004 A 
ATOM     10  C   UNL d   1      -3.248   1.380   1.767  0.00  0.00     0.029 A 
ENDBRANCH   2   4
ENDBRANCH   1   2
BRANCH   1  11
ATOM     11  C   UNL d   1       1.010  -0.031  -0.060  0.00  0.00     0.176 C 
ATOM     12  O   UNL d   1       1.202  -0.002  -1.275  0.00  0.00    -0.291 OA
BRANCH  11  13
ATOM     13  C   UNL d   1       1.532  -1.188   0.718  0.00  0.00     0.011 A 
ATOM     14  C   UNL d   1       0.893  -1.657   1.872  0.00  0.00     0.017 A 
ATOM     15  C   UNL d   1       1.419  -2.755   2.561  0.00  0.00     0.025 A 
ATOM     16  C   UNL d   1       2.583  -3.374   2.105  0.00  0.00     0.034 A 
ATOM     17  C   UNL d   1       3.222  -2.914   0.956  0.00  0.00     0.025 A 
ATOM     18 CL   UNL d   1       3.231  -4.715   2.965  0.00  0.00    -0.084 Cl
ATOM     19  C   UNL d   1       2.692  -1.827   0.257  0.00  0.00     0.017 A 
ENDBRANCH  11  13
ENDBRANCH   1  11
TORSDOF 4
