REMARK  7 active torsions:
REMARK  status: ('A' for Active; 'I' for Inactive)
REMARK    1  A    between atoms: C_8  and  C_1 
REMARK    2  A    between atoms: C_18  and  C_1 
REMARK    3  A    between atoms: C_11  and  N_2 
REMARK    4  A    between atoms: C_12  and  N_3 
REMARK    5  A    between atoms: C_16  and  N_6 
REMARK    6  A    between atoms: C_25  and  C_18 
REMARK    7  A    between atoms: C_26  and  C_25 
ROOT
ATOM      1  C   UNL d   1      -0.069  -1.100  -0.092  0.00  0.00     0.138 C 
ATOM      2  N   UNL d   1      -0.661   1.168   0.082  0.00  0.00    -0.213 N 
ATOM      3  N   UNL d   1       0.669   1.125  -0.370  0.00  0.00    -0.213 N 
ATOM      4  C   UNL d   1      -1.171  -0.114   0.273  0.00  0.00     0.262 C 
ATOM      5  C   UNL d   1       1.150  -0.191  -0.239  0.00  0.00     0.262 C 
ATOM      6  O   UNL d   1      -2.299  -0.424   0.623  0.00  0.00    -0.270 OA
ATOM      7  O   UNL d   1       2.305  -0.591  -0.265  0.00  0.00    -0.270 OA
ENDROOT
BRANCH   1   8
ATOM      8  C   UNL d   1       0.119  -2.216   0.974  0.00  0.00     0.114 C 
ATOM      9  C   UNL d   1      -1.169  -2.794   1.564  0.00  0.00     0.237 C 
ATOM     10  N   UNL d   1      -1.380  -2.281   2.829  0.00  0.00    -0.252 N 
ATOM     11  O   UNL d   1      -1.825  -3.626   0.955  0.00  0.00    -0.272 OA
ATOM     12  C   UNL d   1      -0.235  -1.684   3.294  0.00  0.00     0.232 C 
ATOM     13  C   UNL d   1       0.831  -1.770   2.247  0.00  0.00     0.119 C 
ATOM     14  O   UNL d   1       0.011  -1.195   4.391  0.00  0.00    -0.273 OA
BRANCH  10  15
ATOM     15  C   UNL d   1      -2.583  -2.445   3.601  0.00  0.00     0.045 A 
ATOM     16  C   UNL d   1      -3.646  -3.257   3.175  0.00  0.00     0.030 A 
ATOM     17  C   UNL d   1      -4.808  -3.414   3.941  0.00  0.00     0.002 A 
ATOM     18  C   UNL d   1      -4.953  -2.750   5.156  0.00  0.00     0.000 A 
ATOM     19  C   UNL d   1      -3.926  -1.926   5.593  0.00  0.00     0.002 A 
ATOM     20  C   UNL d   1      -2.767  -1.775   4.827  0.00  0.00     0.030 A 
ENDBRANCH  10  15
ENDBRANCH   1   8
BRANCH   1  21
ATOM     21  C   UNL d   1      -0.215  -1.631  -1.552  0.00  0.00     0.030 C 
BRANCH  21  22
ATOM     22  C   UNL d   1      -1.489  -2.384  -1.897  0.00  0.00     0.001 C 
BRANCH  22  23
ATOM     23  C   UNL d   1      -1.520  -2.796  -3.370  0.00  0.00    -0.005 C 
ATOM     24  C   UNL d   1      -2.840  -3.472  -3.698  0.00  0.00     0.005 C 
ENDBRANCH  22  23
ENDBRANCH  21  22
ENDBRANCH   1  21
BRANCH   2  25
ATOM     25  C   UNL d   1      -1.473   2.322   0.107  0.00  0.00     0.060 A 
ATOM     26  C   UNL d   1      -2.239   2.585   1.250  0.00  0.00     0.031 A 
ATOM     27  C   UNL d   1      -2.922   3.795   1.376  0.00  0.00     0.002 A 
ATOM     28  C   UNL d   1      -2.894   4.721   0.336  0.00  0.00     0.000 A 
ATOM     29  C   UNL d   1      -2.181   4.442  -0.829  0.00  0.00     0.002 A 
ATOM     30  C   UNL d   1      -1.455   3.253  -0.938  0.00  0.00     0.031 A 
ENDBRANCH   2  25
BRANCH   3  31
ATOM     31  C   UNL d   1       1.578   2.212  -0.295  0.00  0.00     0.060 A 
ATOM     32  C   UNL d   1       2.600   2.303  -1.250  0.00  0.00     0.031 A 
ATOM     33  C   UNL d   1       3.479   3.387  -1.248  0.00  0.00     0.002 A 
ATOM     34  C   UNL d   1       3.361   4.378  -0.275  0.00  0.00     0.000 A 
ATOM     35  C   UNL d   1       2.364   4.286   0.693  0.00  0.00     0.002 A 
ATOM     36  C   UNL d   1       1.473   3.212   0.680  0.00  0.00     0.031 A 
ENDBRANCH   3  31
TORSDOF 7
