REMARK  4 active torsions:
REMARK  status: ('A' for Active; 'I' for Inactive)
REMARK    1  A    between atoms: O_3  and  S_1 
REMARK    2  A    between atoms: C_5  and  S_1 
REMARK    3  A    between atoms: C_2  and  C_4 
REMARK    4  A    between atoms: N_6  and  O_3 
ROOT
ATOM      1  C   UNL d   1       0.486   2.051  -3.168  0.00  0.00     0.149 C 
ATOM      2  N   UNL d   1       1.133   1.564  -2.150  0.00  0.00    -0.238 N 
ATOM      3  HN  UNL d   1       1.143   0.569  -1.923  1.00  0.00     0.196 HD
ATOM      4  N   UNL d   1       0.698   4.617  -3.608  0.00  0.00    -0.190 NA
ATOM      5  C   UNL d   1       0.593   3.476  -3.416  0.00  0.00     0.120 C 
ENDROOT
BRANCH   1   6
ATOM      6  C   UNL d   1      -0.372   1.211  -4.039  0.00  0.00     0.047 A 
ATOM      7  C   UNL d   1      -1.214   0.236  -3.465  0.00  0.00     0.049 A 
ATOM      8 CL   UNL d   1      -1.382  -0.004  -1.758  0.00  0.00    -0.083 Cl
ATOM      9  C   UNL d   1      -2.023  -0.580  -4.270  0.00  0.00     0.025 A 
ATOM     10  C   UNL d   1      -2.027  -0.426  -5.651  0.00  0.00     0.003 A 
ATOM     11  C   UNL d   1      -1.207   0.535  -6.234  0.00  0.00     0.025 A 
ATOM     12  C   UNL d   1      -0.372   1.338  -5.441  0.00  0.00     0.049 A 
ATOM     13 CL   UNL d   1       0.680   2.402  -6.308  0.00  0.00    -0.083 Cl
ENDBRANCH   1   6
BRANCH   2  14
ATOM     14  O   UNL d   1       1.824   2.539  -1.381  0.00  0.00    -0.146 OA
BRANCH  14  15
ATOM     15  S   UNL d   1       2.372   1.969   0.071  0.00  0.00     0.318 S 
ATOM     16  O   UNL d   1       3.391   0.961  -0.173  0.00  0.00    -0.191 OA
ATOM     17  O   UNL d   1       1.239   1.699   0.933  0.00  0.00    -0.191 OA
BRANCH  15  18
ATOM     18  C   UNL d   1       3.219   3.379   0.770  0.00  0.00     0.090 A 
ATOM     19  C   UNL d   1       2.529   4.245   1.627  0.00  0.00     0.051 A 
ATOM     20  C   UNL d   1       3.214   5.297   2.242  0.00  0.00     0.057 A 
ATOM     21 CL   UNL d   1       2.317   6.331   3.296  0.00  0.00    -0.083 Cl
ATOM     22  C   UNL d   1       4.584   5.477   2.007  0.00  0.00     0.055 A 
ATOM     23  C   UNL d   1       5.266   4.601   1.154  0.00  0.00     0.027 A 
ATOM     24 CL   UNL d   1       5.494   6.747   2.746  0.00  0.00    -0.083 Cl
ATOM     25  C   UNL d   1       4.587   3.548   0.537  0.00  0.00     0.027 A 
ENDBRANCH  15  18
ENDBRANCH  14  15
ENDBRANCH   2  14
TORSDOF 4
