REMARK  4 active torsions:
REMARK  status: ('A' for Active; 'I' for Inactive)
REMARK    1  A    between atoms: C_8  and  C_2 
REMARK    2  A    between atoms: S_13  and  C_5 
REMARK    3  A    between atoms: C_11  and  C_12 
REMARK    4  A    between atoms: C_19  and  S_13 
ROOT
ATOM      1  C   UNL d   1      -1.175  -4.974  -1.308  0.00  0.00    -0.107 C 
ATOM      2  C   UNL d   1      -1.098  -6.139  -1.615  0.00  0.00     0.013 C 
ATOM      3  C   UNL d   1      -1.296  -3.554  -0.928  0.00  0.00     0.175 C 
ENDROOT
BRANCH   3   4
ATOM      4  S   UNL d   1       0.335  -2.758  -0.811  0.00  0.00    -0.080 SA
BRANCH   4   5
ATOM      5  C   UNL d   1      -0.114  -1.162  -0.311  0.00  0.00     0.163 A 
ATOM      6  N   UNL d   1       0.660  -0.050  -0.527  0.00  0.00    -0.315 N 
ATOM      7  C   UNL d   1      -0.079   1.025  -0.066  0.00  0.00     0.134 A 
ATOM      8  C   UNL d   1       1.990  -0.047  -1.082  0.00  0.00     0.160 C 
ATOM      9  N   UNL d   1      -1.177   0.540   0.498  0.00  0.00    -0.283 N 
ATOM     10  N   UNL d   1      -1.208  -0.823   0.323  0.00  0.00    -0.278 N 
ATOM     11  HN  UNL d   1      -1.885   1.091   0.983  1.00  0.00     0.188 HD
ATOM     12  HN  UNL d   1      -1.947  -1.454   0.631  1.00  0.00     0.189 HD
BRANCH   7  13
ATOM     13  C   UNL d   1       0.269   2.450  -0.134  0.00  0.00     0.009 A 
ATOM     14  C   UNL d   1       0.944   3.014  -1.221  0.00  0.00     0.016 A 
ATOM     15  C   UNL d   1       1.308   4.367  -1.228  0.00  0.00     0.009 A 
ATOM     16  C   UNL d   1       0.968   5.226  -0.169  0.00  0.00    -0.051 A 
ATOM     17  C   UNL d   1       0.227   4.668   0.885  0.00  0.00     0.009 A 
ATOM     18  C   UNL d   1      -0.112   3.307   0.905  0.00  0.00     0.016 A 
BRANCH  16  19
ATOM     19  C   UNL d   1       1.412   6.700  -0.192  0.00  0.00    -0.024 C 
ATOM     20  C   UNL d   1       0.917   7.503   1.031  0.00  0.00     0.019 C 
ATOM     21  C   UNL d   1       2.955   6.774  -0.203  0.00  0.00     0.019 C 
ATOM     22  C   UNL d   1       0.876   7.411  -1.454  0.00  0.00     0.019 C 
ENDBRANCH  16  19
ENDBRANCH   7  13
ENDBRANCH   4   5
ENDBRANCH   3   4
TORSDOF 4
