REMARK  5 active torsions:
REMARK  status: ('A' for Active; 'I' for Inactive)
REMARK       I    between atoms: N_3  and  C_1 
REMARK    1  A    between atoms: C_9  and  C_1 
REMARK    2  A    between atoms: O_5  and  C_2 
REMARK    3  A    between atoms: C_6  and  N_3 
REMARK    4  A    between atoms: C_12  and  O_5 
REMARK    5  A    between atoms: O_13  and  C_7 
ROOT
ATOM      1  C   UNL d   1       2.610  -3.865  -0.414  0.00  0.00     0.104 A 
ATOM      2  C   UNL d   1       1.811  -2.791   0.008  0.00  0.00     0.069 A 
ATOM      3  C   UNL d   1       0.767  -2.296  -0.777  0.00  0.00     0.037 A 
ATOM      4  C   UNL d   1       2.286  -4.525  -1.608  0.00  0.00     0.101 A 
ATOM      5  C   UNL d   1       1.227  -4.038  -2.387  0.00  0.00     0.042 A 
ATOM      6  C   UNL d   1       0.483  -2.923  -1.987  0.00  0.00     0.032 A 
ENDROOT
BRANCH   3   7
ATOM      7  N   UNL d   1       0.041  -1.132  -0.441  0.00  0.00    -0.327 N 
ATOM      8  C   UNL d   1       0.091  -0.460   0.769  0.00  0.00     0.226 C 
ATOM      9  O   UNL d   1       0.532  -0.927   1.814  0.00  0.00    -0.273 OA
ATOM     10  H   UNL d   1      -0.583  -0.768  -1.149  0.00  0.00     0.169 HD
BRANCH   8  11
ATOM     11  C   UNL d   1      -0.488   0.962   0.702  0.00  0.00     0.078 C 
ATOM     12  C   UNL d   1       0.273   1.845  -0.300  0.00  0.00     0.014 C 
ATOM     13  C   UNL d   1       1.663   2.238   0.200  0.00  0.00     0.001 C 
ATOM     14  C   UNL d   1       1.605   2.907   1.569  0.00  0.00     0.000 C 
ATOM     15  C   UNL d   1       0.866   2.049   2.588  0.00  0.00     0.001 C 
ATOM     16  C   UNL d   1      -0.519   1.629   2.088  0.00  0.00     0.014 C 
ENDBRANCH   8  11
ENDBRANCH   3   7
BRANCH   1  17
ATOM     17  O   UNL d   1       3.712  -4.268   0.298  0.00  0.00    -0.343 OA
BRANCH  17  18
ATOM     18  C   UNL d   1       4.419  -3.267   1.032  0.00  0.00     0.129 C 
ATOM     19  C   UNL d   1       4.989  -2.142   0.156  0.00  0.00     0.032 C 
ATOM     20  C   UNL d   1       6.335  -1.758   0.768  0.00  0.00     0.002 C 
ATOM     21  C   UNL d   1       6.524  -2.671   1.972  0.00  0.00     0.002 C 
ATOM     22  C   UNL d   1       5.670  -3.885   1.653  0.00  0.00     0.032 C 
ENDBRANCH  17  18
ENDBRANCH   1  17
BRANCH   4  23
ATOM     23  O   UNL d   1       2.919  -5.595  -2.183  0.00  0.00    -0.353 OA
ATOM     24  C   UNL d   1       3.741  -6.404  -1.353  0.00  0.00     0.210 C 
ENDBRANCH   4  23
TORSDOF 5
