REMARK  11 active torsions:
REMARK  status: ('A' for Active; 'I' for Inactive)
REMARK    1  A    between atoms: C_1  and  O_6 
REMARK    2  A    between atoms: C_1  and  C_3 
REMARK    3  A    between atoms: C_1  and  C_2 
REMARK    4  A    between atoms: C_2  and  O_7 
REMARK    5  A    between atoms: C_3  and  C_13 
REMARK    6  A    between atoms: C_3  and  O_8 
REMARK    7  A    between atoms: C_9  and  O_6 
REMARK    8  A    between atoms: C_10  and  O_7 
REMARK    9  A    between atoms: C_11  and  O_8 
REMARK   10  A    between atoms: C_12  and  O_14 
REMARK   11  A    between atoms: O_14  and  C_13 
ROOT
ATOM      1  C   UNL d   1       0.490   0.635   1.472  0.00  0.00     0.270 C 
ATOM      2  N   UNL d   1       1.875  -0.781   3.208  0.00  0.00    -0.194 NA
ATOM      3  C   UNL d   1       1.240  -0.183   2.442  0.00  0.00     0.094 C 
ENDROOT
BRANCH   1   4
ATOM      4  C   UNL d   1       0.708   0.184   0.009  0.00  0.00     0.207 C 
BRANCH   4   5
ATOM      5  O   UNL d   1       2.149   0.174  -0.250  0.00  0.00    -0.310 OA
BRANCH   5   6
ATOM      6  C   UNL d   1       2.683   1.117  -1.062  0.00  0.00     0.255 C 
ATOM      7  O   UNL d   1       2.047   1.978  -1.650  0.00  0.00    -0.266 OA
ATOM      8  C   UNL d   1       4.165   0.926  -1.167  0.00  0.00     0.126 C 
ENDBRANCH   5   6
ENDBRANCH   4   5
BRANCH   4   9
ATOM      9  C   UNL d   1       0.161  -1.189  -0.474  0.00  0.00     0.189 C 
BRANCH   9  10
ATOM     10  C   UNL d   1      -1.281  -1.570  -0.090  0.00  0.00     0.213 C 
BRANCH  10  11
ATOM     11  O   UNL d   1      -2.200  -1.391  -1.186  0.00  0.00    -0.319 OA
BRANCH  11  12
ATOM     12  C   UNL d   1      -3.015  -0.310  -1.112  0.00  0.00     0.254 C 
ATOM     13  O   UNL d   1      -2.819   0.655  -0.389  0.00  0.00    -0.266 OA
ATOM     14  C   UNL d   1      -4.189  -0.476  -2.035  0.00  0.00     0.126 C 
ENDBRANCH  11  12
ENDBRANCH  10  11
ENDBRANCH   9  10
BRANCH   9  15
ATOM     15  O   UNL d   1       1.143  -2.246  -0.243  0.00  0.00    -0.311 OA
BRANCH  15  16
ATOM     16  C   UNL d   1       1.123  -3.008   0.876  0.00  0.00     0.255 C 
ATOM     17  O   UNL d   1       0.257  -2.961   1.736  0.00  0.00    -0.266 OA
ATOM     18  C   UNL d   1       2.321  -3.906   0.920  0.00  0.00     0.126 C 
ENDBRANCH  15  16
ENDBRANCH   9  15
ENDBRANCH   4   9
ENDBRANCH   1   4
BRANCH   1  19
ATOM     19  O   UNL d   1       1.013   1.991   1.572  0.00  0.00    -0.299 OA
BRANCH  19  20
ATOM     20  C   UNL d   1       0.192   2.934   2.091  0.00  0.00     0.256 C 
ATOM     21  O   UNL d   1      -0.974   2.759   2.409  0.00  0.00    -0.266 OA
ATOM     22  C   UNL d   1       0.940   4.218   2.300  0.00  0.00     0.126 C 
ENDBRANCH  19  20
ENDBRANCH   1  19
TORSDOF 11
