REMARK  4 active torsions:
REMARK  status: ('A' for Active; 'I' for Inactive)
REMARK    1  A    between atoms: C_4  and  N_1 
REMARK    2  A    between atoms: C_2  and  C_3 
REMARK    3  A    between atoms: C_3  and  O_9 
REMARK    4  A    between atoms: O_9  and  C_12 
ROOT
ATOM      1  O   UNL d   1      -1.872   3.885  -2.984  0.00  0.00    -0.347 OA
ENDROOT
BRANCH   1   2
ATOM      2  C   UNL d   1      -1.581   4.174  -4.353  0.00  0.00     0.219 C 
BRANCH   2   3
ATOM      3  C   UNL d   1      -2.479   5.284  -4.824  0.00  0.00     0.026 A 
ATOM      4  C   UNL d   1      -2.214   6.636  -4.565  0.00  0.00     0.045 A 
ATOM      5 CL   UNL d   1      -0.826   7.138  -3.663  0.00  0.00    -0.084 Cl
ATOM      6  C   UNL d   1      -3.066   7.636  -5.046  0.00  0.00     0.024 A 
ATOM      7  C   UNL d   1      -4.203   7.299  -5.780  0.00  0.00     0.005 A 
ATOM      8  C   UNL d   1      -4.490   5.960  -6.028  0.00  0.00     0.043 A 
ATOM      9  C   UNL d   1      -3.632   4.971  -5.548  0.00  0.00     0.126 A 
ATOM     10  F   UNL d   1      -3.927   3.691  -5.815  0.00  0.00    -0.205 F 
ENDBRANCH   2   3
ENDBRANCH   1   2
BRANCH   1  11
ATOM     11  C   UNL d   1      -0.892   3.222  -2.297  0.00  0.00     0.069 A 
ATOM     12  C   UNL d   1       0.144   2.487  -2.879  0.00  0.00     0.039 A 
ATOM     13  C   UNL d   1       1.131   1.905  -2.080  0.00  0.00     0.039 A 
ATOM     14  C   UNL d   1       1.065   2.041  -0.688  0.00  0.00     0.103 A 
ATOM     15  C   UNL d   1       0.004   2.733  -0.092  0.00  0.00     0.039 A 
ATOM     16  C   UNL d   1      -0.975   3.316  -0.904  0.00  0.00     0.039 A 
BRANCH  14  17
ATOM     17  N   UNL d   1       2.123   1.462   0.148  0.00  0.00    -0.116 N 
ATOM     18  O   UNL d   1       2.015   1.577   1.377  0.00  0.00    -0.532 OA
ATOM     19  O   UNL d   1       3.068   0.901  -0.425  0.00  0.00    -0.532 OA
ENDBRANCH  14  17
ENDBRANCH   1  11
TORSDOF 4
