REMARK  1 active torsions:
REMARK  status: ('A' for Active; 'I' for Inactive)
REMARK    1  A    between atoms: N_8  and  C_2 
ROOT
ATOM      1  C   UNL d   1       1.312  -0.651   0.057  0.00  0.00     0.111 A 
ATOM      2  C   UNL d   1       0.129  -1.433   0.075  0.00  0.00     0.053 A 
ATOM      3  C   UNL d   1       1.245   0.750   0.038  0.00  0.00     0.156 A 
ATOM      4  C   UNL d   1       2.623  -1.231  -0.014  0.00  0.00     0.105 C 
ATOM      5  N   UNL d   1       3.687  -1.695  -0.036  0.00  0.00    -0.191 NA
ATOM      6  C   UNL d   1      -1.094  -0.725   0.079  0.00  0.00     0.032 A 
ATOM      7  C   UNL d   1       0.022   1.410   0.019  0.00  0.00     0.051 A 
ATOM      8  C   UNL d   1      -1.153   0.674   0.044  0.00  0.00     0.024 A 
ATOM      9  F   UNL d   1       2.382   1.467   0.012  0.00  0.00    -0.203 F 
ATOM     10 BR   UNL d   1      -0.060   3.297  -0.067  0.00  0.00    -0.048 Br
ENDROOT
BRANCH   2  11
ATOM     11  N   UNL d   1       0.139  -2.829   0.015  0.00  0.00    -0.388 N 
ATOM     12  C   UNL d   1      -1.020  -3.551  -0.513  0.00  0.00     0.149 C 
ATOM     13  C   UNL d   1       0.921  -3.596   0.991  0.00  0.00     0.149 C 
ENDBRANCH   2  11
TORSDOF 1
