REMARK  3 active torsions:
REMARK  status: ('A' for Active; 'I' for Inactive)
REMARK    1  A    between atoms: N_2  and  C_1 
REMARK    2  A    between atoms: N_3  and  C_1 
REMARK    3  A    between atoms: C_4  and  C_1 
ROOT
ATOM      1  C   UNL d   1       1.145  -0.382  -0.308  0.00  0.00     0.354 C 
ENDROOT
BRANCH   1   2
ATOM      2  N   UNL d   1       0.808   0.541  -1.402  0.00  0.00    -0.377 N 
ATOM      3  C   UNL d   1      -0.600   0.947  -1.493  0.00  0.00     0.145 C 
ATOM      4  C   UNL d   1      -1.392   0.230  -2.595  0.00  0.00     0.187 C 
ATOM      5  O   UNL d   1      -0.753   0.396  -3.865  0.00  0.00    -0.388 OA
ATOM      6  C   UNL d   1       0.541  -0.209  -3.834  0.00  0.00     0.187 C 
ATOM      7  C   UNL d   1       1.431   0.367  -2.718  0.00  0.00     0.145 C 
ENDBRANCH   1   2
BRANCH   1   8
ATOM      8  N   UNL d   1       0.385  -1.621  -0.464  0.00  0.00     0.119 N 
ATOM      9  C   UNL d   1       0.950  -2.713  -1.260  0.00  0.00     0.301 C 
ATOM     10  C   UNL d   1      -0.143  -3.754  -1.548  0.00  0.00     0.198 C 
ATOM     11  O   UNL d   1      -0.660  -4.296  -0.324  0.00  0.00    -0.388 OA
ATOM     12  C   UNL d   1      -1.225  -3.252   0.481  0.00  0.00     0.198 C 
ATOM     13  C   UNL d   1      -0.201  -2.143   0.781  0.00  0.00     0.301 C 
ENDBRANCH   1   8
BRANCH   1  14
ATOM     14  C   UNL d   1       2.653  -0.431   0.018  0.00  0.00    -0.006 A 
ATOM     15  C   UNL d   1       3.451   0.714  -0.214  0.00  0.00     0.013 A 
ATOM     16  C   UNL d   1       4.823   0.728   0.055  0.00  0.00     0.024 A 
ATOM     17  C   UNL d   1       5.426  -0.396   0.599  0.00  0.00     0.034 A 
ATOM     18  C   UNL d   1       4.659  -1.513   0.911  0.00  0.00     0.024 A 
ATOM     19 CL   UNL d   1       7.118  -0.401   0.903  0.00  0.00    -0.084 Cl
ATOM     20  C   UNL d   1       3.284  -1.518   0.645  0.00  0.00     0.013 A 
ENDBRANCH   1  14
TORSDOF 3
