REMARK  3 active torsions:
REMARK  status: ('A' for Active; 'I' for Inactive)
REMARK    1  A    between atoms: C_4  and  C_1 
REMARK    2  A    between atoms: C_6  and  C_4 
REMARK    3  A    between atoms: O_20  and  C_16 
ROOT
ATOM      1  C   UNL d   1      -2.317  -0.208  -0.069  0.00  0.00     0.127 A 
ATOM      2  O   UNL d   1      -1.518   0.903  -0.071  0.00  0.00    -0.306 OA
ATOM      3  C   UNL d   1      -1.532  -1.341   0.029  0.00  0.00     0.055 A 
ATOM      4  C   UNL d   1      -0.229   0.478  -0.023  0.00  0.00     0.089 A 
ATOM      5  C   UNL d   1      -0.180  -0.907   0.025  0.00  0.00     0.001 A 
ATOM      6  C   UNL d   1       0.892   1.303  -0.033  0.00  0.00     0.074 A 
ATOM      7  C   UNL d   1       1.080  -1.528   0.051  0.00  0.00     0.017 A 
ATOM      8  C   UNL d   1       2.142   0.674  -0.010  0.00  0.00     0.070 A 
ATOM      9  C   UNL d   1       2.232  -0.722   0.029  0.00  0.00     0.038 A 
ENDROOT
BRANCH   1  10
ATOM     10  C   UNL d   1      -3.754  -0.051  -0.146  0.00  0.00     0.215 C 
ATOM     11  O   UNL d   1      -4.550  -0.906   0.236  0.00  0.00    -0.284 OA
BRANCH  10  12
ATOM     12  C   UNL d   1      -4.308   1.202  -0.739  0.00  0.00     0.019 A 
ATOM     13  C   UNL d   1      -3.675   1.837  -1.817  0.00  0.00     0.041 A 
ATOM     14  C   UNL d   1      -4.209   3.012  -2.353  0.00  0.00     0.056 A 
ATOM     15 CL   UNL d   1      -3.360   3.747  -3.667  0.00  0.00    -0.083 Cl
ATOM     16  C   UNL d   1      -5.388   3.550  -1.825  0.00  0.00     0.055 A 
ATOM     17  C   UNL d   1      -6.037   2.900  -0.770  0.00  0.00     0.026 A 
ATOM     18 CL   UNL d   1      -6.092   5.005  -2.430  0.00  0.00    -0.083 Cl
ATOM     19  C   UNL d   1      -5.503   1.724  -0.232  0.00  0.00     0.017 A 
ENDBRANCH  10  12
ENDBRANCH   1  10
BRANCH   8  20
ATOM     20  O   UNL d   1       3.201   1.543  -0.034  0.00  0.00    -0.356 OA
ATOM     21  C   UNL d   1       4.504   0.974  -0.043  0.00  0.00     0.210 C 
ENDBRANCH   8  20
TORSDOF 3
