REMARK  3 active torsions:
REMARK  status: ('A' for Active; 'I' for Inactive)
REMARK    1  A    between atoms: C_9  and  N_2 
REMARK    2  A    between atoms: C_8  and  N_3 
REMARK    3  A    between atoms: C_10  and  C_5 
ROOT
ATOM      1  C   UNL d   1       0.881  -1.001   0.015  0.00  0.00     0.157 A 
ATOM      2  N   UNL d   1      -0.507  -1.270  -0.058  0.00  0.00    -0.294 N 
ATOM      3  N   UNL d   1       2.013  -1.616   0.099  0.00  0.00    -0.322 N 
ATOM      4  HN  UNL d   1       2.854  -1.043   0.168  1.00  0.00     0.169 HD
ATOM      5  C   UNL d   1      -1.330  -0.089  -0.059  0.00  0.00     0.033 A 
ATOM      6  S   UNL d   1       1.107   0.784   0.017  0.00  0.00    -0.063 SA
ATOM      7  C   UNL d   1      -0.597   1.044  -0.021  0.00  0.00     0.079 A 
ENDROOT
BRANCH   2   8
ATOM      8  C   UNL d   1      -1.004  -2.599  -0.080  0.00  0.00     0.041 A 
ATOM      9  C   UNL d   1      -1.799  -3.099   0.973  0.00  0.00     0.032 A 
ATOM     10  C   UNL d   1      -2.308  -4.399   0.938  0.00  0.00     0.026 A 
ATOM     11  C   UNL d   1      -1.967  -5.247  -0.111  0.00  0.00     0.034 A 
ATOM     12  C   UNL d   1      -1.139  -4.797  -1.134  0.00  0.00     0.026 A 
ATOM     13 CL   UNL d   1      -2.561  -6.861  -0.128  0.00  0.00    -0.084 Cl
ATOM     14  C   UNL d   1      -0.683  -3.472  -1.129  0.00  0.00     0.032 A 
ENDBRANCH   2   8
BRANCH   3  15
ATOM     15  C   UNL d   1       2.175  -2.988   0.102  0.00  0.00     0.106 A 
ATOM     16  N   UNL d   1       2.964  -3.441  -0.895  0.00  0.00    -0.352 N 
ATOM     17  C   UNL d   1       3.216  -4.765  -0.935  0.00  0.00     0.089 A 
ATOM     18  HN  UNL d   1       3.356  -2.806  -1.590  1.00  0.00     0.166 HD
ATOM     19  C   UNL d   1       2.674  -5.676  -0.046  0.00  0.00     0.017 A 
ATOM     20  C   UNL d   1       1.879  -5.189   0.984  0.00  0.00     0.005 A 
ATOM     21  C   UNL d   1       1.664  -3.818   1.089  0.00  0.00     0.048 A 
ENDBRANCH   3  15
BRANCH   5  22
ATOM     22  C   UNL d   1      -2.882  -0.014  -0.095  0.00  0.00    -0.008 C 
ATOM     23  C   UNL d   1      -3.407   0.085   1.356  0.00  0.00     0.021 C 
ATOM     24  C   UNL d   1      -3.374   1.273  -0.828  0.00  0.00     0.021 C 
ATOM     25  C   UNL d   1      -3.602  -1.155  -0.848  0.00  0.00     0.021 C 
ENDBRANCH   5  22
TORSDOF 3
