REMARK  4 active torsions:
REMARK  status: ('A' for Active; 'I' for Inactive)
REMARK    1  A    between atoms: N_7  and  S_1 
REMARK    2  A    between atoms: C_15  and  S_1 
REMARK    3  A    between atoms: N_10  and  N_7 
REMARK    4  A    between atoms: C_9  and  N_10 
ROOT
ATOM      1  N   UNL d   1       0.837  -0.261  -2.546  0.00  0.00    -0.275 N 
ATOM      2  H   UNL d   1       1.763   0.164  -2.565  0.00  0.00     0.189 HD
ENDROOT
BRANCH   1   3
ATOM      3  C   UNL d   1       0.365  -0.829  -3.729  0.00  0.00     0.137 A 
ATOM      4  C   UNL d   1       0.935  -0.539  -4.976  0.00  0.00     0.072 A 
ATOM      5  C   UNL d   1       0.404  -1.171  -6.085  0.00  0.00     0.138 A 
ATOM      6  C   UNL d   1       1.963   0.276  -5.495  0.00  0.00     0.126 A 
ATOM      7  N   UNL d   1       1.110  -0.699  -7.162  0.00  0.00    -0.281 N 
ATOM      8  N   UNL d   1      -0.598  -2.067  -6.092  0.00  0.00    -0.337 N 
ATOM      9  C   UNL d   1       0.903  -1.025  -8.550  0.00  0.00     0.179 C 
ATOM     10  N   UNL d   1       2.079   0.184  -6.825  0.00  0.00    -0.307 N 
ATOM     11  HN  UNL d   1       2.739   0.663  -7.438  1.00  0.00     0.186 HD
ATOM     12  C   UNL d   1      -1.069  -2.281  -4.850  0.00  0.00     0.183 A 
ATOM     13  HN  UNL d   1      -0.956  -2.524  -6.930  1.00  0.00     0.168 HD
ATOM     14  N   UNL d   1      -0.667  -1.714  -3.693  0.00  0.00    -0.337 N 
ATOM     15  HN  UNL d   1      -1.127  -1.943  -2.812  1.00  0.00     0.168 HD
ENDBRANCH   1   3
BRANCH   1  16
ATOM     16  N   UNL d   1       0.272  -0.525  -1.217  0.00  0.00    -0.221 N 
ATOM     17  H   UNL d   1      -0.587  -1.077  -1.144  0.00  0.00     0.200 HD
BRANCH  16  18
ATOM     18  S   UNL d   1       1.282  -0.331   0.122  0.00  0.00     0.276 S 
ATOM     19  O   UNL d   1       1.612   1.075   0.222  0.00  0.00    -0.199 OA
ATOM     20  O   UNL d   1       2.334  -1.324   0.017  0.00  0.00    -0.199 OA
BRANCH  18  21
ATOM     21  C   UNL d   1       0.264  -0.766   1.510  0.00  0.00     0.081 A 
ATOM     22  C   UNL d   1       0.237  -2.091   1.958  0.00  0.00     0.027 A 
ATOM     23  C   UNL d   1      -0.426  -2.404   3.148  0.00  0.00     0.025 A 
ATOM     24  C   UNL d   1      -1.046  -1.395   3.886  0.00  0.00     0.034 A 
ATOM     25  C   UNL d   1      -1.023  -0.074   3.437  0.00  0.00     0.025 A 
ATOM     26 CL   UNL d   1      -1.819  -1.776   5.375  0.00  0.00    -0.084 Cl
ATOM     27  C   UNL d   1      -0.364   0.245   2.247  0.00  0.00     0.027 A 
ENDBRANCH  18  21
ENDBRANCH  16  18
ENDBRANCH   1  16
TORSDOF 4
