REMARK  5 active torsions:
REMARK  status: ('A' for Active; 'I' for Inactive)
REMARK    1  A    between atoms: N_3  and  C_1 
REMARK    2  A    between atoms: N_4  and  C_1 
REMARK    3  A    between atoms: N_2  and  C_5 
REMARK    4  A    between atoms: C_7  and  N_3 
REMARK    5  A    between atoms: C_8  and  N_6 
ROOT
ATOM      1  N   UNL d   1       0.207   1.112   0.917  0.00  0.00    -0.355 N 
ATOM      2  N   UNL d   1      -0.016   1.448   3.781  0.00  0.00    -0.364 N 
ATOM      3  C   UNL d   1       0.587   2.389   1.552  0.00  0.00     0.145 C 
ATOM      4  C   UNL d   1      -0.847   0.399   1.658  0.00  0.00     0.145 C 
ATOM      5  C   UNL d   1       0.998   2.206   3.021  0.00  0.00     0.144 C 
ATOM      6  C   UNL d   1      -0.465   0.195   3.146  0.00  0.00     0.144 C 
ENDROOT
BRANCH   1   7
ATOM      7  C   UNL d   1       1.012   0.420  -0.004  0.00  0.00     0.174 C 
ATOM      8  S   UNL d   1       2.677   0.594  -0.117  0.00  0.00    -0.041 SA
BRANCH   7   9
ATOM      9  N   UNL d   1       0.219  -0.333  -0.871  0.00  0.00    -0.331 N 
ATOM     10  H   UNL d   1      -0.517   0.265  -1.237  0.00  0.00     0.168 HD
BRANCH   9  11
ATOM     11  C   UNL d   1       0.672  -1.294  -1.817  0.00  0.00     0.062 A 
ATOM     12  C   UNL d   1       0.349  -1.109  -3.177  0.00  0.00     0.061 A 
ATOM     13 CL   UNL d   1      -0.505   0.300  -3.708  0.00  0.00    -0.082 Cl
ATOM     14  C   UNL d   1       0.726  -2.047  -4.141  0.00  0.00     0.026 A 
ATOM     15  C   UNL d   1       1.409  -3.195  -3.756  0.00  0.00     0.002 A 
ATOM     16  C   UNL d   1       1.700  -3.409  -2.408  0.00  0.00     0.009 A 
ATOM     17  C   UNL d   1       1.319  -2.480  -1.421  0.00  0.00    -0.034 A 
ATOM     18  C   UNL d   1       1.587  -2.848   0.013  0.00  0.00     0.050 C 
ENDBRANCH   9  11
ENDBRANCH   7   9
ENDBRANCH   1   7
BRANCH   2  19
ATOM     19  C   UNL d   1      -0.850   2.139   4.643  0.00  0.00     0.103 A 
ATOM     20  N   UNL d   1      -0.949   3.484   4.535  0.00  0.00    -0.350 N 
ATOM     21  C   UNL d   1      -1.685   4.168   5.457  0.00  0.00     0.125 A 
ATOM     22  HN  UNL d   1      -0.480   3.978   3.776  1.00  0.00     0.166 HD
ATOM     23  C   UNL d   1      -2.339   3.555   6.511  0.00  0.00     0.118 A 
ATOM     24  C   UNL d   1      -2.254   2.173   6.628  0.00  0.00     0.041 A 
ATOM     25  C   UNL d   1      -1.507   1.468   5.682  0.00  0.00     0.051 A 
BRANCH  23  26
ATOM     26  N   UNL d   1      -3.075   4.350   7.481  0.00  0.00    -0.114 N 
ATOM     27  O   UNL d   1      -3.126   5.575   7.306  0.00  0.00    -0.532 OA
ATOM     28  O   UNL d   1      -3.606   3.753   8.429  0.00  0.00    -0.532 OA
ENDBRANCH  23  26
ENDBRANCH   2  19
TORSDOF 5
