REMARK  5 active torsions:
REMARK  status: ('A' for Active; 'I' for Inactive)
REMARK    1  A    between atoms: C_5  and  C_1 
REMARK    2  A    between atoms: C_2  and  C_4 
REMARK    3  A    between atoms: C_8  and  N_3 
REMARK    4  A    between atoms: O_15  and  C_5 
REMARK    5  A    between atoms: C_20  and  O_15 
ROOT
ATOM      1  C   UNL d   1       0.943   0.464   0.488  0.00  0.00     0.121 C 
ATOM      2  C   UNL d   1       0.413   0.946  -0.655  0.00  0.00     0.059 C 
ATOM      3  C   UNL d   1       2.206   0.872   1.004  0.00  0.00     0.105 C 
ATOM      4  N   UNL d   1       3.237   1.210   1.416  0.00  0.00    -0.191 NA
ENDROOT
BRANCH   1   5
ATOM      5  C   UNL d   1       0.099  -0.471   1.270  0.00  0.00     0.304 C 
ATOM      6  O   UNL d   1      -0.965  -0.930   0.878  0.00  0.00    -0.258 OA
BRANCH   5   7
ATOM      7  O   UNL d   1       0.629  -0.653   2.505  0.00  0.00    -0.317 OA
BRANCH   7   8
ATOM      8  C   UNL d   1      -0.235  -1.243   3.487  0.00  0.00     0.174 C 
ATOM      9  C   UNL d   1      -1.010  -0.132   4.172  0.00  0.00     0.034 C 
ENDBRANCH   7   8
ENDBRANCH   5   7
ENDBRANCH   1   5
BRANCH   2  10
ATOM     10  C   UNL d   1       1.060   1.957  -1.417  0.00  0.00     0.040 A 
ATOM     11  N   UNL d   1       2.148   1.697  -2.252  0.00  0.00    -0.322 N 
ATOM     12  C   UNL d   1       2.674   2.924  -2.625  0.00  0.00     0.097 A 
ATOM     13  C   UNL d   1       1.878   3.933  -2.131  0.00  0.00     0.020 A 
ATOM     14  C   UNL d   1       0.851   3.323  -1.387  0.00  0.00     0.031 A 
BRANCH  11  15
ATOM     15  C   UNL d   1       2.685   0.434  -2.646  0.00  0.00     0.039 A 
ATOM     16  C   UNL d   1       1.849  -0.675  -2.836  0.00  0.00     0.031 A 
ATOM     17  C   UNL d   1       2.395  -1.915  -3.182  0.00  0.00     0.026 A 
ATOM     18  C   UNL d   1       3.772  -2.049  -3.337  0.00  0.00     0.034 A 
ATOM     19  C   UNL d   1       4.609  -0.947  -3.173  0.00  0.00     0.026 A 
ATOM     20 CL   UNL d   1       4.444  -3.583  -3.728  0.00  0.00    -0.084 Cl
ATOM     21  C   UNL d   1       4.067   0.298  -2.841  0.00  0.00     0.031 A 
ENDBRANCH  11  15
ENDBRANCH   2  10
TORSDOF 5
