REMARK  7 active torsions:
REMARK  status: ('A' for Active; 'I' for Inactive)
REMARK    1  A    between atoms: S_3  and  C_9 
REMARK    2  A    between atoms: C_11  and  S_3 
REMARK    3  A    between atoms: C_9  and  C_4 
REMARK    4  A    between atoms: C_13  and  C_5 
REMARK    5  A    between atoms: C_10  and  O_17 
REMARK    6  A    between atoms: C_12  and  C_11 
REMARK    7  A    between atoms: O_17  and  C_26 
ROOT
ATOM      1  N   UNL d   1       1.271   0.149   0.202  0.00  0.00    -0.322 N 
ATOM      2  HN  UNL d   1       2.261   0.264   0.423  1.00  0.00     0.169 HD
ATOM      3  C   UNL d   1       0.315   1.112   0.029  0.00  0.00     0.118 A 
ATOM      4  C   UNL d   1       0.595  -0.965   0.013  0.00  0.00     0.182 A 
ATOM      5  N   UNL d   1      -0.905   0.644  -0.265  0.00  0.00    -0.246 N 
ATOM      6  HN  UNL d   1      -1.758   1.171  -0.449  1.00  0.00     0.196 HD
ATOM      7  O   UNL d   1      -0.726  -0.745  -0.258  0.00  0.00    -0.217 OA
ENDROOT
BRANCH   4   8
ATOM      8  C   UNL d   1       1.070  -2.341   0.044  0.00  0.00     0.017 A 
ATOM      9  C   UNL d   1       2.416  -2.584   0.363  0.00  0.00     0.018 A 
ATOM     10  C   UNL d   1       2.929  -3.886   0.405  0.00  0.00     0.038 A 
ATOM     11  C   UNL d   1       2.093  -4.971   0.165  0.00  0.00     0.078 A 
ATOM     12  C   UNL d   1       0.762  -4.735  -0.194  0.00  0.00     0.038 A 
ATOM     13  C   UNL d   1       0.249  -3.434  -0.249  0.00  0.00     0.018 A 
BRANCH  11  14
ATOM     14  O   UNL d   1       2.442  -6.285   0.209  0.00  0.00    -0.255 OA
BRANCH  14  15
ATOM     15  C   UNL d   1       3.523  -6.698   1.034  0.00  0.00     0.530 C 
ATOM     16  F   UNL d   1       3.883  -5.790   1.965  0.00  0.00    -0.144 F 
ATOM     17  F   UNL d   1       3.154  -7.825   1.683  0.00  0.00    -0.144 F 
ATOM     18  F   UNL d   1       4.594  -6.987   0.264  0.00  0.00    -0.144 F 
ENDBRANCH  14  15
ENDBRANCH  11  14
ENDBRANCH   4   8
BRANCH   3  19
ATOM     19  C   UNL d   1       0.650   2.544   0.059  0.00  0.00     0.218 C 
BRANCH  19  20
ATOM     20  S   UNL d   1       0.519   3.239   1.692  0.00  0.00     0.157 S 
ATOM     21  O   UNL d   1       0.986   4.620   1.612  0.00  0.00    -0.227 OA
ATOM     22  O   UNL d   1      -0.819   2.993   2.193  0.00  0.00    -0.227 OA
BRANCH  20  23
ATOM     23  C   UNL d   1       1.653   2.323   2.726  0.00  0.00     0.205 C 
BRANCH  23  24
ATOM     24  C   UNL d   1       3.047   2.467   2.251  0.00  0.00     0.066 A 
ATOM     25  O   UNL d   1       3.682   1.315   1.889  0.00  0.00    -0.326 OA
ATOM     26  C   UNL d   1       4.954   1.646   1.550  0.00  0.00     0.142 A 
ATOM     27  C   UNL d   1       5.149   3.001   1.684  0.00  0.00     0.027 A 
ATOM     28  C   UNL d   1       3.920   3.531   2.142  0.00  0.00     0.035 A 
ENDBRANCH  23  24
ENDBRANCH  20  23
ENDBRANCH  19  20
ENDBRANCH   3  19
TORSDOF 7
