REMARK  3 active torsions:
REMARK  status: ('A' for Active; 'I' for Inactive)
REMARK    1  A    between atoms: C_6  and  C_1 
REMARK    2  A    between atoms: N_13  and  C_4 
REMARK    3  A    between atoms: O_14  and  C_6 
ROOT
ATOM      1  C   UNL d   1      -0.238   1.071   0.007  0.00  0.00     0.107 A 
ATOM      2  S   UNL d   1       1.351   0.413   0.036  0.00  0.00    -0.081 SA
ATOM      3  C   UNL d   1       0.785  -1.206   0.021  0.00  0.00     0.025 A 
ATOM      4  C   UNL d   1      -1.177   0.059  -0.025  0.00  0.00     0.050 A 
ATOM      5  C   UNL d   1      -0.596  -1.236  -0.021  0.00  0.00     0.051 A 
ATOM      6  C   UNL d   1       1.690  -2.333   0.059  0.00  0.00     0.022 A 
ATOM      7  S   UNL d   1       1.211  -3.840   0.739  0.00  0.00    -0.101 SA
ATOM      8  C   UNL d   1       2.994  -2.398  -0.399  0.00  0.00     0.021 A 
ATOM      9  C   UNL d   1       2.733  -4.549   0.435  0.00  0.00     0.050 A 
ATOM     10  C   UNL d   1       3.596  -3.673  -0.181  0.00  0.00     0.008 A 
ENDROOT
BRANCH   1  11
ATOM     11  C   UNL d   1      -0.386   2.517   0.017  0.00  0.00     0.302 C 
ATOM     12  O   UNL d   1       0.521   3.343   0.043  0.00  0.00    -0.259 OA
BRANCH  11  13
ATOM     13  O   UNL d   1      -1.712   2.858  -0.008  0.00  0.00    -0.322 OA
ATOM     14  C   UNL d   1      -1.963   4.263  -0.005  0.00  0.00     0.213 C 
ENDBRANCH  11  13
ENDBRANCH   1  11
BRANCH   4  15
ATOM     15  N   UNL d   1      -2.513   0.231  -0.059  0.00  0.00    -0.398 N 
ATOM     16  H   UNL d   1      -2.933   1.159  -0.021  0.00  0.00     0.156 HD
ATOM     17  H   UNL d   1      -3.177  -0.535  -0.037  0.00  0.00     0.156 HD
ENDBRANCH   4  15
TORSDOF 3
