REMARK  2 active torsions:
REMARK  status: ('A' for Active; 'I' for Inactive)
REMARK    1  A    between atoms: C_8  and  C_1 
REMARK    2  A    between atoms: C_9  and  C_5 
REMARK       I    between atoms: N_15  and  C_8 
ROOT
ATOM      1  C   UNL d   1       1.240  -1.481   0.016  0.00  0.00     0.046 A 
ATOM      2  N   UNL d   1       1.189   1.290  -0.000  0.00  0.00    -0.355 N 
ATOM      3  HN  UNL d   1       1.171   2.310   0.025  1.00  0.00     0.166 HD
ATOM      4  C   UNL d   1      -0.011  -0.811   0.028  0.00  0.00     0.009 A 
ATOM      5  C   UNL d   1       2.372   0.636  -0.049  0.00  0.00     0.043 A 
ATOM      6  C   UNL d   1       2.431  -0.747  -0.028  0.00  0.00     0.048 A 
ATOM      7  C   UNL d   1       0.042   0.600   0.015  0.00  0.00     0.044 A 
ATOM      8  C   UNL d   1      -1.289  -1.429   0.049  0.00  0.00     0.057 A 
ATOM      9  C   UNL d   1      -1.141   1.329  -0.005  0.00  0.00     0.033 A 
ATOM     10  C   UNL d   1      -2.452  -0.670   0.020  0.00  0.00     0.117 A 
ATOM     11  C   UNL d   1      -2.390   0.710  -0.012  0.00  0.00     0.044 A 
ATOM     12  F   UNL d   1      -3.644  -1.279   0.020  0.00  0.00    -0.206 F 
ENDROOT
BRANCH   5  13
ATOM     13  C   UNL d   1       3.567   1.490  -0.206  0.00  0.00    -0.009 A 
ATOM     14  C   UNL d   1       3.623   2.770   0.375  0.00  0.00     0.014 A 
ATOM     15  C   UNL d   1       4.708   3.625   0.152  0.00  0.00     0.007 A 
ATOM     16  C   UNL d   1       5.769   3.225  -0.664  0.00  0.00    -0.062 A 
ATOM     17  C   UNL d   1       5.748   1.944  -1.219  0.00  0.00     0.007 A 
ATOM     18  C   UNL d   1       6.880   4.182  -0.980  0.00  0.00     0.048 C 
ATOM     19  C   UNL d   1       4.662   1.091  -0.992  0.00  0.00     0.014 A 
ENDBRANCH   5  13
BRANCH   1  20
ATOM     20  C   UNL d   1       1.343  -2.969  -0.045  0.00  0.00     0.250 C 
ATOM     21  O   UNL d   1       0.499  -3.669  -0.592  0.00  0.00    -0.268 OA
ATOM     22  N   UNL d   1       2.442  -3.551   0.525  0.00  0.00    -0.366 N 
ATOM     23  H   UNL d   1       3.100  -3.066   1.117  0.00  0.00     0.159 HD
ATOM     24  H   UNL d   1       2.477  -4.563   0.508  0.00  0.00     0.159 HD
ENDBRANCH   1  20
TORSDOF 2
