REMARK  4 active torsions:
REMARK  status: ('A' for Active; 'I' for Inactive)
REMARK    1  A    between atoms: C_5  and  N_1 
REMARK    2  A    between atoms: C_2  and  C_7 
REMARK    3  A    between atoms: N_3  and  C_2 
REMARK    4  A    between atoms: N_4  and  C_2 
ROOT
ATOM      1  C   UNL d   1      -1.690   3.491  -3.256  0.00  0.00     0.354 C 
ENDROOT
BRANCH   1   2
ATOM      2  C   UNL d   1      -1.142   2.452  -2.264  0.00  0.00    -0.006 A 
ATOM      3  C   UNL d   1      -2.037   1.628  -1.548  0.00  0.00     0.013 A 
ATOM      4  C   UNL d   1      -1.585   0.785  -0.523  0.00  0.00     0.037 A 
ATOM      5  C   UNL d   1      -0.218   0.728  -0.232  0.00  0.00     0.102 A 
ATOM      6  C   UNL d   1       0.692   1.512  -0.947  0.00  0.00     0.037 A 
ATOM      7  C   UNL d   1       0.220   2.387  -1.929  0.00  0.00     0.013 A 
BRANCH   5   8
ATOM      8  N   UNL d   1       0.262  -0.124   0.863  0.00  0.00    -0.116 N 
ATOM      9  O   UNL d   1       1.487  -0.257   0.995  0.00  0.00    -0.532 OA
ATOM     10  O   UNL d   1      -0.587  -0.650   1.597  0.00  0.00    -0.532 OA
ENDBRANCH   5   8
ENDBRANCH   1   2
BRANCH   1  11
ATOM     11  N   UNL d   1      -1.533   4.862  -2.718  0.00  0.00     0.119 N 
ATOM     12  C   UNL d   1      -2.367   5.077  -1.497  0.00  0.00     0.301 C 
ATOM     13  C   UNL d   1      -3.877   5.218  -1.778  0.00  0.00     0.198 C 
ATOM     14  O   UNL d   1      -4.140   6.274  -2.707  0.00  0.00    -0.388 OA
ATOM     15  C   UNL d   1      -3.409   6.080  -3.924  0.00  0.00     0.198 C 
ATOM     16  C   UNL d   1      -1.904   5.951  -3.654  0.00  0.00     0.301 C 
ENDBRANCH   1  11
BRANCH   1  17
ATOM     17  N   UNL d   1      -1.185   3.369  -4.625  0.00  0.00    -0.377 N 
ATOM     18  C   UNL d   1      -1.638   2.202  -5.386  0.00  0.00     0.145 C 
ATOM     19  C   UNL d   1      -0.581   1.098  -5.525  0.00  0.00     0.187 C 
ATOM     20  O   UNL d   1       0.610   1.623  -6.119  0.00  0.00    -0.388 OA
ATOM     21  C   UNL d   1       1.175   2.629  -5.271  0.00  0.00     0.187 C 
ATOM     22  C   UNL d   1       0.184   3.767  -4.967  0.00  0.00     0.145 C 
ENDBRANCH   1  17
TORSDOF 4
