REMARK  6 active torsions:
REMARK  status: ('A' for Active; 'I' for Inactive)
REMARK    1  A    between atoms: C_9  and  C_1 
REMARK    2  A    between atoms: N_4  and  C_2 
REMARK    3  A    between atoms: C_8  and  C_3 
REMARK       I    between atoms: C_7  and  N_4 
REMARK       I    between atoms: N_10  and  C_7 
REMARK    4  A    between atoms: O_18  and  C_9 
REMARK    5  A    between atoms: C_17  and  N_10 
REMARK    6  A    between atoms: C_25  and  O_18 
ROOT
ATOM      1  C   UNL d   1       1.490   0.636   0.000  0.00  0.00     0.086 C 
ATOM      2  C   UNL d   1       0.262   1.296  -0.021  0.00  0.00     0.095 C 
ATOM      3  C   UNL d   1       1.245  -0.734   0.477  0.00  0.00     0.023 C 
ATOM      4  S   UNL d   1      -1.087   0.282   0.220  0.00  0.00    -0.082 SA
ATOM      5  C   UNL d   1      -0.097  -1.065   0.449  0.00  0.00     0.067 C 
ENDROOT
BRANCH   2   6
ATOM      6  N   UNL d   1      -0.194   2.599  -0.069  0.00  0.00    -0.302 N 
ATOM      7  C   UNL d   1      -0.087   3.408  -1.189  0.00  0.00     0.325 C 
ATOM      8  N   UNL d   1      -1.088   4.385  -1.136  0.00  0.00    -0.309 N 
ATOM      9  O   UNL d   1       0.686   3.283  -2.123  0.00  0.00    -0.247 OA
ATOM     10  H   UNL d   1      -1.995   4.016  -0.890  0.00  0.00     0.170 HD
ATOM     11  H   UNL d   1      -1.102   2.688   0.362  0.00  0.00     0.171 HD
BRANCH   8  12
ATOM     12  C   UNL d   1      -1.117   5.486  -2.006  0.00  0.00     0.036 A 
ATOM     13  C   UNL d   1      -2.329   5.825  -2.613  0.00  0.00     0.031 A 
ATOM     14  C   UNL d   1      -2.394   6.920  -3.476  0.00  0.00     0.026 A 
ATOM     15  C   UNL d   1      -1.260   7.703  -3.684  0.00  0.00     0.034 A 
ATOM     16  C   UNL d   1      -0.060   7.396  -3.045  0.00  0.00     0.026 A 
ATOM     17 CL   UNL d   1      -1.347   9.061  -4.737  0.00  0.00    -0.084 Cl
ATOM     18  C   UNL d   1       0.017   6.274  -2.216  0.00  0.00     0.031 A 
ENDBRANCH   8  12
ENDBRANCH   2   6
BRANCH   1  19
ATOM     19  C   UNL d   1       2.807   1.246  -0.265  0.00  0.00     0.297 C 
ATOM     20  O   UNL d   1       3.883   0.697  -0.070  0.00  0.00    -0.259 OA
BRANCH  19  21
ATOM     21  O   UNL d   1       2.724   2.491  -0.800  0.00  0.00    -0.318 OA
BRANCH  21  22
ATOM     22  C   UNL d   1       3.928   3.168  -1.193  0.00  0.00     0.174 C 
ATOM     23  C   UNL d   1       4.443   2.711  -2.548  0.00  0.00     0.034 C 
ENDBRANCH  21  22
ENDBRANCH  19  21
ENDBRANCH   1  19
BRANCH   3  24
ATOM     24  C   UNL d   1       2.219  -1.741   1.037  0.00  0.00     0.086 A 
ATOM     25  O   UNL d   1       3.546  -1.524   1.274  0.00  0.00    -0.322 OA
ATOM     26  C   UNL d   1       4.044  -2.610   1.915  0.00  0.00     0.142 A 
ATOM     27  C   UNL d   1       3.063  -3.549   2.105  0.00  0.00     0.027 A 
ATOM     28  C   UNL d   1       1.894  -3.002   1.524  0.00  0.00     0.040 A 
ENDBRANCH   3  24
TORSDOF 6
