REMARK  3 active torsions:
REMARK  status: ('A' for Active; 'I' for Inactive)
REMARK    1  A    between atoms: C_10  and  C_6 
REMARK    2  A    between atoms: C_12  and  C_7 
REMARK    3  A    between atoms: C_8  and  C_9 
ROOT
ATOM      1  O   UNL d   1      -1.053   0.016  -0.011  0.00  0.00    -0.273 OA
ATOM      2  N   UNL d   1       1.075  -0.671   0.011  0.00  0.00    -0.277 N 
ATOM      3  HN  UNL d   1       1.893  -1.280   0.021  1.00  0.00     0.189 HD
ATOM      4  N   UNL d   1       1.073   0.709   0.013  0.00  0.00    -0.277 N 
ATOM      5  HN  UNL d   1       1.889   1.320   0.027  1.00  0.00     0.189 HD
ATOM      6  C   UNL d   1      -0.189  -1.047  -0.006  0.00  0.00     0.174 A 
ATOM      7  C   UNL d   1      -0.191   1.082  -0.006  0.00  0.00     0.174 A 
ENDROOT
BRANCH   6   8
ATOM      8  C   UNL d   1      -0.768  -2.384  -0.044  0.00  0.00     0.017 A 
ATOM      9  C   UNL d   1      -2.157  -2.594  -0.047  0.00  0.00     0.032 A 
ATOM     10  C   UNL d   1      -2.698  -3.892  -0.102  0.00  0.00     0.048 A 
ATOM     11  C   UNL d   1      -1.825  -4.988  -0.154  0.00  0.00     0.016 A 
ATOM     12  C   UNL d   1      -0.445  -4.794  -0.146  0.00  0.00     0.002 A 
ATOM     13  C   UNL d   1       0.078  -3.501  -0.092  0.00  0.00     0.016 A 
BRANCH  10  14
ATOM     14  C   UNL d   1      -4.190  -4.117  -0.117  0.00  0.00     0.417 C 
ATOM     15  F   UNL d   1      -4.914  -2.965  -0.044  0.00  0.00    -0.166 F 
ATOM     16  F   UNL d   1      -4.609  -4.750  -1.245  0.00  0.00    -0.166 F 
ATOM     17  F   UNL d   1      -4.610  -4.887   0.925  0.00  0.00    -0.166 F 
ENDBRANCH  10  14
ENDBRANCH   6   8
BRANCH   7  18
ATOM     18  C   UNL d   1      -0.773   2.417  -0.060  0.00  0.00     0.017 A 
ATOM     19  C   UNL d   1       0.067   3.542  -0.067  0.00  0.00     0.017 A 
ATOM     20  C   UNL d   1      -0.463   4.833  -0.166  0.00  0.00     0.025 A 
ATOM     21  C   UNL d   1      -1.842   5.009  -0.259  0.00  0.00     0.034 A 
ATOM     22  C   UNL d   1      -2.693   3.907  -0.236  0.00  0.00     0.025 A 
ATOM     23 CL   UNL d   1      -2.495   6.592  -0.412  0.00  0.00    -0.084 Cl
ATOM     24  C   UNL d   1      -2.162   2.617  -0.135  0.00  0.00     0.017 A 
ENDBRANCH   7  18
TORSDOF 3
