REMARK  3 active torsions:
REMARK  status: ('A' for Active; 'I' for Inactive)
REMARK    1  A    between atoms: C_4  and  C_1 
REMARK       I    between atoms: N_9  and  C_4 
REMARK    2  A    between atoms: C_18  and  N_9 
REMARK    3  A    between atoms: C_17  and  C_18 
ROOT
ATOM      1  C   UNL d   1      -0.060   2.448   0.014  0.00  0.00     0.256 C 
ATOM      2  N   UNL d   1      -1.095   3.359   0.031  0.00  0.00    -0.352 N 
ATOM      3  O   UNL d   1      -0.294   1.239   0.014  0.00  0.00    -0.267 OA
ATOM      4  H   UNL d   1      -0.944   4.353  -0.017  0.00  0.00     0.163 HD
ENDROOT
BRANCH   2   5
ATOM      5  C   UNL d   1      -2.446   2.849   0.011  0.00  0.00     0.161 C 
BRANCH   5   6
ATOM      6  C   UNL d   1      -3.503   3.917   0.096  0.00  0.00    -0.038 A 
ATOM      7  C   UNL d   1      -3.941   4.380   1.348  0.00  0.00     0.048 A 
ATOM      8  C   UNL d   1      -4.991   5.274   1.379  0.00  0.00     0.105 A 
ATOM      9  O   UNL d   1      -5.565   5.785   2.501  0.00  0.00    -0.323 OA
ATOM     10  C   UNL d   1      -5.594   5.726   0.230  0.00  0.00     0.105 A 
ATOM     11  C   UNL d   1      -6.608   6.600   1.926  0.00  0.00     0.352 A 
ATOM     12  O   UNL d   1      -6.625   6.576   0.483  0.00  0.00    -0.323 OA
ATOM     13  C   UNL d   1      -5.172   5.322  -1.017  0.00  0.00     0.040 A 
ATOM     14  C   UNL d   1      -4.112   4.411  -1.082  0.00  0.00     0.012 A 
ENDBRANCH   5   6
ENDBRANCH   2   5
BRANCH   1  15
ATOM     15  C   UNL d   1       1.305   2.947  -0.009  0.00  0.00     0.087 A 
ATOM     16  C   UNL d   1       2.409   2.107  -0.008  0.00  0.00     0.090 A 
ATOM     17  O   UNL d   1       3.549   2.840  -0.035  0.00  0.00    -0.242 OA
ATOM     18  C   UNL d   1       2.581   0.639   0.016  0.00  0.00     0.080 C 
ATOM     19  N   UNL d   1       3.232   4.178  -0.055  0.00  0.00    -0.265 N 
ATOM     20  C   UNL d   1       1.895   4.244  -0.039  0.00  0.00     0.047 A 
ATOM     21  HN  UNL d   1       3.885   4.961  -0.077  1.00  0.00     0.194 HD
ATOM     22  C   UNL d   1       1.268   5.586  -0.059  0.00  0.00     0.071 C 
ENDBRANCH   1  15
TORSDOF 3
