REMARK  4 active torsions:
REMARK  status: ('A' for Active; 'I' for Inactive)
REMARK    1  A    between atoms: N_2  and  C_1 
REMARK    2  A    between atoms: C_9  and  C_3 
REMARK    3  A    between atoms: O_16  and  C_9 
REMARK    4  A    between atoms: C_19  and  O_16 
ROOT
ATOM      1  C   UNL d   1      -2.170  -0.953  -0.079  0.00  0.00     0.103 A 
ATOM      2  C   UNL d   1      -1.063  -1.782  -0.154  0.00  0.00     0.081 A 
ATOM      3  S   UNL d   1      -1.761   0.714  -0.131  0.00  0.00    -0.075 SA
ATOM      4  C   UNL d   1       0.151  -0.996  -0.083  0.00  0.00    -0.026 A 
ATOM      5  C   UNL d   1      -0.104   0.362  -0.088  0.00  0.00    -0.008 A 
ATOM      6  C   UNL d   1       1.567  -1.516  -0.069  0.00  0.00     0.041 C 
ATOM      7  C   UNL d   1       0.920   1.450  -0.029  0.00  0.00     0.047 C 
ATOM      8  C   UNL d   1       2.567  -0.439   0.378  0.00  0.00     0.005 C 
ATOM      9  C   UNL d   1       2.319   0.896  -0.334  0.00  0.00     0.005 C 
ENDROOT
BRANCH   1  10
ATOM     10  N   UNL d   1      -3.521  -1.178   0.188  0.00  0.00    -0.243 N 
ATOM     11  C   UNL d   1      -4.419  -0.819  -0.829  0.00  0.00     0.240 C 
ATOM     12  O   UNL d   1      -4.103  -0.687  -2.015  0.00  0.00    -0.272 OA
ATOM     13  C   UNL d   1      -5.841  -0.537  -0.401  0.00  0.00     0.178 C 
ATOM     14  S   UNL d   1      -6.486  -1.801   0.705  0.00  0.00    -0.150 SA
ATOM     15  C   UNL d   1      -5.189  -1.675   1.942  0.00  0.00     0.178 C 
ATOM     16  C   UNL d   1      -3.810  -1.897   1.357  0.00  0.00     0.240 C 
ATOM     17  O   UNL d   1      -2.994  -2.583   1.977  0.00  0.00    -0.272 OA
ENDBRANCH   1  10
BRANCH   2  18
ATOM     18  C   UNL d   1      -1.113  -3.236  -0.340  0.00  0.00     0.296 C 
ATOM     19  O   UNL d   1      -0.175  -3.977  -0.077  0.00  0.00    -0.259 OA
BRANCH  18  20
ATOM     20  O   UNL d   1      -2.242  -3.631  -1.001  0.00  0.00    -0.318 OA
BRANCH  20  21
ATOM     21  C   UNL d   1      -2.193  -4.919  -1.631  0.00  0.00     0.174 C 
ATOM     22  C   UNL d   1      -3.218  -5.838  -1.003  0.00  0.00     0.034 C 
ENDBRANCH  20  21
ENDBRANCH  18  20
ENDBRANCH   2  18
TORSDOF 4
