REMARK  5 active torsions:
REMARK  status: ('A' for Active; 'I' for Inactive)
REMARK    1  A    between atoms: N_2  and  C_1 
REMARK    2  A    between atoms: N_4  and  C_1 
REMARK    3  A    between atoms: C_6  and  N_2 
REMARK    4  A    between atoms: C_5  and  C_6 
REMARK    5  A    between atoms: O_8  and  C_7 
ROOT
ATOM      1  C   UNL d   1      -0.099  -3.720  -0.306  0.00  0.00    -0.007 A 
ATOM      2  C   UNL d   1      -0.622  -4.189  -1.519  0.00  0.00     0.076 A 
ATOM      3  C   UNL d   1      -0.578  -4.276   0.894  0.00  0.00     0.011 A 
ATOM      4  C   UNL d   1      -1.536  -5.246  -1.531  0.00  0.00     0.037 A 
ATOM      5  C   UNL d   1      -1.505  -5.319   0.879  0.00  0.00     0.001 A 
ATOM      6  C   UNL d   1      -1.974  -5.814  -0.333  0.00  0.00     0.003 A 
ENDROOT
BRANCH   1   7
ATOM      7  C   UNL d   1       0.997  -2.687  -0.240  0.00  0.00     0.163 C 
BRANCH   7   8
ATOM      8  N   UNL d   1       0.483  -1.348  -0.041  0.00  0.00    -0.363 N 
ATOM      9  H   UNL d   1      -0.526  -1.306   0.060  0.00  0.00     0.162 HD
BRANCH   8  10
ATOM     10  C   UNL d   1       1.021  -0.111   0.000  0.00  0.00     0.169 C 
ATOM     11  S   UNL d   1      -0.168   1.077   0.165  0.00  0.00    -0.041 SA
BRANCH  10  12
ATOM     12  N   UNL d   1       2.377   0.130  -0.086  0.00  0.00    -0.367 N 
ATOM     13  C   UNL d   1       3.458  -0.842  -0.211  0.00  0.00     0.151 C 
ATOM     14  C   UNL d   1       2.918   1.497  -0.026  0.00  0.00     0.151 C 
ENDBRANCH  10  12
ENDBRANCH   8  10
ENDBRANCH   7   8
ENDBRANCH   1   7
BRANCH   2  15
ATOM     15  O   UNL d   1      -0.202  -3.744  -2.744  0.00  0.00    -0.355 OA
ATOM     16  C   UNL d   1      -0.570  -2.388  -3.001  0.00  0.00     0.210 C 
ENDBRANCH   2  15
TORSDOF 5
