REMARK  6 active torsions:
REMARK  status: ('A' for Active; 'I' for Inactive)
REMARK    1  A    between atoms: C_2  and  C_1 
REMARK    2  A    between atoms: C_4  and  C_1 
REMARK    3  A    between atoms: C_8  and  C_2 
REMARK    4  A    between atoms: S_10  and  C_3 
REMARK    5  A    between atoms: S_11  and  C_3 
REMARK    6  A    between atoms: N_5  and  C_4 
ROOT
ATOM      1  C   UNL d   1       1.066  -0.054  -0.052  0.00  0.00     0.100 C 
ATOM      2  C   UNL d   1       0.410   0.816  -0.869  0.00  0.00     0.059 C 
ENDROOT
BRANCH   1   3
ATOM      3  C   UNL d   1       0.373  -0.910   0.980  0.00  0.00     0.203 C 
ATOM      4  O   UNL d   1      -0.811  -1.227   0.885  0.00  0.00    -0.286 OA
BRANCH   3   5
ATOM      5  C   UNL d   1       1.090  -1.453   2.165  0.00  0.00     0.016 A 
ATOM      6  C   UNL d   1       0.451  -1.339   3.412  0.00  0.00     0.017 A 
ATOM      7  C   UNL d   1       1.014  -1.911   4.555  0.00  0.00     0.025 A 
ATOM      8  C   UNL d   1       2.216  -2.610   4.455  0.00  0.00     0.034 A 
ATOM      9  C   UNL d   1       2.845  -2.748   3.222  0.00  0.00     0.025 A 
ATOM     10 CL   UNL d   1       2.903  -3.336   5.858  0.00  0.00    -0.084 Cl
ATOM     11  C   UNL d   1       2.272  -2.187   2.074  0.00  0.00     0.017 A 
ENDBRANCH   3   5
ENDBRANCH   1   3
BRANCH   1  12
ATOM     12  C   UNL d   1       2.586  -0.054  -0.052  0.00  0.00    -0.031 C 
BRANCH  12  13
ATOM     13  N   UNL d   1       3.847  -0.054  -0.052  0.00  0.00    -0.365 N 
ATOM     14  HN2 UNL d   1       2.827  -0.054  -0.052  1.00  0.00     0.165 HD
ATOM     15  HN1 UNL d   1       4.867  -0.054  -0.052  1.00  0.00     0.165 HD
ENDBRANCH  12  13
ENDBRANCH   1  12
BRANCH   2  16
ATOM     16  S   UNL d   1       1.307   1.731  -2.093  0.00  0.00    -0.126 SA
ATOM     17  C   UNL d   1       0.176   1.754  -3.502  0.00  0.00     0.096 C 
ENDBRANCH   2  16
BRANCH   2  18
ATOM     18  S   UNL d   1      -1.232   1.364  -0.546  0.00  0.00    -0.126 SA
ATOM     19  C   UNL d   1      -2.226   0.168  -1.460  0.00  0.00     0.096 C 
ENDBRANCH   2  18
TORSDOF 6
