REMARK  16 active torsions:
REMARK  status: ('A' for Active; 'I' for Inactive)
REMARK    1  A    between atoms: C_2  and  S_1 
REMARK    2  A    between atoms: N_6  and  S_1 
REMARK    3  A    between atoms: C_7  and  C_3 
REMARK    4  A    between atoms: C_9  and  C_4 
REMARK    5  A    between atoms: C_5  and  N_6 
REMARK    6  A    between atoms: O_20  and  C_7 
REMARK    7  A    between atoms: O_21  and  C_9 
REMARK    8  A    between atoms: O_22  and  C_13 
REMARK    9  A    between atoms: O_23  and  C_16 
REMARK   10  A    between atoms: C_26  and  O_21 
REMARK   11  A    between atoms: C_28  and  O_22 
REMARK   12  A    between atoms: C_27  and  O_23 
REMARK   13  A    between atoms: O_24  and  C_30 
REMARK   14  A    between atoms: O_25  and  C_29 
REMARK   15  A    between atoms: C_29  and  C_27 
REMARK   16  A    between atoms: C_30  and  C_28 
ROOT
ATOM      1  C   UNL d   1       2.678   2.567   1.887  0.00  0.00     0.069 A 
ATOM      2  C   UNL d   1       1.355   2.462   1.439  0.00  0.00     0.061 A 
ATOM      3  C   UNL d   1       2.924   3.232   3.096  0.00  0.00     0.059 A 
ATOM      4  C   UNL d   1       0.305   3.037   2.173  0.00  0.00     0.071 A 
ATOM      5  C   UNL d   1       1.873   3.760   3.869  0.00  0.00     0.103 A 
ATOM      6  C   UNL d   1       0.548   3.666   3.402  0.00  0.00     0.104 A 
ENDROOT
BRANCH   2   7
ATOM      7  N   UNL d   1       0.999   1.738   0.255  0.00  0.00    -0.279 N 
ATOM      8  H   UNL d   1       1.458   0.832   0.140  0.00  0.00     0.179 HD
BRANCH   7   9
ATOM      9  S   UNL d   1       0.787   2.570  -1.189  0.00  0.00     0.264 S 
ATOM     10  O   UNL d   1      -0.327   1.920  -1.836  0.00  0.00    -0.200 OA
ATOM     11  O   UNL d   1       0.779   4.001  -0.976  0.00  0.00    -0.200 OA
BRANCH   9  12
ATOM     12  C   UNL d   1       2.088   2.298  -2.330  0.00  0.00     0.103 C 
ATOM     13  C   UNL d   1       3.235   3.063  -2.534  0.00  0.00     0.103 C 
ATOM     14  S   UNL d   1       4.002   2.594  -4.022  0.00  0.00    -0.094 SA
ATOM     15  C   UNL d   1       2.908   1.331  -4.303  0.00  0.00     0.052 C 
ATOM     16  C   UNL d   1       1.976   1.238  -3.300  0.00  0.00     0.034 C 
BRANCH  13  17
ATOM     17  C   UNL d   1       3.847   4.122  -1.741  0.00  0.00     0.301 C 
ATOM     18  O   UNL d   1       3.562   4.414  -0.587  0.00  0.00    -0.259 OA
BRANCH  17  19
ATOM     19  O   UNL d   1       4.884   4.688  -2.432  0.00  0.00    -0.322 OA
ATOM     20  C   UNL d   1       5.749   5.609  -1.766  0.00  0.00     0.213 C 
ENDBRANCH  17  19
ENDBRANCH  13  17
ENDBRANCH   9  12
ENDBRANCH   7   9
ENDBRANCH   2   7
BRANCH   1  21
ATOM     21  C   UNL d   1       3.788   1.927   1.138  0.00  0.00     0.295 C 
ATOM     22  O   UNL d   1       3.613   1.008   0.356  0.00  0.00    -0.259 OA
BRANCH  21  23
ATOM     23  O   UNL d   1       4.983   2.522   1.414  0.00  0.00    -0.318 OA
BRANCH  23  24
ATOM     24  C   UNL d   1       6.092   2.093   0.606  0.00  0.00     0.174 C 
ATOM     25  C   UNL d   1       6.831   0.950   1.275  0.00  0.00     0.034 C 
ENDBRANCH  23  24
ENDBRANCH  21  23
ENDBRANCH   1  21
BRANCH   6  26
ATOM     26  O   UNL d   1      -0.420   4.202   4.215  0.00  0.00    -0.346 OA
BRANCH  26  27
ATOM     27  C   UNL d   1      -1.807   3.971   3.953  0.00  0.00     0.201 C 
BRANCH  27  28
ATOM     28  C   UNL d   1      -2.280   2.636   4.531  0.00  0.00     0.193 C 
BRANCH  28  29
ATOM     29  O   UNL d   1      -3.700   2.536   4.408  0.00  0.00    -0.394 OA
ATOM     30  C   UNL d   1      -4.196   1.317   4.950  0.00  0.00     0.201 C 
ENDBRANCH  28  29
ENDBRANCH  27  28
ENDBRANCH  26  27
ENDBRANCH   6  26
BRANCH   5  31
ATOM     31  O   UNL d   1       2.068   4.356   5.102  0.00  0.00    -0.346 OA
BRANCH  31  32
ATOM     32  C   UNL d   1       3.392   4.247   5.625  0.00  0.00     0.201 C 
BRANCH  32  33
ATOM     33  C   UNL d   1       3.520   4.819   7.030  0.00  0.00     0.193 C 
BRANCH  33  34
ATOM     34  O   UNL d   1       4.887   4.641   7.417  0.00  0.00    -0.394 OA
ATOM     35  C   UNL d   1       5.163   5.153   8.709  0.00  0.00     0.201 C 
ENDBRANCH  33  34
ENDBRANCH  32  33
ENDBRANCH  31  32
ENDBRANCH   5  31
TORSDOF 16
