REMARK  7 active torsions:
REMARK  status: ('A' for Active; 'I' for Inactive)
REMARK    1  A    between atoms: C_7  and  C_1 
REMARK    2  A    between atoms: N_8  and  C_2 
REMARK    3  A    between atoms: C_12  and  C_4 
REMARK    4  A    between atoms: C_6  and  C_9 
REMARK    5  A    between atoms: O_19  and  C_7 
REMARK       I    between atoms: C_11  and  N_8 
REMARK    6  A    between atoms: C_9  and  C_10 
REMARK    7  A    between atoms: C_10  and  C_11 
ROOT
ATOM      1  C   UNL d   1      -0.227   1.175  -1.007  0.00  0.00     0.107 A 
ATOM      2  C   UNL d   1       1.095   0.749  -1.015  0.00  0.00     0.059 A 
ATOM      3  S   UNL d   1      -1.306  -0.163  -0.892  0.00  0.00    -0.081 SA
ATOM      4  C   UNL d   1      -0.046  -1.298  -0.701  0.00  0.00     0.018 A 
ATOM      5  C   UNL d   1       1.179  -0.678  -0.857  0.00  0.00     0.051 A 
ENDROOT
BRANCH   2   6
ATOM      6  N   UNL d   1       2.203   1.605  -1.124  0.00  0.00    -0.325 N 
ATOM      7  C   UNL d   1       3.409   1.190  -1.655  0.00  0.00     0.229 C 
ATOM      8  O   UNL d   1       3.589   0.101  -2.201  0.00  0.00    -0.273 OA
ATOM      9  H   UNL d   1       2.028   2.596  -0.975  0.00  0.00     0.169 HD
BRANCH   7  10
ATOM     10  C   UNL d   1       4.550   2.165  -1.547  0.00  0.00     0.191 C 
BRANCH  10  11
ATOM     11  C   UNL d   1       5.634   1.685  -0.618  0.00  0.00     0.241 C 
ATOM     12  O   UNL d   1       5.851   2.318   0.426  0.00  0.00    -0.288 OA
BRANCH  11  13
ATOM     13  C   UNL d   1       6.465   0.473  -1.028  0.00  0.00     0.451 C 
ATOM     14  F   UNL d   1       6.069  -0.123  -2.179  0.00  0.00    -0.163 F 
ATOM     15  F   UNL d   1       7.770   0.813  -1.229  0.00  0.00    -0.163 F 
ATOM     16  F   UNL d   1       6.467  -0.491  -0.066  0.00  0.00    -0.163 F 
ENDBRANCH  11  13
ENDBRANCH  10  11
ENDBRANCH   7  10
ENDBRANCH   2   6
BRANCH   1  17
ATOM     17  C   UNL d   1      -0.840   2.480  -1.115  0.00  0.00     0.302 C 
ATOM     18  O   UNL d   1      -2.022   2.708  -1.366  0.00  0.00    -0.259 OA
BRANCH  17  19
ATOM     19  O   UNL d   1       0.073   3.472  -0.861  0.00  0.00    -0.322 OA
ATOM     20  C   UNL d   1      -0.522   4.775  -0.822  0.00  0.00     0.213 C 
ENDBRANCH  17  19
ENDBRANCH   1  17
BRANCH   4  21
ATOM     21  C   UNL d   1      -0.344  -2.696  -0.346  0.00  0.00    -0.019 A 
ATOM     22  C   UNL d   1      -1.443  -3.391  -0.875  0.00  0.00     0.013 A 
ATOM     23  C   UNL d   1      -1.732  -4.697  -0.463  0.00  0.00     0.001 A 
ATOM     24  C   UNL d   1      -0.925  -5.329   0.480  0.00  0.00     0.000 A 
ATOM     25  C   UNL d   1       0.176  -4.660   1.006  0.00  0.00     0.001 A 
ATOM     26  C   UNL d   1       0.466  -3.356   0.593  0.00  0.00     0.013 A 
ENDBRANCH   4  21
TORSDOF 7
