REMARK  6 active torsions:
REMARK  status: ('A' for Active; 'I' for Inactive)
REMARK    1  A    between atoms: C_5  and  C_1 
REMARK    2  A    between atoms: N_6  and  C_2 
REMARK    3  A    between atoms: C_3  and  C_8 
REMARK       I    between atoms: C_4  and  N_7 
REMARK    4  A    between atoms: C_9  and  C_4 
REMARK    5  A    between atoms: O_21  and  C_5 
REMARK    6  A    between atoms: N_7  and  C_13 
ROOT
ATOM      1  C   UNL d   1       1.497  -0.232   0.119  0.00  0.00     0.068 A 
ATOM      2  C   UNL d   1       0.705  -1.373  -0.168  0.00  0.00     0.046 A 
ATOM      3  C   UNL d   1       0.908   1.047   0.205  0.00  0.00     0.049 A 
ATOM      4  C   UNL d   1      -0.651  -1.138  -0.463  0.00  0.00     0.032 A 
ATOM      5  C   UNL d   1      -0.453   1.235  -0.001  0.00  0.00     0.036 A 
ATOM      6  C   UNL d   1      -1.220   0.142  -0.395  0.00  0.00     0.032 A 
ENDROOT
BRANCH   5   7
ATOM      7  N   UNL d   1      -1.101   2.471   0.175  0.00  0.00    -0.323 N 
ATOM      8  C   UNL d   1      -0.563   3.616   0.743  0.00  0.00     0.256 C 
ATOM      9  O   UNL d   1       0.582   3.778   1.136  0.00  0.00    -0.267 OA
ATOM     10  H   UNL d   1      -2.068   2.500  -0.117  0.00  0.00     0.169 HD
BRANCH   8  11
ATOM     11  C   UNL d   1      -1.504   4.764   0.848  0.00  0.00     0.033 A 
ATOM     12  C   UNL d   1      -2.868   4.583   1.114  0.00  0.00     0.033 A 
ATOM     13  C   UNL d   1      -3.745   5.679   1.084  0.00  0.00     0.048 A 
ATOM     14  C   UNL d   1      -3.223   6.962   0.855  0.00  0.00     0.016 A 
ATOM     15  C   UNL d   1      -1.855   7.149   0.652  0.00  0.00     0.002 A 
ATOM     16  C   UNL d   1      -0.997   6.051   0.644  0.00  0.00     0.017 A 
BRANCH  13  17
ATOM     17  C   UNL d   1      -5.234   5.486   1.236  0.00  0.00     0.417 C 
ATOM     18  F   UNL d   1      -5.591   4.184   1.425  0.00  0.00    -0.166 F 
ATOM     19  F   UNL d   1      -5.758   6.177   2.283  0.00  0.00    -0.166 F 
ATOM     20  F   UNL d   1      -5.915   5.897   0.131  0.00  0.00    -0.166 F 
ENDBRANCH  13  17
ENDBRANCH   8  11
ENDBRANCH   5   7
BRANCH   1  21
ATOM     21  C   UNL d   1       2.991  -0.302   0.233  0.00  0.00     0.295 C 
ATOM     22  O   UNL d   1       3.712  -1.127  -0.300  0.00  0.00    -0.259 OA
BRANCH  21  23
ATOM     23  O   UNL d   1       3.424   0.708   1.033  0.00  0.00    -0.322 OA
ATOM     24  C   UNL d   1       4.840   0.831   1.152  0.00  0.00     0.213 C 
ENDBRANCH  21  23
ENDBRANCH   1  21
BRANCH   2  25
ATOM     25  N   UNL d   1       1.216  -2.666  -0.176  0.00  0.00    -0.376 N 
ATOM     26  C   UNL d   1       0.586  -3.747  -0.950  0.00  0.00     0.149 C 
ATOM     27  C   UNL d   1       1.659  -4.808  -1.259  0.00  0.00     0.187 C 
ATOM     28  O   UNL d   1       2.250  -5.328  -0.054  0.00  0.00    -0.388 OA
ATOM     29  C   UNL d   1       2.869  -4.261   0.691  0.00  0.00     0.187 C 
ATOM     30  C   UNL d   1       1.845  -3.174   1.064  0.00  0.00     0.149 C 
ENDBRANCH   2  25
TORSDOF 6
