REMARK  5 active torsions:
REMARK  status: ('A' for Active; 'I' for Inactive)
REMARK    1  A    between atoms: C_8  and  C_1 
REMARK    2  A    between atoms: O_5  and  C_2 
REMARK    3  A    between atoms: S_3  and  O_5 
REMARK    4  A    between atoms: C_9  and  S_3 
REMARK    5  A    between atoms: O_15  and  C_8 
ROOT
ATOM      1  C   UNL d   1       2.065  -1.038  -0.112  0.00  0.00     0.116 A 
ATOM      2  C   UNL d   1       0.879  -1.754  -0.178  0.00  0.00     0.124 A 
ATOM      3  S   UNL d   1       1.783   0.642  -0.093  0.00  0.00    -0.081 SA
ATOM      4  C   UNL d   1      -0.291  -0.893  -0.262  0.00  0.00     0.017 A 
ATOM      5  C   UNL d   1       0.083   0.453  -0.141  0.00  0.00     0.019 A 
ATOM      6  C   UNL d   1      -1.685  -1.139  -0.408  0.00  0.00     0.016 A 
ATOM      7  C   UNL d   1      -0.862   1.501  -0.078  0.00  0.00     0.020 A 
ATOM      8  C   UNL d   1      -2.627  -0.105  -0.338  0.00  0.00     0.001 A 
ATOM      9  C   UNL d   1      -2.219   1.203  -0.153  0.00  0.00     0.001 A 
ENDROOT
BRANCH   2  10
ATOM     10  O   UNL d   1       0.964  -3.113  -0.145  0.00  0.00    -0.227 OA
BRANCH  10  11
ATOM     11  S   UNL d   1      -0.278  -4.156  -0.056  0.00  0.00     0.303 S 
ATOM     12  O   UNL d   1      -1.090  -3.831   1.102  0.00  0.00    -0.193 OA
ATOM     13  O   UNL d   1      -0.864  -4.274  -1.379  0.00  0.00    -0.193 OA
BRANCH  11  14
ATOM     14  C   UNL d   1       0.429  -5.750   0.308  0.00  0.00     0.086 A 
ATOM     15  C   UNL d   1       1.791  -5.915   0.559  0.00  0.00     0.026 A 
ATOM     16  C   UNL d   1       2.274  -7.188   0.884  0.00  0.00     0.008 A 
ATOM     17  C   UNL d   1       1.409  -8.293   0.953  0.00  0.00    -0.062 A 
ATOM     18  C   UNL d   1       0.046  -8.109   0.694  0.00  0.00     0.008 A 
ATOM     19  C   UNL d   1       1.939  -9.645   1.336  0.00  0.00     0.048 C 
ATOM     20  C   UNL d   1      -0.445  -6.844   0.370  0.00  0.00     0.026 A 
ENDBRANCH  11  14
ENDBRANCH  10  11
ENDBRANCH   2  10
BRANCH   1  21
ATOM     21  C   UNL d   1       3.417  -1.575  -0.040  0.00  0.00     0.302 C 
ATOM     22  O   UNL d   1       3.700  -2.766   0.021  0.00  0.00    -0.259 OA
BRANCH  21  23
ATOM     23  O   UNL d   1       4.357  -0.581  -0.035  0.00  0.00    -0.322 OA
ATOM     24  C   UNL d   1       5.705  -1.044   0.053  0.00  0.00     0.213 C 
ENDBRANCH  21  23
ENDBRANCH   1  21
TORSDOF 5
