REMARK  4 active torsions:
REMARK  status: ('A' for Active; 'I' for Inactive)
REMARK    1  A    between atoms: C_14  and  C_1 
REMARK    2  A    between atoms: C_2  and  C_6 
REMARK    3  A    between atoms: N_7  and  O_15 
REMARK    4  A    between atoms: O_15  and  C_14 
ROOT
ATOM      1  C   UNL d   1      -0.125   2.192   0.008  0.00  0.00     0.243 C 
ENDROOT
BRANCH   1   2
ATOM      2  C   UNL d   1      -0.155   0.683  -0.031  0.00  0.00     0.011 A 
ATOM      3  C   UNL d   1      -0.801   0.006  -1.085  0.00  0.00     0.044 A 
ATOM      4 CL   UNL d   1      -1.559   0.850  -2.394  0.00  0.00    -0.084 Cl
ATOM      5  C   UNL d   1      -0.847  -1.393  -1.132  0.00  0.00     0.024 A 
ATOM      6  C   UNL d   1      -0.242  -2.149  -0.135  0.00  0.00     0.003 A 
ATOM      7  C   UNL d   1       0.412  -1.503   0.909  0.00  0.00     0.024 A 
ATOM      8  C   UNL d   1       0.454  -0.103   0.965  0.00  0.00     0.044 A 
ATOM      9 CL   UNL d   1       1.300   0.585   2.308  0.00  0.00    -0.084 Cl
ENDBRANCH   1   2
BRANCH   1  10
ATOM     10  O   UNL d   1      -1.462   2.684   0.145  0.00  0.00    -0.276 OA
BRANCH  10  11
ATOM     11  N   UNL d   1      -1.438   4.091   0.139  0.00  0.00    -0.276 N 
ATOM     12  C   UNL d   1      -2.662   4.520   0.149  0.00  0.00     0.132 C 
ATOM     13  HN  UNL d   1      -0.601   4.673   0.128  1.00  0.00     0.193 HD
BRANCH  12  14
ATOM     14  C   UNL d   1      -2.962   5.929   0.184  0.00  0.00     0.022 A 
ATOM     15  S   UNL d   1      -4.597   6.429   0.263  0.00  0.00    -0.101 SA
ATOM     16  C   UNL d   1      -4.158   8.081   0.323  0.00  0.00     0.050 A 
ATOM     17  C   UNL d   1      -2.793   8.253   0.265  0.00  0.00     0.008 A 
ATOM     18  C   UNL d   1      -2.101   7.008   0.177  0.00  0.00     0.021 A 
ENDBRANCH  12  14
ENDBRANCH  10  11
ENDBRANCH   1  10
TORSDOF 4
