REMARK  6 active torsions:
REMARK  status: ('A' for Active; 'I' for Inactive)
REMARK    1  A    between atoms: O_14  and  C_3 
REMARK    2  A    between atoms: S_11  and  C_4 
REMARK    3  A    between atoms: C_8  and  C_10 
REMARK    4  A    between atoms: C_18  and  C_9 
REMARK    5  A    between atoms: C_10  and  S_11 
REMARK    6  A    between atoms: O_19  and  C_18 
ROOT
ATOM      1  N   UNL d   1      -0.632   1.214  -0.060  0.00  0.00    -0.317 N 
ATOM      2  HN  UNL d   1      -1.100   2.120  -0.066  1.00  0.00     0.170 HD
ATOM      3  C   UNL d   1      -1.306   0.060  -0.036  0.00  0.00     0.149 A 
ATOM      4  C   UNL d   1       0.699   1.094  -0.075  0.00  0.00     0.146 A 
ATOM      5  C   UNL d   1      -0.757  -1.203  -0.015  0.00  0.00     0.014 A 
ATOM      6  N   UNL d   1       1.362  -0.073  -0.047  0.00  0.00    -0.338 N 
ATOM      7  HN  UNL d   1       2.381  -0.100  -0.046  1.00  0.00     0.168 HD
ATOM      8  C   UNL d   1       0.630  -1.215  -0.021  0.00  0.00     0.045 A 
ATOM      9  C   UNL d   1      -1.588  -2.443   0.008  0.00  0.00     0.055 C 
ENDROOT
BRANCH   4  10
ATOM     10  S   UNL d   1       1.638   2.600  -0.087  0.00  0.00    -0.089 SA
BRANCH  10  11
ATOM     11  C   UNL d   1       3.162   1.984  -0.863  0.00  0.00     0.126 C 
BRANCH  11  12
ATOM     12  C   UNL d   1       4.184   3.075  -1.052  0.00  0.00     0.012 A 
ATOM     13  C   UNL d   1       5.179   3.251  -0.082  0.00  0.00     0.125 A 
ATOM     14  F   UNL d   1       5.211   2.450   0.993  0.00  0.00    -0.205 F 
ATOM     15  C   UNL d   1       6.161   4.232  -0.200  0.00  0.00     0.043 A 
ATOM     16  C   UNL d   1       6.163   5.075  -1.306  0.00  0.00     0.005 A 
ATOM     17  C   UNL d   1       5.178   4.930  -2.282  0.00  0.00     0.024 A 
ATOM     18  C   UNL d   1       4.193   3.940  -2.156  0.00  0.00     0.044 A 
ATOM     19 CL   UNL d   1       3.016   3.828  -3.416  0.00  0.00    -0.084 Cl
ENDBRANCH  11  12
ENDBRANCH  10  11
ENDBRANCH   4  10
BRANCH   3  20
ATOM     20  O   UNL d   1      -2.653   0.240  -0.017  0.00  0.00    -0.346 OA
ATOM     21  H   UNL d   1      -2.700   1.214  -0.033  0.00  0.00     0.219 HD
ENDBRANCH   3  20
BRANCH   8  22
ATOM     22  C   UNL d   1       1.426  -2.500   0.033  0.00  0.00     0.224 C 
BRANCH  22  23
ATOM     23  O   UNL d   1       1.192  -3.285  -1.136  0.00  0.00    -0.390 OA
ATOM     24  C   UNL d   1       2.014  -4.444  -1.153  0.00  0.00     0.201 C 
ENDBRANCH  22  23
ENDBRANCH   8  22
TORSDOF 6
