REMARK  3 active torsions:
REMARK  status: ('A' for Active; 'I' for Inactive)
REMARK    1  A    between atoms: C_7  and  S_1 
REMARK    2  A    between atoms: N_9  and  S_1 
REMARK    3  A    between atoms: C_10  and  N_9 
ROOT
ATOM      1  C   UNL d   1      -0.701  -2.182  -3.145  0.00  0.00     0.051 A 
ATOM      2  C   UNL d   1      -1.572  -2.108  -4.322  0.00  0.00     0.241 A 
ATOM      3  N   UNL d   1      -0.815  -4.448  -3.776  0.00  0.00    -0.318 N 
ATOM      4  S   UNL d   1      -1.747  -3.739  -4.982  0.00  0.00     0.032 SA
ATOM      5  C   UNL d   1      -0.265  -3.502  -2.919  0.00  0.00     0.055 A 
ATOM      6  C   UNL d   1       0.517  -1.361  -1.279  0.00  0.00     0.080 A 
ATOM      7  C   UNL d   1      -0.343  -1.103  -2.345  0.00  0.00     0.043 A 
ATOM      8  C   UNL d   1       0.613  -3.726  -1.866  0.00  0.00     0.032 A 
ATOM      9  O   UNL d   1      -2.063  -1.094  -4.783  0.00  0.00    -0.278 OA
ATOM     10  C   UNL d   1       1.007  -2.657  -1.046  0.00  0.00     0.027 A 
ATOM     11  C   UNL d   1      -0.420  -5.838  -3.860  0.00  0.00     0.165 C 
ENDROOT
BRANCH   6  12
ATOM     12  S   UNL d   1       0.937  -0.050  -0.151  0.00  0.00     0.259 S 
ATOM     13  O   UNL d   1       1.968  -0.543   0.734  0.00  0.00    -0.201 OA
ATOM     14  O   UNL d   1      -0.313   0.482   0.349  0.00  0.00    -0.201 OA
BRANCH  12  15
ATOM     15  N   UNL d   1       1.616   1.141  -1.119  0.00  0.00    -0.311 N 
ATOM     16  H   UNL d   1       0.997   1.931  -1.300  0.00  0.00     0.172 HD
BRANCH  15  17
ATOM     17  C   UNL d   1       2.637   0.789  -2.093  0.00  0.00     0.093 A 
ATOM     18  C   UNL d   1       3.320   1.863  -2.893  0.00  0.00     0.028 A 
ATOM     19  C   UNL d   1       2.365   0.921  -3.564  0.00  0.00     0.028 A 
ENDBRANCH  15  17
ENDBRANCH  12  15
ENDBRANCH   6  12
TORSDOF 3
