REMARK  4 active torsions:
REMARK  status: ('A' for Active; 'I' for Inactive)
REMARK    1  A    between atoms: N_2  and  C_1 
REMARK    2  A    between atoms: N_4  and  C_1 
REMARK    3  A    between atoms: C_3  and  N_2 
REMARK    4  A    between atoms: C_8  and  N_4 
ROOT
ATOM      1  N   UNL d   1       0.570   1.092   0.565  0.00  0.00    -0.333 N 
ATOM      2  H   UNL d   1      -0.433   1.102   0.673  0.00  0.00     0.168 HD
ENDROOT
BRANCH   1   3
ATOM      3  C   UNL d   1       1.038  -0.152   0.258  0.00  0.00     0.172 C 
ATOM      4  S   UNL d   1       2.132  -1.049   1.152  0.00  0.00    -0.041 SA
BRANCH   3   5
ATOM      5  N   UNL d   1       0.497  -0.740  -0.849  0.00  0.00    -0.359 N 
ATOM      6  H   UNL d   1       0.838  -1.687  -0.981  0.00  0.00     0.162 HD
BRANCH   5   7
ATOM      7  C   UNL d   1      -0.343  -0.188  -1.935  0.00  0.00     0.021 C 
ATOM      8  C   UNL d   1       0.183   1.162  -2.451  0.00  0.00     0.037 C 
ATOM      9  C   UNL d   1      -0.288  -1.184  -3.111  0.00  0.00     0.037 C 
ATOM     10  C   UNL d   1      -1.806  -0.054  -1.489  0.00  0.00     0.037 C 
ENDBRANCH   5   7
ENDBRANCH   3   5
ENDBRANCH   1   3
BRANCH   1  11
ATOM     11  C   UNL d   1       1.250   2.162   1.193  0.00  0.00     0.040 A 
ATOM     12  C   UNL d   1       2.572   2.543   0.906  0.00  0.00    -0.035 A 
ATOM     13  C   UNL d   1       3.130   3.633   1.607  0.00  0.00     0.015 A 
ATOM     14  C   UNL d   1       3.436   1.923  -0.158  0.00  0.00     0.050 C 
ATOM     15  C   UNL d   1       2.379   4.382   2.521  0.00  0.00    -0.061 A 
ATOM     16  C   UNL d   1       1.045   4.042   2.733  0.00  0.00     0.009 A 
ATOM     17  C   UNL d   1       3.010   5.538   3.235  0.00  0.00     0.048 C 
ATOM     18  C   UNL d   1       0.486   2.946   2.070  0.00  0.00     0.030 A 
ENDBRANCH   1  11
TORSDOF 4
