REMARK  8 active torsions:
REMARK  status: ('A' for Active; 'I' for Inactive)
REMARK    1  A    between atoms: C_2  and  N_1 
REMARK    2  A    between atoms: C_18  and  C_4 
REMARK    3  A    between atoms: O_15  and  C_5 
REMARK    4  A    between atoms: O_16  and  C_7 
REMARK    5  A    between atoms: C_10  and  C_14 
REMARK    6  A    between atoms: N_11  and  C_19 
REMARK    7  A    between atoms: O_17  and  C_13 
REMARK    8  A    between atoms: C_19  and  C_18 
ROOT
ATOM      1  C   UNL d   1       0.250   2.524  -1.055  0.00  0.00     0.112 A 
ATOM      2  C   UNL d   1       0.408   2.478  -2.451  0.00  0.00     0.076 A 
ATOM      3  C   UNL d   1      -0.572   1.620  -0.370  0.00  0.00    -0.021 A 
ATOM      4  C   UNL d   1      -0.247   1.503  -3.209  0.00  0.00     0.103 A 
ATOM      5  C   UNL d   1      -1.205   0.635  -1.143  0.00  0.00     0.049 A 
ATOM      6  C   UNL d   1      -1.058   0.563  -2.544  0.00  0.00     0.102 A 
ENDROOT
BRANCH   3   7
ATOM      7  C   UNL d   1      -0.831   1.666   1.119  0.00  0.00     0.060 C 
BRANCH   7   8
ATOM      8  C   UNL d   1       0.120   0.782   1.931  0.00  0.00     0.123 C 
BRANCH   8   9
ATOM      9  N   UNL d   1      -0.288   0.819   3.348  0.00  0.00    -0.398 N 
ATOM     10  C   UNL d   1       0.537   0.169   4.107  0.00  0.00     0.097 C 
ATOM     11  HN  UNL d   1      -1.120   1.299   3.690  1.00  0.00     0.158 HD
BRANCH  10  12
ATOM     12  C   UNL d   1       0.311   0.025   5.560  0.00  0.00     0.012 A 
ATOM     13  C   UNL d   1      -0.792   0.600   6.202  0.00  0.00     0.077 A 
ATOM     14  C   UNL d   1      -0.992   0.401   7.566  0.00  0.00     0.037 A 
ATOM     15  C   UNL d   1      -0.087  -0.371   8.296  0.00  0.00     0.003 A 
ATOM     16  C   UNL d   1       1.021  -0.937   7.663  0.00  0.00     0.001 A 
ATOM     17  C   UNL d   1       1.223  -0.739   6.295  0.00  0.00     0.015 A 
BRANCH  13  18
ATOM     18  O   UNL d   1      -1.715   1.365   5.543  0.00  0.00    -0.360 OA
ATOM     19  H   UNL d   1      -1.434   1.397   4.600  0.00  0.00     0.217 HD
ENDBRANCH  13  18
ENDBRANCH  10  12
ENDBRANCH   8   9
ENDBRANCH   7   8
ENDBRANCH   3   7
BRANCH   1  20
ATOM     20  N   UNL d   1       0.991   3.558  -0.350  0.00  0.00    -0.115 N 
ATOM     21  O   UNL d   1       0.783   4.731  -0.691  0.00  0.00    -0.532 OA
ATOM     22  O   UNL d   1       1.812   3.190   0.499  0.00  0.00    -0.532 OA
ENDBRANCH   1  20
BRANCH   6  23
ATOM     23  O   UNL d   1      -1.781  -0.473  -3.078  0.00  0.00    -0.353 OA
ATOM     24  C   UNL d   1      -1.758  -0.686  -4.481  0.00  0.00     0.210 C 
ENDBRANCH   6  23
BRANCH   4  25
ATOM     25  O   UNL d   1      -0.129   1.418  -4.570  0.00  0.00    -0.353 OA
ATOM     26  C   UNL d   1       0.627   2.411  -5.252  0.00  0.00     0.210 C 
ENDBRANCH   4  25
TORSDOF 8
