REMARK  3 active torsions:
REMARK  status: ('A' for Active; 'I' for Inactive)
REMARK    1  A    between atoms: C_4  and  N_1 
REMARK    2  A    between atoms: O_17  and  C_12 
REMARK    3  A    between atoms: O_18  and  C_14 
ROOT
ATOM      1  C   UNL d   1      -3.912   2.298  -1.507  0.00  0.00     0.139 C 
ATOM      2  C   UNL d   1      -3.499   1.078  -1.105  0.00  0.00     0.120 C 
ATOM      3  C   UNL d   1      -3.349   3.516  -1.040  0.00  0.00     0.112 C 
ATOM      4  C   UNL d   1      -5.004   2.388  -2.409  0.00  0.00     0.112 C 
ATOM      5  N   UNL d   1      -2.887   4.510  -0.652  0.00  0.00    -0.191 NA
ATOM      6  N   UNL d   1      -5.901   2.444  -3.149  0.00  0.00    -0.191 NA
ENDROOT
BRANCH   2   7
ATOM      7  N   UNL d   1      -2.479   0.631  -0.266  0.00  0.00    -0.379 N 
ATOM      8  C   UNL d   1      -1.297   1.435   0.119  0.00  0.00     0.113 C 
ATOM      9  C   UNL d   1      -0.012   0.626   0.056  0.00  0.00    -0.027 A 
ATOM     10  C   UNL d   1      -1.496   2.038   1.512  0.00  0.00     0.037 C 
ATOM     11  C   UNL d   1       1.210   1.317   0.086  0.00  0.00     0.049 A 
ATOM     12  C   UNL d   1      -0.002  -0.772  -0.025  0.00  0.00    -0.045 A 
ATOM     13  C   UNL d   1       2.432   0.639   0.069  0.00  0.00     0.102 A 
ATOM     14  C   UNL d   1       2.442  -0.763  -0.025  0.00  0.00     0.102 A 
ATOM     15  C   UNL d   1       1.224  -1.455  -0.076  0.00  0.00     0.047 A 
ATOM     16  C   UNL d   1      -1.293  -1.539  -0.144  0.00  0.00     0.059 C 
ATOM     17  C   UNL d   1      -2.498  -0.725   0.321  0.00  0.00     0.128 C 
BRANCH  13  18
ATOM     18  O   UNL d   1       3.643   1.288   0.098  0.00  0.00    -0.353 OA
ATOM     19  C   UNL d   1       3.647   2.576   0.709  0.00  0.00     0.210 C 
ENDBRANCH  13  18
BRANCH  14  20
ATOM     20  O   UNL d   1       3.674  -1.368  -0.056  0.00  0.00    -0.353 OA
ATOM     21  C   UNL d   1       3.700  -2.788  -0.122  0.00  0.00     0.210 C 
ENDBRANCH  14  20
ENDBRANCH   2   7
TORSDOF 3
