REMARK  7 active torsions:
REMARK  status: ('A' for Active; 'I' for Inactive)
REMARK       I    between atoms: N_4  and  C_1 
REMARK    1  A    between atoms: C_10  and  C_1 
REMARK    2  A    between atoms: C_2  and  C_5 
REMARK    3  A    between atoms: C_9  and  C_2 
REMARK    4  A    between atoms: C_3  and  C_11 
REMARK    5  A    between atoms: O_12  and  C_3 
REMARK    6  A    between atoms: C_5  and  N_4 
REMARK    7  A    between atoms: C_11  and  C_10 
ROOT
ATOM      1  C   UNL d   1       0.928   0.142   0.677  0.00  0.00     0.218 C 
ATOM      2  N   UNL d   1       0.232   1.209   0.170  0.00  0.00    -0.354 N 
ATOM      3  O   UNL d   1       2.042   0.254   1.187  0.00  0.00    -0.274 OA
ATOM      4  H   UNL d   1      -0.679   1.070  -0.277  0.00  0.00     0.162 HD
ENDROOT
BRANCH   2   5
ATOM      5  C   UNL d   1       0.857   2.511   0.036  0.00  0.00     0.206 C 
BRANCH   5   6
ATOM      6  C   UNL d   1      -0.145   3.659  -0.017  0.00  0.00     0.177 C 
ATOM      7  O   UNL d   1      -1.361   3.473  -0.015  0.00  0.00    -0.291 OA
BRANCH   6   8
ATOM      8  C   UNL d   1       0.393   5.055  -0.092  0.00  0.00     0.011 A 
ATOM      9  C   UNL d   1       1.769   5.323  -0.137  0.00  0.00     0.015 A 
ATOM     10  C   UNL d   1       2.228   6.642  -0.205  0.00  0.00     0.001 A 
ATOM     11  C   UNL d   1       1.321   7.699  -0.232  0.00  0.00     0.000 A 
ATOM     12  C   UNL d   1      -0.048   7.441  -0.190  0.00  0.00     0.001 A 
ATOM     13  C   UNL d   1      -0.511   6.125  -0.120  0.00  0.00     0.015 A 
ENDBRANCH   6   8
ENDBRANCH   5   6
ENDBRANCH   2   5
BRANCH   1  14
ATOM     14  C   UNL d   1       0.259  -1.208   0.536  0.00  0.00     0.113 C 
BRANCH  14  15
ATOM     15  C   UNL d   1      -0.969  -1.367   1.421  0.00  0.00     0.119 C 
BRANCH  15  16
ATOM     16  C   UNL d   1      -2.197  -0.748   0.803  0.00  0.00     0.139 C 
ATOM     17  O   UNL d   1      -2.206  -0.119  -0.244  0.00  0.00    -0.650 OA
BRANCH  16  18
ATOM     18  O   UNL d   1      -3.313  -0.964   1.532  0.00  0.00    -0.776 OA
ATOM     19  H   UNL d   1      -3.163  -1.470   2.353  0.00  0.00     0.167 HD
ENDBRANCH  16  18
ENDBRANCH  15  16
ENDBRANCH  14  15
ENDBRANCH   1  14
TORSDOF 7
