REMARK  4 active torsions:
REMARK  status: ('A' for Active; 'I' for Inactive)
REMARK    1  A    between atoms: C_15  and  N_4 
REMARK    2  A    between atoms: N_7  and  C_16 
REMARK    3  A    between atoms: C_14  and  C_15 
REMARK    4  A    between atoms: C_16  and  C_14 
ROOT
ATOM      1  C   UNL d   1      -3.394  -0.803  -0.248  0.00  0.00     0.170 C 
ATOM      2  N   UNL d   1      -2.536   0.235  -0.113  0.00  0.00    -0.342 N 
ATOM      3  N   UNL d   1      -2.842  -2.039  -0.220  0.00  0.00    -0.342 N 
ATOM      4  N   UNL d   1      -0.686  -1.197   0.258  0.00  0.00     0.122 N 
ATOM      5  C   UNL d   1      -1.122   0.083  -0.277  0.00  0.00     0.399 C 
ATOM      6  C   UNL d   1      -1.440  -2.247  -0.404  0.00  0.00     0.399 C 
ATOM      7  S   UNL d   1      -5.030  -0.578  -0.388  0.00  0.00    -0.041 SA
ATOM      8  H   UNL d   1      -2.941   1.159  -0.205  0.00  0.00     0.163 HD
ATOM      9  H   UNL d   1      -3.475  -2.812  -0.380  0.00  0.00     0.163 HD
ENDROOT
BRANCH   4  10
ATOM     10  C   UNL d   1      -0.729  -1.246   1.726  0.00  0.00     0.278 C 
BRANCH  10  11
ATOM     11  C   UNL d   1      -0.084  -2.511   2.310  0.00  0.00     0.050 C 
BRANCH  11  12
ATOM     12  C   UNL d   1       1.370  -2.675   1.870  0.00  0.00     0.131 C 
BRANCH  12  13
ATOM     13  N   UNL d   1       1.949  -3.908   2.363  0.00  0.00    -0.352 N 
ATOM     14  C   UNL d   1       1.938  -5.109   1.720  0.00  0.00     0.182 A 
ATOM     15  N   UNL d   1       2.563  -6.029   2.419  0.00  0.00    -0.361 N 
ATOM     16  C   UNL d   1       2.997  -5.394   3.550  0.00  0.00     0.106 A 
ATOM     17  HN  UNL d   1       2.695  -7.010   2.171  1.00  0.00     0.166 HD
ATOM     18  C   UNL d   1       2.628  -4.068   3.540  0.00  0.00     0.108 A 
ENDBRANCH  12  13
ENDBRANCH  11  12
ENDBRANCH  10  11
ENDBRANCH   4  10
TORSDOF 4
