REMARK  3 active torsions:
REMARK  status: ('A' for Active; 'I' for Inactive)
REMARK    1  A    between atoms: N_4  and  C_1 
REMARK    2  A    between atoms: N_2  and  N_4 
REMARK    3  A    between atoms: C_9  and  C_5 
ROOT
ATOM      1  N   UNL d   1       1.030   2.391   0.392  0.00  0.00    -0.302 N 
ATOM      2  HN  UNL d   1       0.491   1.540   0.233  1.00  0.00     0.186 HD
ATOM      3  C   UNL d   1       0.418   3.523   0.605  0.00  0.00     0.032 C 
ATOM      4  C   UNL d   1       1.099   4.856   0.857  0.00  0.00     0.070 C 
ENDROOT
BRANCH   1   5
ATOM      5  N   UNL d   1       2.393   2.347   0.383  0.00  0.00    -0.276 N 
ATOM      6  H   UNL d   1       2.958   3.176   0.511  0.00  0.00     0.189 HD
BRANCH   5   7
ATOM      7  C   UNL d   1       3.077   1.179   0.197  0.00  0.00     0.184 C 
ATOM      8  S   UNL d   1       4.735   1.125   0.195  0.00  0.00    -0.040 SA
ATOM      9  N   UNL d   1       2.325   0.071   0.019  0.00  0.00    -0.375 N 
ATOM     10  H   UNL d   1       1.321   0.192  -0.010  0.00  0.00     0.158 HD
ATOM     11  H   UNL d   1       2.748  -0.830  -0.152  0.00  0.00     0.158 HD
ENDBRANCH   5   7
ENDBRANCH   1   5
BRANCH   3  12
ATOM     12  C   UNL d   1      -1.091   3.524   0.601  0.00  0.00    -0.010 A 
ATOM     13  C   UNL d   1      -1.779   2.324   0.410  0.00  0.00     0.030 A 
ATOM     14  C   UNL d   1      -3.163   2.348   0.416  0.00  0.00     0.088 A 
ATOM     15  N   UNL d   1      -3.893   3.467   0.599  0.00  0.00    -0.375 N 
ATOM     16  C   UNL d   1      -3.210   4.616   0.779  0.00  0.00     0.088 A 
ATOM     17  HN  UNL d   1      -4.913   3.446   0.600  1.00  0.00     0.164 HD
ATOM     18  C   UNL d   1      -1.828   4.697   0.788  0.00  0.00     0.030 A 
ENDBRANCH   3  12
TORSDOF 3
