REMARK  4 active torsions:
REMARK  status: ('A' for Active; 'I' for Inactive)
REMARK    1  A    between atoms: C_5  and  C_1 
REMARK    2  A    between atoms: N_9  and  C_2 
REMARK    3  A    between atoms: C_7  and  N_10 
REMARK       I    between atoms: C_11  and  N_9 
REMARK    4  A    between atoms: N_10  and  N_12 
REMARK       I    between atoms: N_12  and  C_11 
ROOT
ATOM      1  N   UNL d   1       0.434  -2.403  -0.054  0.00  0.00    -0.308 N 
ATOM      2  C   UNL d   1       1.015  -3.213   0.867  0.00  0.00     0.313 C 
ATOM      3  N   UNL d   1       0.707  -3.010   2.198  0.00  0.00    -0.172 NA
ATOM      4  O   UNL d   1       1.682  -4.178   0.490  0.00  0.00    -0.252 OA
ATOM      5  H   UNL d   1       0.257  -2.918  -0.910  0.00  0.00     0.170 HD
ATOM      6  H   UNL d   1      -0.125  -2.456   2.385  0.00  0.00     0.152 HD
ENDROOT
BRANCH   1   7
ATOM      7  C   UNL d   1      -0.298  -1.249   0.133  0.00  0.00     0.097 C 
ATOM      8  C   UNL d   1      -1.670  -0.983  -0.184  0.00  0.00     0.097 C 
ATOM      9  N   UNL d   1      -1.886   0.343  -0.147  0.00  0.00    -0.258 N 
ATOM     10  O   UNL d   1      -0.730   0.922   0.320  0.00  0.00    -0.240 OA
ATOM     11  HN  UNL d   1      -2.743   0.827  -0.414  1.00  0.00     0.195 HD
ATOM     12  C   UNL d   1       0.220  -0.029   0.506  0.00  0.00     0.101 C 
ATOM     13  C   UNL d   1       1.542   0.474   0.917  0.00  0.00     0.081 C 
BRANCH   8  14
ATOM     14  C   UNL d   1      -2.792  -1.915  -0.395  0.00  0.00     0.038 A 
ATOM     15  C   UNL d   1      -3.999  -1.745   0.330  0.00  0.00     0.048 A 
ATOM     16 CL   UNL d   1      -4.261  -0.482   1.495  0.00  0.00    -0.083 Cl
ATOM     17  C   UNL d   1      -5.072  -2.637   0.187  0.00  0.00     0.025 A 
ATOM     18  C   UNL d   1      -4.958  -3.744  -0.642  0.00  0.00     0.003 A 
ATOM     19  C   UNL d   1      -3.781  -3.940  -1.358  0.00  0.00     0.025 A 
ATOM     20  C   UNL d   1      -2.719  -3.024  -1.260  0.00  0.00     0.048 A 
ATOM     21 CL   UNL d   1      -1.378  -3.336  -2.312  0.00  0.00    -0.083 Cl
ENDBRANCH   8  14
ENDBRANCH   1   7
BRANCH   3  22
ATOM     22  N   UNL d   1       0.736  -4.229   2.929  0.00  0.00    -0.214 NA
ATOM     23  H   UNL d   1       1.530  -4.811   2.620  0.00  0.00     0.147 HD
BRANCH  22  24
ATOM     24  C   UNL d   1       0.669  -4.150   4.342  0.00  0.00     0.083 A 
ATOM     25  C   UNL d   1       1.390  -5.120   5.068  0.00  0.00     0.140 A 
ATOM     26  F   UNL d   1       2.185  -5.977   4.404  0.00  0.00    -0.204 F 
ATOM     27  C   UNL d   1       1.308  -5.239   6.454  0.00  0.00     0.044 A 
ATOM     28  C   UNL d   1       0.473  -4.386   7.162  0.00  0.00     0.005 A 
ATOM     29  C   UNL d   1      -0.273  -3.427   6.476  0.00  0.00     0.026 A 
ATOM     30  C   UNL d   1      -0.188  -3.316   5.076  0.00  0.00     0.059 A 
ATOM     31 CL   UNL d   1      -1.242  -2.160   4.328  0.00  0.00    -0.082 Cl
ENDBRANCH  22  24
ENDBRANCH   3  22
TORSDOF 4
