REMARK  7 active torsions:
REMARK  status: ('A' for Active; 'I' for Inactive)
REMARK    1  A    between atoms: C_2  and  CA_1 
REMARK    2  A    between atoms: N_3  and  CA_1 
REMARK    3  A    between atoms: CB_5  and  CA_1 
REMARK    4  A    between atoms: OXT_6  and  C_2 
REMARK       I    between atoms: C_12  and  N_3 
REMARK    5  A    between atoms: CG_7  and  CB_5 
REMARK    6  A    between atoms: CA_15  and  C_12 
REMARK    7  A    between atoms: N_14  and  CA_15 
ROOT
ATOM      1  CA  LEU d   2       0.981  -0.170   0.082  0.00  0.00     0.182 C 
ENDROOT
BRANCH   1   2
ATOM      2  C   LEU d   2       0.528  -1.402   0.871  0.00  0.00     0.163 C 
ATOM      3  O   LEU d   2       0.696  -1.544   2.075  0.00  0.00    -0.648 OA
BRANCH   2   4
ATOM      4  OXT LEU d   2      -0.112  -2.332   0.123  0.00  0.00    -0.775 OA
ATOM      5  HXT LEU d   2      -0.256  -2.072  -0.807  0.00  0.00     0.167 HD
ENDBRANCH   2   4
ENDBRANCH   1   2
BRANCH   1   6
ATOM      6  N   LEU d   2       0.443   1.001   0.760  0.00  0.00    -0.345 N 
ATOM      7  C   GLY d   1       0.225   2.199   0.125  0.00  0.00     0.246 C 
ATOM      8  O   GLY d   1       0.454   2.372  -1.069  0.00  0.00    -0.272 OA
ATOM      9  H   LEU d   2       0.169   0.947   1.742  0.00  0.00     0.163 HD
BRANCH   7  10
ATOM     10  CA  GLY d   1      -0.346   3.302   1.023  0.00  0.00     0.368 C 
BRANCH  10  11
ATOM     11  N   GLY d   1      -0.363   2.894   2.442  0.00  0.00     0.087 N 
ATOM     12  H1  GLY d   1      -0.792   3.646   2.984  0.00  0.00     0.313 HD
ATOM     13  H2  GLY d   1       0.603   2.841   2.775  0.00  0.00     0.313 HD
ENDBRANCH  10  11
ENDBRANCH   7  10
ENDBRANCH   1   6
BRANCH   1  14
ATOM     14  CB  LEU d   2       2.515  -0.102   0.002  0.00  0.00     0.040 C 
BRANCH  14  15
ATOM     15  CG  LEU d   2       3.178  -1.273  -0.752  0.00  0.00    -0.020 C 
ATOM     16  CD1 LEU d   2       2.729  -1.359  -2.212  0.00  0.00     0.009 C 
ATOM     17  CD2 LEU d   2       4.702  -1.133  -0.695  0.00  0.00     0.009 C 
ENDBRANCH  14  15
ENDBRANCH   1  14
TORSDOF 7
