REMARK  5 active torsions:
REMARK  status: ('A' for Active; 'I' for Inactive)
REMARK    1  A    between atoms: C_6  and  N_1 
REMARK    2  A    between atoms: C_8  and  C_2 
REMARK    3  A    between atoms: C_16  and  C_3 
REMARK    4  A    between atoms: O_15  and  C_8 
REMARK    5  A    between atoms: C_19  and  C_16 
ROOT
ATOM      1  N   UNL d   1       0.939  -0.640  -0.060  0.00  0.00    -0.260 N 
ATOM      2  C   UNL d   1      -0.330   1.194  -0.017  0.00  0.00     0.079 C 
ATOM      3  C   UNL d   1       0.997   0.753  -0.007  0.00  0.00     0.053 C 
ATOM      4  N   UNL d   1      -0.330  -1.058  -0.319  0.00  0.00    -0.304 N 
ATOM      5  HN  UNL d   1      -0.634  -1.998  -0.571  1.00  0.00     0.186 HD
ATOM      6  C   UNL d   1      -1.085   0.021  -0.172  0.00  0.00     0.128 C 
ENDROOT
BRANCH   1   7
ATOM      7  C   UNL d   1       1.929  -1.645   0.157  0.00  0.00     0.059 A 
ATOM      8  C   UNL d   1       3.082  -1.405   0.910  0.00  0.00     0.055 A 
ATOM      9  C   UNL d   1       3.979  -2.447   1.163  0.00  0.00     0.037 A 
ATOM     10 CL   UNL d   1       5.383  -2.140   2.111  0.00  0.00    -0.084 Cl
ATOM     11  C   UNL d   1       3.743  -3.732   0.683  0.00  0.00     0.048 A 
ATOM     12  C   UNL d   1       2.597  -3.973  -0.065  0.00  0.00     0.037 A 
ATOM     13  C   UNL d   1       1.691  -2.945  -0.328  0.00  0.00     0.055 A 
ATOM     14 CL   UNL d   1       2.286  -5.558  -0.658  0.00  0.00    -0.084 Cl
ENDBRANCH   1   7
BRANCH   3  15
ATOM     15  C   UNL d   1       2.242   1.600   0.010  0.00  0.00     0.060 C 
BRANCH  15  16
ATOM     16  C   UNL d   1       3.214   1.363  -1.150  0.00  0.00     0.002 C 
ATOM     17  C   UNL d   1       2.608   1.629  -2.521  0.00  0.00     0.005 C 
ENDBRANCH  15  16
ENDBRANCH   3  15
BRANCH   2  18
ATOM     18  C   UNL d   1      -0.813   2.560   0.115  0.00  0.00     0.179 C 
ATOM     19  O   UNL d   1      -0.208   3.439   0.707  0.00  0.00    -0.646 OA
BRANCH  18  20
ATOM     20  O   UNL d   1      -2.007   2.800  -0.482  0.00  0.00    -0.773 OA
ATOM     21  H   UNL d   1      -2.326   2.070  -1.038  0.00  0.00     0.167 HD
ENDBRANCH  18  20
ENDBRANCH   2  18
TORSDOF 5
