REMARK  3 active torsions:
REMARK  status: ('A' for Active; 'I' for Inactive)
REMARK    1  A    between atoms: C_4  and  C_1 
REMARK    2  A    between atoms: C_3  and  C_2 
REMARK    3  A    between atoms: O_8  and  C_3 
ROOT
ATOM      1  C   UNL d   1       2.394   0.011  -0.118  0.00  0.00     0.029 A 
ATOM      2  C   UNL d   1       3.123  -1.208  -0.110  0.00  0.00    -0.007 A 
ATOM      3  C   UNL d   1       4.538  -1.146  -0.071  0.00  0.00    -0.025 A 
ATOM      4  C   UNL d   1       4.451   1.287  -0.084  0.00  0.00     0.002 A 
ATOM      5  C   UNL d   1       3.061   1.242  -0.114  0.00  0.00     0.021 A 
ATOM      6  C   UNL d   1       2.518  -2.487  -0.141  0.00  0.00     0.014 A 
ATOM      7  C   UNL d   1       5.183   0.101  -0.053  0.00  0.00     0.012 A 
ATOM      8  C   UNL d   1       5.290  -2.333  -0.055  0.00  0.00     0.012 A 
ATOM      9  C   UNL d   1       3.281  -3.657  -0.143  0.00  0.00     0.001 A 
ATOM     10  C   UNL d   1       4.667  -3.579  -0.097  0.00  0.00     0.001 A 
ENDROOT
BRANCH   1  11
ATOM     11  C   UNL d   1       0.958   0.023  -0.116  0.00  0.00    -0.055 C 
ATOM     12  C   UNL d   1      -0.244  -0.002  -0.083  0.00  0.00     0.007 C 
BRANCH  12  13
ATOM     13  C   UNL d   1      -1.680  -0.067  -0.022  0.00  0.00     0.225 C 
ATOM     14  O   UNL d   1      -2.255  -0.737   0.819  0.00  0.00    -0.639 OA
BRANCH  13  15
ATOM     15  O   UNL d   1      -2.305   0.663  -0.971  0.00  0.00    -0.767 OA
ATOM     16  H   UNL d   1      -1.666   1.117  -1.552  0.00  0.00     0.168 HD
ENDBRANCH  13  15
ENDBRANCH  12  13
ENDBRANCH   1  11
TORSDOF 3
