REMARK  2 active torsions:
REMARK  status: ('A' for Active; 'I' for Inactive)
REMARK    1  A    between atoms: C_12  and  C_3 
REMARK       I    between atoms: N_15  and  C_12 
REMARK    2  A    between atoms: N_17  and  N_15 
ROOT
ATOM      1  N   UNL d   1      -0.206  -0.713  -0.011  0.00  0.00    -0.241 N 
ATOM      2  C   UNL d   1      -0.123   0.671  -0.010  0.00  0.00     0.143 A 
ATOM      3  C   UNL d   1       2.121  -0.801   0.035  0.00  0.00     0.141 A 
ATOM      4  C   UNL d   1       0.955  -1.493   0.009  0.00  0.00     0.066 A 
ATOM      5  N   UNL d   1       2.142   0.591   0.019  0.00  0.00    -0.292 N 
ATOM      6  HN  UNL d   1       3.044   1.068   0.025  1.00  0.00     0.187 HD
ATOM      7  N   UNL d   1       1.091   1.283  -0.003  0.00  0.00    -0.283 N 
ATOM      8  HN  UNL d   1       1.149   2.301  -0.015  1.00  0.00     0.188 HD
ATOM      9  N   UNL d   1      -1.501  -1.127  -0.020  0.00  0.00    -0.297 N 
ATOM     10  HN  UNL d   1      -1.845  -2.087  -0.031  1.00  0.00     0.187 HD
ATOM     11  C   UNL d   1      -1.412   1.145  -0.011  0.00  0.00     0.077 A 
ATOM     12  C   UNL d   1      -2.227  -0.005  -0.013  0.00  0.00     0.026 A 
ATOM     13  C   UNL d   1       0.736  -2.978   0.004  0.00  0.00     0.073 C 
ATOM     14  C   UNL d   1      -3.708  -0.069  -0.006  0.00  0.00     0.070 C 
ENDROOT
BRANCH   3  15
ATOM     15  C   UNL d   1       3.474  -1.471   0.105  0.00  0.00     0.285 C 
ATOM     16  O   UNL d   1       3.651  -2.682   0.195  0.00  0.00    -0.265 OA
ATOM     17  N   UNL d   1       4.540  -0.578   0.077  0.00  0.00    -0.288 N 
ATOM     18  H   UNL d   1       4.370   0.418  -0.062  0.00  0.00     0.183 HD
BRANCH  17  19
ATOM     19  N   UNL d   1       5.866  -1.066   0.101  0.00  0.00    -0.247 NA
ATOM     20  H   UNL d   1       5.811  -2.080  -0.078  0.00  0.00     0.143 HD
ATOM     21  H   UNL d   1       6.204  -1.010   1.065  0.00  0.00     0.143 HD
ENDBRANCH  17  19
ENDBRANCH   3  15
TORSDOF 2
