REMARK  8 active torsions:
REMARK  status: ('A' for Active; 'I' for Inactive)
REMARK    1  A    between atoms: N_2  and  C_1 
REMARK    2  A    between atoms: C_3  and  C_1 
REMARK    3  A    between atoms: C_5  and  C_1 
REMARK    4  A    between atoms: N_6  and  C_1 
REMARK       I    between atoms: C_4  and  N_2 
REMARK    5  A    between atoms: C_8  and  C_4 
REMARK    6  A    between atoms: O_13  and  C_5 
REMARK    7  A    between atoms: C_14  and  N_6 
REMARK    8  A    between atoms: C_17  and  O_13 
ROOT
ATOM      1  C   UNL d   1       0.957  -0.008  -0.054  0.00  0.00     0.416 C 
ENDROOT
BRANCH   1   2
ATOM      2  N   UNL d   1       0.461   0.579  -1.317  0.00  0.00    -0.306 N 
ATOM      3  C   UNL d   1       0.538  -0.087  -2.517  0.00  0.00     0.254 C 
ATOM      4  O   UNL d   1       1.124  -1.155  -2.641  0.00  0.00    -0.268 OA
ATOM      5  H   UNL d   1      -0.231   1.312  -1.209  0.00  0.00     0.166 HD
BRANCH   3   6
ATOM      6  C   UNL d   1      -0.144   0.554  -3.672  0.00  0.00     0.032 A 
ATOM      7  C   UNL d   1      -0.256   1.948  -3.774  0.00  0.00     0.017 A 
ATOM      8  C   UNL d   1      -0.881   2.520  -4.885  0.00  0.00     0.001 A 
ATOM      9  C   UNL d   1      -1.392   1.705  -5.896  0.00  0.00     0.000 A 
ATOM     10  C   UNL d   1      -1.278   0.319  -5.801  0.00  0.00     0.001 A 
ATOM     11  C   UNL d   1      -0.653  -0.258  -4.694  0.00  0.00     0.017 A 
ENDBRANCH   3   6
ENDBRANCH   1   2
BRANCH   1  12
ATOM     12  C   UNL d   1       0.331  -1.437   0.259  0.00  0.00     0.453 C 
ATOM     13  F   UNL d   1      -0.732  -1.703  -0.551  0.00  0.00    -0.166 F 
ATOM     14  F   UNL d   1       1.230  -2.437   0.074  0.00  0.00    -0.166 F 
ATOM     15  F   UNL d   1      -0.141  -1.570   1.520  0.00  0.00    -0.166 F 
ENDBRANCH   1  12
BRANCH   1  16
ATOM     16  C   UNL d   1       0.474   0.828   1.157  0.00  0.00     0.329 C 
ATOM     17  O   UNL d   1       0.870   0.715   2.314  0.00  0.00    -0.260 OA
BRANCH  16  18
ATOM     18  O   UNL d   1      -0.478   1.741   0.768  0.00  0.00    -0.318 OA
BRANCH  18  19
ATOM     19  C   UNL d   1      -0.989   2.578   1.815  0.00  0.00     0.174 C 
ATOM     20  C   UNL d   1      -2.114   1.865   2.539  0.00  0.00     0.034 C 
ENDBRANCH  18  19
ENDBRANCH  16  18
ENDBRANCH   1  16
BRANCH   1  21
ATOM     21  N   UNL d   1       2.450   0.017  -0.139  0.00  0.00     0.136 N 
ATOM     22  H   UNL d   1       2.685  -0.685  -0.852  0.00  0.00     0.320 HD
BRANCH  21  23
ATOM     23  C   UNL d   1       3.128   1.276  -0.470  0.00  0.00     0.216 C 
ATOM     24  C   UNL d   1       3.023   2.356   0.608  0.00  0.00     0.042 C 
ATOM     25  C   UNL d   1       4.612   0.949  -0.684  0.00  0.00     0.042 C 
ENDBRANCH  21  23
ENDBRANCH   1  21
TORSDOF 8
