REMARK  6 active torsions:
REMARK  status: ('A' for Active; 'I' for Inactive)
REMARK    1  A    between atoms: C_6  and  C_1 
REMARK    2  A    between atoms: C_13  and  N_4 
REMARK    3  A    between atoms: C_11  and  C_5 
REMARK    4  A    between atoms: C_12  and  C_5 
REMARK    5  A    between atoms: N_7  and  N_14 
REMARK    6  A    between atoms: N_14  and  C_22 
ROOT
ATOM      1  C   UNL d   1       1.959   1.515  -0.059  0.00  0.00     0.056 A 
ATOM      2  C   UNL d   1       2.941   1.367  -1.052  0.00  0.00     0.034 A 
ATOM      3  C   UNL d   1       2.121   2.501   0.916  0.00  0.00     0.034 A 
ATOM      4  C   UNL d   1       4.275   3.131  -0.032  0.00  0.00     0.048 A 
ATOM      5  C   UNL d   1       3.259   3.304   0.917  0.00  0.00     0.033 A 
ATOM      6  C   UNL d   1       4.083   2.187  -1.044  0.00  0.00     0.033 A 
ENDROOT
BRANCH   4   7
ATOM      7  N   UNL d   1       5.386   3.997   0.057  0.00  0.00    -0.300 N 
ATOM      8  H   UNL d   1       5.515   4.274   1.031  0.00  0.00     0.187 HD
BRANCH   7   9
ATOM      9  N   UNL d   1       6.473   3.771  -0.723  0.00  0.00    -0.294 N 
ATOM     10  C   UNL d   1       7.596   4.352  -0.397  0.00  0.00     0.139 C 
ATOM     11  HN  UNL d   1       6.414   3.164  -1.540  1.00  0.00     0.187 HD
BRANCH  10  12
ATOM     12  C   UNL d   1       7.757   5.272   0.793  0.00  0.00     0.177 C 
ATOM     13  O   UNL d   1       8.559   4.957   1.663  0.00  0.00    -0.291 OA
ATOM     14  C   UNL d   1       6.866   6.478   0.888  0.00  0.00     0.098 C 
ENDBRANCH  10  12
BRANCH  10  15
ATOM     15  C   UNL d   1       8.798   4.037  -1.253  0.00  0.00     0.177 C 
ATOM     16  O   UNL d   1       9.551   4.948  -1.558  0.00  0.00    -0.291 OA
ATOM     17  C   UNL d   1       9.023   2.596  -1.616  0.00  0.00     0.098 C 
ENDBRANCH  10  15
ENDBRANCH   7   9
ENDBRANCH   4   7
BRANCH   1  18
ATOM     18  N   UNL d   1       0.812   0.671  -0.037  0.00  0.00    -0.267 N 
ATOM     19  N   UNL d   1       0.635  -0.317  -0.951  0.00  0.00    -0.290 N 
ATOM     20  C   UNL d   1      -0.527  -0.912  -0.616  0.00  0.00     0.134 A 
ATOM     21  HN  UNL d   1       1.251  -0.558  -1.728  1.00  0.00     0.187 HD
ATOM     22  C   UNL d   1      -1.103  -0.295   0.519  0.00  0.00     0.055 A 
ATOM     23  C   UNL d   1      -0.230   0.704   0.865  0.00  0.00     0.119 A 
BRANCH  20  24
ATOM     24  C   UNL d   1      -1.119  -2.079  -1.360  0.00  0.00     0.434 C 
ATOM     25  F   UNL d   1      -0.371  -2.500  -2.412  0.00  0.00    -0.165 F 
ATOM     26  F   UNL d   1      -1.287  -3.154  -0.541  0.00  0.00    -0.165 F 
ATOM     27  F   UNL d   1      -2.354  -1.779  -1.849  0.00  0.00    -0.165 F 
ENDBRANCH  20  24
ENDBRANCH   1  18
TORSDOF 6
