REMARK  2 active torsions:
REMARK  status: ('A' for Active; 'I' for Inactive)
REMARK    1  A    between atoms: C_15  and  N_8 
REMARK    2  A    between atoms: C_18  and  C_15 
ROOT
ATOM      1  C   UNL d   1       0.087  -0.740   0.036  0.00  0.00     0.101 A 
ATOM      2  C   UNL d   1       0.035   0.603   0.050  0.00  0.00     0.077 A 
ATOM      3  N   UNL d   1       1.310  -1.376  -0.067  0.00  0.00    -0.293 N 
ATOM      4  N   UNL d   1       2.460   0.685  -0.019  0.00  0.00    -0.270 N 
ATOM      5  C   UNL d   1       2.529  -0.696  -0.096  0.00  0.00     0.332 A 
ATOM      6  C   UNL d   1       1.279   1.396   0.043  0.00  0.00     0.262 A 
ATOM      7  N   UNL d   1      -1.106  -1.446   0.128  0.00  0.00    -0.252 NA
ATOM      8  N   UNL d   1      -2.444   0.571  -0.346  0.00  0.00     0.110 N 
ATOM      9  C   UNL d   1      -1.265   1.367   0.071  0.00  0.00     0.322 C 
ATOM     10  C   UNL d   1      -2.359  -0.730   0.304  0.00  0.00     0.369 C 
ATOM     11  O   UNL d   1       3.602  -1.297  -0.177  0.00  0.00    -0.246 OA
ATOM     12  O   UNL d   1       1.224   2.623   0.108  0.00  0.00    -0.267 OA
ATOM     13  C   UNL d   1       1.408  -2.829  -0.087  0.00  0.00     0.162 C 
ATOM     14  C   UNL d   1       3.693   1.448   0.011  0.00  0.00     0.164 C 
ATOM     15  H   UNL d   1      -1.173  -2.143  -0.608  0.00  0.00     0.130 HD
ENDROOT
BRANCH   8  16
ATOM     16  C   UNL d   1      -3.682   1.288  -0.012  0.00  0.00     0.313 C 
BRANCH  16  17
ATOM     17  C   UNL d   1      -4.945   0.581  -0.452  0.00  0.00    -0.028 A 
ATOM     18  C   UNL d   1      -5.905   0.186   0.486  0.00  0.00     0.026 A 
ATOM     19  C   UNL d   1      -7.061  -0.434   0.037  0.00  0.00     0.088 A 
ATOM     20  N   UNL d   1      -7.322  -0.686  -1.262  0.00  0.00    -0.375 N 
ATOM     21  C   UNL d   1      -6.383  -0.302  -2.153  0.00  0.00     0.088 A 
ATOM     22  HN  UNL d   1      -8.185  -1.143  -1.557  1.00  0.00     0.164 HD
ATOM     23  C   UNL d   1      -5.195   0.322  -1.803  0.00  0.00     0.026 A 
ENDBRANCH  16  17
ENDBRANCH   8  16
TORSDOF 2
