REMARK  1 active torsions:
REMARK  status: ('A' for Active; 'I' for Inactive)
REMARK    1  A    between atoms: N_8  and  N_5 
REMARK       I    between atoms: C_10  and  N_8 
ROOT
ATOM      1  C   UNL d   1       1.409   0.946   0.016  0.00  0.00     0.129 A 
ATOM      2  C   UNL d   1      -0.016   0.392  -0.042  0.00  0.00     0.275 A 
ATOM      3  C   UNL d   1       2.290  -0.209  -0.028  0.00  0.00     0.027 A 
ATOM      4  N   UNL d   1       0.126  -0.979  -0.118  0.00  0.00    -0.321 N 
ATOM      5  N   UNL d   1       1.816   2.171   0.085  0.00  0.00    -0.292 N 
ATOM      6  HN  UNL d   1       2.810   2.396   0.116  1.00  0.00     0.187 HD
ATOM      7  C   UNL d   1       1.472  -1.336  -0.112  0.00  0.00     0.048 A 
ATOM      8  C   UNL d   1       3.666  -0.279  -0.005  0.00  0.00     0.058 A 
ATOM      9  O   UNL d   1      -1.026   1.062  -0.023  0.00  0.00    -0.266 OA
ATOM     10  C   UNL d   1       2.013  -2.603  -0.177  0.00  0.00     0.033 A 
ATOM     11  C   UNL d   1       4.216  -1.553  -0.070  0.00  0.00     0.117 A 
ATOM     12  C   UNL d   1       3.411  -2.704  -0.156  0.00  0.00     0.044 A 
ATOM     13  F   UNL d   1       5.548  -1.690  -0.051  0.00  0.00    -0.206 F 
ATOM     14  H   UNL d   1      -0.658  -1.614  -0.170  0.00  0.00     0.169 HD
ENDROOT
BRANCH   5  15
ATOM     15  N   UNL d   1       0.873   3.147   0.113  0.00  0.00    -0.270 N 
ATOM     16  C   UNL d   1       1.200   4.480   0.172  0.00  0.00     0.232 C 
ATOM     17  O   UNL d   1       0.326   5.347   0.192  0.00  0.00    -0.272 OA
ATOM     18  C   UNL d   1       2.666   4.845   0.209  0.00  0.00     0.119 C 
ATOM     19  H   UNL d   1      -0.120   2.910   0.086  0.00  0.00     0.190 HD
ENDBRANCH   5  15
TORSDOF 1
