REMARK  5 active torsions:
REMARK  status: ('A' for Active; 'I' for Inactive)
REMARK    1  A    between atoms: C_7  and  C_1 
REMARK       I    between atoms: N_8  and  C_1 
REMARK    2  A    between atoms: C_2  and  N_9 
REMARK    3  A    between atoms: C_3  and  C_4 
REMARK    4  A    between atoms: C_12  and  C_10 
REMARK    5  A    between atoms: O_25  and  C_12 
ROOT
ATOM      1  C   UNL d   1       0.767  -0.271  -0.090  0.00  0.00     0.255 C 
ATOM      2  N   UNL d   1       0.343   0.337  -1.268  0.00  0.00    -0.345 N 
ATOM      3  N   UNL d   1      -0.593   1.240  -3.799  0.00  0.00    -0.363 N 
ATOM      4  O   UNL d   1       1.570  -1.203  -0.062  0.00  0.00    -0.267 OA
ATOM      5  C   UNL d   1       0.736  -0.330  -2.525  0.00  0.00     0.146 C 
ATOM      6  C   UNL d   1      -0.795   1.281  -1.364  0.00  0.00     0.146 C 
ATOM      7  C   UNL d   1       0.738   0.622  -3.731  0.00  0.00     0.144 C 
ATOM      8  C   UNL d   1      -0.828   2.131  -2.655  0.00  0.00     0.144 C 
ENDROOT
BRANCH   1   9
ATOM      9  C   UNL d   1       0.295   0.198   1.225  0.00  0.00     0.049 A 
ATOM     10  C   UNL d   1       1.190   0.624   2.221  0.00  0.00     0.053 A 
ATOM     11  C   UNL d   1       0.655   1.046   3.456  0.00  0.00     0.019 A 
ATOM     12  C   UNL d   1      -0.720   1.021   3.702  0.00  0.00     0.001 A 
ATOM     13  C   UNL d   1      -1.589   0.548   2.727  0.00  0.00     0.001 A 
ATOM     14  C   UNL d   1      -1.082   0.117   1.502  0.00  0.00     0.018 A 
BRANCH  10  15
ATOM     15  C   UNL d   1       2.675   0.747   2.099  0.00  0.00     0.177 C 
ATOM     16  O   UNL d   1       3.290   1.529   2.814  0.00  0.00    -0.646 OA
BRANCH  15  17
ATOM     17  O   UNL d   1       3.325  -0.052   1.239  0.00  0.00    -0.773 OA
ATOM     18  H   UNL d   1       2.793  -0.730   0.757  0.00  0.00     0.167 HD
ENDBRANCH  15  17
ENDBRANCH  10  15
ENDBRANCH   1   9
BRANCH   3  19
ATOM     19  C   UNL d   1      -1.133   1.581  -5.027  0.00  0.00     0.125 A 
ATOM     20  N   UNL d   1      -1.567   2.858  -5.187  0.00  0.00    -0.350 N 
ATOM     21  C   UNL d   1      -2.206   3.202  -6.332  0.00  0.00     0.106 A 
ATOM     22  HN  UNL d   1      -1.413   3.550  -4.454  1.00  0.00     0.166 HD
ATOM     23  C   UNL d   1      -2.449   2.330  -7.379  0.00  0.00     0.065 A 
ATOM     24  C   UNL d   1      -2.001   1.020  -7.227  0.00  0.00     0.045 A 
ATOM     25  C   UNL d   1      -1.354   0.634  -6.049  0.00  0.00     0.078 A 
ATOM     26 CL   UNL d   1      -1.007  -1.056  -5.887  0.00  0.00    -0.080 Cl
BRANCH  23  27
ATOM     27  C   UNL d   1      -3.213   2.785  -8.579  0.00  0.00     0.418 C 
ATOM     28  F   UNL d   1      -3.315   1.832  -9.547  0.00  0.00    -0.166 F 
ATOM     29  F   UNL d   1      -4.489   3.146  -8.276  0.00  0.00    -0.166 F 
ATOM     30  F   UNL d   1      -2.648   3.868  -9.178  0.00  0.00    -0.166 F 
ENDBRANCH  23  27
ENDBRANCH   3  19
TORSDOF 5
