REMARK  2 active torsions:
REMARK  status: ('A' for Active; 'I' for Inactive)
REMARK    1  A    between atoms: C_2  and  C_1 
REMARK       I    between atoms: N_3  and  C_1 
REMARK    2  A    between atoms: C_4  and  C_5 
ROOT
ATOM      1  C   UNL d   1       0.386  -0.792  -1.004  0.00  0.00     0.032 A 
ATOM      2  C   UNL d   1      -0.932  -2.416  -2.925  0.00  0.00    -0.051 A 
ATOM      3  C   UNL d   1       0.670  -2.151  -1.095  0.00  0.00     0.017 A 
ATOM      4  C   UNL d   1      -0.636  -0.266  -1.799  0.00  0.00     0.017 A 
ATOM      5  C   UNL d   1       0.056  -2.941  -2.073  0.00  0.00     0.009 A 
ATOM      6  C   UNL d   1      -1.294  -1.071  -2.738  0.00  0.00     0.009 A 
ENDROOT
BRANCH   1   7
ATOM      7  C   UNL d   1       1.084   0.125  -0.056  0.00  0.00     0.253 C 
ATOM      8  N   UNL d   1       2.456  -0.012   0.208  0.00  0.00    -0.357 N 
ATOM      9  C   UNL d   1       3.050   0.855   1.210  0.00  0.00     0.152 C 
ATOM     10  C   UNL d   1       3.388  -0.927  -0.440  0.00  0.00     0.152 C 
ATOM     11  O   UNL d   1       0.408   1.015   0.457  0.00  0.00    -0.267 OA
ENDBRANCH   1   7
BRANCH   2  12
ATOM     12  C   UNL d   1      -1.560  -3.303  -4.014  0.00  0.00    -0.024 C 
ATOM     13  C   UNL d   1      -2.664  -2.585  -4.820  0.00  0.00     0.019 C 
ATOM     14  C   UNL d   1      -0.466  -3.743  -5.012  0.00  0.00     0.019 C 
ATOM     15  C   UNL d   1      -2.192  -4.563  -3.387  0.00  0.00     0.019 C 
ENDBRANCH   2  12
TORSDOF 2
