REMARK  3 active torsions:
REMARK  status: ('A' for Active; 'I' for Inactive)
REMARK    1  A    between atoms: C_2  and  C_1 
REMARK    2  A    between atoms: C_12  and  N_3 
REMARK    3  A    between atoms: C_14  and  C_8 
ROOT
ATOM      1  C   UNL d   1      -0.077  -1.269   0.034  0.00  0.00     0.153 C 
ATOM      2  N   UNL d   1       1.036  -0.690   0.622  0.00  0.00    -0.224 N 
ATOM      3  N   UNL d   1       0.773   0.627   0.796  0.00  0.00     0.001 NA
ATOM      4  N   UNL d   1      -0.344   0.863   0.126  0.00  0.00    -0.007 NA
ATOM      5  N   UNL d   1      -0.869  -0.298  -0.378  0.00  0.00    -0.269 N 
ATOM      6  HN  UNL d   1      -1.704  -0.392  -0.955  1.00  0.00     0.185 HD
ENDROOT
BRANCH   1   7
ATOM      7  C   UNL d   1      -0.427  -2.706  -0.047  0.00  0.00     0.065 A 
ATOM      8  C   UNL d   1      -1.197  -3.321  -1.008  0.00  0.00     0.124 A 
ATOM      9  O   UNL d   1      -1.310  -4.646  -0.686  0.00  0.00    -0.236 OA
ATOM     10  N   UNL d   1      -0.607  -4.911   0.479  0.00  0.00    -0.271 N 
ATOM     11  C   UNL d   1      -0.092  -3.739   0.851  0.00  0.00     0.132 A 
ATOM     12  HN  UNL d   1      -0.506  -5.809   0.951  1.00  0.00     0.194 HD
BRANCH   8  13
ATOM     13  C   UNL d   1      -1.801  -2.935  -2.275  0.00  0.00     0.001 A 
ATOM     14  C   UNL d   1      -1.177  -1.992  -3.104  0.00  0.00     0.015 A 
ATOM     15  C   UNL d   1      -1.748  -1.617  -4.321  0.00  0.00     0.007 A 
ATOM     16  C   UNL d   1      -2.954  -2.184  -4.740  0.00  0.00    -0.062 A 
ATOM     17  C   UNL d   1      -3.574  -3.140  -3.929  0.00  0.00     0.007 A 
ATOM     18  C   UNL d   1      -3.563  -1.756  -6.042  0.00  0.00     0.048 C 
ATOM     19  C   UNL d   1      -3.001  -3.514  -2.708  0.00  0.00     0.015 A 
ENDBRANCH   8  13
ENDBRANCH   1   7
BRANCH   2  20
ATOM     20  C   UNL d   1       2.319  -1.225   0.887  0.00  0.00     0.056 A 
ATOM     21  C   UNL d   1       2.789  -2.348   0.187  0.00  0.00     0.033 A 
ATOM     22  C   UNL d   1       4.066  -2.852   0.447  0.00  0.00     0.026 A 
ATOM     23  C   UNL d   1       4.876  -2.233   1.395  0.00  0.00     0.034 A 
ATOM     24  C   UNL d   1       4.428  -1.102   2.075  0.00  0.00     0.026 A 
ATOM     25 CL   UNL d   1       6.443  -2.862   1.717  0.00  0.00    -0.084 Cl
ATOM     26  C   UNL d   1       3.155  -0.586   1.813  0.00  0.00     0.033 A 
ENDBRANCH   2  20
TORSDOF 3
