REMARK  6 active torsions:
REMARK  status: ('A' for Active; 'I' for Inactive)
REMARK    1  A    between atoms: C_8  and  N_1 
REMARK    2  A    between atoms: C_11  and  C_5 
REMARK    3  A    between atoms: C_12  and  C_8 
REMARK    4  A    between atoms: C_9  and  C_14 
REMARK    5  A    between atoms: C_10  and  C_13 
REMARK       I    between atoms: N_19  and  C_12 
REMARK    6  A    between atoms: N_26  and  N_19 
ROOT
ATOM      1  N   UNL d   1      -0.028  -1.258  -0.074  0.00  0.00    -0.203 N 
ATOM      2  N   UNL d   1       1.228  -0.811  -0.241  0.00  0.00    -0.268 N 
ATOM      3  HN  UNL d   1       2.084  -1.331  -0.435  1.00  0.00     0.190 HD
ATOM      4  N   UNL d   1      -0.953  -0.306   0.148  0.00  0.00    -0.002 NA
ATOM      5  C   UNL d   1       1.046   0.511  -0.081  0.00  0.00     0.144 A 
ATOM      6  N   UNL d   1      -0.271   0.832   0.150  0.00  0.00    -0.266 N 
ATOM      7  HN  UNL d   1      -0.651   1.767   0.296  1.00  0.00     0.186 HD
ENDROOT
BRANCH   5   8
ATOM      8  C   UNL d   1       2.122   1.492  -0.137  0.00  0.00     0.012 A 
ATOM      9  C   UNL d   1       3.426   1.087  -0.468  0.00  0.00     0.031 A 
ATOM     10  C   UNL d   1       4.484   2.006  -0.522  0.00  0.00     0.049 A 
ATOM     11  C   UNL d   1       4.222   3.354  -0.234  0.00  0.00     0.032 A 
ATOM     12  C   UNL d   1       2.926   3.787   0.100  0.00  0.00     0.049 A 
ATOM     13  C   UNL d   1       1.883   2.845   0.144  0.00  0.00     0.031 A 
BRANCH  10  14
ATOM     14  C   UNL d   1       5.883   1.559  -0.879  0.00  0.00     0.417 C 
ATOM     15  F   UNL d   1       5.981   0.229  -1.148  0.00  0.00    -0.166 F 
ATOM     16  F   UNL d   1       6.364   2.201  -1.978  0.00  0.00    -0.166 F 
ATOM     17  F   UNL d   1       6.773   1.806   0.121  0.00  0.00    -0.166 F 
ENDBRANCH  10  14
BRANCH  12  18
ATOM     18  C   UNL d   1       2.680   5.246   0.409  0.00  0.00     0.417 C 
ATOM     19  F   UNL d   1       1.382   5.532   0.697  0.00  0.00    -0.166 F 
ATOM     20  F   UNL d   1       3.406   5.676   1.478  0.00  0.00    -0.166 F 
ATOM     21  F   UNL d   1       3.024   6.058  -0.628  0.00  0.00    -0.166 F 
ENDBRANCH  12  18
ENDBRANCH   5   8
BRANCH   1  22
ATOM     22  C   UNL d   1      -0.383  -2.662  -0.109  0.00  0.00     0.214 C 
ATOM     23  C   UNL d   1       0.653  -3.539   0.593  0.00  0.00     0.046 C 
BRANCH  22  24
ATOM     24  C   UNL d   1      -0.611  -3.093  -1.548  0.00  0.00     0.257 C 
ATOM     25  O   UNL d   1       0.038  -3.979  -2.105  0.00  0.00    -0.270 OA
ATOM     26  N   UNL d   1      -1.673  -2.453  -2.186  0.00  0.00    -0.292 N 
ATOM     27  H   UNL d   1      -2.262  -1.774  -1.701  0.00  0.00     0.183 HD
BRANCH  26  28
ATOM     28  N   UNL d   1      -2.049  -2.870  -3.481  0.00  0.00    -0.247 NA
ATOM     29  H   UNL d   1      -1.601  -3.783  -3.650  0.00  0.00     0.143 HD
ATOM     30  H   UNL d   1      -1.594  -2.251  -4.159  0.00  0.00     0.143 HD
ENDBRANCH  26  28
ENDBRANCH  22  24
ENDBRANCH   1  22
TORSDOF 6
