REMARK  8 active torsions:
REMARK  status: ('A' for Active; 'I' for Inactive)
REMARK    1  A    between atoms: O_6  and  C_1 
REMARK       I    between atoms: C_2  and  N_4 
REMARK    2  A    between atoms: C_7  and  C_2 
REMARK    3  A    between atoms: C_3  and  C_7 
REMARK    4  A    between atoms: C_9  and  C_3 
REMARK    5  A    between atoms: N_4  and  C_14 
REMARK    6  A    between atoms: C_5  and  C_9 
REMARK    7  A    between atoms: O_16  and  C_5 
REMARK    8  A    between atoms: C_15  and  O_6 
ROOT
ATOM      1  C   UNL d   1       2.650  -6.662  -0.034  0.00  0.00     0.222 C 
ATOM      2  N   UNL d   1       2.507  -7.895   0.579  0.00  0.00    -0.327 N 
ATOM      3  O   UNL d   1       1.735  -6.067  -0.597  0.00  0.00    -0.273 OA
ATOM      4  H   UNL d   1       3.343  -8.368   0.902  0.00  0.00     0.169 HD
ENDROOT
BRANCH   1   5
ATOM      5  C   UNL d   1       4.054  -6.053  -0.017  0.00  0.00     0.113 C 
BRANCH   5   6
ATOM      6  C   UNL d   1       4.022  -4.487   0.062  0.00  0.00    -0.023 C 
ATOM      7  C   UNL d   1       3.245  -3.878  -1.141  0.00  0.00     0.010 C 
ATOM      8  C   UNL d   1       3.825  -2.497  -1.423  0.00  0.00     0.001 C 
ATOM      9  C   UNL d   1       5.091  -2.397  -0.589  0.00  0.00     0.001 C 
ATOM     10  C   UNL d   1       5.405  -3.834  -0.170  0.00  0.00     0.010 C 
BRANCH   6  11
ATOM     11  C   UNL d   1       3.390  -4.025   1.409  0.00  0.00     0.119 C 
BRANCH  11  12
ATOM     12  C   UNL d   1       4.122  -4.490   2.656  0.00  0.00     0.140 C 
ATOM     13  O   UNL d   1       5.196  -5.066   2.681  0.00  0.00    -0.650 OA
BRANCH  12  14
ATOM     14  O   UNL d   1       3.445  -4.198   3.790  0.00  0.00    -0.776 OA
ATOM     15  H   UNL d   1       2.598  -3.748   3.639  0.00  0.00     0.167 HD
ENDBRANCH  12  14
ENDBRANCH  11  12
ENDBRANCH   6  11
ENDBRANCH   5   6
ENDBRANCH   1   5
BRANCH   2  16
ATOM     16  C   UNL d   1       1.267  -8.576   0.749  0.00  0.00     0.034 A 
ATOM     17  C   UNL d   1       0.033  -8.002   0.433  0.00  0.00     0.032 A 
ATOM     18  C   UNL d   1      -1.162  -8.695   0.624  0.00  0.00     0.039 A 
ATOM     19  C   UNL d   1      -1.167  -9.980   1.152  0.00  0.00     0.078 A 
ATOM     20  C   UNL d   1       0.054 -10.581   1.458  0.00  0.00     0.039 A 
ATOM     21  C   UNL d   1       1.264  -9.877   1.268  0.00  0.00     0.032 A 
BRANCH  19  22
ATOM     22  O   UNL d   1      -2.418 -10.493   1.299  0.00  0.00    -0.255 OA
BRANCH  22  23
ATOM     23  C   UNL d   1      -2.602 -11.659   2.074  0.00  0.00     0.530 C 
ATOM     24  F   UNL d   1      -1.871 -11.639   3.208  0.00  0.00    -0.144 F 
ATOM     25  F   UNL d   1      -2.290 -12.756   1.355  0.00  0.00    -0.144 F 
ATOM     26  F   UNL d   1      -3.906 -11.736   2.422  0.00  0.00    -0.144 F 
ENDBRANCH  22  23
ENDBRANCH  19  22
ENDBRANCH   2  16
TORSDOF 8
