REMARK  3 active torsions:
REMARK  status: ('A' for Active; 'I' for Inactive)
REMARK    1  A    between atoms: C_2  and  C_1 
REMARK    2  A    between atoms: C_4  and  C_2 
REMARK    3  A    between atoms: C_7  and  C_3 
ROOT
ATOM      1  C   UNL d   1       0.954   0.020  -0.022  0.00  0.00     0.098 C 
ATOM      2  C   UNL d   1       0.330   1.060  -0.609  0.00  0.00     0.045 C 
ATOM      3  C   UNL d   1       0.257  -1.045   0.615  0.00  0.00     0.103 C 
ATOM      4  N   UNL d   1      -0.315  -1.929   1.106  0.00  0.00    -0.191 NA
ENDROOT
BRANCH   1   5
ATOM      5  C   UNL d   1       2.450  -0.034  -0.108  0.00  0.00     0.226 C 
ATOM      6  O   UNL d   1       3.018   0.491  -1.067  0.00  0.00    -0.284 OA
BRANCH   5   7
ATOM      7  C   UNL d   1       3.178  -0.740   0.928  0.00  0.00     0.126 A 
ATOM      8  O   UNL d   1       2.627  -0.863   2.175  0.00  0.00    -0.319 OA
ATOM      9  C   UNL d   1       3.501  -1.567   2.938  0.00  0.00     0.142 A 
ATOM     10  C   UNL d   1       4.620  -1.890   2.209  0.00  0.00     0.027 A 
ATOM     11  C   UNL d   1       4.425  -1.335   0.920  0.00  0.00     0.043 A 
ENDBRANCH   5   7
ENDBRANCH   1   5
BRANCH   2  12
ATOM     12  C   UNL d   1      -1.086   1.185  -0.589  0.00  0.00     0.006 A 
ATOM     13  S   UNL d   1      -1.838   2.200   0.576  0.00  0.00    -0.102 SA
ATOM     14  C   UNL d   1      -3.404   1.760   0.050  0.00  0.00     0.050 A 
ATOM     15  C   UNL d   1      -3.365   0.895  -1.019  0.00  0.00     0.008 A 
ATOM     16  C   UNL d   1      -2.029   0.573  -1.396  0.00  0.00     0.019 A 
ENDBRANCH   2  12
TORSDOF 3
