REMARK  7 active torsions:
REMARK  status: ('A' for Active; 'I' for Inactive)
REMARK    1  A    between atoms: C_13  and  N_1 
REMARK    2  A    between atoms: O_15  and  C_7 
REMARK    3  A    between atoms: O_16  and  C_8 
REMARK    4  A    between atoms: O_18  and  C_10 
REMARK    5  A    between atoms: C_19  and  C_13 
REMARK    6  A    between atoms: C_14  and  S_17 
REMARK    7  A    between atoms: S_17  and  C_19 
ROOT
ATOM      1  N   UNL d   1       2.463  -0.572   0.090  0.00  0.00    -0.289 N 
ATOM      2  C   UNL d   1      -0.018  -0.551   0.067  0.00  0.00     0.065 A 
ATOM      3  C   UNL d   1       1.259  -1.301   0.071  0.00  0.00     0.262 C 
ATOM      4  C   UNL d   1       2.458   0.793  -0.106  0.00  0.00     0.181 C 
ATOM      5  C   UNL d   1       0.004   0.840   0.034  0.00  0.00     0.087 A 
ATOM      6  N   UNL d   1       1.261   1.432  -0.039  0.00  0.00    -0.330 N 
ATOM      7  C   UNL d   1      -1.206   1.575   0.015  0.00  0.00     0.132 A 
ATOM      8  C   UNL d   1      -2.446   0.866   0.016  0.00  0.00     0.137 A 
ATOM      9  C   UNL d   1      -1.230  -1.240   0.055  0.00  0.00     0.059 A 
ATOM     10  C   UNL d   1      -2.446  -0.548   0.029  0.00  0.00     0.105 A 
ATOM     11  S   UNL d   1       3.722   1.836  -0.457  0.00  0.00    -0.040 SA
ATOM     12  O   UNL d   1       1.208  -2.534  -0.000  0.00  0.00    -0.267 OA
ATOM     13  H   UNL d   1       1.367   2.422  -0.148  0.00  0.00     0.168 HD
ENDROOT
BRANCH   1  14
ATOM     14  C   UNL d   1       3.672  -1.422   0.043  0.00  0.00     0.145 C 
BRANCH  14  15
ATOM     15  C   UNL d   1       5.000  -0.961   0.662  0.00  0.00     0.095 C 
BRANCH  15  16
ATOM     16  S   UNL d   1       4.917  -0.391   2.399  0.00  0.00    -0.159 SA
BRANCH  16  17
ATOM     17  C   UNL d   1       6.658   0.215   2.654  0.00  0.00    -0.003 C 
ATOM     18  C   UNL d   1       6.938   1.458   1.798  0.00  0.00     0.026 C 
ATOM     19  C   UNL d   1       6.808   0.603   4.134  0.00  0.00     0.026 C 
ATOM     20  C   UNL d   1       7.660  -0.899   2.329  0.00  0.00     0.026 C 
ENDBRANCH  16  17
ENDBRANCH  15  16
ENDBRANCH  14  15
ENDBRANCH   1  14
BRANCH  10  21
ATOM     21  O   UNL d   1      -3.512  -1.412   0.013  0.00  0.00    -0.353 OA
ATOM     22  C   UNL d   1      -4.838  -0.902   0.007  0.00  0.00     0.210 C 
ENDBRANCH  10  21
BRANCH   7  23
ATOM     23  O   UNL d   1      -1.337   2.933  -0.026  0.00  0.00    -0.351 OA
ATOM     24  C   UNL d   1      -0.284   3.873  -0.006  0.00  0.00     0.210 C 
ENDBRANCH   7  23
BRANCH   8  25
ATOM     25  O   UNL d   1      -3.693   1.440  -0.011  0.00  0.00    -0.351 OA
ATOM     26  C   UNL d   1      -3.883   2.845   0.001  0.00  0.00     0.210 C 
ENDBRANCH   8  25
TORSDOF 7
