REMARK  1 active torsions:
REMARK  status: ('A' for Active; 'I' for Inactive)
REMARK    1  A    between atoms: C_7  and  C_6 
ROOT
ATOM      1  C   UNL d   1       1.740   0.292   0.077  0.00  0.00     0.027 A 
ATOM      2  N   UNL d   1       1.328  -1.056   0.140  0.00  0.00    -0.353 N 
ATOM      3  C   UNL d   1       0.460   1.192   0.206  0.00  0.00     0.025 A 
ATOM      4  C   UNL d   1      -0.056  -1.144   0.327  0.00  0.00     0.041 A 
ATOM      5  C   UNL d   1      -0.632   0.132   0.382  0.00  0.00    -0.017 A 
ATOM      6  C   UNL d   1       3.020   0.693  -0.067  0.00  0.00     0.076 C 
ATOM      7  C   UNL d   1       2.110  -2.275   0.077  0.00  0.00     0.156 C 
ATOM      8  C   UNL d   1       0.152   1.970  -1.081  0.00  0.00     0.027 C 
ATOM      9  C   UNL d   1       0.457   2.074   1.464  0.00  0.00     0.027 C 
ATOM     10  C   UNL d   1      -0.858  -2.268   0.459  0.00  0.00     0.030 A 
ATOM     11  C   UNL d   1      -1.998   0.309   0.575  0.00  0.00     0.010 A 
ATOM     12  C   UNL d   1      -2.234  -2.103   0.654  0.00  0.00     0.002 A 
ATOM     13  C   UNL d   1      -2.800  -0.822   0.714  0.00  0.00     0.001 A 
ENDROOT
BRANCH   6  14
ATOM     14  C   UNL d   1       3.577   2.076  -0.158  0.00  0.00     0.147 C 
ATOM     15  O   UNL d   1       2.882   3.086  -0.136  0.00  0.00    -0.294 OA
ATOM     16  C   UNL d   1       5.075   2.204  -0.275  0.00  0.00     0.096 C 
ENDBRANCH   6  14
TORSDOF 1
