REMARK  5 active torsions:
REMARK  status: ('A' for Active; 'I' for Inactive)
REMARK    1  A    between atoms: C_2  and  N_1 
REMARK    2  A    between atoms: C_5  and  C_8 
REMARK    3  A    between atoms: N_11  and  N_9 
REMARK    4  A    between atoms: C_23  and  C_21 
REMARK    5  A    between atoms: O_29  and  C_24 
ROOT
ATOM      1  N   UNL d   1      -0.328   1.115  -0.006  0.00  0.00    -0.259 N 
ATOM      2  C   UNL d   1       0.979   0.690  -0.048  0.00  0.00     0.169 A 
ATOM      3  C   UNL d   1      -1.310   0.143  -0.087  0.00  0.00     0.240 A 
ATOM      4  S   UNL d   1       1.059  -1.058  -0.119  0.00  0.00    -0.083 SA
ATOM      5  N   UNL d   1       1.992   1.499   0.005  0.00  0.00    -0.280 N 
ATOM      6  HN  UNL d   1       1.886   2.509   0.100  1.00  0.00     0.189 HD
ATOM      7  C   UNL d   1      -0.728  -1.246  -0.108  0.00  0.00     0.186 A 
ATOM      8  O   UNL d   1      -2.516   0.336  -0.204  0.00  0.00    -0.272 OA
ENDROOT
BRANCH   1   9
ATOM      9  C   UNL d   1      -0.675   2.494  -0.022  0.00  0.00     0.067 A 
ATOM     10  C   UNL d   1      -0.194   3.304  -1.068  0.00  0.00     0.048 A 
ATOM     11  C   UNL d   1      -0.535   4.664  -1.150  0.00  0.00     0.050 A 
ATOM     12  C   UNL d   1      -1.349   5.218  -0.152  0.00  0.00     0.018 A 
ATOM     13  C   UNL d   1      -1.818   4.429   0.900  0.00  0.00     0.027 A 
ATOM     14  C   UNL d   1      -1.490   3.071   0.966  0.00  0.00     0.061 A 
ATOM     15 CL   UNL d   1      -2.006   2.196   2.366  0.00  0.00    -0.082 Cl
BRANCH  11  16
ATOM     16  C   UNL d   1      -0.048   5.524  -2.293  0.00  0.00     0.417 C 
ATOM     17  F   UNL d   1       0.709   4.849  -3.201  0.00  0.00    -0.166 F 
ATOM     18  F   UNL d   1      -1.075   6.071  -2.999  0.00  0.00    -0.166 F 
ATOM     19  F   UNL d   1       0.713   6.569  -1.870  0.00  0.00    -0.166 F 
ENDBRANCH  11  16
ENDBRANCH   1   9
BRANCH   5  20
ATOM     20  N   UNL d   1       3.232   0.877  -0.080  0.00  0.00    -0.309 N 
ATOM     21  C   UNL d   1       4.166   1.582   0.475  0.00  0.00     0.118 C 
ATOM     22  HN  UNL d   1       3.388  -0.027  -0.526  1.00  0.00     0.186 HD
BRANCH  21  23
ATOM     23  C   UNL d   1       5.565   1.116   0.493  0.00  0.00    -0.019 A 
ATOM     24  C   UNL d   1       5.919  -0.084  -0.133  0.00  0.00     0.015 A 
ATOM     25  C   UNL d   1       7.247  -0.518  -0.115  0.00  0.00     0.037 A 
ATOM     26  C   UNL d   1       8.220   0.240   0.538  0.00  0.00     0.068 A 
ATOM     27  C   UNL d   1       7.862   1.447   1.148  0.00  0.00     0.037 A 
ATOM     28  C   UNL d   1       6.535   1.885   1.136  0.00  0.00     0.015 A 
BRANCH  26  29
ATOM     29  O   UNL d   1       9.548  -0.078   0.606  0.00  0.00    -0.356 OA
ATOM     30  C   UNL d   1       9.849  -1.469   0.557  0.00  0.00     0.210 C 
ENDBRANCH  26  29
ENDBRANCH  21  23
ENDBRANCH   5  20
TORSDOF 5
