REMARK  5 active torsions:
REMARK  status: ('A' for Active; 'I' for Inactive)
REMARK    1  A    between atoms: N_4  and  C_1 
REMARK    2  A    between atoms: N_5  and  C_1 
REMARK    3  A    between atoms: C_7  and  N_4 
REMARK    4  A    between atoms: N_8  and  N_5 
REMARK    5  A    between atoms: C_10  and  N_8 
ROOT
ATOM      1  C   UNL d   1       1.182  -0.004  -0.047  0.00  0.00     0.186 C 
ATOM      2  S   UNL d   1       2.835   0.031  -0.285  0.00  0.00    -0.040 SA
ENDROOT
BRANCH   1   3
ATOM      3  N   UNL d   1       0.486  -0.427   1.063  0.00  0.00    -0.332 N 
ATOM      4  H   UNL d   1      -0.424   0.017   1.129  0.00  0.00     0.168 HD
BRANCH   3   5
ATOM      5  C   UNL d   1       0.907  -1.244   2.126  0.00  0.00     0.035 A 
ATOM      6  C   UNL d   1       1.815  -2.291   1.948  0.00  0.00     0.055 A 
ATOM      7  C   UNL d   1       2.163  -3.122   3.018  0.00  0.00     0.058 A 
ATOM      8 CL   UNL d   1       3.256  -4.424   2.698  0.00  0.00    -0.082 Cl
ATOM      9  C   UNL d   1       1.612  -2.899   4.282  0.00  0.00     0.055 A 
ATOM     10  C   UNL d   1       0.696  -1.859   4.463  0.00  0.00     0.028 A 
ATOM     11 CL   UNL d   1       2.002  -3.879   5.649  0.00  0.00    -0.083 Cl
ATOM     12  C   UNL d   1       0.328  -1.049   3.383  0.00  0.00     0.031 A 
ENDBRANCH   3   5
ENDBRANCH   1   3
BRANCH   1  13
ATOM     13  N   UNL d   1       0.382   0.503  -1.052  0.00  0.00    -0.297 N 
ATOM     14  H   UNL d   1       0.873   0.828  -1.884  0.00  0.00     0.183 HD
BRANCH  13  15
ATOM     15  N   UNL d   1      -1.021   0.358  -1.060  0.00  0.00    -0.230 NA
ATOM     16  H   UNL d   1      -1.429   1.278  -1.253  0.00  0.00     0.147 HD
BRANCH  15  17
ATOM     17  C   UNL d   1      -1.496  -0.604  -2.090  0.00  0.00     0.019 C 
ATOM     18  C   UNL d   1      -1.076  -2.039  -1.736  0.00  0.00     0.033 C 
ATOM     19  C   UNL d   1      -3.035  -0.532  -2.097  0.00  0.00     0.033 C 
ATOM     20  C   UNL d   1      -0.993  -0.240  -3.499  0.00  0.00     0.033 C 
ENDBRANCH  15  17
ENDBRANCH  13  15
ENDBRANCH   1  13
TORSDOF 5
