REMARK  7 active torsions:
REMARK  status: ('A' for Active; 'I' for Inactive)
REMARK    1  A    between atoms: S_7  and  C_3 
REMARK    2  A    between atoms: N_4  and  C_8 
REMARK    3  A    between atoms: S_11  and  C_6 
REMARK    4  A    between atoms: C_15  and  S_7 
REMARK    5  A    between atoms: C_10  and  C_9 
REMARK    6  A    between atoms: C_16  and  S_11 
REMARK    7  A    between atoms: O_17  and  C_12 
ROOT
ATOM      1  N   UNL d   1      -1.255  -0.014  -0.071  0.00  0.00    -0.343 N 
ATOM      2  HN  UNL d   1      -2.269   0.007  -0.177  1.00  0.00     0.167 HD
ATOM      3  C   UNL d   1      -0.540   1.134   0.077  0.00  0.00     0.102 A 
ATOM      4  C   UNL d   1      -0.578  -1.181  -0.074  0.00  0.00     0.075 A 
ATOM      5  C   UNL d   1       0.863   1.173   0.216  0.00  0.00     0.066 A 
ATOM      6  C   UNL d   1       1.520  -0.063   0.199  0.00  0.00     0.035 A 
ATOM      7  C   UNL d   1       0.802  -1.249   0.042  0.00  0.00     0.039 A 
ENDROOT
BRANCH   5   8
ATOM      8  N   UNL d   1       1.550   2.390   0.452  0.00  0.00    -0.363 N 
ATOM      9  C   UNL d   1       2.727   2.575  -0.058  0.00  0.00     0.102 C 
ATOM     10  HN  UNL d   1       1.119   3.119   1.021  1.00  0.00     0.165 HD
BRANCH   9  11
ATOM     11  C   UNL d   1       3.458   3.846   0.128  0.00  0.00     0.012 A 
ATOM     12  C   UNL d   1       2.890   4.948   0.775  0.00  0.00     0.077 A 
ATOM     13  C   UNL d   1       3.598   6.145   0.873  0.00  0.00     0.037 A 
ATOM     14  C   UNL d   1       4.878   6.245   0.326  0.00  0.00     0.003 A 
ATOM     15  C   UNL d   1       5.457   5.143  -0.305  0.00  0.00     0.001 A 
ATOM     16  C   UNL d   1       4.750   3.942  -0.404  0.00  0.00     0.015 A 
BRANCH  12  17
ATOM     17  O   UNL d   1       1.639   4.928   1.327  0.00  0.00    -0.360 OA
ATOM     18  H   UNL d   1       1.268   4.028   1.181  0.00  0.00     0.217 HD
ENDBRANCH  12  17
ENDBRANCH   9  11
ENDBRANCH   5   8
BRANCH   3  19
ATOM     19  S   UNL d   1      -1.535   2.612   0.240  0.00  0.00    -0.070 SA
BRANCH  19  20
ATOM     20  C   UNL d   1      -1.737   3.138  -1.451  0.00  0.00     0.007 A 
ATOM     21  C   UNL d   1      -2.257   2.297  -2.442  0.00  0.00     0.019 A 
ATOM     22  C   UNL d   1      -2.468   2.777  -3.738  0.00  0.00     0.001 A 
ATOM     23  C   UNL d   1      -2.174   4.103  -4.052  0.00  0.00     0.000 A 
ATOM     24  C   UNL d   1      -1.666   4.950  -3.069  0.00  0.00     0.001 A 
ATOM     25  C   UNL d   1      -1.450   4.469  -1.775  0.00  0.00     0.019 A 
ENDBRANCH  19  20
ENDBRANCH   3  19
BRANCH   4  26
ATOM     26  S   UNL d   1      -1.548  -2.668  -0.182  0.00  0.00    -0.073 SA
BRANCH  26  27
ATOM     27  C   UNL d   1      -1.732  -3.147   1.534  0.00  0.00     0.007 A 
ATOM     28  C   UNL d   1      -1.788  -2.225   2.587  0.00  0.00     0.019 A 
ATOM     29  C   UNL d   1      -1.953  -2.658   3.905  0.00  0.00     0.001 A 
ATOM     30  C   UNL d   1      -2.080  -4.017   4.184  0.00  0.00     0.000 A 
ATOM     31  C   UNL d   1      -2.043  -4.943   3.144  0.00  0.00     0.001 A 
ATOM     32  C   UNL d   1      -1.872  -4.511   1.827  0.00  0.00     0.019 A 
ENDBRANCH  26  27
ENDBRANCH   4  26
TORSDOF 7
