REMARK  3 active torsions:
REMARK  status: ('A' for Active; 'I' for Inactive)
REMARK    1  A    between atoms: N_6  and  S_1 
REMARK    2  A    between atoms: C_9  and  S_1 
REMARK    3  A    between atoms: C_2  and  N_7 
ROOT
ATOM      1  N   UNL d   1       0.491  -0.796  -1.161  0.00  0.00    -0.304 N 
ATOM      2  N   UNL d   1      -1.601  -2.778  -0.963  0.00  0.00    -0.358 N 
ATOM      3  C   UNL d   1      -0.938  -0.437  -1.396  0.00  0.00     0.155 C 
ATOM      4  C   UNL d   1       0.760  -2.235  -1.449  0.00  0.00     0.155 C 
ATOM      5  C   UNL d   1      -0.203  -3.171  -0.693  0.00  0.00     0.145 C 
ATOM      6  C   UNL d   1      -1.887  -1.372  -0.618  0.00  0.00     0.145 C 
ENDROOT
BRANCH   2   7
ATOM      7  C   UNL d   1      -2.571  -3.727  -0.799  0.00  0.00     0.148 A 
ATOM      8  N   UNL d   1      -2.342  -4.952  -0.376  0.00  0.00    -0.336 N 
ATOM      9  C   UNL d   1      -3.500  -5.713  -0.382  0.00  0.00     0.051 A 
ATOM     10  HN  UNL d   1      -1.428  -5.298  -0.081  1.00  0.00     0.168 HD
ATOM     11  C   UNL d   1      -3.616  -7.060   0.021  0.00  0.00     0.032 A 
ATOM     12  C   UNL d   1      -4.638  -5.057  -0.848  0.00  0.00     0.036 A 
ATOM     13  C   UNL d   1      -4.854  -7.710  -0.066  0.00  0.00     0.026 A 
ATOM     14  C   UNL d   1      -5.968  -7.031  -0.549  0.00  0.00     0.035 A 
ATOM     15  C   UNL d   1      -5.886  -5.695  -0.945  0.00  0.00     0.045 A 
ATOM     16 CL   UNL d   1      -7.479  -7.849  -0.665  0.00  0.00    -0.084 Cl
ATOM     17  S   UNL d   1      -4.221  -3.445  -1.248  0.00  0.00    -0.052 SA
ENDBRANCH   2   7
BRANCH   1  18
ATOM     18  S   UNL d   1       1.248  -0.093   0.177  0.00  0.00     0.261 S 
ATOM     19  O   UNL d   1       2.389  -0.900   0.552  0.00  0.00    -0.200 OA
ATOM     20  O   UNL d   1       0.235   0.281   1.139  0.00  0.00    -0.200 OA
BRANCH  18  21
ATOM     21  C   UNL d   1       1.878   1.399  -0.563  0.00  0.00     0.082 A 
ATOM     22  C   UNL d   1       3.154   1.389  -1.129  0.00  0.00     0.067 A 
ATOM     23  C   UNL d   1       3.632   2.548  -1.726  0.00  0.00     0.117 A 
ATOM     24  F   UNL d   1       4.850   2.548  -2.283  0.00  0.00    -0.206 F 
ATOM     25  C   UNL d   1       2.865   3.709  -1.762  0.00  0.00     0.042 A 
ATOM     26  C   UNL d   1       1.599   3.722  -1.174  0.00  0.00     0.005 A 
ATOM     27  C   UNL d   1       1.104   2.567  -0.563  0.00  0.00     0.025 A 
ENDBRANCH  18  21
ENDBRANCH   1  18
TORSDOF 3
