REMARK  4 active torsions:
REMARK  status: ('A' for Active; 'I' for Inactive)
REMARK    1  A    between atoms: C_10  and  C_3 
REMARK    2  A    between atoms: N_4  and  C_9 
REMARK    3  A    between atoms: C_16  and  C_8 
REMARK    4  A    between atoms: C_13  and  C_16 
ROOT
ATOM      1  N   UNL d   1       1.054  -0.700   0.157  0.00  0.00    -0.277 N 
ATOM      2  HN  UNL d   1       1.868  -1.304   0.275  1.00  0.00     0.189 HD
ATOM      3  C   UNL d   1      -0.192  -1.086  -0.024  0.00  0.00     0.174 A 
ATOM      4  O   UNL d   1      -1.056  -0.026  -0.160  0.00  0.00    -0.277 OA
ATOM      5  N   UNL d   1       1.047   0.678   0.157  0.00  0.00    -0.281 N 
ATOM      6  HN  UNL d   1       1.852   1.293   0.270  1.00  0.00     0.189 HD
ATOM      7  C   UNL d   1      -0.206   1.041  -0.018  0.00  0.00     0.144 A 
ENDROOT
BRANCH   3   8
ATOM      8  C   UNL d   1      -0.751  -2.432  -0.074  0.00  0.00     0.019 A 
ATOM      9  C   UNL d   1      -2.107  -2.667  -0.345  0.00  0.00     0.052 A 
ATOM     10  C   UNL d   1      -2.600  -3.981  -0.381  0.00  0.00     0.103 A 
ATOM     11  C   UNL d   1      -1.754  -5.072  -0.143  0.00  0.00     0.036 A 
ATOM     12  C   UNL d   1      -0.407  -4.844   0.131  0.00  0.00     0.003 A 
ATOM     13  C   UNL d   1       0.088  -3.537   0.163  0.00  0.00     0.016 A 
BRANCH  10  14
ATOM     14  N   UNL d   1      -4.020  -4.215  -0.672  0.00  0.00    -0.116 N 
ATOM     15  O   UNL d   1      -4.737  -3.225  -0.873  0.00  0.00    -0.532 OA
ATOM     16  O   UNL d   1      -4.418  -5.389  -0.701  0.00  0.00    -0.532 OA
ENDBRANCH  10  14
ENDBRANCH   3   8
BRANCH   7  17
ATOM     17  C   UNL d   1      -0.782   2.407  -0.088  0.00  0.00     0.124 C 
BRANCH  17  18
ATOM     18  C   UNL d   1      -1.277   2.936   1.242  0.00  0.00    -0.045 A 
ATOM     19  C   UNL d   1      -0.411   3.057   2.343  0.00  0.00     0.050 A 
ATOM     20  C   UNL d   1      -0.873   3.591   3.546  0.00  0.00     0.119 A 
ATOM     21  F   UNL d   1      -0.032   3.700   4.582  0.00  0.00    -0.206 F 
ATOM     22  C   UNL d   1      -2.185   4.022   3.685  0.00  0.00     0.084 A 
ATOM     23  C   UNL d   1      -3.038   3.909   2.598  0.00  0.00     0.119 A 
ATOM     24  C   UNL d   1      -2.602   3.374   1.386  0.00  0.00     0.050 A 
ATOM     25  F   UNL d   1      -4.304   4.334   2.708  0.00  0.00    -0.206 F 
ENDBRANCH  17  18
ENDBRANCH   7  17
TORSDOF 4
