REMARK  9 active torsions:
REMARK  status: ('A' for Active; 'I' for Inactive)
REMARK       I    between atoms: N_4  and  C_1 
REMARK    1  A    between atoms: C_5  and  C_1 
REMARK    2  A    between atoms: C_2  and  C_5 
REMARK    3  A    between atoms: C_6  and  C_2 
REMARK    4  A    between atoms: C_9  and  C_2 
REMARK    5  A    between atoms: C_3  and  C_6 
REMARK    6  A    between atoms: O_15  and  C_3 
REMARK    7  A    between atoms: C_11  and  N_4 
REMARK    8  A    between atoms: O_10  and  C_12 
REMARK    9  A    between atoms: C_13  and  O_10 
ROOT
ATOM      1  C   UNL d   1       1.270   0.045   0.087  0.00  0.00     0.222 C 
ATOM      2  N   UNL d   1       0.822  -1.153   0.626  0.00  0.00    -0.327 N 
ATOM      3  O   UNL d   1       2.341   0.596   0.312  0.00  0.00    -0.273 OA
ATOM      4  H   UNL d   1      -0.133  -1.416   0.415  0.00  0.00     0.169 HD
ENDROOT
BRANCH   2   5
ATOM      5  C   UNL d   1       1.541  -2.057   1.431  0.00  0.00     0.034 A 
ATOM      6  C   UNL d   1       2.894  -1.915   1.736  0.00  0.00     0.032 A 
ATOM      7  C   UNL d   1       3.551  -2.877   2.510  0.00  0.00     0.039 A 
ATOM      8  C   UNL d   1       2.868  -4.011   2.951  0.00  0.00     0.076 A 
ATOM      9  C   UNL d   1       1.506  -4.140   2.688  0.00  0.00     0.039 A 
ATOM     10  C   UNL d   1       0.847  -3.170   1.925  0.00  0.00     0.032 A 
BRANCH   8  11
ATOM     11  O   UNL d   1       3.448  -5.016   3.691  0.00  0.00    -0.311 OA
BRANCH  11  12
ATOM     12  C   UNL d   1       4.742  -5.390   3.402  0.00  0.00     0.076 A 
ATOM     13  C   UNL d   1       5.535  -5.765   4.488  0.00  0.00     0.039 A 
ATOM     14  C   UNL d   1       6.862  -6.151   4.286  0.00  0.00     0.026 A 
ATOM     15  C   UNL d   1       7.389  -6.165   2.995  0.00  0.00     0.034 A 
ATOM     16  C   UNL d   1       6.592  -5.827   1.902  0.00  0.00     0.026 A 
ATOM     17 CL   UNL d   1       9.032  -6.609   2.747  0.00  0.00    -0.084 Cl
ATOM     18  C   UNL d   1       5.259  -5.460   2.104  0.00  0.00     0.039 A 
ENDBRANCH  11  12
ENDBRANCH   8  11
ENDBRANCH   2   5
BRANCH   1  19
ATOM     19  C   UNL d   1       0.227   0.644  -0.841  0.00  0.00     0.113 C 
BRANCH  19  20
ATOM     20  C   UNL d   1       0.639   1.972  -1.510  0.00  0.00     0.037 C 
BRANCH  20  21
ATOM     21  C   UNL d   1       1.834   1.858  -2.473  0.00  0.00     0.119 C 
BRANCH  21  22
ATOM     22  C   UNL d   1       1.559   0.978  -3.667  0.00  0.00     0.140 C 
ATOM     23  O   UNL d   1       1.655  -0.239  -3.647  0.00  0.00    -0.650 OA
BRANCH  22  24
ATOM     24  O   UNL d   1       1.151   1.652  -4.764  0.00  0.00    -0.776 OA
ATOM     25  H   UNL d   1       0.994   2.605  -4.607  0.00  0.00     0.167 HD
ENDBRANCH  22  24
ENDBRANCH  21  22
ENDBRANCH  20  21
BRANCH  20  26
ATOM     26  C   UNL d   1      -0.529   2.653  -2.223  0.00  0.00    -0.053 A 
ATOM     27  C   UNL d   1      -0.565   4.054  -2.311  0.00  0.00     0.007 A 
ATOM     28  C   UNL d   1      -1.585   4.698  -3.015  0.00  0.00     0.001 A 
ATOM     29  C   UNL d   1      -2.584   3.955  -3.638  0.00  0.00     0.000 A 
ATOM     30  C   UNL d   1      -2.563   2.567  -3.563  0.00  0.00     0.001 A 
ATOM     31  C   UNL d   1      -1.542   1.921  -2.866  0.00  0.00     0.007 A 
ENDBRANCH  20  26
ENDBRANCH  19  20
ENDBRANCH   1  19
TORSDOF 9
