REMARK  4 active torsions:
REMARK  status: ('A' for Active; 'I' for Inactive)
REMARK    1  A    between atoms: N_2  and  S_1 
REMARK    2  A    between atoms: C_6  and  S_1 
REMARK       I    between atoms: C_3  and  N_2 
REMARK       I    between atoms: N_4  and  C_3 
REMARK    3  A    between atoms: C_5  and  C_12 
REMARK    4  A    between atoms: C_12  and  N_8 
ROOT
ATOM      1  N   UNL d   1       1.056  -2.274  -0.098  0.00  0.00    -0.232 N 
ATOM      2  C   UNL d   1       0.701  -2.131  -1.434  0.00  0.00     0.332 C 
ATOM      3  N   UNL d   1       1.746  -1.985  -2.359  0.00  0.00    -0.332 N 
ATOM      4  N   UNL d   1       3.496  -1.650  -5.002  0.00  0.00     0.094 N 
ATOM      5  O   UNL d   1      -0.473  -2.184  -1.781  0.00  0.00    -0.246 OA
ATOM      6  C   UNL d   1       1.269  -1.887  -3.743  0.00  0.00     0.157 C 
ATOM      7  C   UNL d   1       2.222  -2.356  -4.843  0.00  0.00     0.292 C 
ATOM      8  C   UNL d   1       4.265  -1.608  -2.519  0.00  0.00     0.050 C 
ATOM      9  C   UNL d   1       2.898  -1.159  -2.007  0.00  0.00     0.129 C 
ATOM     10  C   UNL d   1       4.444  -2.065  -3.971  0.00  0.00     0.274 C 
ATOM     11  H   UNL d   1       2.006  -2.490   0.169  0.00  0.00     0.183 HD
ENDROOT
BRANCH   1  12
ATOM     12  S   UNL d   1      -0.059  -2.585   1.106  0.00  0.00     0.266 S 
ATOM     13  O   UNL d   1      -1.012  -1.503   1.169  0.00  0.00    -0.200 OA
ATOM     14  O   UNL d   1       0.723  -2.961   2.269  0.00  0.00    -0.200 OA
BRANCH  12  15
ATOM     15  C   UNL d   1      -0.853  -4.059   0.520  0.00  0.00     0.080 A 
ATOM     16  C   UNL d   1      -0.089  -5.223   0.400  0.00  0.00     0.026 A 
ATOM     17  C   UNL d   1      -0.651  -6.356  -0.185  0.00  0.00     0.008 A 
ATOM     18  C   UNL d   1      -1.976  -6.334  -0.639  0.00  0.00    -0.062 A 
ATOM     19  C   UNL d   1      -2.746  -5.175  -0.468  0.00  0.00     0.008 A 
ATOM     20  C   UNL d   1      -2.538  -7.543  -1.328  0.00  0.00     0.048 C 
ATOM     21  C   UNL d   1      -2.189  -4.034   0.114  0.00  0.00     0.026 A 
ENDBRANCH  12  15
ENDBRANCH   1  12
BRANCH   4  22
ATOM     22  C   UNL d   1       3.414  -0.197  -5.207  0.00  0.00     0.312 C 
BRANCH  22  23
ATOM     23  C   UNL d   1       2.651   0.235  -6.450  0.00  0.00    -0.008 A 
ATOM     24  C   UNL d   1       1.494   1.039  -6.417  0.00  0.00     0.043 A 
ATOM     25  C   UNL d   1       0.850   1.425  -7.598  0.00  0.00     0.048 A 
ATOM     26 CL   UNL d   1       0.823   1.655  -4.947  0.00  0.00    -0.084 Cl
ATOM     27  C   UNL d   1       1.378   1.051  -8.828  0.00  0.00     0.035 A 
ATOM     28  C   UNL d   1       2.534   0.281  -8.891  0.00  0.00     0.024 A 
ATOM     29 CL   UNL d   1       0.612   1.569 -10.279  0.00  0.00    -0.084 Cl
ATOM     30  C   UNL d   1       3.158  -0.135  -7.711  0.00  0.00     0.012 A 
ENDBRANCH  22  23
ENDBRANCH   4  22
TORSDOF 4
