REMARK  3 active torsions:
REMARK  status: ('A' for Active; 'I' for Inactive)
REMARK    1  A    between atoms: N_5  and  C_10 
REMARK       I    between atoms: C_8  and  N_9 
REMARK    2  A    between atoms: C_15  and  C_8 
REMARK    3  A    between atoms: N_9  and  C_18 
ROOT
ATOM      1  C   UNL d   1       0.086  -1.541  -0.127  0.00  0.00     0.199 A 
ATOM      2  C   UNL d   1       1.344  -0.794  -0.065  0.00  0.00     0.066 A 
ATOM      3  C   UNL d   1      -1.154  -0.758  -0.027  0.00  0.00     0.051 A 
ATOM      4  C   UNL d   1       1.306   0.588   0.037  0.00  0.00     0.162 A 
ATOM      5  O   UNL d   1       0.137   1.305   0.138  0.00  0.00    -0.292 OA
ATOM      6  C   UNL d   1      -1.051   0.619   0.137  0.00  0.00     0.092 A 
ATOM      7  N   UNL d   1       2.426   1.349   0.071  0.00  0.00    -0.346 N 
ATOM      8  HN  UNL d   1       2.377   2.366   0.133  1.00  0.00     0.167 HD
ATOM      9  C   UNL d   1      -2.405  -1.385  -0.073  0.00  0.00     0.048 A 
ATOM     10  O   UNL d   1       0.079  -2.757  -0.243  0.00  0.00    -0.286 OA
ATOM     11  C   UNL d   1      -3.569  -0.630   0.078  0.00  0.00     0.036 A 
ATOM     12  C   UNL d   1      -2.208   1.376   0.311  0.00  0.00     0.040 A 
ATOM     13  C   UNL d   1      -3.459   0.751   0.298  0.00  0.00     0.032 A 
ATOM     14  C   UNL d   1       2.578  -1.441  -0.103  0.00  0.00     0.021 A 
ATOM     15  C   UNL d   1       3.612   0.702   0.018  0.00  0.00     0.090 A 
ATOM     16  C   UNL d   1       3.739  -0.677  -0.057  0.00  0.00     0.018 A 
ENDROOT
BRANCH  11  17
ATOM     17  N   UNL d   1      -4.872  -1.171   0.037  0.00  0.00    -0.323 N 
ATOM     18  C   UNL d   1      -5.224  -2.469  -0.288  0.00  0.00     0.256 C 
ATOM     19  O   UNL d   1      -4.471  -3.376  -0.619  0.00  0.00    -0.267 OA
ATOM     20  H   UNL d   1      -5.616  -0.536   0.294  0.00  0.00     0.169 HD
BRANCH  18  21
ATOM     21  C   UNL d   1      -6.678  -2.777  -0.180  0.00  0.00     0.032 A 
ATOM     22  C   UNL d   1      -7.669  -1.841  -0.509  0.00  0.00     0.019 A 
ATOM     23  C   UNL d   1      -9.018  -2.155  -0.316  0.00  0.00     0.037 A 
ATOM     24  C   UNL d   1      -9.373  -3.413   0.195  0.00  0.00     0.102 A 
ATOM     25  C   UNL d   1      -8.390  -4.371   0.474  0.00  0.00     0.037 A 
ATOM     26  C   UNL d   1      -7.045  -4.050   0.279  0.00  0.00     0.019 A 
BRANCH  24  27
ATOM     27  N   UNL d   1     -10.784  -3.719   0.462  0.00  0.00    -0.116 N 
ATOM     28  O   UNL d   1     -11.614  -2.820   0.261  0.00  0.00    -0.532 OA
ATOM     29  O   UNL d   1     -11.059  -4.849   0.887  0.00  0.00    -0.532 OA
ENDBRANCH  24  27
ENDBRANCH  18  21
ENDBRANCH  11  17
TORSDOF 3
