REMARK  3 active torsions:
REMARK  status: ('A' for Active; 'I' for Inactive)
REMARK       I    between atoms: C_2  and  N_1 
REMARK    1  A    between atoms: C_3  and  N_1 
REMARK    2  A    between atoms: C_5  and  C_2 
REMARK    3  A    between atoms: N_4  and  C_5 
ROOT
ATOM      1  N   UNL d   1      -0.469   0.521   0.772  0.00  0.00    -0.324 N 
ATOM      2  C   UNL d   1       0.550   0.821  -0.117  0.00  0.00     0.255 C 
ATOM      3  O   UNL d   1       1.277  -0.017  -0.651  0.00  0.00    -0.271 OA
ATOM      4  H   UNL d   1      -1.182   1.238   0.852  0.00  0.00     0.169 HD
ENDROOT
BRANCH   1   5
ATOM      5  C   UNL d   1      -0.724  -0.734   1.375  0.00  0.00     0.046 A 
ATOM      6  C   UNL d   1       0.297  -1.566   1.889  0.00  0.00    -0.035 A 
ATOM      7  C   UNL d   1      -0.056  -2.764   2.541  0.00  0.00     0.009 A 
ATOM      8  C   UNL d   1       1.771  -1.269   1.832  0.00  0.00     0.050 C 
ATOM      9  C   UNL d   1      -1.384  -3.124   2.720  0.00  0.00     0.001 A 
ATOM     10  C   UNL d   1      -2.390  -2.307   2.222  0.00  0.00     0.009 A 
ATOM     11  C   UNL d   1      -2.078  -1.121   1.533  0.00  0.00    -0.035 A 
ATOM     12  C   UNL d   1      -3.232  -0.332   0.972  0.00  0.00     0.050 C 
ENDBRANCH   1   5
BRANCH   2  13
ATOM     13  C   UNL d   1       0.639   2.333  -0.479  0.00  0.00     0.310 C 
ATOM     14  C   UNL d   1       1.874   2.575  -1.357  0.00  0.00     0.053 C 
BRANCH  13  15
ATOM     15  N   UNL d   1       0.521   3.202   0.735  0.00  0.00     0.101 N 
ATOM     16  C   UNL d   1       1.555   2.928   1.749  0.00  0.00     0.273 C 
ATOM     17  C   UNL d   1       1.320   3.753   3.017  0.00  0.00     0.030 C 
ATOM     18  C   UNL d   1       1.291   5.242   2.707  0.00  0.00     0.003 C 
ATOM     19  C   UNL d   1       0.283   5.527   1.600  0.00  0.00     0.030 C 
ATOM     20  C   UNL d   1       0.527   4.633   0.381  0.00  0.00     0.273 C 
ENDBRANCH  13  15
ENDBRANCH   2  13
TORSDOF 3
