REMARK  4 active torsions:
REMARK  status: ('A' for Active; 'I' for Inactive)
REMARK    1  A    between atoms: C_8  and  C_1 
REMARK    2  A    between atoms: C_3  and  C_2 
REMARK       I    between atoms: N_6  and  C_3 
REMARK    3  A    between atoms: C_7  and  N_6 
REMARK    4  A    between atoms: N_11  and  C_7 
ROOT
ATOM      1  C   UNL d   1      -0.799  -0.489  -0.225  0.00  0.00     0.086 A 
ATOM      2  C   UNL d   1       0.211  -1.386   0.286  0.00  0.00     0.093 A 
ATOM      3  N   UNL d   1      -0.415   0.789  -0.071  0.00  0.00    -0.259 N 
ATOM      4  HN  UNL d   1      -0.922   1.617  -0.383  1.00  0.00     0.195 HD
ATOM      5  O   UNL d   1       0.783   0.767   0.584  0.00  0.00    -0.241 OA
ATOM      6  C   UNL d   1       1.161  -0.513   0.801  0.00  0.00     0.090 A 
ATOM      7  C   UNL d   1       2.450  -0.648   1.514  0.00  0.00     0.080 C 
ENDROOT
BRANCH   2   8
ATOM      8  C   UNL d   1       0.367  -2.842   0.328  0.00  0.00     0.262 C 
ATOM      9  N   UNL d   1      -0.736  -3.594  -0.062  0.00  0.00    -0.299 N 
ATOM     10  H   UNL d   1      -1.606  -3.098  -0.167  0.00  0.00     0.171 HD
ATOM     11  O   UNL d   1       1.421  -3.346   0.704  0.00  0.00    -0.267 OA
BRANCH   9  12
ATOM     12  C   UNL d   1      -0.940  -4.956  -0.125  0.00  0.00     0.176 C 
ATOM     13  S   UNL d   1      -2.541  -5.439  -0.288  0.00  0.00    -0.041 SA
BRANCH  12  14
ATOM     14  N   UNL d   1       0.141  -5.808  -0.022  0.00  0.00    -0.354 N 
ATOM     15  C   UNL d   1      -0.015  -7.182   0.488  0.00  0.00     0.151 C 
ATOM     16  C   UNL d   1       1.319  -7.745   0.993  0.00  0.00     0.187 C 
ATOM     17  O   UNL d   1       2.328  -7.680  -0.025  0.00  0.00    -0.388 OA
ATOM     18  C   UNL d   1       2.541  -6.316  -0.427  0.00  0.00     0.187 C 
ATOM     19  C   UNL d   1       1.251  -5.707  -0.989  0.00  0.00     0.151 C 
ENDBRANCH  12  14
ENDBRANCH   9  12
ENDBRANCH   2   8
BRANCH   1  20
ATOM     20  C   UNL d   1      -2.100  -0.713  -0.862  0.00  0.00     0.037 A 
ATOM     21  C   UNL d   1      -2.214  -1.349  -2.112  0.00  0.00     0.048 A 
ATOM     22 CL   UNL d   1      -0.844  -1.973  -2.965  0.00  0.00    -0.083 Cl
ATOM     23  C   UNL d   1      -3.462  -1.494  -2.735  0.00  0.00     0.025 A 
ATOM     24  C   UNL d   1      -4.612  -0.972  -2.147  0.00  0.00     0.003 A 
ATOM     25  C   UNL d   1      -4.521  -0.315  -0.925  0.00  0.00     0.025 A 
ATOM     26  C   UNL d   1      -3.283  -0.196  -0.281  0.00  0.00     0.048 A 
ATOM     27 CL   UNL d   1      -3.304   0.590   1.265  0.00  0.00    -0.083 Cl
ENDBRANCH   1  20
TORSDOF 4
