REMARK  6 active torsions:
REMARK  status: ('A' for Active; 'I' for Inactive)
REMARK    1  A    between atoms: N_2  and  C_1 
REMARK    2  A    between atoms: N_6  and  N_2 
REMARK    3  A    between atoms: C_3  and  C_22 
REMARK    4  A    between atoms: C_14  and  C_10 
REMARK    5  A    between atoms: O_23  and  N_15 
REMARK    6  A    between atoms: C_22  and  O_23 
ROOT
ATOM      1  N   UNL d   1      -0.239   3.776  -0.043  0.00  0.00    -0.303 N 
ATOM      2  HN  UNL d   1       0.459   3.034  -0.085  1.00  0.00     0.186 HD
ATOM      3  C   UNL d   1       0.110   5.026  -0.130  0.00  0.00     0.039 C 
ATOM      4  C   UNL d   1      -0.789   6.230  -0.139  0.00  0.00     0.071 C 
ENDROOT
BRANCH   3   5
ATOM      5  C   UNL d   1       1.591   5.274  -0.193  0.00  0.00     0.140 C 
ATOM      6  N   UNL d   1       2.093   6.363   0.289  0.00  0.00    -0.276 N 
ATOM      7  HN  UNL d   1       1.567   7.131   0.704  1.00  0.00     0.193 HD
BRANCH   6   8
ATOM      8  O   UNL d   1       3.490   6.304   0.141  0.00  0.00    -0.276 OA
BRANCH   8   9
ATOM      9  C   UNL d   1       4.076   7.424   0.810  0.00  0.00     0.243 C 
BRANCH   9  10
ATOM     10  C   UNL d   1       5.572   7.366   0.625  0.00  0.00     0.011 A 
ATOM     11  C   UNL d   1       6.178   7.891  -0.532  0.00  0.00     0.044 A 
ATOM     12 CL   UNL d   1       5.258   8.634  -1.796  0.00  0.00    -0.084 Cl
ATOM     13  C   UNL d   1       7.565   7.831  -0.715  0.00  0.00     0.024 A 
ATOM     14  C   UNL d   1       8.376   7.235   0.245  0.00  0.00     0.003 A 
ATOM     15  C   UNL d   1       7.795   6.689   1.385  0.00  0.00     0.024 A 
ATOM     16  C   UNL d   1       6.408   6.747   1.572  0.00  0.00     0.044 A 
ATOM     17 CL   UNL d   1       5.788   6.017   3.013  0.00  0.00    -0.084 Cl
ENDBRANCH   9  10
ENDBRANCH   8   9
ENDBRANCH   6   8
ENDBRANCH   3   5
BRANCH   1  18
ATOM     18  N   UNL d   1      -1.548   3.489   0.106  0.00  0.00    -0.297 N 
ATOM     19  H   UNL d   1      -2.199   3.845  -0.598  0.00  0.00     0.187 HD
BRANCH  18  20
ATOM     20  C   UNL d   1      -1.933   2.194   0.564  0.00  0.00     0.091 A 
ATOM     21  C   UNL d   1      -1.102   1.289   1.265  0.00  0.00     0.065 A 
ATOM     22  C   UNL d   1      -1.613   0.087   1.781  0.00  0.00     0.050 A 
ATOM     23 CL   UNL d   1       0.586   1.544   1.577  0.00  0.00    -0.082 Cl
ATOM     24  C   UNL d   1      -2.959  -0.224   1.634  0.00  0.00     0.037 A 
ATOM     25  C   UNL d   1      -3.810   0.643   0.965  0.00  0.00     0.050 A 
ATOM     26 CL   UNL d   1      -3.576  -1.684   2.302  0.00  0.00    -0.084 Cl
ATOM     27  C   UNL d   1      -3.300   1.835   0.443  0.00  0.00     0.065 A 
ATOM     28 CL   UNL d   1      -4.416   2.883  -0.377  0.00  0.00    -0.082 Cl
ENDBRANCH  18  20
ENDBRANCH   1  18
TORSDOF 6
