REMARK  5 active torsions:
REMARK  status: ('A' for Active; 'I' for Inactive)
REMARK    1  A    between atoms: C_2  and  S_1 
REMARK    2  A    between atoms: N_3  and  S_1 
REMARK    3  A    between atoms: C_6  and  N_3 
REMARK    4  A    between atoms: O_18  and  C_11 
REMARK    5  A    between atoms: O_19  and  C_15 
ROOT
ATOM      1  N   UNL d   1       0.630  -1.006   1.032  0.00  0.00    -0.177 NA
ATOM      2  H   UNL d   1      -0.298  -0.908   0.606  0.00  0.00     0.146 HD
ENDROOT
BRANCH   1   3
ATOM      3  S   UNL d   1       0.560  -0.115   2.474  0.00  0.00     0.250 S 
ATOM      4  O   UNL d   1      -0.215   1.069   2.176  0.00  0.00    -0.205 OA
ATOM      5  O   UNL d   1       0.217  -0.989   3.573  0.00  0.00    -0.205 OA
BRANCH   3   6
ATOM      6  C   UNL d   1       2.109   0.502   2.829  0.00  0.00     0.130 A 
ATOM      7  C   UNL d   1       2.852   1.359   2.050  0.00  0.00     0.097 A 
ATOM      8  O   UNL d   1       4.013   1.646   2.701  0.00  0.00    -0.241 OA
ATOM      9  C   UNL d   1       2.666   2.031   0.752  0.00  0.00     0.081 C 
ATOM     10  N   UNL d   1       4.039   0.989   3.915  0.00  0.00    -0.264 N 
ATOM     11  C   UNL d   1       2.882   0.315   3.997  0.00  0.00     0.054 A 
ATOM     12  HN  UNL d   1       4.786   1.011   4.608  1.00  0.00     0.194 HD
ATOM     13  C   UNL d   1       2.581  -0.467   5.218  0.00  0.00     0.072 C 
ENDBRANCH   3   6
ENDBRANCH   1   3
BRANCH   1  14
ATOM     14  C   UNL d   1       0.965  -2.400   1.165  0.00  0.00     0.074 A 
ATOM     15  C   UNL d   1      -0.026  -3.374   1.348  0.00  0.00     0.166 A 
ATOM     16  N   UNL d   1       0.220  -4.700   1.409  0.00  0.00    -0.316 N 
ATOM     17  C   UNL d   1       1.510  -5.075   1.314  0.00  0.00     0.143 A 
ATOM     18  HN  UNL d   1      -0.531  -5.382   1.522  1.00  0.00     0.170 HD
ATOM     19  C   UNL d   1       2.568  -4.183   1.195  0.00  0.00     0.058 A 
ATOM     20  C   UNL d   1       2.291  -2.814   1.127  0.00  0.00     0.033 A 
BRANCH  15  21
ATOM     21  O   UNL d   1      -1.337  -2.928   1.396  0.00  0.00    -0.339 OA
ATOM     22  C   UNL d   1      -2.255  -3.968   1.729  0.00  0.00     0.211 C 
ENDBRANCH  15  21
BRANCH  17  23
ATOM     23  O   UNL d   1       1.832  -6.418   1.306  0.00  0.00    -0.341 OA
ATOM     24  C   UNL d   1       0.686  -7.265   1.274  0.00  0.00     0.211 C 
ENDBRANCH  17  23
ENDBRANCH   1  14
TORSDOF 5
