REMARK  3 active torsions:
REMARK  status: ('A' for Active; 'I' for Inactive)
REMARK    1  A    between atoms: C_10  and  N_3 
REMARK    2  A    between atoms: C_13  and  C_10 
REMARK    3  A    between atoms: O_23  and  C_16 
ROOT
ATOM      1  C   UNL d   1      -1.035   1.232  -0.167  0.00  0.00     0.054 A 
ATOM      2  C   UNL d   1      -0.816  -0.081   0.028  0.00  0.00     0.064 A 
ATOM      3  N   UNL d   1      -1.868  -0.953   0.276  0.00  0.00    -0.308 N 
ATOM      4  C   UNL d   1      -3.158  -0.453   0.575  0.00  0.00     0.259 C 
ATOM      5  C   UNL d   1       0.257   1.936  -0.251  0.00  0.00     0.196 A 
ATOM      6  C   UNL d   1      -2.371   1.787  -0.176  0.00  0.00    -0.004 C 
ATOM      7  C   UNL d   1       0.633  -0.326   0.001  0.00  0.00     0.006 A 
ATOM      8  C   UNL d   1      -3.394   1.008   0.372  0.00  0.00     0.043 C 
ATOM      9  C   UNL d   1       1.277   0.908  -0.125  0.00  0.00     0.027 A 
ATOM     10  O   UNL d   1      -4.102  -1.163   0.917  0.00  0.00    -0.267 OA
ATOM     11  O   UNL d   1       0.453   3.127  -0.376  0.00  0.00    -0.286 OA
ATOM     12  C   UNL d   1      -2.675   3.045  -0.702  0.00  0.00     0.013 C 
ATOM     13  C   UNL d   1       1.430  -1.454   0.108  0.00  0.00     0.014 A 
ATOM     14  C   UNL d   1      -4.661   1.560   0.586  0.00  0.00     0.018 C 
ATOM     15  C   UNL d   1       2.650   1.088  -0.117  0.00  0.00     0.016 A 
ATOM     16  C   UNL d   1      -3.968   3.555  -0.589  0.00  0.00     0.001 C 
ATOM     17  C   UNL d   1       2.830  -1.314   0.095  0.00  0.00     0.001 A 
ATOM     18  C   UNL d   1      -4.942   2.842   0.111  0.00  0.00     0.001 C 
ATOM     19  C   UNL d   1       3.436  -0.052  -0.007  0.00  0.00     0.001 A 
ENDROOT
BRANCH   3  20
ATOM     20  C   UNL d   1      -1.752  -2.403   0.150  0.00  0.00     0.171 C 
BRANCH  20  21
ATOM     21  C   UNL d   1      -1.316  -3.168   1.378  0.00  0.00    -0.040 A 
ATOM     22  C   UNL d   1      -1.193  -2.581   2.641  0.00  0.00     0.011 A 
ATOM     23  C   UNL d   1      -0.719  -3.334   3.719  0.00  0.00     0.037 A 
ATOM     24  C   UNL d   1      -0.393  -4.676   3.576  0.00  0.00     0.068 A 
ATOM     25  C   UNL d   1      -0.555  -5.290   2.332  0.00  0.00     0.037 A 
ATOM     26  C   UNL d   1      -1.013  -4.536   1.245  0.00  0.00     0.011 A 
BRANCH  24  27
ATOM     27  O   UNL d   1       0.129  -5.265   4.694  0.00  0.00    -0.356 OA
ATOM     28  C   UNL d   1       0.007  -6.677   4.800  0.00  0.00     0.210 C 
ENDBRANCH  24  27
ENDBRANCH  20  21
ENDBRANCH   3  20
TORSDOF 3
