REMARK  5 active torsions:
REMARK  status: ('A' for Active; 'I' for Inactive)
REMARK    1  A    between atoms: C_4  and  N_1 
REMARK    2  A    between atoms: N_2  and  C_3 
REMARK    3  A    between atoms: C_6  and  C_5 
REMARK    4  A    between atoms: C_7  and  C_12 
REMARK    5  A    between atoms: C_8  and  C_11 
ROOT
ATOM      1  C   UNL d   1       0.213  -3.274  -1.045  0.00  0.00     0.114 A 
ATOM      2  C   UNL d   1       0.668  -2.279  -0.144  0.00  0.00     0.010 A 
ATOM      3  C   UNL d   1      -0.814  -3.054  -1.987  0.00  0.00     0.053 A 
ATOM      4  C   UNL d   1      -1.467  -1.821  -2.038  0.00  0.00     0.050 A 
ATOM      5  C   UNL d   1      -0.029  -1.054  -0.222  0.00  0.00     0.016 A 
ATOM      6  C   UNL d   1      -1.087  -0.838  -1.122  0.00  0.00     0.017 A 
ENDROOT
BRANCH   2   7
ATOM      7  C   UNL d   1       1.863  -2.405   0.758  0.00  0.00     0.010 A 
ATOM      8  C   UNL d   1       1.984  -1.853   2.056  0.00  0.00     0.114 A 
ATOM      9  C   UNL d   1       3.180  -1.882   2.804  0.00  0.00     0.053 A 
ATOM     10  C   UNL d   1       4.314  -2.512   2.287  0.00  0.00     0.050 A 
ATOM     11  C   UNL d   1       4.217  -3.113   1.030  0.00  0.00     0.017 A 
ATOM     12  C   UNL d   1       3.035  -3.030   0.278  0.00  0.00     0.016 A 
BRANCH   8  13
ATOM     13  N   UNL d   1       0.864  -1.184   2.711  0.00  0.00    -0.115 N 
ATOM     14  O   UNL d   1      -0.157  -1.857   2.913  0.00  0.00    -0.532 OA
ATOM     15  O   UNL d   1       1.019   0.006   3.021  0.00  0.00    -0.532 OA
ENDBRANCH   8  13
BRANCH  10  16
ATOM     16  C   UNL d   1       5.627  -2.531   3.033  0.00  0.00     0.417 C 
ATOM     17  F   UNL d   1       5.602  -1.809   4.186  0.00  0.00    -0.166 F 
ATOM     18  F   UNL d   1       6.011  -3.788   3.381  0.00  0.00    -0.166 F 
ATOM     19  F   UNL d   1       6.645  -2.016   2.291  0.00  0.00    -0.166 F 
ENDBRANCH  10  16
ENDBRANCH   2   7
BRANCH   1  20
ATOM     20  N   UNL d   1       0.803  -4.608  -1.077  0.00  0.00    -0.115 N 
ATOM     21  O   UNL d   1       0.744  -5.278  -0.039  0.00  0.00    -0.532 OA
ATOM     22  O   UNL d   1       1.315  -4.968  -2.144  0.00  0.00    -0.532 OA
ENDBRANCH   1  20
BRANCH   4  23
ATOM     23  C   UNL d   1      -2.533  -1.530  -3.068  0.00  0.00     0.417 C 
ATOM     24  F   UNL d   1      -2.712  -2.544  -3.958  0.00  0.00    -0.166 F 
ATOM     25  F   UNL d   1      -3.750  -1.298  -2.509  0.00  0.00    -0.166 F 
ATOM     26  F   UNL d   1      -2.240  -0.428  -3.811  0.00  0.00    -0.166 F 
ENDBRANCH   4  23
TORSDOF 5
