REMARK  2 active torsions:
REMARK  status: ('A' for Active; 'I' for Inactive)
REMARK    1  A    between atoms: N_3  and  S_1 
REMARK    2  A    between atoms: C_9  and  S_1 
ROOT
ATOM      1  C   UNL d   1       1.384  -0.971  -3.789  0.00  0.00    -0.009 A 
ATOM      2  N   UNL d   1       0.711  -0.809  -1.393  0.00  0.00    -0.202 NA
ATOM      3  C   UNL d   1       1.149  -2.326  -3.772  0.00  0.00     0.019 A 
ATOM      4  N   UNL d   1       1.468  -2.850  -4.990  0.00  0.00    -0.358 N 
ATOM      5  C   UNL d   1       1.849  -0.645  -5.094  0.00  0.00     0.003 A 
ATOM      6  C   UNL d   1       1.218  -0.076  -2.606  0.00  0.00     0.149 C 
ATOM      7  C   UNL d   1       1.916  -1.841  -5.819  0.00  0.00     0.043 A 
ATOM      8  C   UNL d   1       0.668  -3.062  -2.580  0.00  0.00     0.073 C 
ATOM      9  C   UNL d   1       1.093  -2.275  -1.328  0.00  0.00     0.114 C 
ATOM     10  C   UNL d   1       2.242   0.553  -5.718  0.00  0.00     0.056 A 
ATOM     11  C   UNL d   1       2.380  -1.895  -7.141  0.00  0.00     0.033 A 
ATOM     12  C   UNL d   1       2.697   0.503  -7.034  0.00  0.00     0.117 A 
ATOM     13  C   UNL d   1       2.774  -0.692  -7.736  0.00  0.00     0.044 A 
ATOM     14  F   UNL d   1       3.077   1.641  -7.633  0.00  0.00    -0.206 F 
ATOM     15  H   UNL d   1       1.414  -3.826  -5.251  0.00  0.00     0.166 HD
ENDROOT
BRANCH   2  16
ATOM     16  S   UNL d   1       1.141  -0.021   0.077  0.00  0.00     0.243 S 
ATOM     17  O   UNL d   1       2.588  -0.018   0.143  0.00  0.00    -0.206 OA
ATOM     18  O   UNL d   1       0.351  -0.602   1.143  0.00  0.00    -0.206 OA
BRANCH  16  19
ATOM     19  C   UNL d   1       0.602   1.654  -0.140  0.00  0.00     0.074 A 
ATOM     20  C   UNL d   1      -0.748   1.922  -0.372  0.00  0.00     0.025 A 
ATOM     21  C   UNL d   1      -1.158   3.241  -0.580  0.00  0.00     0.008 A 
ATOM     22  C   UNL d   1      -0.230   4.293  -0.542  0.00  0.00    -0.062 A 
ATOM     23  C   UNL d   1       1.119   4.009  -0.289  0.00  0.00     0.008 A 
ATOM     24  C   UNL d   1      -0.679   5.701  -0.802  0.00  0.00     0.048 C 
ATOM     25  C   UNL d   1       1.537   2.693  -0.088  0.00  0.00     0.025 A 
ENDBRANCH  16  19
ENDBRANCH   2  16
TORSDOF 2
