REMARK  5 active torsions:
REMARK  status: ('A' for Active; 'I' for Inactive)
REMARK    1  A    between atoms: N_2  and  S_1 
REMARK    2  A    between atoms: C_9  and  S_1 
REMARK    3  A    between atoms: C_3  and  N_2 
REMARK       I    between atoms: C_7  and  N_10 
REMARK    4  A    between atoms: C_14  and  C_7 
REMARK    5  A    between atoms: N_10  and  C_20 
ROOT
ATOM      1  C   UNL d   1       0.491   1.691  -0.207  0.00  0.00     0.075 A 
ATOM      2  C   UNL d   1      -0.853   1.852  -0.547  0.00  0.00     0.027 A 
ATOM      3  C   UNL d   1       1.299   2.802   0.029  0.00  0.00     0.027 A 
ATOM      4  C   UNL d   1      -0.585   4.266  -0.434  0.00  0.00     0.035 A 
ATOM      5  C   UNL d   1      -1.383   3.138  -0.670  0.00  0.00     0.031 A 
ATOM      6  C   UNL d   1       0.757   4.086  -0.088  0.00  0.00     0.031 A 
ENDROOT
BRANCH   1   7
ATOM      7  S   UNL d   1       1.141   0.061   0.019  0.00  0.00     0.247 S 
ATOM      8  O   UNL d   1       2.299   0.154   0.885  0.00  0.00    -0.205 OA
ATOM      9  O   UNL d   1       0.056  -0.839   0.348  0.00  0.00    -0.205 OA
BRANCH   7  10
ATOM     10  N   UNL d   1       1.753  -0.327  -1.504  0.00  0.00    -0.165 NA
ATOM     11  H   UNL d   1       2.659  -0.770  -1.374  0.00  0.00     0.147 HD
BRANCH  10  12
ATOM     12  C   UNL d   1       0.879  -0.911  -2.409  0.00  0.00     0.117 A 
ATOM     13  N   UNL d   1       0.027  -0.196  -3.145  0.00  0.00    -0.249 N 
ATOM     14  O   UNL d   1      -0.654  -1.115  -3.924  0.00  0.00    -0.241 OA
ATOM     15  HN  UNL d   1      -0.097   0.816  -3.135  1.00  0.00     0.196 HD
ATOM     16  C   UNL d   1      -0.207  -2.367  -3.636  0.00  0.00     0.075 A 
ATOM     17  C   UNL d   1       0.787  -2.287  -2.693  0.00  0.00     0.079 A 
ATOM     18  C   UNL d   1      -0.859  -3.476  -4.353  0.00  0.00     0.079 C 
ENDBRANCH  10  12
ENDBRANCH   7  10
ENDBRANCH   1   7
BRANCH   4  19
ATOM     19  N   UNL d   1      -1.204   5.527  -0.559  0.00  0.00    -0.323 N 
ATOM     20  C   UNL d   1      -0.632   6.764  -0.330  0.00  0.00     0.256 C 
ATOM     21  O   UNL d   1       0.522   6.988   0.024  0.00  0.00    -0.267 OA
ATOM     22  H   UNL d   1      -2.156   5.511  -0.899  0.00  0.00     0.169 HD
BRANCH  20  23
ATOM     23  C   UNL d   1      -1.520   7.934  -0.581  0.00  0.00     0.032 A 
ATOM     24  C   UNL d   1      -2.898   7.898  -0.319  0.00  0.00     0.020 A 
ATOM     25  C   UNL d   1      -3.685   9.018  -0.599  0.00  0.00     0.043 A 
ATOM     26  C   UNL d   1      -3.093  10.164  -1.124  0.00  0.00     0.116 A 
ATOM     27  C   UNL d   1      -1.725  10.221  -1.360  0.00  0.00     0.043 A 
ATOM     28  F   UNL d   1      -3.855  11.230  -1.399  0.00  0.00    -0.206 F 
ATOM     29  C   UNL d   1      -0.935   9.106  -1.083  0.00  0.00     0.020 A 
ENDBRANCH  20  23
ENDBRANCH   4  19
TORSDOF 5
