REMARK  4 active torsions:
REMARK  status: ('A' for Active; 'I' for Inactive)
REMARK    1  A    between atoms: C_7  and  C_1 
REMARK    2  A    between atoms: N_4  and  C_2 
REMARK       I    between atoms: C_6  and  N_4 
REMARK    3  A    between atoms: C_9  and  C_6 
REMARK    4  A    between atoms: O_12  and  C_7 
ROOT
ATOM      1  C   UNL d   1      -0.823   1.063  -0.008  0.00  0.00     0.107 A 
ATOM      2  C   UNL d   1       0.499   1.049   0.430  0.00  0.00     0.064 A 
ATOM      3  S   UNL d   1      -1.531  -0.491   0.039  0.00  0.00    -0.093 SA
ATOM      4  C   UNL d   1       0.880  -0.253   0.934  0.00  0.00    -0.027 A 
ATOM      5  C   UNL d   1      -0.128  -1.173   0.709  0.00  0.00     0.059 A 
ATOM      6  C   UNL d   1       2.131  -0.646   1.650  0.00  0.00     0.051 C 
ENDROOT
BRANCH   2   7
ATOM      7  N   UNL d   1       1.244   2.233   0.370  0.00  0.00    -0.325 N 
ATOM      8  C   UNL d   1       2.610   2.343   0.222  0.00  0.00     0.229 C 
ATOM      9  O   UNL d   1       3.376   1.390   0.082  0.00  0.00    -0.272 OA
ATOM     10  H   UNL d   1       0.697   3.058   0.134  0.00  0.00     0.169 HD
BRANCH   8  11
ATOM     11  C   UNL d   1       3.122   3.795   0.043  0.00  0.00     0.030 C 
ATOM     12  C   UNL d   1       2.294   4.849   0.798  0.00  0.00     0.025 C 
ATOM     13  C   UNL d   1       4.567   3.865   0.565  0.00  0.00     0.025 C 
ATOM     14  C   UNL d   1       3.104   4.116  -1.459  0.00  0.00     0.025 C 
ENDBRANCH   8  11
ENDBRANCH   2   7
BRANCH   1  15
ATOM     15  C   UNL d   1      -1.548   2.221  -0.507  0.00  0.00     0.302 C 
ATOM     16  O   UNL d   1      -1.088   3.364  -0.512  0.00  0.00    -0.259 OA
BRANCH  15  17
ATOM     17  O   UNL d   1      -2.785   1.901  -0.987  0.00  0.00    -0.322 OA
ATOM     18  C   UNL d   1      -3.495   3.010  -1.536  0.00  0.00     0.213 C 
ENDBRANCH  15  17
ENDBRANCH   1  15
TORSDOF 4
