REMARK  3 active torsions:
REMARK  status: ('A' for Active; 'I' for Inactive)
REMARK    1  A    between atoms: C_4  and  C_2 
REMARK    2  A    between atoms: C_10  and  C_3 
REMARK       I    between atoms: N_5  and  C_4 
REMARK    3  A    between atoms: C_6  and  N_5 
ROOT
ATOM      1  C   UNL d   1      -0.054   2.720  -0.172  0.00  0.00     0.263 C 
ATOM      2  N   UNL d   1      -1.363   3.065  -0.465  0.00  0.00    -0.320 N 
ATOM      3  O   UNL d   1       0.832   3.545   0.042  0.00  0.00    -0.267 OA
ATOM      4  H   UNL d   1      -2.030   2.303  -0.544  0.00  0.00     0.169 HD
ENDROOT
BRANCH   1   5
ATOM      5  C   UNL d   1       0.241   1.290  -0.115  0.00  0.00     0.073 A 
ATOM      6  S   UNL d   1      -0.916   0.060  -0.369  0.00  0.00    -0.088 SA
ATOM      7  C   UNL d   1       0.226  -1.208  -0.084  0.00  0.00    -0.009 A 
ATOM      8  C   UNL d   1       1.481  -0.672   0.144  0.00  0.00     0.017 A 
ATOM      9  C   UNL d   1       1.484   0.748   0.141  0.00  0.00     0.025 A 
BRANCH   7  10
ATOM     10  C   UNL d   1      -0.187  -2.687  -0.108  0.00  0.00    -0.018 C 
ATOM     11  C   UNL d   1      -0.509  -3.132  -1.547  0.00  0.00     0.020 C 
ATOM     12  C   UNL d   1       0.958  -3.586   0.417  0.00  0.00     0.020 C 
ATOM     13  C   UNL d   1      -1.411  -2.933   0.797  0.00  0.00     0.020 C 
ENDBRANCH   7  10
ENDBRANCH   1   5
BRANCH   2  14
ATOM     14  C   UNL d   1      -1.880   4.372  -0.648  0.00  0.00     0.076 A 
ATOM     15  C   UNL d   1      -1.100   5.531  -0.655  0.00  0.00     0.074 A 
ATOM     16  C   UNL d   1      -1.698   6.774  -0.860  0.00  0.00     0.118 A 
ATOM     17  F   UNL d   1      -0.933   7.875  -0.875  0.00  0.00    -0.206 F 
ATOM     18  C   UNL d   1      -3.068   6.896  -1.056  0.00  0.00     0.045 A 
ATOM     19  C   UNL d   1      -3.859   5.750  -1.050  0.00  0.00     0.047 A 
ATOM     20  C   UNL d   1      -3.261   4.505  -0.851  0.00  0.00     0.143 A 
ATOM     21  F   UNL d   1      -4.038   3.409  -0.851  0.00  0.00    -0.204 F 
ENDBRANCH   2  14
TORSDOF 3
