REMARK  4 active torsions:
REMARK  status: ('A' for Active; 'I' for Inactive)
REMARK    1  A    between atoms: C_8  and  N_1 
REMARK    2  A    between atoms: S_12  and  C_2 
REMARK    3  A    between atoms: O_16  and  C_3 
REMARK    4  A    between atoms: C_9  and  C_10 
ROOT
ATOM      1  N   UNL d   1      -0.187  -1.298   0.022  0.00  0.00    -0.255 N 
ATOM      2  C   UNL d   1       0.916  -0.614   0.520  0.00  0.00     0.169 A 
ATOM      3  C   UNL d   1      -0.939  -0.288  -0.572  0.00  0.00     0.245 A 
ATOM      4  N   UNL d   1       0.831   0.665   0.225  0.00  0.00    -0.276 N 
ATOM      5  HN  UNL d   1       1.511   1.383   0.474  1.00  0.00     0.189 HD
ATOM      6  N   UNL d   1      -0.329   0.866  -0.473  0.00  0.00    -0.263 N 
ATOM      7  HN  UNL d   1      -0.658   1.754  -0.850  1.00  0.00     0.190 HD
ENDROOT
BRANCH   1   8
ATOM      8  C   UNL d   1      -0.503  -2.690   0.056  0.00  0.00     0.046 A 
ATOM      9  C   UNL d   1      -0.125  -3.494   1.142  0.00  0.00     0.046 A 
ATOM     10  C   UNL d   1      -0.396  -4.873   1.149  0.00  0.00     0.050 A 
ATOM     11  C   UNL d   1      -1.089  -5.436   0.069  0.00  0.00     0.016 A 
ATOM     12  C   UNL d   1      -1.490  -4.641  -1.003  0.00  0.00     0.003 A 
ATOM     13  C   UNL d   1      -1.193  -3.276  -1.016  0.00  0.00     0.030 A 
BRANCH  10  14
ATOM     14  C   UNL d   1       0.060  -5.751   2.292  0.00  0.00     0.417 C 
ATOM     15  F   UNL d   1       0.727  -5.074   3.267  0.00  0.00    -0.166 F 
ATOM     16  F   UNL d   1      -0.978  -6.375   2.913  0.00  0.00    -0.166 F 
ATOM     17  F   UNL d   1       0.902  -6.740   1.881  0.00  0.00    -0.166 F 
ENDBRANCH  10  14
ENDBRANCH   1   8
BRANCH   2  18
ATOM     18  S   UNL d   1       2.309  -1.337   1.263  0.00  0.00    -0.096 SA
ATOM     19  C   UNL d   1       3.293   0.123   1.664  0.00  0.00     0.099 C 
ENDBRANCH   2  18
BRANCH   3  20
ATOM     20  O   UNL d   1      -2.159  -0.401  -1.086  0.00  0.00    -0.331 OA
ATOM     21  H   UNL d   1      -2.595  -1.167  -0.679  0.00  0.00     0.221 HD
ENDBRANCH   3  20
TORSDOF 4
