REMARK  6 active torsions:
REMARK  status: ('A' for Active; 'I' for Inactive)
REMARK    1  A    between atoms: C_2  and  S_1 
REMARK    2  A    between atoms: O_4  and  S_1 
REMARK    3  A    between atoms: N_3  and  C_8 
REMARK    4  A    between atoms: C_15  and  O_4 
REMARK    5  A    between atoms: O_20  and  C_9 
REMARK    6  A    between atoms: O_21  and  C_16 
ROOT
ATOM      1  S   UNL d   1       1.087   0.091   0.063  0.00  0.00     0.305 S 
ATOM      2  O   UNL d   1       1.166   0.672   1.390  0.00  0.00    -0.193 OA
ATOM      3  O   UNL d   1       0.319   0.715  -0.998  0.00  0.00    -0.193 OA
ENDROOT
BRANCH   1   4
ATOM      4  C   UNL d   1       0.427  -1.547   0.236  0.00  0.00     0.122 A 
ATOM      5  C   UNL d   1       1.173  -2.617  -0.300  0.00  0.00     0.065 A 
ATOM      6  C   UNL d   1       0.745  -3.932  -0.131  0.00  0.00     0.069 A 
ATOM      7  C   UNL d   1      -0.443  -4.173   0.556  0.00  0.00     0.039 A 
ATOM      8  C   UNL d   1      -1.187  -3.114   1.083  0.00  0.00     0.041 A 
ATOM      9  C   UNL d   1      -0.766  -1.789   0.925  0.00  0.00     0.092 A 
BRANCH   6  10
ATOM     10  O   UNL d   1       1.393  -5.052  -0.569  0.00  0.00    -0.356 OA
ATOM     11  C   UNL d   1       2.645  -4.870  -1.219  0.00  0.00     0.210 C 
ENDBRANCH   6  10
BRANCH   9  12
ATOM     12  O   UNL d   1      -1.542  -0.887   1.595  0.00  0.00    -0.354 OA
ATOM     13  C   UNL d   1      -2.018   0.235   0.856  0.00  0.00     0.210 C 
ENDBRANCH   9  12
ENDBRANCH   1   4
BRANCH   1  14
ATOM     14  O   UNL d   1       2.615  -0.113  -0.478  0.00  0.00    -0.229 OA
BRANCH  14  15
ATOM     15  C   UNL d   1       3.448   0.955  -0.703  0.00  0.00     0.089 A 
ATOM     16  C   UNL d   1       4.813   0.654  -0.750  0.00  0.00     0.040 A 
ATOM     17  C   UNL d   1       5.754   1.664  -0.967  0.00  0.00     0.039 A 
ATOM     18  C   UNL d   1       5.323   2.982  -1.149  0.00  0.00     0.103 A 
ATOM     19  C   UNL d   1       3.956   3.289  -1.127  0.00  0.00     0.039 A 
ATOM     20  C   UNL d   1       3.023   2.272  -0.906  0.00  0.00     0.040 A 
BRANCH  18  21
ATOM     21  N   UNL d   1       6.302   4.053  -1.367  0.00  0.00    -0.116 N 
ATOM     22  O   UNL d   1       7.502   3.740  -1.377  0.00  0.00    -0.532 OA
ATOM     23  O   UNL d   1       5.874   5.205  -1.526  0.00  0.00    -0.532 OA
ENDBRANCH  18  21
ENDBRANCH  14  15
ENDBRANCH   1  14
TORSDOF 6
