REMARK  4 active torsions:
REMARK  status: ('A' for Active; 'I' for Inactive)
REMARK    1  A    between atoms: C_2  and  C_1 
REMARK    2  A    between atoms: C_3  and  C_2 
REMARK    3  A    between atoms: S_10  and  C_4 
REMARK    4  A    between atoms: S_11  and  C_4 
ROOT
ATOM      1  C   UNL d   1       0.447   0.628  -1.101  0.00  0.00     0.190 C 
ATOM      2  O   UNL d   1       0.986   1.090  -2.105  0.00  0.00    -0.287 OA
ENDROOT
BRANCH   1   3
ATOM      3  C   UNL d   1       1.258  -0.131  -0.102  0.00  0.00     0.082 C 
ATOM      4  C   UNL d   1       2.542   0.073   0.239  0.00  0.00     0.040 C 
BRANCH   4   5
ATOM      5  S   UNL d   1       3.228  -1.021   1.431  0.00  0.00    -0.127 SA
ATOM      6  C   UNL d   1       4.615  -1.716   0.495  0.00  0.00     0.096 C 
ENDBRANCH   4   5
BRANCH   4   7
ATOM      7  S   UNL d   1       3.553   1.363  -0.345  0.00  0.00    -0.127 SA
ATOM      8  C   UNL d   1       2.657   2.817   0.244  0.00  0.00     0.096 C 
ENDBRANCH   4   7
ENDBRANCH   1   3
BRANCH   1   9
ATOM      9  C   UNL d   1      -0.995   0.724  -0.897  0.00  0.00     0.054 A 
ATOM     10  S   UNL d   1      -1.718   0.619   0.654  0.00  0.00    -0.098 SA
ATOM     11  C   UNL d   1      -3.284   0.883   0.023  0.00  0.00     0.050 A 
ATOM     12  C   UNL d   1      -3.268   1.048  -1.343  0.00  0.00     0.009 A 
ATOM     13  C   UNL d   1      -1.948   0.967  -1.871  0.00  0.00     0.023 A 
ENDBRANCH   1   9
TORSDOF 4
