REMARK  5 active torsions:
REMARK  status: ('A' for Active; 'I' for Inactive)
REMARK    1  A    between atoms: C_2  and  S_1 
REMARK    2  A    between atoms: N_4  and  S_1 
REMARK    3  A    between atoms: N_3  and  C_12 
REMARK    4  A    between atoms: O_13  and  C_5 
REMARK    5  A    between atoms: C_21  and  O_13 
ROOT
ATOM      1  C   UNL d   1       0.359  -0.636   1.506  0.00  0.00     0.078 A 
ATOM      2  C   UNL d   1      -0.251  -1.710   4.025  0.00  0.00     0.119 A 
ATOM      3  C   UNL d   1      -0.550  -0.369   3.721  0.00  0.00     0.071 A 
ATOM      4  C   UNL d   1       0.384  -2.497   3.051  0.00  0.00     0.071 A 
ATOM      5  C   UNL d   1       0.657  -1.973   1.783  0.00  0.00     0.051 A 
ATOM      6  C   UNL d   1      -0.248   0.171   2.468  0.00  0.00     0.051 A 
ATOM      7 CL   UNL d   1       0.963  -4.095   3.372  0.00  0.00    -0.081 Cl
ATOM      8 CL   UNL d   1      -1.238   0.684   4.908  0.00  0.00    -0.081 Cl
ENDROOT
BRANCH   2   9
ATOM      9  O   UNL d   1      -0.424  -2.107   5.332  0.00  0.00    -0.307 OA
BRANCH   9  10
ATOM     10  C   UNL d   1      -1.214  -3.186   5.657  0.00  0.00     0.076 A 
ATOM     11  C   UNL d   1      -1.129  -3.576   7.001  0.00  0.00     0.040 A 
ATOM     12  C   UNL d   1      -1.832  -4.689   7.470  0.00  0.00     0.039 A 
ATOM     13  C   UNL d   1      -2.623  -5.421   6.579  0.00  0.00     0.103 A 
ATOM     14  C   UNL d   1      -2.741  -5.021   5.241  0.00  0.00     0.039 A 
ATOM     15  C   UNL d   1      -2.054  -3.887   4.789  0.00  0.00     0.040 A 
BRANCH  13  16
ATOM     16  N   UNL d   1      -3.328  -6.620   7.047  0.00  0.00    -0.116 N 
ATOM     17  O   UNL d   1      -3.267  -6.892   8.255  0.00  0.00    -0.532 OA
ATOM     18  O   UNL d   1      -3.942  -7.293   6.205  0.00  0.00    -0.532 OA
ENDBRANCH  13  16
ENDBRANCH   9  10
ENDBRANCH   2   9
BRANCH   1  19
ATOM     19  S   UNL d   1       0.967   0.104   0.010  0.00  0.00     0.243 S 
ATOM     20  O   UNL d   1       1.428  -0.960  -0.855  0.00  0.00    -0.206 OA
ATOM     21  O   UNL d   1       1.851   1.171   0.429  0.00  0.00    -0.206 OA
BRANCH  19  22
ATOM     22  N   UNL d   1      -0.414   0.800  -0.699  0.00  0.00    -0.202 NA
ATOM     23  C   UNL d   1      -1.390  -0.135  -1.351  0.00  0.00     0.134 C 
ATOM     24  C   UNL d   1      -0.977  -0.503  -2.787  0.00  0.00     0.183 C 
ATOM     25  O   UNL d   1      -0.711   0.658  -3.587  0.00  0.00    -0.389 OA
ATOM     26  C   UNL d   1       0.324   1.454  -2.995  0.00  0.00     0.183 C 
ATOM     27  C   UNL d   1      -0.125   1.952  -1.620  0.00  0.00     0.134 C 
ENDBRANCH  19  22
ENDBRANCH   1  19
TORSDOF 5
