REMARK  7 active torsions:
REMARK  status: ('A' for Active; 'I' for Inactive)
REMARK    1  A    between atoms: N_2  and  S_1 
REMARK    2  A    between atoms: C_4  and  S_1 
REMARK    3  A    between atoms: C_3  and  N_2 
REMARK    4  A    between atoms: C_15  and  C_3 
REMARK    5  A    between atoms: C_18  and  C_9 
REMARK    6  A    between atoms: S_10  and  C_15 
REMARK    7  A    between atoms: C_16  and  S_10 
ROOT
ATOM      1  N   UNL d   1       0.550   0.807   1.260  0.00  0.00    -0.269 N 
ATOM      2  H   UNL d   1      -0.242   0.370   1.725  0.00  0.00     0.180 HD
ENDROOT
BRANCH   1   3
ATOM      3  S   UNL d   1       1.112  -0.067  -0.044  0.00  0.00     0.264 S 
ATOM      4  O   UNL d   1       0.508  -1.385   0.050  0.00  0.00    -0.200 OA
ATOM      5  O   UNL d   1       2.545   0.115  -0.124  0.00  0.00    -0.200 OA
BRANCH   3   6
ATOM      6  C   UNL d   1       0.358   0.783  -1.413  0.00  0.00     0.079 A 
ATOM      7  C   UNL d   1       1.050   1.819  -2.046  0.00  0.00     0.026 A 
ATOM      8  C   UNL d   1       0.434   2.540  -3.075  0.00  0.00     0.009 A 
ATOM      9  C   UNL d   1      -0.872   2.232  -3.490  0.00  0.00    -0.055 A 
ATOM     10  C   UNL d   1      -1.524   1.142  -2.888  0.00  0.00     0.009 A 
ATOM     11  C   UNL d   1      -0.915   0.418  -1.853  0.00  0.00     0.026 A 
BRANCH   9  12
ATOM     12  C   UNL d   1      -1.604   3.081  -4.521  0.00  0.00     0.010 C 
ATOM     13  C   UNL d   1      -1.741   4.534  -4.051  0.00  0.00     0.015 C 
ATOM     14  C   UNL d   1      -0.960   3.045  -5.909  0.00  0.00     0.015 C 
ENDBRANCH   9  12
ENDBRANCH   3   6
ENDBRANCH   1   3
BRANCH   1  15
ATOM     15  C   UNL d   1       0.890   2.128   1.603  0.00  0.00     0.094 C 
ATOM     16  N   UNL d   1       2.029   2.624   1.272  0.00  0.00    -0.388 N 
ATOM     17  H   UNL d   1       2.605   1.882   0.836  0.00  0.00     0.157 HD
ATOM     18  HN  UNL d   1       2.319   3.592   1.416  1.00  0.00     0.157 HD
BRANCH  15  19
ATOM     19  C   UNL d   1      -0.140   2.982   2.351  0.00  0.00     0.156 C 
BRANCH  19  20
ATOM     20  S   UNL d   1      -1.197   1.927   3.408  0.00  0.00    -0.122 SA
BRANCH  20  21
ATOM     21  C   UNL d   1      -2.379   3.034   4.170  0.00  0.00     0.001 A 
ATOM     22  C   UNL d   1      -3.643   2.484   4.441  0.00  0.00     0.020 A 
ATOM     23  C   UNL d   1      -4.604   3.189   5.173  0.00  0.00     0.025 A 
ATOM     24  C   UNL d   1      -4.308   4.460   5.645  0.00  0.00     0.034 A 
ATOM     25  C   UNL d   1      -3.064   5.032   5.377  0.00  0.00     0.025 A 
ATOM     26 CL   UNL d   1      -5.469   5.310   6.589  0.00  0.00    -0.084 Cl
ATOM     27  C   UNL d   1      -2.100   4.324   4.637  0.00  0.00     0.020 A 
ENDBRANCH  20  21
ENDBRANCH  19  20
ENDBRANCH  15  19
ENDBRANCH   1  15
TORSDOF 7
