REMARK  3 active torsions:
REMARK  status: ('A' for Active; 'I' for Inactive)
REMARK    1  A    between atoms: C_4  and  C_1 
REMARK    2  A    between atoms: C_12  and  C_5 
REMARK    3  A    between atoms: C_7  and  C_10 
ROOT
ATOM      1  C   UNL d   1      -0.239  -0.510  -0.896  0.00  0.00     0.088 C 
ATOM      2  N   UNL d   1       0.711   0.371  -1.151  0.00  0.00    -0.349 N 
ATOM      3  HN  UNL d   1       0.965   0.689  -2.086  1.00  0.00     0.166 HD
ATOM      4  C   UNL d   1       1.318   0.808   0.017  0.00  0.00     0.050 C 
ATOM      5  S   UNL d   1      -0.390  -0.893   0.786  0.00  0.00    -0.081 SA
ATOM      6  C   UNL d   1       0.764   0.301   1.175  0.00  0.00     0.082 C 
ENDROOT
BRANCH   1   7
ATOM      7  C   UNL d   1      -1.041  -1.223  -1.921  0.00  0.00     0.041 A 
ATOM      8  C   UNL d   1      -0.445  -1.632  -3.139  0.00  0.00     0.049 A 
ATOM      9  C   UNL d   1      -1.172  -2.342  -4.115  0.00  0.00     0.041 A 
ATOM     10 CL   UNL d   1       1.220  -1.345  -3.541  0.00  0.00    -0.083 Cl
ATOM     11  C   UNL d   1      -2.509  -2.686  -3.911  0.00  0.00     0.051 A 
ATOM     12  C   UNL d   1      -3.119  -2.273  -2.727  0.00  0.00     0.041 A 
ATOM     13  C   UNL d   1      -2.411  -1.532  -1.763  0.00  0.00     0.049 A 
ATOM     14 CL   UNL d   1      -3.390  -0.992  -0.433  0.00  0.00    -0.083 Cl
BRANCH  11  15
ATOM     15  C   UNL d   1      -3.273  -3.469  -4.952  0.00  0.00     0.417 C 
ATOM     16  F   UNL d   1      -4.549  -3.761  -4.581  0.00  0.00    -0.166 F 
ATOM     17  F   UNL d   1      -3.367  -2.800  -6.134  0.00  0.00    -0.166 F 
ATOM     18  F   UNL d   1      -2.682  -4.662  -5.237  0.00  0.00    -0.166 F 
ENDBRANCH  11  15
ENDBRANCH   1   7
BRANCH   4  19
ATOM     19  C   UNL d   1       2.477   1.690   0.005  0.00  0.00    -0.006 A 
ATOM     20  C   UNL d   1       2.702   2.605   1.041  0.00  0.00     0.053 A 
ATOM     21  C   UNL d   1       3.831   3.430   1.035  0.00  0.00     0.102 A 
ATOM     22  O   UNL d   1       3.899   4.310   2.087  0.00  0.00    -0.348 OA
ATOM     23  C   UNL d   1       4.780   3.312   0.013  0.00  0.00     0.102 A 
ATOM     24  C   UNL d   1       4.401   5.588   1.705  0.00  0.00     0.178 C 
ATOM     25  C   UNL d   1       5.918   5.614   1.767  0.00  0.00     0.053 C 
ATOM     26  C   UNL d   1       6.532   4.353   1.181  0.00  0.00     0.178 C 
ATOM     27  O   UNL d   1       5.950   4.026  -0.079  0.00  0.00    -0.348 OA
ATOM     28  C   UNL d   1       4.552   2.415  -1.034  0.00  0.00     0.040 A 
ATOM     29  C   UNL d   1       3.406   1.612  -1.038  0.00  0.00     0.017 A 
ENDBRANCH   4  19
TORSDOF 3
