REMARK  3 active torsions:
REMARK  status: ('A' for Active; 'I' for Inactive)
REMARK    1  A    between atoms: C_9  and  N_6 
REMARK    2  A    between atoms: C_10  and  C_9 
REMARK    3  A    between atoms: C_12  and  C_10 
ROOT
ATOM      1  C   UNL d   1      -0.146  -1.378   0.089  0.00  0.00     0.709 A 
ATOM      2  N   UNL d   1       1.114  -0.957   0.266  0.00  0.00    -0.116 N 
ATOM      3  HN  UNL d   1       1.957  -1.492   0.473  1.00  0.00     0.207 HD
ATOM      4  N   UNL d   1      -1.005  -0.338  -0.185  0.00  0.00    -0.113 N 
ATOM      5  HN  UNL d   1      -2.009  -0.410  -0.352  1.00  0.00     0.203 HD
ATOM      6  N   UNL d   1       0.958   0.368   0.096  0.00  0.00    -0.196 N 
ATOM      7  N   UNL d   1      -0.286   0.774  -0.190  0.00  0.00     0.011 NA
ATOM      8  N   UNL d   1      -0.581  -2.666   0.130  0.00  0.00    -0.215 N 
ATOM      9  C   UNL d   1       0.255  -3.642   0.831  0.00  0.00     0.141 C 
ATOM     10  C   UNL d   1      -2.025  -2.908   0.200  0.00  0.00     0.141 C 
ATOM     11  C   UNL d   1      -0.041  -5.053   0.328  0.00  0.00     0.020 C 
ATOM     12  C   UNL d   1      -2.354  -4.315  -0.299  0.00  0.00     0.020 C 
ATOM     13  C   UNL d   1      -1.528  -5.378   0.418  0.00  0.00     0.003 C 
ENDROOT
BRANCH   6  14
ATOM     14  C   UNL d   1       2.088   1.256   0.021  0.00  0.00     0.251 C 
BRANCH  14  15
ATOM     15  C   UNL d   1       2.382   1.867   1.363  0.00  0.00     0.180 C 
ATOM     16  O   UNL d   1       1.835   2.913   1.712  0.00  0.00    -0.290 OA
BRANCH  15  17
ATOM     17  C   UNL d   1       3.383   1.235   2.280  0.00  0.00     0.011 A 
ATOM     18  C   UNL d   1       3.952  -0.023   2.050  0.00  0.00     0.015 A 
ATOM     19  C   UNL d   1       4.910  -0.533   2.934  0.00  0.00     0.001 A 
ATOM     20  C   UNL d   1       5.301   0.202   4.052  0.00  0.00     0.000 A 
ATOM     21  C   UNL d   1       4.727   1.446   4.298  0.00  0.00     0.001 A 
ATOM     22  C   UNL d   1       3.771   1.959   3.418  0.00  0.00     0.015 A 
ENDBRANCH  15  17
ENDBRANCH  14  15
ENDBRANCH   6  14
TORSDOF 3
