REMARK  5 active torsions:
REMARK  status: ('A' for Active; 'I' for Inactive)
REMARK    1  A    between atoms: C_10  and  C_3 
REMARK    2  A    between atoms: C_4  and  O_6 
REMARK       I    between atoms: N_11  and  C_4 
REMARK    3  A    between atoms: O_6  and  C_5 
REMARK    4  A    between atoms: C_20  and  C_12 
REMARK    5  A    between atoms: C_23  and  C_20 
ROOT
ATOM      1  N   UNL d   1       1.248   0.568  -0.035  0.00  0.00    -0.322 N 
ATOM      2  HN  UNL d   1       2.185   0.960  -0.130  1.00  0.00     0.169 HD
ATOM      3  C   UNL d   1       0.149   1.345  -0.064  0.00  0.00     0.117 A 
ATOM      4  C   UNL d   1       1.044  -0.755   0.127  0.00  0.00     0.156 A 
ATOM      5  N   UNL d   1      -1.110   0.871   0.005  0.00  0.00    -0.345 N 
ATOM      6  HN  UNL d   1      -1.913   1.497  -0.056  1.00  0.00     0.167 HD
ATOM      7  C   UNL d   1      -0.203  -1.322   0.245  0.00  0.00     0.081 A 
ATOM      8  C   UNL d   1      -1.272  -0.457   0.157  0.00  0.00     0.015 A 
ENDROOT
BRANCH   3   9
ATOM      9  C   UNL d   1       0.311   2.812  -0.112  0.00  0.00     0.009 A 
ATOM     10  C   UNL d   1       1.580   3.422  -0.077  0.00  0.00     0.022 A 
ATOM     11  C   UNL d   1       1.730   4.819  -0.030  0.00  0.00    -0.061 A 
ATOM     12  C   UNL d   1       3.090   5.445   0.066  0.00  0.00     0.048 C 
ATOM     13  C   UNL d   1       0.592   5.630  -0.029  0.00  0.00     0.007 A 
ATOM     14  C   UNL d   1      -0.674   5.058  -0.096  0.00  0.00     0.002 A 
ATOM     15  C   UNL d   1      -0.809   3.668  -0.140  0.00  0.00     0.015 A 
ENDBRANCH   3   9
BRANCH   4  16
ATOM     16  O   UNL d   1       2.230  -1.524   0.026  0.00  0.00    -0.244 OA
BRANCH  16  17
ATOM     17  C   UNL d   1       2.365  -2.869   0.380  0.00  0.00     0.368 C 
ATOM     18  N   UNL d   1       3.584  -3.406  -0.020  0.00  0.00    -0.336 N 
ATOM     19  C   UNL d   1       3.835  -4.824   0.164  0.00  0.00     0.154 C 
ATOM     20  C   UNL d   1       4.553  -2.673  -0.817  0.00  0.00     0.154 C 
ATOM     21  O   UNL d   1       1.502  -3.515   0.957  0.00  0.00    -0.238 OA
ENDBRANCH  16  17
ENDBRANCH   4  16
BRANCH   8  22
ATOM     22  C   UNL d   1      -2.686  -0.971   0.149  0.00  0.00     0.057 C 
BRANCH  22  23
ATOM     23  C   UNL d   1      -3.051  -1.675  -1.162  0.00  0.00     0.002 C 
ATOM     24  C   UNL d   1      -3.024  -0.748  -2.371  0.00  0.00     0.005 C 
ENDBRANCH  22  23
ENDBRANCH   8  22
TORSDOF 5
