REMARK  3 active torsions:
REMARK  status: ('A' for Active; 'I' for Inactive)
REMARK    1  A    between atoms: C_25  and  N_5 
REMARK    2  A    between atoms: C_15  and  C_10 
REMARK    3  A    between atoms: C_14  and  C_16 
ROOT
ATOM      1  C   UNL d   1      -0.319  -1.375   0.097  0.00  0.00     0.123 A 
ATOM      2  C   UNL d   1      -0.500  -2.787   0.136  0.00  0.00     0.202 A 
ATOM      3  N   UNL d   1      -0.241  -3.531   1.189  0.00  0.00    -0.317 N 
ATOM      4  HN  UNL d   1       0.043  -3.230   2.121  1.00  0.00     0.169 HD
ATOM      5  N   UNL d   1      -1.060  -0.504  -0.664  0.00  0.00    -0.287 N 
ATOM      6  N   UNL d   1      -0.639   0.778  -0.576  0.00  0.00    -0.301 N 
ATOM      7  HN  UNL d   1      -1.010   1.592  -1.065  1.00  0.00     0.187 HD
ATOM      8  C   UNL d   1       0.594  -0.579   0.753  0.00  0.00     0.067 A 
ATOM      9  C   UNL d   1       0.376   0.738   0.298  0.00  0.00     0.042 A 
ATOM     10  C   UNL d   1      -0.444  -4.811   0.732  0.00  0.00     0.138 A 
ATOM     11  N   UNL d   1      -0.857  -4.874  -0.543  0.00  0.00    -0.242 N 
ATOM     12  HN  UNL d   1      -1.080  -5.702  -1.095  1.00  0.00     0.196 HD
ATOM     13  O   UNL d   1      -0.907  -3.538  -0.935  0.00  0.00    -0.215 OA
ATOM     14 BR   UNL d   1       1.927  -1.096   1.969  0.00  0.00    -0.046 Br
ATOM     15  C   UNL d   1       1.090   1.993   0.640  0.00  0.00     0.071 C 
ENDROOT
BRANCH   5  16
ATOM     16  C   UNL d   1      -2.256  -0.771  -1.446  0.00  0.00     0.145 C 
ATOM     17  C   UNL d   1      -1.958  -1.012  -2.915  0.00  0.00     0.028 C 
ENDBRANCH   5  16
BRANCH  10  18
ATOM     18  C   UNL d   1      -0.210  -5.975   1.573  0.00  0.00     0.010 A 
ATOM     19  C   UNL d   1      -0.390  -5.887   2.960  0.00  0.00     0.016 A 
ATOM     20  C   UNL d   1      -0.164  -6.997   3.780  0.00  0.00     0.017 A 
ATOM     21  C   UNL d   1       0.266  -8.213   3.230  0.00  0.00     0.048 A 
ATOM     22  C   UNL d   1       0.460  -8.296   1.841  0.00  0.00     0.017 A 
ATOM     23  C   UNL d   1       0.216  -7.189   1.021  0.00  0.00     0.016 A 
BRANCH  21  24
ATOM     24  C   UNL d   1       0.523  -9.419   4.099  0.00  0.00     0.417 C 
ATOM     25  F   UNL d   1       0.250  -9.210   5.418  0.00  0.00    -0.166 F 
ATOM     26  F   UNL d   1      -0.225 -10.496   3.732  0.00  0.00    -0.166 F 
ATOM     27  F   UNL d   1       1.821  -9.831   4.048  0.00  0.00    -0.166 F 
ENDBRANCH  21  24
ENDBRANCH  10  18
TORSDOF 3
