REMARK  8 active torsions:
REMARK  status: ('A' for Active; 'I' for Inactive)
REMARK    1  A    between atoms: C_3  and  C_1 
REMARK    2  A    between atoms: C_2  and  N_4 
REMARK    3  A    between atoms: N_10  and  C_2 
REMARK    4  A    between atoms: N_4  and  C_9 
REMARK    5  A    between atoms: C_5  and  C_8 
REMARK    6  A    between atoms: O_16  and  C_5 
REMARK    7  A    between atoms: C_8  and  C_15 
REMARK    8  A    between atoms: C_15  and  N_10 
ROOT
ATOM      1  N   UNL d   1       1.490  -4.658  -0.677  0.00  0.00    -0.333 N 
ATOM      2  H   UNL d   1       1.126  -5.485  -1.134  0.00  0.00     0.168 HD
ENDROOT
BRANCH   1   3
ATOM      3  C   UNL d   1       2.443  -4.906   0.278  0.00  0.00     0.172 C 
ATOM      4  S   UNL d   1       2.549  -4.227   1.799  0.00  0.00    -0.041 SA
BRANCH   3   5
ATOM      5  N   UNL d   1       3.380  -5.843  -0.077  0.00  0.00    -0.366 N 
ATOM      6  H   UNL d   1       4.069  -6.027   0.645  0.00  0.00     0.161 HD
BRANCH   5   7
ATOM      7  C   UNL d   1       3.658  -6.240  -1.450  0.00  0.00     0.132 C 
BRANCH   7   8
ATOM      8  C   UNL d   1       5.062  -6.798  -1.628  0.00  0.00     0.129 C 
BRANCH   8   9
ATOM      9  C   UNL d   1       5.307  -7.092  -3.086  0.00  0.00     0.140 C 
ATOM     10  O   UNL d   1       4.477  -6.977  -3.973  0.00  0.00    -0.650 OA
BRANCH   9  11
ATOM     11  O   UNL d   1       6.568  -7.516  -3.329  0.00  0.00    -0.776 OA
ATOM     12  H   UNL d   1       7.137  -7.562  -2.537  0.00  0.00     0.167 HD
ENDBRANCH   9  11
ENDBRANCH   8   9
ENDBRANCH   7   8
ENDBRANCH   5   7
ENDBRANCH   3   5
ENDBRANCH   1   3
BRANCH   1  13
ATOM     13  C   UNL d   1       0.866  -3.441  -1.005  0.00  0.00     0.035 A 
ATOM     14  C   UNL d   1       1.469  -2.205  -0.763  0.00  0.00     0.045 A 
ATOM     15  C   UNL d   1       0.858  -1.012  -1.178  0.00  0.00     0.050 A 
ATOM     16  C   UNL d   1      -0.381  -1.075  -1.833  0.00  0.00     0.016 A 
ATOM     17  C   UNL d   1      -0.979  -2.308  -2.094  0.00  0.00     0.003 A 
ATOM     18  C   UNL d   1      -0.347  -3.488  -1.697  0.00  0.00     0.029 A 
BRANCH  15  19
ATOM     19  C   UNL d   1       1.525   0.320  -0.941  0.00  0.00     0.417 C 
ATOM     20  F   UNL d   1       2.753   0.225  -0.359  0.00  0.00    -0.166 F 
ATOM     21  F   UNL d   1       0.790   1.134  -0.133  0.00  0.00    -0.166 F 
ATOM     22  F   UNL d   1       1.716   1.017  -2.095  0.00  0.00    -0.166 F 
ENDBRANCH  15  19
ENDBRANCH   1  13
TORSDOF 8
