REMARK  6 active torsions:
REMARK  status: ('A' for Active; 'I' for Inactive)
REMARK    1  A    between atoms: C_7  and  S_1 
REMARK    2  A    between atoms: C_16  and  S_1 
REMARK    3  A    between atoms: C_10  and  C_4 
REMARK    4  A    between atoms: C_5  and  C_7 
REMARK    5  A    between atoms: C_6  and  C_11 
REMARK    6  A    between atoms: C_20  and  C_16 
ROOT
ATOM      1  C   UNL d   1       0.312  -1.498  -0.433  0.00  0.00     0.205 C 
ENDROOT
BRANCH   1   2
ATOM      2  C   UNL d   1       0.767  -2.030  -1.745  0.00  0.00     0.065 A 
ATOM      3  N   UNL d   1      -0.057  -2.275  -2.747  0.00  0.00    -0.352 N 
ATOM      4  C   UNL d   1       0.618  -2.896  -3.789  0.00  0.00     0.049 A 
ATOM      5  HN  UNL d   1      -1.050  -2.041  -2.755  1.00  0.00     0.166 HD
ATOM      6  C   UNL d   1       1.968  -3.083  -3.573  0.00  0.00     0.081 A 
ATOM      7  S   UNL d   1       2.391  -2.534  -2.008  0.00  0.00    -0.085 SA
BRANCH   4   8
ATOM      8  C   UNL d   1      -0.081  -3.332  -4.992  0.00  0.00    -0.007 A 
ATOM      9  C   UNL d   1      -1.400  -3.799  -4.898  0.00  0.00     0.039 A 
ATOM     10  C   UNL d   1      -2.096  -4.210  -6.042  0.00  0.00     0.056 A 
ATOM     11 CL   UNL d   1      -3.716  -4.778  -5.839  0.00  0.00    -0.083 Cl
ATOM     12  C   UNL d   1      -1.477  -4.152  -7.295  0.00  0.00     0.055 A 
ATOM     13  C   UNL d   1      -0.161  -3.693  -7.395  0.00  0.00     0.026 A 
ATOM     14 CL   UNL d   1      -2.277  -4.620  -8.752  0.00  0.00    -0.083 Cl
ATOM     15  C   UNL d   1       0.533  -3.287  -6.251  0.00  0.00     0.015 A 
ENDBRANCH   4   8
ENDBRANCH   1   2
BRANCH   1  16
ATOM     16  S   UNL d   1       1.009   0.095  -0.069  0.00  0.00     0.154 S 
ATOM     17  O   UNL d   1       2.454  -0.044   0.008  0.00  0.00    -0.227 OA
ATOM     18  O   UNL d   1       0.277   0.589   1.089  0.00  0.00    -0.227 OA
BRANCH  16  19
ATOM     19  C   UNL d   1       0.595   1.144  -1.473  0.00  0.00     0.179 C 
BRANCH  19  20
ATOM     20  C   UNL d   1       1.155   2.521  -1.193  0.00  0.00    -0.043 A 
ATOM     21  C   UNL d   1       2.487   2.825  -1.519  0.00  0.00     0.024 A 
ATOM     22  C   UNL d   1       3.064   4.050  -1.147  0.00  0.00     0.048 A 
ATOM     23  C   UNL d   1       2.277   4.992  -0.466  0.00  0.00     0.016 A 
ATOM     24  C   UNL d   1       0.947   4.709  -0.158  0.00  0.00     0.001 A 
ATOM     25  C   UNL d   1       0.391   3.481  -0.515  0.00  0.00     0.008 A 
BRANCH  22  26
ATOM     26  C   UNL d   1       4.517   4.348  -1.427  0.00  0.00     0.417 C 
ATOM     27  F   UNL d   1       5.157   3.357  -2.111  0.00  0.00    -0.166 F 
ATOM     28  F   UNL d   1       4.684   5.477  -2.172  0.00  0.00    -0.166 F 
ATOM     29  F   UNL d   1       5.240   4.543  -0.290  0.00  0.00    -0.166 F 
ENDBRANCH  22  26
ENDBRANCH  19  20
ENDBRANCH  16  19
ENDBRANCH   1  16
TORSDOF 6
