REMARK  3 active torsions:
REMARK  status: ('A' for Active; 'I' for Inactive)
REMARK    1  A    between atoms: C_10  and  N_1 
REMARK    2  A    between atoms: C_5  and  N_3 
REMARK    3  A    between atoms: C_11  and  C_10 
ROOT
ATOM      1  N   UNL d   1      -0.399   1.059  -0.167  0.00  0.00    -0.293 N 
ATOM      2  C   UNL d   1       0.892   0.611  -0.107  0.00  0.00     0.150 C 
ATOM      3  N   UNL d   1       1.878   1.383   0.217  0.00  0.00    -0.334 N 
ATOM      4  HN  UNL d   1       1.688   2.348   0.488  1.00  0.00     0.168 HD
ATOM      5  C   UNL d   1      -1.379   0.118  -0.395  0.00  0.00     0.235 C 
ATOM      6  S   UNL d   1       0.967  -1.075  -0.558  0.00  0.00    -0.084 SA
ATOM      7  C   UNL d   1      -0.817  -1.281  -0.393  0.00  0.00     0.185 C 
ATOM      8  O   UNL d   1      -2.568   0.350  -0.571  0.00  0.00    -0.272 OA
ENDROOT
BRANCH   1   9
ATOM      9  C   UNL d   1      -0.727   2.474  -0.159  0.00  0.00     0.180 C 
BRANCH   9  10
ATOM     10  C   UNL d   1      -0.908   2.982   1.240  0.00  0.00     0.001 A 
ATOM     11  S   UNL d   1      -2.456   2.974   1.976  0.00  0.00    -0.105 SA
ATOM     12  C   UNL d   1      -1.864   3.743   3.382  0.00  0.00     0.050 A 
ATOM     13  C   UNL d   1      -0.513   3.991   3.306  0.00  0.00     0.008 A 
ATOM     14  C   UNL d   1       0.041   3.547   2.072  0.00  0.00     0.017 A 
ENDBRANCH   9  10
ENDBRANCH   1   9
BRANCH   3  15
ATOM     15  C   UNL d   1       3.211   0.919   0.204  0.00  0.00     0.069 A 
ATOM     16  C   UNL d   1       4.099   1.406  -0.778  0.00  0.00     0.042 A 
ATOM     17  C   UNL d   1       5.426   0.976  -0.839  0.00  0.00     0.063 A 
ATOM     18 BR   UNL d   1       3.538   2.704  -2.053  0.00  0.00    -0.049 Br
ATOM     19  C   UNL d   1       5.879   0.049   0.087  0.00  0.00     0.119 A 
ATOM     20  C   UNL d   1       5.050  -0.423   1.095  0.00  0.00     0.063 A 
ATOM     21  F   UNL d   1       7.145  -0.381   0.021  0.00  0.00    -0.206 F 
ATOM     22  C   UNL d   1       3.731   0.035   1.173  0.00  0.00     0.042 A 
ATOM     23 BR   UNL d   1       2.701  -0.548   2.664  0.00  0.00    -0.049 Br
ENDBRANCH   3  15
TORSDOF 3
