REMARK  8 active torsions:
REMARK  status: ('A' for Active; 'I' for Inactive)
REMARK       I    between atoms: N_3  and  C_1 
REMARK    1  A    between atoms: O_5  and  C_1 
REMARK    2  A    between atoms: C_2  and  N_3 
REMARK    3  A    between atoms: C_4  and  C_2 
REMARK    4  A    between atoms: C_11  and  C_2 
REMARK       I    between atoms: N_9  and  C_4 
REMARK    5  A    between atoms: C_8  and  O_5 
REMARK    6  A    between atoms: O_10  and  C_11 
REMARK    7  A    between atoms: C_13  and  O_10 
REMARK    8  A    between atoms: C_12  and  C_13 
ROOT
ATOM      1  C   UNL d   1       1.043  -2.211   1.260  0.00  0.00     0.202 C 
ENDROOT
BRANCH   1   2
ATOM      2  N   UNL d   1       0.371  -1.086   0.612  0.00  0.00    -0.322 N 
ATOM      3  C   UNL d   1       0.101  -1.065  -0.725  0.00  0.00     0.362 C 
ATOM      4  O   UNL d   1       0.416  -1.958  -1.496  0.00  0.00    -0.238 OA
ATOM      5  H   UNL d   1       0.074  -0.296   1.170  0.00  0.00     0.165 HD
BRANCH   3   6
ATOM      6  O   UNL d   1      -0.512   0.101  -1.063  0.00  0.00    -0.294 OA
BRANCH   6   7
ATOM      7  C   UNL d   1      -0.805   0.390  -2.462  0.00  0.00     0.061 C 
ATOM      8  C   UNL d   1      -1.871  -0.563  -3.017  0.00  0.00     0.046 C 
ATOM      9  C   UNL d   1      -1.343   1.834  -2.509  0.00  0.00     0.046 C 
ATOM     10  C   UNL d   1       0.463   0.356  -3.325  0.00  0.00     0.046 C 
ENDBRANCH   6   7
ENDBRANCH   3   6
ENDBRANCH   1   2
BRANCH   1  11
ATOM     11  C   UNL d   1       1.866  -1.678   2.437  0.00  0.00     0.240 C 
ATOM     12  O   UNL d   1       1.519  -0.716   3.121  0.00  0.00    -0.271 OA
ATOM     13  N   UNL d   1       2.992  -2.378   2.766  0.00  0.00    -0.368 N 
ATOM     14  H   UNL d   1       3.456  -2.978   2.095  0.00  0.00     0.159 HD
ATOM     15  H   UNL d   1       3.570  -1.979   3.490  0.00  0.00     0.159 HD
ENDBRANCH   1  11
BRANCH   1  16
ATOM     16  C   UNL d   1       0.056  -3.254   1.804  0.00  0.00     0.202 C 
BRANCH  16  17
ATOM     17  O   UNL d   1      -0.693  -3.831   0.734  0.00  0.00    -0.384 OA
BRANCH  17  18
ATOM     18  C   UNL d   1      -1.659  -4.771   1.196  0.00  0.00     0.206 C 
BRANCH  18  19
ATOM     19  C   UNL d   1      -2.464  -5.329   0.047  0.00  0.00    -0.035 A 
ATOM     20  C   UNL d   1      -1.925  -5.435  -1.243  0.00  0.00     0.009 A 
ATOM     21  C   UNL d   1      -2.653  -6.033  -2.273  0.00  0.00     0.001 A 
ATOM     22  C   UNL d   1      -3.929  -6.536  -2.026  0.00  0.00     0.000 A 
ATOM     23  C   UNL d   1      -4.481  -6.431  -0.751  0.00  0.00     0.001 A 
ATOM     24  C   UNL d   1      -3.753  -5.834   0.281  0.00  0.00     0.009 A 
ENDBRANCH  18  19
ENDBRANCH  17  18
ENDBRANCH  16  17
ENDBRANCH   1  16
TORSDOF 8
