REMARK  2 active torsions:
REMARK  status: ('A' for Active; 'I' for Inactive)
REMARK    1  A    between atoms: C_11  and  C_5 
REMARK    2  A    between atoms: O_19  and  C_12 
ROOT
ATOM      1  C   UNL d   1      -2.064   0.333   0.049  0.00  0.00    -0.006 C 
ATOM      2  C   UNL d   1      -1.091  -0.803   0.005  0.00  0.00     0.189 C 
ATOM      3  C   UNL d   1       0.353  -0.431   0.007  0.00  0.00     0.021 A 
ATOM      4  C   UNL d   1       0.746   0.917  -0.036  0.00  0.00    -0.041 A 
ATOM      5  C   UNL d   1      -3.273   0.145  -0.505  0.00  0.00     0.022 C 
ATOM      6  C   UNL d   1       1.323  -1.439   0.020  0.00  0.00     0.019 A 
ATOM      7  C   UNL d   1      -1.544   1.593   0.674  0.00  0.00     0.047 C 
ATOM      8  O   UNL d   1      -1.449  -1.977  -0.048  0.00  0.00    -0.287 OA
ATOM      9  C   UNL d   1       2.111   1.230  -0.109  0.00  0.00     0.044 A 
ATOM     10  C   UNL d   1      -0.276   2.026  -0.050  0.00  0.00     0.044 C 
ATOM     11  C   UNL d   1       3.081   0.224  -0.101  0.00  0.00     0.068 A 
ATOM     12  C   UNL d   1       2.683  -1.112  -0.028  0.00  0.00     0.038 A 
ENDROOT
BRANCH   5  13
ATOM     13  C   UNL d   1      -4.295   1.184  -0.627  0.00  0.00    -0.036 A 
ATOM     14  C   UNL d   1      -4.319   2.018  -1.750  0.00  0.00     0.012 A 
ATOM     15  C   UNL d   1      -5.331   2.970  -1.898  0.00  0.00     0.007 A 
ATOM     16  C   UNL d   1      -6.331   3.099  -0.926  0.00  0.00    -0.062 A 
ATOM     17  C   UNL d   1      -6.280   2.289   0.214  0.00  0.00     0.007 A 
ATOM     18  C   UNL d   1      -7.450   4.078  -1.127  0.00  0.00     0.048 C 
ATOM     19  C   UNL d   1      -5.265   1.340   0.366  0.00  0.00     0.012 A 
ENDBRANCH   5  13
BRANCH  11  20
ATOM     20  O   UNL d   1       4.368   0.680  -0.171  0.00  0.00    -0.356 OA
ATOM     21  C   UNL d   1       5.398  -0.299  -0.165  0.00  0.00     0.210 C 
ENDBRANCH  11  20
TORSDOF 2
