REMARK  4 active torsions:
REMARK  status: ('A' for Active; 'I' for Inactive)
REMARK       I    between atoms: N_2  and  C_1 
REMARK    1  A    between atoms: C_3  and  C_1 
REMARK    2  A    between atoms: C_7  and  N_2 
REMARK    3  A    between atoms: C_4  and  C_7 
REMARK    4  A    between atoms: O_10  and  C_4 
ROOT
ATOM      1  C   UNL d   1       2.436  -0.090   0.003  0.00  0.00     0.252 C 
ATOM      2  N   UNL d   1       3.084  -1.179   0.540  0.00  0.00    -0.347 N 
ATOM      3  O   UNL d   1       3.049   0.864  -0.467  0.00  0.00    -0.268 OA
ATOM      4  H   UNL d   1       2.587  -1.886   1.073  0.00  0.00     0.163 HD
ENDROOT
BRANCH   1   5
ATOM      5  C   UNL d   1       0.948  -0.085   0.037  0.00  0.00     0.032 A 
ATOM      6  C   UNL d   1       0.297   1.155   0.000  0.00  0.00     0.017 A 
ATOM      7  C   UNL d   1      -1.097   1.221  -0.009  0.00  0.00     0.007 A 
ATOM      8  C   UNL d   1      -1.862   0.050   0.008  0.00  0.00    -0.062 A 
ATOM      9  C   UNL d   1      -1.210  -1.190   0.042  0.00  0.00     0.007 A 
ATOM     10  C   UNL d   1      -3.360   0.139  -0.024  0.00  0.00     0.048 C 
ATOM     11  C   UNL d   1       0.189  -1.260   0.056  0.00  0.00     0.017 A 
ENDBRANCH   1   5
BRANCH   2  12
ATOM     12  C   UNL d   1       4.533  -1.199   0.581  0.00  0.00     0.232 C 
BRANCH  12  13
ATOM     13  C   UNL d   1       5.068  -2.428   1.296  0.00  0.00     0.158 C 
ATOM     14  O   UNL d   1       4.365  -3.278   1.826  0.00  0.00    -0.649 OA
BRANCH  13  15
ATOM     15  O   UNL d   1       6.421  -2.494   1.304  0.00  0.00    -0.775 OA
ATOM     16  H   UNL d   1       6.859  -1.747   0.848  0.00  0.00     0.167 HD
ENDBRANCH  13  15
ENDBRANCH  12  13
ENDBRANCH   2  12
TORSDOF 4
