REMARK  8 active torsions:
REMARK  status: ('A' for Active; 'I' for Inactive)
REMARK    1  A    between atoms: C_4  and  C_1 
REMARK    2  A    between atoms: N_6  and  C_2 
REMARK    3  A    between atoms: O_16  and  C_4 
REMARK       I    between atoms: C_7  and  N_6 
REMARK    4  A    between atoms: C_10  and  C_7 
REMARK    5  A    between atoms: O_18  and  C_8 
REMARK    6  A    between atoms: O_19  and  C_9 
REMARK    7  A    between atoms: C_11  and  C_12 
REMARK    8  A    between atoms: O_17  and  C_11 
ROOT
ATOM      1  C   UNL d   1       4.364   0.870  -0.681  0.00  0.00     0.069 A 
ATOM      2  C   UNL d   1       5.651   0.511  -0.235  0.00  0.00     0.054 A 
ATOM      3  C   UNL d   1       3.995   2.220  -0.678  0.00  0.00     0.059 A 
ATOM      4  C   UNL d   1       6.575   1.531   0.075  0.00  0.00     0.070 A 
ATOM      5  C   UNL d   1       4.876   3.227  -0.275  0.00  0.00     0.102 A 
ATOM      6  C   UNL d   1       6.196   2.892   0.065  0.00  0.00     0.103 A 
ENDROOT
BRANCH   2   7
ATOM      7  N   UNL d   1       5.937  -0.824   0.123  0.00  0.00    -0.323 N 
ATOM      8  C   UNL d   1       7.064  -1.600   0.020  0.00  0.00     0.245 C 
ATOM      9  O   UNL d   1       7.146  -2.654   0.639  0.00  0.00    -0.268 OA
ATOM     10  H   UNL d   1       5.164  -1.346   0.528  0.00  0.00     0.169 HD
BRANCH   8  11
ATOM     11  C   UNL d   1       8.007  -1.258  -1.077  0.00  0.00     0.081 C 
ATOM     12  C   UNL d   1       9.224  -1.782  -1.287  0.00  0.00     0.086 C 
BRANCH  12  13
ATOM     13  C   UNL d   1      10.031  -2.686  -0.453  0.00  0.00     0.165 C 
ATOM     14  O   UNL d   1      10.864  -3.450  -0.894  0.00  0.00    -0.647 OA
BRANCH  13  15
ATOM     15  O   UNL d   1       9.898  -2.466   0.860  0.00  0.00    -0.773 OA
ATOM     16  H   UNL d   1      10.486  -3.131   1.270  0.00  0.00     0.167 HD
ENDBRANCH  13  15
ENDBRANCH  12  13
ENDBRANCH   8  11
ENDBRANCH   2   7
BRANCH   1  17
ATOM     17  C   UNL d   1       3.351  -0.067  -1.264  0.00  0.00     0.295 C 
ATOM     18  O   UNL d   1       2.292   0.315  -1.740  0.00  0.00    -0.259 OA
BRANCH  17  19
ATOM     19  O   UNL d   1       3.779  -1.347  -1.255  0.00  0.00    -0.322 OA
ATOM     20  C   UNL d   1       2.880  -2.272  -1.877  0.00  0.00     0.213 C 
ENDBRANCH  17  19
ENDBRANCH   1  17
BRANCH   6  21
ATOM     21  O   UNL d   1       7.029   3.917   0.421  0.00  0.00    -0.353 OA
ATOM     22  C   UNL d   1       8.358   3.617   0.823  0.00  0.00     0.210 C 
ENDBRANCH   6  21
BRANCH   5  23
ATOM     23  O   UNL d   1       4.252   4.445  -0.223  0.00  0.00    -0.353 OA
ATOM     24  C   UNL d   1       5.027   5.631  -0.208  0.00  0.00     0.210 C 
ENDBRANCH   5  23
TORSDOF 8
