REMARK  3 active torsions:
REMARK  status: ('A' for Active; 'I' for Inactive)
REMARK    1  A    between atoms: C_6  and  C_1 
REMARK    2  A    between atoms: C_2  and  C_7 
REMARK    3  A    between atoms: C_14  and  C_3 
ROOT
ATOM      1  C   UNL d   1       0.762  -4.104  -2.492  0.00  0.00     0.055 C 
ATOM      2  C   UNL d   1       0.266  -4.786  -3.547  0.00  0.00     0.036 C 
ATOM      3  C   UNL d   1       0.532  -2.694  -2.357  0.00  0.00     0.100 C 
ATOM      4  N   UNL d   1       0.340  -1.557  -2.226  0.00  0.00    -0.191 NA
ENDROOT
BRANCH   1   5
ATOM      5  C   UNL d   1       1.522  -4.816  -1.427  0.00  0.00    -0.015 A 
ATOM      6  C   UNL d   1       2.384  -5.886  -1.727  0.00  0.00     0.029 A 
ATOM      7  C   UNL d   1       3.103  -6.557  -0.720  0.00  0.00     0.048 A 
ATOM      8  C   UNL d   1       2.973  -6.128   0.607  0.00  0.00     0.016 A 
ATOM      9  C   UNL d   1       2.141  -5.057   0.921  0.00  0.00     0.002 A 
ATOM     10  C   UNL d   1       1.421  -4.410  -0.086  0.00  0.00     0.013 A 
BRANCH   7  11
ATOM     11  C   UNL d   1       4.002  -7.724  -1.050  0.00  0.00     0.417 C 
ATOM     12  F   UNL d   1       4.008  -8.045  -2.374  0.00  0.00    -0.166 F 
ATOM     13  F   UNL d   1       3.639  -8.861  -0.394  0.00  0.00    -0.166 F 
ATOM     14  F   UNL d   1       5.301  -7.495  -0.715  0.00  0.00    -0.166 F 
ENDBRANCH   7  11
ENDBRANCH   1   5
BRANCH   2  15
ATOM     15  C   UNL d   1      -0.501  -4.175  -4.638  0.00  0.00    -0.019 A 
ATOM     16  C   UNL d   1      -1.892  -4.169  -4.622  0.00  0.00     0.099 A 
ATOM     17  N   UNL d   1      -2.658  -3.595  -5.578  0.00  0.00    -0.374 N 
ATOM     18  C   UNL d   1      -2.004  -2.988  -6.593  0.00  0.00     0.087 A 
ATOM     19  HN  UNL d   1      -3.676  -3.618  -5.535  1.00  0.00     0.164 HD
ATOM     20  C   UNL d   1      -0.623  -2.947  -6.705  0.00  0.00     0.018 A 
ATOM     21  C   UNL d   1       0.140  -3.555  -5.711  0.00  0.00     0.014 A 
ENDBRANCH   2  15
TORSDOF 3
