REMARK  3 active torsions:
REMARK  status: ('A' for Active; 'I' for Inactive)
REMARK    1  A    between atoms: C_2  and  C_1 
REMARK    2  A    between atoms: O_3  and  C_1 
REMARK    3  A    between atoms: C_7  and  O_3 
ROOT
ATOM      1  C   UNL d   1       0.898  -0.064  -0.171  0.00  0.00     0.302 C 
ATOM      2  O   UNL d   1       2.036  -0.228  -0.575  0.00  0.00    -0.259 OA
ENDROOT
BRANCH   1   3
ATOM      3  C   UNL d   1       0.240  -0.856   0.893  0.00  0.00     0.083 A 
ATOM      4  C   UNL d   1       0.875  -1.020   2.137  0.00  0.00     0.052 A 
ATOM      5 CL   UNL d   1       2.422  -0.341   2.502  0.00  0.00    -0.083 Cl
ATOM      6  C   UNL d   1       0.236  -1.721   3.167  0.00  0.00     0.025 A 
ATOM      7  C   UNL d   1      -1.037  -2.250   2.982  0.00  0.00     0.003 A 
ATOM      8  C   UNL d   1      -1.671  -2.100   1.748  0.00  0.00     0.025 A 
ATOM      9  C   UNL d   1      -1.029  -1.421   0.703  0.00  0.00     0.052 A 
ATOM     10 CL   UNL d   1      -1.875  -1.362  -0.808  0.00  0.00    -0.083 Cl
ENDBRANCH   1   3
BRANCH   1  11
ATOM     11  O   UNL d   1      -0.001   0.928  -0.534  0.00  0.00    -0.275 OA
BRANCH  11  12
ATOM     12  C   UNL d   1       0.465   1.982  -1.332  0.00  0.00     0.079 A 
ATOM     13  C   UNL d   1      -0.159   2.204  -2.561  0.00  0.00     0.040 A 
ATOM     14  C   UNL d   1       0.134   3.370  -3.270  0.00  0.00     0.045 A 
ATOM     15  C   UNL d   1       1.030   4.292  -2.735  0.00  0.00     0.116 A 
ATOM     16  C   UNL d   1       1.660   4.061  -1.515  0.00  0.00     0.045 A 
ATOM     17  F   UNL d   1       1.274   5.433  -3.394  0.00  0.00    -0.206 F 
ATOM     18  C   UNL d   1       1.377   2.896  -0.803  0.00  0.00     0.040 A 
ENDBRANCH  11  12
ENDBRANCH   1  11
TORSDOF 3
