REMARK  6 active torsions:
REMARK  status: ('A' for Active; 'I' for Inactive)
REMARK    1  A    between atoms: C_2  and  C_1 
REMARK       I    between atoms: N_11  and  C_2 
REMARK    2  A    between atoms: C_5  and  C_9 
REMARK    3  A    between atoms: C_6  and  C_10 
REMARK    4  A    between atoms: C_18  and  C_7 
REMARK    5  A    between atoms: C_14  and  N_11 
REMARK    6  A    between atoms: O_31  and  C_28 
ROOT
ATOM      1  C   UNL d   1      -1.188  -1.377   0.265  0.00  0.00     0.047 A 
ATOM      2  N   UNL d   1      -1.117   1.382   0.103  0.00  0.00    -0.355 N 
ATOM      3  HN  UNL d   1      -1.090   2.400   0.052  1.00  0.00     0.166 HD
ATOM      4  C   UNL d   1      -2.303   0.743   0.222  0.00  0.00     0.043 A 
ATOM      5  C   UNL d   1      -2.372  -0.636   0.337  0.00  0.00     0.048 A 
ATOM      6  C   UNL d   1       0.062  -0.727   0.105  0.00  0.00     0.006 A 
ATOM      7  C   UNL d   1       0.025   0.678   0.050  0.00  0.00     0.043 A 
ATOM      8  C   UNL d   1       1.323  -1.371  -0.015  0.00  0.00     0.015 A 
ATOM      9  C   UNL d   1       1.215   1.384  -0.077  0.00  0.00     0.030 A 
ATOM     10  C   UNL d   1       2.504  -0.642  -0.152  0.00  0.00     0.001 A 
ATOM     11  C   UNL d   1       2.450   0.743  -0.174  0.00  0.00     0.002 A 
ENDROOT
BRANCH   1  12
ATOM     12  C   UNL d   1      -1.279  -2.857   0.408  0.00  0.00     0.257 C 
ATOM     13  N   UNL d   1      -2.268  -3.468  -0.351  0.00  0.00    -0.323 N 
ATOM     14  H   UNL d   1      -2.814  -2.876  -0.964  0.00  0.00     0.169 HD
ATOM     15  O   UNL d   1      -0.489  -3.417   1.157  0.00  0.00    -0.267 OA
BRANCH  13  16
ATOM     16  C   UNL d   1      -2.491  -4.859  -0.479  0.00  0.00     0.036 A 
ATOM     17  C   UNL d   1      -1.789  -5.825   0.244  0.00  0.00     0.045 A 
ATOM     18  C   UNL d   1      -1.971  -7.197   0.001  0.00  0.00     0.050 A 
ATOM     19  C   UNL d   1      -2.902  -7.600  -0.967  0.00  0.00     0.032 A 
ATOM     20  C   UNL d   1      -3.643  -6.650  -1.685  0.00  0.00     0.050 A 
ATOM     21  C   UNL d   1      -3.437  -5.282  -1.421  0.00  0.00     0.045 A 
BRANCH  18  22
ATOM     22  C   UNL d   1      -1.146  -8.200   0.767  0.00  0.00     0.417 C 
ATOM     23  F   UNL d   1      -1.316  -9.480   0.334  0.00  0.00    -0.166 F 
ATOM     24  F   UNL d   1       0.193  -7.957   0.675  0.00  0.00    -0.166 F 
ATOM     25  F   UNL d   1      -1.437  -8.216   2.097  0.00  0.00    -0.166 F 
ENDBRANCH  18  22
BRANCH  20  26
ATOM     26  C   UNL d   1      -4.634  -7.074  -2.744  0.00  0.00     0.417 C 
ATOM     27  F   UNL d   1      -4.576  -8.401  -3.043  0.00  0.00    -0.166 F 
ATOM     28  F   UNL d   1      -5.921  -6.825  -2.379  0.00  0.00    -0.166 F 
ATOM     29  F   UNL d   1      -4.444  -6.418  -3.922  0.00  0.00    -0.166 F 
ENDBRANCH  20  26
ENDBRANCH  13  16
ENDBRANCH   1  12
BRANCH   4  30
ATOM     30  C   UNL d   1      -3.498   1.608   0.175  0.00  0.00    -0.009 A 
ATOM     31  C   UNL d   1      -3.462   2.925   0.669  0.00  0.00     0.016 A 
ATOM     32  C   UNL d   1      -4.574   3.775   0.585  0.00  0.00     0.037 A 
ATOM     33  C   UNL d   1      -5.753   3.325  -0.003  0.00  0.00     0.068 A 
ATOM     34  C   UNL d   1      -5.807   2.026  -0.505  0.00  0.00     0.037 A 
ATOM     35  C   UNL d   1      -4.701   1.177  -0.412  0.00  0.00     0.016 A 
BRANCH  33  36
ATOM     36  O   UNL d   1      -6.893   4.057  -0.185  0.00  0.00    -0.356 OA
ATOM     37  C   UNL d   1      -7.036   5.217   0.624  0.00  0.00     0.210 C 
ENDBRANCH  33  36
ENDBRANCH   4  30
TORSDOF 6
