REMARK  6 active torsions:
REMARK  status: ('A' for Active; 'I' for Inactive)
REMARK    1  A    between atoms: C_12  and  C_1 
REMARK    2  A    between atoms: C_4  and  C_2 
REMARK    3  A    between atoms: C_5  and  S_11 
REMARK    4  A    between atoms: O_16  and  C_6 
REMARK    5  A    between atoms: O_15  and  N_9 
REMARK    6  A    between atoms: S_11  and  C_12 
ROOT
ATOM      1  C   UNL d   1       0.754  -4.922   0.055  0.00  0.00    -0.014 A 
ATOM      2  C   UNL d   1      -1.295  -3.551   0.153  0.00  0.00    -0.011 A 
ATOM      3  C   UNL d   1       0.100  -3.672   0.153  0.00  0.00     0.024 A 
ATOM      4  C   UNL d   1      -0.055  -6.076   0.061  0.00  0.00     0.075 A 
ATOM      5  C   UNL d   1      -2.075  -4.702   0.158  0.00  0.00     0.016 A 
ATOM      6  C   UNL d   1      -1.455  -5.952   0.117  0.00  0.00     0.038 A 
ENDROOT
BRANCH   1   7
ATOM      7  C   UNL d   1       2.263  -4.991  -0.121  0.00  0.00     0.122 C 
BRANCH   7   8
ATOM      8  S   UNL d   1       3.139  -3.399  -0.330  0.00  0.00    -0.108 SA
BRANCH   8   9
ATOM      9  C   UNL d   1       4.822  -3.955  -0.469  0.00  0.00     0.069 A 
ATOM     10  N   UNL d   1       5.067  -5.280  -0.495  0.00  0.00    -0.361 N 
ATOM     11  C   UNL d   1       6.355  -5.666  -0.624  0.00  0.00     0.089 A 
ATOM     12  HN  UNL d   1       4.312  -5.962  -0.422  1.00  0.00     0.165 HD
ATOM     13  C   UNL d   1       7.420  -4.784  -0.727  0.00  0.00     0.017 A 
ATOM     14  C   UNL d   1       7.147  -3.423  -0.689  0.00  0.00     0.004 A 
ATOM     15  C   UNL d   1       5.828  -2.998  -0.559  0.00  0.00     0.037 A 
ENDBRANCH   8   9
ENDBRANCH   7   8
ENDBRANCH   1   7
BRANCH   4  16
ATOM     16  O   UNL d   1       0.348  -7.376  -0.097  0.00  0.00    -0.355 OA
ATOM     17  C   UNL d   1       1.510  -7.810   0.596  0.00  0.00     0.210 C 
ENDBRANCH   4  16
BRANCH   2  18
ATOM     18  C   UNL d   1      -1.942  -2.205   0.112  0.00  0.00     0.038 C 
ATOM     19  N   UNL d   1      -3.112  -2.051   0.660  0.00  0.00    -0.273 N 
ATOM     20  HN  UNL d   1      -3.633  -2.795   1.125  1.00  0.00     0.193 HD
ATOM     21  C   UNL d   1      -1.213  -1.071  -0.594  0.00  0.00     0.071 C 
BRANCH  19  22
ATOM     22  O   UNL d   1      -3.564  -0.732   0.531  0.00  0.00    -0.290 OA
ATOM     23  H   UNL d   1      -4.419  -0.758   0.994  0.00  0.00     0.244 HD
ENDBRANCH  19  22
ENDBRANCH   2  18
TORSDOF 6
