REMARK  5 active torsions:
REMARK  status: ('A' for Active; 'I' for Inactive)
REMARK    1  A    between atoms: C_8  and  N_1 
REMARK    2  A    between atoms: C_7  and  C_2 
REMARK    3  A    between atoms: C_13  and  C_4 
REMARK    4  A    between atoms: C_10  and  C_5 
REMARK    5  A    between atoms: O_11  and  C_6 
ROOT
ATOM      1  N   UNL d   1      -0.637   1.267   0.047  0.00  0.00    -0.277 N 
ATOM      2  C   UNL d   1      -0.684  -1.200   0.098  0.00  0.00     0.111 C 
ATOM      3  C   UNL d   1      -1.402   0.104   0.222  0.00  0.00     0.269 C 
ATOM      4  C   UNL d   1       1.429   0.056  -0.010  0.00  0.00     0.004 C 
ATOM      5  C   UNL d   1       0.761   1.235  -0.005  0.00  0.00     0.062 C 
ATOM      6  C   UNL d   1       0.659  -1.183  -0.018  0.00  0.00     0.093 C 
ATOM      7  O   UNL d   1      -2.606   0.106   0.467  0.00  0.00    -0.266 OA
ENDROOT
BRANCH   1   8
ATOM      8  C   UNL d   1      -1.367   2.493   0.038  0.00  0.00     0.043 A 
ATOM      9  C   UNL d   1      -1.704   3.121   1.241  0.00  0.00     0.030 A 
ATOM     10  C   UNL d   1      -2.458   4.295   1.224  0.00  0.00     0.002 A 
ATOM     11  C   UNL d   1      -2.883   4.837   0.009  0.00  0.00     0.000 A 
ATOM     12  C   UNL d   1      -2.553   4.207  -1.192  0.00  0.00     0.002 A 
ATOM     13  C   UNL d   1      -1.793   3.036  -1.181  0.00  0.00     0.030 A 
ENDBRANCH   1   8
BRANCH   5  14
ATOM     14  C   UNL d   1       1.517   2.509   0.015  0.00  0.00    -0.008 A 
ATOM     15  C   UNL d   1       1.893   3.140  -1.177  0.00  0.00     0.014 A 
ATOM     16  C   UNL d   1       2.688   4.287  -1.144  0.00  0.00     0.001 A 
ATOM     17  C   UNL d   1       3.108   4.812   0.078  0.00  0.00     0.000 A 
ATOM     18  C   UNL d   1       2.725   4.200   1.270  0.00  0.00     0.001 A 
ATOM     19  C   UNL d   1       1.930   3.055   1.240  0.00  0.00     0.014 A 
ENDBRANCH   5  14
BRANCH   2  20
ATOM     20  C   UNL d   1      -1.385  -2.522   0.098  0.00  0.00     0.164 C 
ATOM     21  O   UNL d   1      -0.736  -3.549   0.340  0.00  0.00    -0.292 OA
ATOM     22  C   UNL d   1      -2.849  -2.644  -0.237  0.00  0.00     0.097 C 
ENDBRANCH   2  20
BRANCH   4  23
ATOM     23  C   UNL d   1       2.947  -0.066   0.083  0.00  0.00     0.039 C 
ATOM     24  C   UNL d   1       3.650  -0.114  -1.267  0.00  0.00     0.010 C 
ENDBRANCH   4  23
BRANCH   6  25
ATOM     25  O   UNL d   1       1.434  -2.324  -0.144  0.00  0.00    -0.359 OA
ATOM     26  H   UNL d   1       0.867  -3.111   0.021  0.00  0.00     0.217 HD
ENDBRANCH   6  25
TORSDOF 5
