REMARK  3 active torsions:
REMARK  status: ('A' for Active; 'I' for Inactive)
REMARK    1  A    between atoms: C_5  and  N_1 
REMARK    2  A    between atoms: N_12  and  C_4 
REMARK    3  A    between atoms: C_11  and  C_13 
ROOT
ATOM      1  N   UNL d   1      -0.695   1.153   0.103  0.00  0.00    -0.216 N 
ATOM      2  C   UNL d   1      -1.475  -0.002   0.070  0.00  0.00     0.291 A 
ATOM      3  C   UNL d   1      -0.721  -1.291   0.070  0.00  0.00     0.131 A 
ATOM      4  C   UNL d   1       0.617  -1.333  -0.026  0.00  0.00     0.075 A 
ATOM      5  N   UNL d   1       0.671   1.160   0.047  0.00  0.00    -0.300 N 
ATOM      6  HN  UNL d   1       1.202   2.031   0.053  1.00  0.00     0.186 HD
ATOM      7  C   UNL d   1       1.258   0.011  -0.015  0.00  0.00     0.139 A 
ATOM      8  O   UNL d   1      -2.706   0.004  -0.017  0.00  0.00    -0.264 OA
ATOM      9 CL   UNL d   1      -1.690  -2.730   0.044  0.00  0.00    -0.076 Cl
ENDROOT
BRANCH   1  10
ATOM     10  C   UNL d   1      -1.303   2.440   0.080  0.00  0.00     0.103 A 
ATOM     11  C   UNL d   1      -2.212   2.826   1.085  0.00  0.00     0.065 A 
ATOM     12  C   UNL d   1      -2.877   4.057   1.020  0.00  0.00     0.042 A 
ATOM     13 CL   UNL d   1      -2.476   1.879   2.514  0.00  0.00    -0.082 Cl
ATOM     14  C   UNL d   1      -2.646   4.942  -0.041  0.00  0.00     0.051 A 
ATOM     15  C   UNL d   1      -1.720   4.578  -1.027  0.00  0.00     0.042 A 
ATOM     16  C   UNL d   1      -1.055   3.345  -0.971  0.00  0.00     0.065 A 
ATOM     17 CL   UNL d   1      -0.029   2.968  -2.318  0.00  0.00    -0.082 Cl
BRANCH  14  18
ATOM     18  C   UNL d   1      -3.389   6.253  -0.107  0.00  0.00     0.417 C 
ATOM     19  F   UNL d   1      -3.058   7.011  -1.188  0.00  0.00    -0.166 F 
ATOM     20  F   UNL d   1      -4.737   6.081  -0.169  0.00  0.00    -0.166 F 
ATOM     21  F   UNL d   1      -3.158   7.034   0.984  0.00  0.00    -0.166 F 
ENDBRANCH  14  18
ENDBRANCH   1  10
BRANCH   4  22
ATOM     22  N   UNL d   1       1.474  -2.427  -0.140  0.00  0.00    -0.374 N 
ATOM     23  C   UNL d   1       2.353  -2.612  -1.313  0.00  0.00     0.149 C 
ATOM     24  C   UNL d   1       2.021  -3.942  -2.007  0.00  0.00     0.187 C 
ATOM     25  O   UNL d   1       2.151  -5.044  -1.095  0.00  0.00    -0.388 OA
ATOM     26  C   UNL d   1       1.231  -4.896  -0.001  0.00  0.00     0.187 C 
ATOM     27  C   UNL d   1       1.475  -3.588   0.770  0.00  0.00     0.149 C 
ENDBRANCH   4  22
TORSDOF 3
