REMARK  2 active torsions:
REMARK  status: ('A' for Active; 'I' for Inactive)
REMARK    1  A    between atoms: C_6  and  N_5 
REMARK    2  A    between atoms: C_8  and  C_6 
ROOT
ATOM      1  C   UNL d   1      -0.153  -1.200   0.209  0.00  0.00     0.136 C 
ATOM      2  N   UNL d   1       0.788  -0.328   0.082  0.00  0.00    -0.370 N 
ATOM      3  HN  UNL d   1       1.783  -0.546   0.023  1.00  0.00     0.161 HD
ATOM      4  S   UNL d   1      -1.796  -0.617   0.186  0.00  0.00    -0.093 SA
ATOM      5  N   UNL d   1       0.002  -2.538   0.343  0.00  0.00    -0.367 N 
ATOM      6  C   UNL d   1       0.216   1.031   0.034  0.00  0.00     0.132 C 
ATOM      7  C   UNL d   1      -1.229   0.978  -0.427  0.00  0.00     0.102 C 
ATOM      8  H   UNL d   1      -0.822  -3.120   0.291  0.00  0.00     0.161 HD
ENDROOT
BRANCH   5   9
ATOM      9  C   UNL d   1       1.296  -3.168   0.303  0.00  0.00     0.160 C 
BRANCH   9  10
ATOM     10  C   UNL d   1       1.163  -4.665   0.448  0.00  0.00    -0.040 A 
ATOM     11  C   UNL d   1       1.013  -5.478  -0.687  0.00  0.00     0.012 A 
ATOM     12  C   UNL d   1       0.925  -6.865  -0.556  0.00  0.00     0.043 A 
ATOM     13  C   UNL d   1       0.974  -7.439   0.709  0.00  0.00     0.116 A 
ATOM     14  C   UNL d   1       1.096  -6.651   1.847  0.00  0.00     0.043 A 
ATOM     15  F   UNL d   1       0.904  -8.771   0.832  0.00  0.00    -0.206 F 
ATOM     16  C   UNL d   1       1.185  -5.264   1.719  0.00  0.00     0.012 A 
ENDBRANCH   9  10
ENDBRANCH   5   9
TORSDOF 2
