REMARK  4 active torsions:
REMARK  status: ('A' for Active; 'I' for Inactive)
REMARK    1  A    between atoms: C_9  and  N_1 
REMARK    2  A    between atoms: O_6  and  C_3 
REMARK    3  A    between atoms: C_8  and  O_6 
REMARK       I    between atoms: N_12  and  C_8 
REMARK    4  A    between atoms: C_16  and  N_12 
ROOT
ATOM      1  N   UNL d   1      -2.590  -0.177  -0.221  0.00  0.00    -0.261 N 
ATOM      2  C   UNL d   1      -2.440  -1.397   0.460  0.00  0.00     0.375 C 
ATOM      3  C   UNL d   1      -1.675   0.899   0.174  0.00  0.00     0.282 C 
ATOM      4  C   UNL d   1      -0.259   0.409   0.291  0.00  0.00     0.027 A 
ATOM      5  O   UNL d   1      -1.133  -1.759   0.823  0.00  0.00    -0.260 OA
ATOM      6  C   UNL d   1      -0.046  -0.937   0.531  0.00  0.00     0.091 A 
ATOM      7  O   UNL d   1      -3.335  -2.200   0.718  0.00  0.00    -0.237 OA
ATOM      8  C   UNL d   1       0.856   1.243   0.135  0.00  0.00     0.038 A 
ATOM      9  C   UNL d   1       1.227  -1.501   0.532  0.00  0.00     0.040 A 
ATOM     10  C   UNL d   1       2.143   0.695   0.148  0.00  0.00     0.034 A 
ATOM     11  C   UNL d   1       2.331  -0.677   0.320  0.00  0.00     0.026 A 
ATOM     12 CL   UNL d   1       3.508   1.720  -0.064  0.00  0.00    -0.084 Cl
ENDROOT
BRANCH   3  13
ATOM     13  O   UNL d   1      -2.090   1.421   1.446  0.00  0.00    -0.273 OA
BRANCH  13  14
ATOM     14  C   UNL d   1      -2.740   2.609   1.403  0.00  0.00     0.367 C 
ATOM     15  N   UNL d   1      -3.365   2.998   2.556  0.00  0.00    -0.303 N 
ATOM     16  H   UNL d   1      -4.027   3.745   2.385  0.00  0.00     0.171 HD
ATOM     17  O   UNL d   1      -2.854   3.304   0.398  0.00  0.00    -0.238 OA
BRANCH  15  18
ATOM     18  C   UNL d   1      -3.207   2.592   3.889  0.00  0.00     0.036 A 
ATOM     19  C   UNL d   1      -2.149   1.808   4.345  0.00  0.00     0.029 A 
ATOM     20  C   UNL d   1      -2.018   1.526   5.709  0.00  0.00     0.002 A 
ATOM     21  C   UNL d   1      -2.949   2.017   6.623  0.00  0.00     0.000 A 
ATOM     22  C   UNL d   1      -4.013   2.795   6.176  0.00  0.00     0.002 A 
ATOM     23  C   UNL d   1      -4.136   3.087   4.816  0.00  0.00     0.029 A 
ENDBRANCH  15  18
ENDBRANCH  13  14
ENDBRANCH   3  13
BRANCH   1  24
ATOM     24  C   UNL d   1      -3.740   0.104  -1.057  0.00  0.00     0.042 A 
ATOM     25  C   UNL d   1      -4.718  -0.871  -1.331  0.00  0.00     0.030 A 
ATOM     26  C   UNL d   1      -5.848  -0.599  -2.116  0.00  0.00     0.002 A 
ATOM     27  C   UNL d   1      -6.024   0.655  -2.679  0.00  0.00     0.000 A 
ATOM     28  C   UNL d   1      -5.053   1.623  -2.479  0.00  0.00     0.002 A 
ATOM     29  C   UNL d   1      -3.925   1.344  -1.694  0.00  0.00     0.030 A 
ENDBRANCH   1  24
TORSDOF 4
