REMARK  5 active torsions:
REMARK  status: ('A' for Active; 'I' for Inactive)
REMARK    1  A    between atoms: C_7  and  C_1 
REMARK    2  A    between atoms: C_10  and  N_2 
REMARK    3  A    between atoms: C_12  and  C_6 
REMARK       I    between atoms: N_8  and  C_7 
REMARK    4  A    between atoms: C_15  and  N_8 
REMARK    5  A    between atoms: C_19  and  C_10 
ROOT
ATOM      1  C   UNL d   1      -0.215  -1.129  -0.013  0.00  0.00     0.121 C 
ATOM      2  N   UNL d   1       0.965  -0.459  -0.264  0.00  0.00    -0.282 N 
ATOM      3  N   UNL d   1       0.866   0.878  -0.107  0.00  0.00    -0.301 N 
ATOM      4  HN  UNL d   1       1.623   1.561  -0.111  1.00  0.00     0.187 HD
ATOM      5  C   UNL d   1      -1.148  -0.114   0.158  0.00  0.00     0.064 C 
ATOM      6  C   UNL d   1      -0.438   1.110   0.055  0.00  0.00     0.036 C 
ENDROOT
BRANCH   1   7
ATOM      7  C   UNL d   1      -0.355  -2.572   0.060  0.00  0.00     0.274 C 
ATOM      8  N   UNL d   1      -1.643  -3.036  -0.180  0.00  0.00    -0.322 N 
ATOM      9  H   UNL d   1      -2.283  -2.380  -0.605  0.00  0.00     0.169 HD
ATOM     10  O   UNL d   1       0.597  -3.303   0.298  0.00  0.00    -0.266 OA
BRANCH   8  11
ATOM     11  C   UNL d   1      -2.161  -4.317   0.120  0.00  0.00     0.037 A 
ATOM     12  C   UNL d   1      -1.493  -5.253   0.920  0.00  0.00     0.069 A 
ATOM     13  C   UNL d   1      -2.178  -6.392   1.302  0.00  0.00     0.107 A 
ATOM     14  O   UNL d   1      -1.720  -7.347   2.160  0.00  0.00    -0.323 OA
ATOM     15  C   UNL d   1      -3.459  -6.652   0.876  0.00  0.00     0.105 A 
ATOM     16  C   UNL d   1      -2.926  -8.111   2.367  0.00  0.00     0.352 C 
ATOM     17  O   UNL d   1      -3.964  -7.793   1.417  0.00  0.00    -0.323 OA
ATOM     18  C   UNL d   1      -4.121  -5.797   0.027  0.00  0.00     0.042 A 
ATOM     19  C   UNL d   1      -3.468  -4.611  -0.339  0.00  0.00     0.032 A 
ENDBRANCH   8  11
ENDBRANCH   1   7
BRANCH   2  20
ATOM     20  C   UNL d   1       2.216  -0.971  -0.814  0.00  0.00     0.188 C 
BRANCH  20  21
ATOM     21  C   UNL d   1       2.210  -0.832  -2.322  0.00  0.00    -0.038 A 
ATOM     22  C   UNL d   1       2.627   0.365  -2.935  0.00  0.00     0.015 A 
ATOM     23  C   UNL d   1       2.547   0.527  -4.325  0.00  0.00    -0.061 A 
ATOM     24  C   UNL d   1       3.018   1.787  -4.992  0.00  0.00     0.048 C 
ATOM     25  C   UNL d   1       2.031  -0.516  -5.101  0.00  0.00     0.007 A 
ATOM     26  C   UNL d   1       1.618  -1.707  -4.504  0.00  0.00     0.001 A 
ATOM     27  C   UNL d   1       1.711  -1.867  -3.121  0.00  0.00     0.009 A 
ENDBRANCH  20  21
ENDBRANCH   2  20
BRANCH   6  28
ATOM     28  C   UNL d   1      -0.923   2.549   0.078  0.00  0.00    -0.007 C 
ATOM     29  C   UNL d   1      -2.457   2.644   0.180  0.00  0.00     0.021 C 
ATOM     30  C   UNL d   1      -0.312   3.309   1.273  0.00  0.00     0.021 C 
ATOM     31  C   UNL d   1      -0.488   3.257  -1.227  0.00  0.00     0.021 C 
ENDBRANCH   6  28
TORSDOF 5
