REMARK  8 active torsions:
REMARK  status: ('A' for Active; 'I' for Inactive)
REMARK    1  A    between atoms: C_2  and  N_1 
REMARK    2  A    between atoms: N_7  and  C_2 
REMARK    3  A    between atoms: O_20  and  C_6 
REMARK    4  A    between atoms: C_11  and  N_7 
REMARK    5  A    between atoms: O_21  and  C_9 
REMARK    6  A    between atoms: O_22  and  C_10 
REMARK    7  A    between atoms: O_23  and  C_15 
REMARK    8  A    between atoms: O_24  and  C_17 
ROOT
ATOM      1  C   UNL d   1      -3.107   1.189  -1.237  0.00  0.00     0.175 C 
ATOM      2  S   UNL d   1      -2.305   1.724  -2.606  0.00  0.00    -0.041 SA
ENDROOT
BRANCH   1   3
ATOM      3  N   UNL d   1      -2.481   0.814  -0.036  0.00  0.00    -0.349 N 
ATOM      4  C   UNL d   1      -1.272   1.487   0.473  0.00  0.00     0.116 C 
ATOM      5  C   UNL d   1      -0.025   0.620   0.373  0.00  0.00    -0.026 A 
ATOM      6  C   UNL d   1      -1.517   1.922   1.925  0.00  0.00     0.037 C 
ATOM      7  C   UNL d   1       1.233   1.205   0.587  0.00  0.00     0.049 A 
ATOM      8  C   UNL d   1      -0.103  -0.755   0.090  0.00  0.00    -0.045 A 
ATOM      9  C   UNL d   1       2.405   0.444   0.529  0.00  0.00     0.102 A 
ATOM     10  C   UNL d   1       2.330  -0.923   0.206  0.00  0.00     0.102 A 
ATOM     11  C   UNL d   1       1.079  -1.513  -0.008  0.00  0.00     0.047 A 
ATOM     12  C   UNL d   1      -1.436  -1.412  -0.185  0.00  0.00     0.059 C 
ATOM     13  C   UNL d   1      -2.610  -0.592   0.359  0.00  0.00     0.130 C 
BRANCH   9  14
ATOM     14  O   UNL d   1       3.661   0.960   0.734  0.00  0.00    -0.353 OA
ATOM     15  C   UNL d   1       3.739   2.171   1.475  0.00  0.00     0.210 C 
ENDBRANCH   9  14
BRANCH  10  16
ATOM     16  O   UNL d   1       3.528  -1.592   0.149  0.00  0.00    -0.353 OA
ATOM     17  C   UNL d   1       3.517  -2.921  -0.349  0.00  0.00     0.210 C 
ENDBRANCH  10  16
ENDBRANCH   1   3
BRANCH   1  18
ATOM     18  N   UNL d   1      -4.484   1.122  -1.078  0.00  0.00    -0.333 N 
ATOM     19  H   UNL d   1      -4.784   1.403  -0.152  0.00  0.00     0.168 HD
BRANCH  18  20
ATOM     20  C   UNL d   1      -5.504   0.860  -2.009  0.00  0.00     0.039 A 
ATOM     21  C   UNL d   1      -5.297   0.105  -3.161  0.00  0.00     0.069 A 
ATOM     22  C   UNL d   1      -6.381  -0.281  -3.958  0.00  0.00     0.106 A 
ATOM     23  C   UNL d   1      -7.688   0.129  -3.616  0.00  0.00     0.135 A 
ATOM     24  C   UNL d   1      -7.892   0.946  -2.494  0.00  0.00     0.106 A 
ATOM     25  C   UNL d   1      -6.798   1.269  -1.681  0.00  0.00     0.069 A 
BRANCH  22  26
ATOM     26  O   UNL d   1      -6.241  -1.051  -5.088  0.00  0.00    -0.353 OA
ATOM     27  C   UNL d   1      -5.073  -1.859  -5.167  0.00  0.00     0.210 C 
ENDBRANCH  22  26
BRANCH  23  28
ATOM     28  O   UNL d   1      -8.771  -0.254  -4.369  0.00  0.00    -0.351 OA
ATOM     29  C   UNL d   1      -8.925  -1.671  -4.447  0.00  0.00     0.210 C 
ENDBRANCH  23  28
BRANCH  24  30
ATOM     30  O   UNL d   1      -9.072   1.450  -2.012  0.00  0.00    -0.353 OA
ATOM     31  C   UNL d   1     -10.172   1.540  -2.907  0.00  0.00     0.210 C 
ENDBRANCH  24  30
ENDBRANCH  18  20
ENDBRANCH   1  18
TORSDOF 8
