REMARK  6 active torsions:
REMARK  status: ('A' for Active; 'I' for Inactive)
REMARK    1  A    between atoms: C_2  and  C_1 
REMARK       I    between atoms: N_11  and  C_1 
REMARK    2  A    between atoms: C_5  and  C_16 
REMARK    3  A    between atoms: C_19  and  N_11 
REMARK    4  A    between atoms: S_15  and  C_20 
REMARK    5  A    between atoms: C_16  and  S_15 
REMARK    6  A    between atoms: C_20  and  C_19 
ROOT
ATOM      1  C   UNL d   1       2.349   2.477  -1.565  0.00  0.00     0.251 C 
ATOM      2  O   UNL d   1       2.425   1.514  -2.316  0.00  0.00    -0.268 OA
ATOM      3  N   UNL d   1       2.651   2.418  -0.222  0.00  0.00    -0.356 N 
ATOM      4  H   UNL d   1       2.848   3.276   0.279  0.00  0.00     0.162 HD
ENDROOT
BRANCH   3   5
ATOM      5  C   UNL d   1       3.074   1.174   0.396  0.00  0.00     0.133 C 
BRANCH   5   6
ATOM      6  C   UNL d   1       4.594   1.011   0.452  0.00  0.00     0.093 C 
BRANCH   6   7
ATOM      7  S   UNL d   1       5.458   2.400   1.274  0.00  0.00    -0.163 SA
BRANCH   7   8
ATOM      8  C   UNL d   1       4.713   2.303   2.935  0.00  0.00     0.114 C 
BRANCH   8   9
ATOM      9  C   UNL d   1       5.193   3.436   3.805  0.00  0.00    -0.027 A 
ATOM     10  C   UNL d   1       4.553   4.687   3.841  0.00  0.00     0.041 A 
ATOM     11 CL   UNL d   1       3.132   5.016   2.908  0.00  0.00    -0.084 Cl
ATOM     12  C   UNL d   1       5.056   5.719   4.639  0.00  0.00     0.024 A 
ATOM     13  C   UNL d   1       6.205   5.518   5.403  0.00  0.00     0.002 A 
ATOM     14  C   UNL d   1       6.853   4.286   5.373  0.00  0.00     0.001 A 
ATOM     15  C   UNL d   1       6.353   3.253   4.580  0.00  0.00     0.009 A 
ENDBRANCH   8   9
ENDBRANCH   7   8
ENDBRANCH   6   7
ENDBRANCH   5   6
ENDBRANCH   3   5
BRANCH   1  16
ATOM     16  C   UNL d   1       1.909   3.797  -2.094  0.00  0.00     0.033 A 
ATOM     17  C   UNL d   1       1.251   4.734  -1.289  0.00  0.00     0.042 A 
ATOM     18  C   UNL d   1       0.785   5.931  -1.848  0.00  0.00     0.056 A 
ATOM     19 CL   UNL d   1      -0.042   7.033  -0.804  0.00  0.00    -0.083 Cl
ATOM     20  C   UNL d   1       0.976   6.193  -3.211  0.00  0.00     0.055 A 
ATOM     21  C   UNL d   1       1.634   5.256  -4.011  0.00  0.00     0.026 A 
ATOM     22 CL   UNL d   1       0.407   7.638  -3.967  0.00  0.00    -0.083 Cl
ATOM     23  C   UNL d   1       2.094   4.060  -3.456  0.00  0.00     0.019 A 
ENDBRANCH   1  16
TORSDOF 6
