REMARK  3 active torsions:
REMARK  status: ('A' for Active; 'I' for Inactive)
REMARK    1  A    between atoms: C_4  and  N_1 
REMARK    2  A    between atoms: C_9  and  C_2 
REMARK    3  A    between atoms: C_11  and  C_12 
ROOT
ATOM      1  N   UNL d   1      -0.203  -1.186  -0.431  0.00  0.00    -0.222 N 
ATOM      2  C   UNL d   1       1.002  -0.607  -0.023  0.00  0.00     0.148 A 
ATOM      3  N   UNL d   1      -1.169  -0.245  -0.328  0.00  0.00     0.001 NA
ATOM      4  N   UNL d   1      -0.599   0.818   0.213  0.00  0.00    -0.007 NA
ATOM      5  N   UNL d   1       0.732   0.607   0.423  0.00  0.00    -0.269 N 
ATOM      6  HN  UNL d   1       1.392   1.261   0.843  1.00  0.00     0.185 HD
ENDROOT
BRANCH   2   7
ATOM      7  C   UNL d   1       2.342  -1.192  -0.099  0.00  0.00     0.011 A 
ATOM      8  C   UNL d   1       2.744  -1.996  -1.170  0.00  0.00     0.016 A 
ATOM      9  C   UNL d   1       3.992  -2.627  -1.160  0.00  0.00     0.009 A 
ATOM     10  C   UNL d   1       4.903  -2.437  -0.107  0.00  0.00    -0.051 A 
ATOM     11  C   UNL d   1       4.519  -1.564   0.923  0.00  0.00     0.009 A 
ATOM     12  C   UNL d   1       3.259  -0.951   0.928  0.00  0.00     0.016 A 
BRANCH  10  13
ATOM     13  C   UNL d   1       6.251  -3.179  -0.112  0.00  0.00    -0.024 C 
ATOM     14  C   UNL d   1       7.160  -2.814   1.082  0.00  0.00     0.019 C 
ATOM     15  C   UNL d   1       5.996  -4.702  -0.049  0.00  0.00     0.019 C 
ATOM     16  C   UNL d   1       7.033  -2.854  -1.402  0.00  0.00     0.019 C 
ENDBRANCH  10  13
ENDBRANCH   2   7
BRANCH   1  17
ATOM     17  C   UNL d   1      -0.508  -2.529  -0.784  0.00  0.00     0.079 A 
ATOM     18  C   UNL d   1       0.206  -3.576  -0.169  0.00  0.00     0.057 A 
ATOM     19  C   UNL d   1      -0.035  -4.904  -0.526  0.00  0.00     0.036 A 
ATOM     20 CL   UNL d   1       0.891  -6.162   0.191  0.00  0.00    -0.084 Cl
ATOM     21  C   UNL d   1      -1.009  -5.212  -1.468  0.00  0.00     0.026 A 
ATOM     22  C   UNL d   1      -1.742  -4.185  -2.060  0.00  0.00     0.028 A 
ATOM     23  C   UNL d   1      -1.501  -2.843  -1.728  0.00  0.00     0.062 A 
ATOM     24 CL   UNL d   1      -2.377  -1.674  -2.653  0.00  0.00    -0.082 Cl
ENDBRANCH   1  17
TORSDOF 3
