REMARK  4 active torsions:
REMARK  status: ('A' for Active; 'I' for Inactive)
REMARK    1  A    between atoms: C_2  and  S_1 
REMARK    2  A    between atoms: N_3  and  S_1 
REMARK    3  A    between atoms: C_16  and  N_11 
REMARK    4  A    between atoms: C_20  and  C_16 
ROOT
ATOM      1  N   UNL d   1       0.408  -1.029   0.597  0.00  0.00    -0.203 NA
ATOM      2  N   UNL d   1       0.685  -3.858  -0.306  0.00  0.00     0.095 N 
ATOM      3  C   UNL d   1       1.393  -1.940   1.250  0.00  0.00     0.138 C 
ATOM      4  C   UNL d   1      -0.765  -1.802   0.093  0.00  0.00     0.138 C 
ATOM      5  C   UNL d   1      -0.319  -2.923  -0.863  0.00  0.00     0.288 C 
ATOM      6  C   UNL d   1       1.799  -3.104   0.311  0.00  0.00     0.288 C 
ENDROOT
BRANCH   1   7
ATOM      7  S   UNL d   1       1.035   0.153  -0.460  0.00  0.00     0.245 S 
ATOM      8  O   UNL d   1       2.320  -0.306  -0.939  0.00  0.00    -0.206 OA
ATOM      9  O   UNL d   1       0.012   0.584  -1.387  0.00  0.00    -0.206 OA
BRANCH   7  10
ATOM     10  C   UNL d   1       1.349   1.522   0.633  0.00  0.00     0.098 A 
ATOM     11  C   UNL d   1       2.673   1.972   0.774  0.00  0.00     0.052 A 
ATOM     12  C   UNL d   1       2.963   3.054   1.609  0.00  0.00     0.057 A 
ATOM     13 CL   UNL d   1       4.610   3.558   1.732  0.00  0.00    -0.083 Cl
ATOM     14  C   UNL d   1       1.932   3.690   2.306  0.00  0.00     0.057 A 
ATOM     15  C   UNL d   1       0.613   3.257   2.143  0.00  0.00     0.051 A 
ATOM     16 CL   UNL d   1       2.217   5.007   3.387  0.00  0.00    -0.082 Cl
ATOM     17  C   UNL d   1       0.313   2.178   1.302  0.00  0.00     0.058 A 
ATOM     18 CL   UNL d   1      -1.354   1.750   1.173  0.00  0.00    -0.083 Cl
ENDBRANCH   7  10
ENDBRANCH   1   7
BRANCH   2  19
ATOM     19  C   UNL d   1       0.120  -4.848   0.623  0.00  0.00     0.311 C 
BRANCH  19  20
ATOM     20  C   UNL d   1      -0.853  -5.811  -0.029  0.00  0.00    -0.030 A 
ATOM     21  C   UNL d   1      -0.483  -6.553  -1.162  0.00  0.00     0.009 A 
ATOM     22  C   UNL d   1      -1.378  -7.453  -1.747  0.00  0.00     0.001 A 
ATOM     23  C   UNL d   1      -2.649  -7.625  -1.204  0.00  0.00     0.000 A 
ATOM     24  C   UNL d   1      -3.026  -6.901  -0.075  0.00  0.00     0.001 A 
ATOM     25  C   UNL d   1      -2.132  -6.002   0.511  0.00  0.00     0.009 A 
ENDBRANCH  19  20
ENDBRANCH   2  19
TORSDOF 4
