REMARK  5 active torsions:
REMARK  status: ('A' for Active; 'I' for Inactive)
REMARK    1  A    between atoms: C_8  and  C_1 
REMARK    2  A    between atoms: C_13  and  N_7 
REMARK    3  A    between atoms: C_10  and  C_11 
REMARK       I    between atoms: N_15  and  C_10 
REMARK    4  A    between atoms: C_11  and  C_13 
REMARK    5  A    between atoms: N_18  and  N_15 
ROOT
ATOM      1  C   UNL d   1      -0.067  -1.310   0.060  0.00  0.00     0.146 A 
ATOM      2  N   UNL d   1       1.204  -0.872   0.112  0.00  0.00    -0.269 N 
ATOM      3  HN  UNL d   1       2.071  -1.397   0.232  1.00  0.00     0.190 HD
ATOM      4  N   UNL d   1      -0.961  -0.288  -0.149  0.00  0.00    -0.266 N 
ATOM      5  HN  UNL d   1      -1.973  -0.376  -0.243  1.00  0.00     0.186 HD
ATOM      6  N   UNL d   1      -0.258   0.837  -0.204  0.00  0.00    -0.003 NA
ATOM      7  N   UNL d   1       1.013   0.450  -0.040  0.00  0.00    -0.216 N 
ENDROOT
BRANCH   7   8
ATOM      8  C   UNL d   1       2.119   1.385  -0.062  0.00  0.00     0.176 C 
BRANCH   8   9
ATOM      9  C   UNL d   1       3.337   0.801  -0.765  0.00  0.00     0.127 C 
BRANCH   9  10
ATOM     10  C   UNL d   1       4.471   1.788  -0.827  0.00  0.00     0.233 C 
ATOM     11  O   UNL d   1       4.401   2.939  -0.410  0.00  0.00    -0.272 OA
ATOM     12  N   UNL d   1       5.607   1.251  -1.427  0.00  0.00    -0.294 N 
ATOM     13  H   UNL d   1       5.673   0.247  -1.588  0.00  0.00     0.183 HD
BRANCH  12  14
ATOM     14  N   UNL d   1       6.790   2.014  -1.474  0.00  0.00    -0.247 NA
ATOM     15  H   UNL d   1       6.637   2.852  -0.896  0.00  0.00     0.143 HD
ATOM     16  H   UNL d   1       6.892   2.384  -2.423  0.00  0.00     0.143 HD
ENDBRANCH  12  14
ENDBRANCH   9  10
ENDBRANCH   8   9
ENDBRANCH   7   8
BRANCH   1  17
ATOM     17  C   UNL d   1      -0.420  -2.721   0.157  0.00  0.00     0.034 A 
ATOM     18  C   UNL d   1      -1.585  -3.192   0.789  0.00  0.00     0.069 A 
ATOM     19  C   UNL d   1      -1.805  -4.580   0.881  0.00  0.00     0.056 A 
ATOM     20 CL   UNL d   1      -2.730  -2.099   1.506  0.00  0.00    -0.082 Cl
ATOM     21 CL   UNL d   1      -3.193  -5.256   1.667  0.00  0.00    -0.083 Cl
ATOM     22  C   UNL d   1      -0.883  -5.489   0.348  0.00  0.00     0.026 A 
ATOM     23  C   UNL d   1       0.263  -5.028  -0.288  0.00  0.00     0.003 A 
ATOM     24  C   UNL d   1       0.491  -3.657  -0.381  0.00  0.00     0.017 A 
ENDBRANCH   1  17
TORSDOF 5
