REMARK  2 active torsions:
REMARK  status: ('A' for Active; 'I' for Inactive)
REMARK    1  A    between atoms: N_2  and  C_1 
REMARK    2  A    between atoms: C_3  and  N_2 
ROOT
ATOM      1  C   UNL d   1       0.823   1.824   2.076  0.00  0.00     0.092 C 
ATOM      2  C   UNL d   1       3.079   2.536   1.261  0.00  0.00    -0.024 C 
ATOM      3  C   UNL d   1       2.266   2.221   2.501  0.00  0.00     0.031 C 
ATOM      4  C   UNL d   1       2.586   3.671   0.743  0.00  0.00    -0.026 C 
ATOM      5  C   UNL d   1       1.462   4.124   1.645  0.00  0.00     0.010 C 
ATOM      6  C   UNL d   1       0.276   3.152   1.467  0.00  0.00     0.034 C 
ATOM      7  C   UNL d   1       2.032   3.657   2.988  0.00  0.00     0.019 C 
ENDROOT
BRANCH   1   8
ATOM      8  N   UNL d   1       0.764   0.719   1.128  0.00  0.00    -0.362 N 
ATOM      9  H   UNL d   1       0.898   0.961   0.151  0.00  0.00     0.162 HD
BRANCH   8  10
ATOM     10  C   UNL d   1       0.896  -0.602   1.364  0.00  0.00     0.165 C 
ATOM     11  S   UNL d   1       1.075  -1.675   0.113  0.00  0.00    -0.041 SA
ATOM     12  N   UNL d   1       0.912  -1.025   2.641  0.00  0.00    -0.376 N 
ATOM     13  H   UNL d   1       0.478  -0.478   3.368  0.00  0.00     0.158 HD
ATOM     14  H   UNL d   1       0.915  -2.028   2.784  0.00  0.00     0.158 HD
ENDBRANCH   8  10
ENDBRANCH   1   8
TORSDOF 2
