REMARK  4 active torsions:
REMARK  status: ('A' for Active; 'I' for Inactive)
REMARK    1  A    between atoms: C_7  and  C_2 
REMARK    2  A    between atoms: C_12  and  N_3 
REMARK    3  A    between atoms: S_18  and  C_4 
REMARK    4  A    between atoms: C_15  and  C_9 
ROOT
ATOM      1  C   UNL d   1      -0.378  -1.116   0.022  0.00  0.00     0.109 C 
ATOM      2  C   UNL d   1       0.900  -0.539  -0.103  0.00  0.00     0.085 C 
ATOM      3  N   UNL d   1      -0.488   1.096  -0.105  0.00  0.00    -0.248 N 
ATOM      4  C   UNL d   1      -1.264  -0.058   0.026  0.00  0.00     0.116 C 
ATOM      5  N   UNL d   1       0.824   0.781  -0.298  0.00  0.00    -0.290 N 
ATOM      6  HN  UNL d   1       1.585   1.416  -0.539  1.00  0.00     0.187 HD
ATOM      7  C   UNL d   1      -0.712  -2.494   0.105  0.00  0.00     0.104 C 
ATOM      8  N   UNL d   1      -0.976  -3.626   0.154  0.00  0.00    -0.191 NA
ENDROOT
BRANCH   2   9
ATOM      9  C   UNL d   1       2.178  -1.257  -0.067  0.00  0.00     0.025 A 
ATOM     10  C   UNL d   1       2.433  -2.458   0.646  0.00  0.00     0.050 A 
ATOM     11  C   UNL d   1       3.746  -2.810   0.397  0.00  0.00     0.061 A 
ATOM     12  O   UNL d   1       4.322  -1.860  -0.401  0.00  0.00    -0.318 OA
ATOM     13  C   UNL d   1       3.371  -0.913  -0.668  0.00  0.00     0.062 A 
ATOM     14  C   UNL d   1       3.803   0.214  -1.523  0.00  0.00     0.077 C 
BRANCH  11  15
ATOM     15  C   UNL d   1       4.608  -3.976   0.822  0.00  0.00    -0.002 C 
ATOM     16  C   UNL d   1       3.800  -4.959   1.695  0.00  0.00     0.021 C 
ATOM     17  C   UNL d   1       5.118  -4.735  -0.415  0.00  0.00     0.021 C 
ATOM     18  C   UNL d   1       5.810  -3.477   1.642  0.00  0.00     0.021 C 
ENDBRANCH  11  15
ENDBRANCH   2   9
BRANCH   4  19
ATOM     19  S   UNL d   1      -3.010  -0.063   0.147  0.00  0.00    -0.113 SA
ATOM     20  C   UNL d   1      -3.537  -0.957  -1.327  0.00  0.00     0.097 C 
ENDBRANCH   4  19
BRANCH   3  21
ATOM     21  C   UNL d   1      -0.862   2.471  -0.068  0.00  0.00     0.058 A 
ATOM     22  C   UNL d   1      -1.909   2.909   0.751  0.00  0.00     0.038 A 
ATOM     23  C   UNL d   1      -2.290   4.254   0.765  0.00  0.00    -0.059 A 
ATOM     24  C   UNL d   1      -3.402   4.723   1.655  0.00  0.00     0.048 C 
ATOM     25  C   UNL d   1      -1.618   5.162  -0.058  0.00  0.00     0.013 A 
ATOM     26  C   UNL d   1      -0.558   4.747  -0.875  0.00  0.00    -0.059 A 
ATOM     27  C   UNL d   1      -0.157   3.403  -0.848  0.00  0.00     0.038 A 
ATOM     28  C   UNL d   1       0.112   5.751  -1.767  0.00  0.00     0.048 C 
ENDBRANCH   3  21
TORSDOF 4
