REMARK  6 active torsions:
REMARK  status: ('A' for Active; 'I' for Inactive)
REMARK       I    between atoms: N_2  and  C_1 
REMARK    1  A    between atoms: C_5  and  C_1 
REMARK       I    between atoms: C_3  and  N_2 
REMARK       I    between atoms: N_7  and  C_3 
REMARK    2  A    between atoms: C_4  and  C_8 
REMARK    3  A    between atoms: C_6  and  N_7 
REMARK    4  A    between atoms: O_10  and  C_9 
REMARK    5  A    between atoms: C_12  and  O_10 
REMARK    6  A    between atoms: O_24  and  C_18 
ROOT
ATOM      1  C   UNL d   1       2.907  -0.796  -0.797  0.00  0.00     0.071 A 
ATOM      2  C   UNL d   1       5.167   0.014  -0.313  0.00  0.00     0.050 A 
ATOM      3  C   UNL d   1       2.533  -0.554   0.535  0.00  0.00     0.103 A 
ATOM      4  C   UNL d   1       4.226  -0.533  -1.199  0.00  0.00     0.048 A 
ATOM      5  C   UNL d   1       4.788   0.233   1.015  0.00  0.00     0.019 A 
ATOM      6  C   UNL d   1       3.494  -0.076   1.441  0.00  0.00     0.040 A 
ENDROOT
BRANCH   1   7
ATOM      7  N   UNL d   1       2.086  -1.386  -1.775  0.00  0.00    -0.306 N 
ATOM      8  C   UNL d   1       0.752  -1.309  -2.059  0.00  0.00     0.327 C 
ATOM      9  N   UNL d   1       0.075  -0.223  -1.578  0.00  0.00    -0.275 N 
ATOM     10  O   UNL d   1       0.294  -2.165  -2.811  0.00  0.00    -0.247 OA
ATOM     11  C   UNL d   1      -1.103   0.235  -2.145  0.00  0.00     0.261 C 
ATOM     12  H   UNL d   1       0.623   0.425  -1.039  0.00  0.00     0.173 HD
ATOM     13  O   UNL d   1      -1.864  -0.398  -2.864  0.00  0.00    -0.267 OA
ATOM     14  H   UNL d   1       2.546  -1.988  -2.451  0.00  0.00     0.171 HD
BRANCH  11  15
ATOM     15  C   UNL d   1      -1.492   1.614  -1.769  0.00  0.00     0.054 A 
ATOM     16  C   UNL d   1      -1.820   2.584  -2.727  0.00  0.00     0.049 A 
ATOM     17 CL   UNL d   1      -1.674   2.314  -4.426  0.00  0.00    -0.083 Cl
ATOM     18  C   UNL d   1      -2.252   3.850  -2.312  0.00  0.00     0.025 A 
ATOM     19  C   UNL d   1      -2.346   4.153  -0.953  0.00  0.00     0.002 A 
ATOM     20  C   UNL d   1      -2.021   3.190  -0.001  0.00  0.00     0.001 A 
ATOM     21  C   UNL d   1      -1.611   1.919  -0.407  0.00  0.00     0.019 A 
ENDBRANCH  11  15
ENDBRANCH   1   7
BRANCH   3  22
ATOM     22  O   UNL d   1       1.277  -0.952   0.947  0.00  0.00    -0.306 OA
BRANCH  22  23
ATOM     23  C   UNL d   1       0.676  -0.326   2.020  0.00  0.00     0.109 A 
ATOM     24  C   UNL d   1      -0.065  -1.089   2.935  0.00  0.00     0.102 A 
ATOM     25  C   UNL d   1      -0.818  -0.440   3.919  0.00  0.00     0.039 A 
ATOM     26  C   UNL d   1      -0.814   0.950   4.024  0.00  0.00     0.003 A 
ATOM     27  C   UNL d   1      -0.061   1.709   3.133  0.00  0.00     0.003 A 
ATOM     28  C   UNL d   1       0.670   1.074   2.127  0.00  0.00     0.040 A 
BRANCH  24  29
ATOM     29  O   UNL d   1      -0.194  -2.451   2.944  0.00  0.00    -0.353 OA
ATOM     30  C   UNL d   1       0.993  -3.190   2.673  0.00  0.00     0.210 C 
ENDBRANCH  24  29
ENDBRANCH  22  23
ENDBRANCH   3  22
BRANCH   2  31
ATOM     31  C   UNL d   1       6.552   0.388  -0.782  0.00  0.00     0.417 C 
ATOM     32  F   UNL d   1       6.849  -0.082  -2.025  0.00  0.00    -0.166 F 
ATOM     33  F   UNL d   1       6.723   1.738  -0.842  0.00  0.00    -0.166 F 
ATOM     34  F   UNL d   1       7.530  -0.080   0.041  0.00  0.00    -0.166 F 
ENDBRANCH   2  31
TORSDOF 6
