REMARK  3 active torsions:
REMARK  status: ('A' for Active; 'I' for Inactive)
REMARK    1  A    between atoms: N_11  and  N_7 
REMARK    2  A    between atoms: C_9  and  N_11 
REMARK    3  A    between atoms: C_10  and  C_12 
ROOT
ATOM      1  N   UNL d   1      -2.016   2.769   0.440  0.00  0.00    -0.297 N 
ATOM      2  H   UNL d   1      -2.741   2.074   0.663  0.00  0.00     0.187 HD
ENDROOT
BRANCH   1   3
ATOM      3  C   UNL d   1      -2.328   4.078   0.885  0.00  0.00     0.091 A 
ATOM      4  C   UNL d   1      -3.574   4.637   0.520  0.00  0.00     0.064 A 
ATOM      5  C   UNL d   1      -3.938   5.940   0.887  0.00  0.00     0.042 A 
ATOM      6 CL   UNL d   1      -4.713   3.736  -0.427  0.00  0.00    -0.082 Cl
ATOM      7  C   UNL d   1      -3.072   6.731   1.651  0.00  0.00     0.051 A 
ATOM      8  C   UNL d   1      -1.841   6.189   2.034  0.00  0.00     0.042 A 
ATOM      9  C   UNL d   1      -1.468   4.889   1.658  0.00  0.00     0.064 A 
ATOM     10 CL   UNL d   1       0.046   4.342   2.307  0.00  0.00    -0.082 Cl
BRANCH   7  11
ATOM     11  C   UNL d   1      -3.467   8.130   2.051  0.00  0.00     0.417 C 
ATOM     12  F   UNL d   1      -2.537   8.756   2.824  0.00  0.00    -0.166 F 
ATOM     13  F   UNL d   1      -3.668   8.940   0.976  0.00  0.00    -0.166 F 
ATOM     14  F   UNL d   1      -4.625   8.157   2.765  0.00  0.00    -0.166 F 
ENDBRANCH   7  11
ENDBRANCH   1   3
BRANCH   1  15
ATOM     15  N   UNL d   1      -0.725   2.411   0.251  0.00  0.00    -0.293 N 
ATOM     16  C   UNL d   1      -0.395   1.201   0.563  0.00  0.00     0.141 A 
ATOM     17  C   UNL d   1      -1.201   0.090   1.162  0.00  0.00     0.291 A 
ATOM     18  C   UNL d   1       0.995   0.676   0.492  0.00  0.00     0.056 A 
ATOM     19  N   UNL d   1      -0.233  -0.867   1.410  0.00  0.00    -0.260 N 
ATOM     20  O   UNL d   1      -2.395   0.124   1.364  0.00  0.00    -0.264 OA
ATOM     21  C   UNL d   1      -0.457  -2.093   2.133  0.00  0.00     0.181 C 
ATOM     22  N   UNL d   1       1.063  -0.516   1.009  0.00  0.00    -0.298 N 
ATOM     23  HN  UNL d   1       1.903  -1.088   1.105  1.00  0.00     0.187 HD
ATOM     24  C   UNL d   1       2.106   1.476  -0.074  0.00  0.00     0.072 C 
ATOM     25  HN  UNL d   1      -0.040   3.069  -0.122  1.00  0.00     0.187 HD
ENDBRANCH   1  15
TORSDOF 3
