REMARK  2 active torsions:
REMARK  status: ('A' for Active; 'I' for Inactive)
REMARK    1  A    between atoms: C_6  and  C_1 
REMARK    2  A    between atoms: O_9  and  C_6 
ROOT
ATOM      1  C   UNL d   1       2.562   0.018   0.000  0.00  0.00     0.101 A 
ATOM      2  S   UNL d   1       1.722   1.510   0.001  0.00  0.00    -0.081 SA
ATOM      3  C   UNL d   1       1.676  -1.044  -0.001  0.00  0.00     0.069 A 
ATOM      4  C   UNL d   1       0.292  -0.635  -0.001  0.00  0.00     0.004 A 
ATOM      5  C   UNL d   1       0.181   0.756  -0.000  0.00  0.00     0.018 A 
ATOM      6 CL   UNL d   1       2.113  -2.709  -0.002  0.00  0.00    -0.082 Cl
ATOM      7  C   UNL d   1      -0.912  -1.389  -0.001  0.00  0.00     0.014 A 
ATOM      8  C   UNL d   1      -1.069   1.404  -0.000  0.00  0.00     0.020 A 
ATOM      9  C   UNL d   1      -2.157  -0.751  -0.001  0.00  0.00     0.001 A 
ATOM     10  C   UNL d   1      -2.232   0.633  -0.001  0.00  0.00     0.001 A 
ENDROOT
BRANCH   1  11
ATOM     11  C   UNL d   1       4.015  -0.017   0.000  0.00  0.00     0.185 C 
ATOM     12  O   UNL d   1       4.714  -1.020  -0.001  0.00  0.00    -0.646 OA
BRANCH  11  13
ATOM     13  O   UNL d   1       4.581   1.221   0.003  0.00  0.00    -0.772 OA
ATOM     14  H   UNL d   1       3.914   1.933   0.004  0.00  0.00     0.167 HD
ENDBRANCH  11  13
ENDBRANCH   1  11
TORSDOF 2
