REMARK  4 active torsions:
REMARK  status: ('A' for Active; 'I' for Inactive)
REMARK    1  A    between atoms: C_13  and  C_1 
REMARK    2  A    between atoms: C_4  and  C_11 
REMARK    3  A    between atoms: N_7  and  C_13 
REMARK    4  A    between atoms: O_17  and  C_9 
ROOT
ATOM      1  N   UNL d   1      -0.318  -3.762  -0.368  0.00  0.00    -0.394 N 
ATOM      2  HN  UNL d   1      -0.812  -3.507  -1.223  1.00  0.00     0.159 HD
ATOM      3  C   UNL d   1      -0.823  -4.572   0.496  0.00  0.00     0.097 C 
ENDROOT
BRANCH   1   4
ATOM      4  C   UNL d   1       1.013  -3.227  -0.047  0.00  0.00     0.159 C 
BRANCH   4   5
ATOM      5  C   UNL d   1       0.913  -1.726  -0.032  0.00  0.00    -0.022 A 
ATOM      6  C   UNL d   1       0.521  -0.989  -1.135  0.00  0.00     0.060 A 
ATOM      7  S   UNL d   1       0.434   0.679  -0.831  0.00  0.00    -0.101 SA
ATOM      8  C   UNL d   1       0.933   0.480   0.802  0.00  0.00     0.015 A 
ATOM      9  C   UNL d   1       1.182  -0.865   1.105  0.00  0.00    -0.011 A 
ATOM     10  C   UNL d   1       1.088   1.503   1.760  0.00  0.00     0.019 A 
ATOM     11  C   UNL d   1       1.624  -1.162   2.421  0.00  0.00     0.013 A 
ATOM     12  C   UNL d   1       1.787  -0.149   3.373  0.00  0.00     0.001 A 
ATOM     13  C   UNL d   1       1.516   1.171   3.045  0.00  0.00     0.001 A 
ENDBRANCH   4   5
ENDBRANCH   1   4
BRANCH   3  14
ATOM     14  C   UNL d   1      -2.216  -5.050   0.350  0.00  0.00     0.013 A 
ATOM     15  C   UNL d   1      -3.020  -4.651  -0.727  0.00  0.00     0.077 A 
ATOM     16  C   UNL d   1      -4.356  -5.039  -0.793  0.00  0.00     0.039 A 
ATOM     17  C   UNL d   1      -4.899  -5.825   0.223  0.00  0.00     0.022 A 
ATOM     18  C   UNL d   1      -4.095  -6.234   1.288  0.00  0.00     0.011 A 
ATOM     19  C   UNL d   1      -2.752  -5.857   1.357  0.00  0.00     0.034 A 
ATOM     20 BR   UNL d   1      -4.842  -7.287   2.669  0.00  0.00    -0.051 Br
BRANCH  15  21
ATOM     21  O   UNL d   1      -2.560  -3.860  -1.743  0.00  0.00    -0.360 OA
ATOM     22  H   UNL d   1      -1.636  -3.608  -1.511  0.00  0.00     0.217 HD
ENDBRANCH  15  21
ENDBRANCH   3  14
TORSDOF 4
