REMARK  8 active torsions:
REMARK  status: ('A' for Active; 'I' for Inactive)
REMARK    1  A    between atoms: O_23  and  C_1 
REMARK    2  A    between atoms: C_6  and  C_2 
REMARK    3  A    between atoms: N_3  and  O_13 
REMARK    4  A    between atoms: C_9  and  C_5 
REMARK    5  A    between atoms: N_22  and  C_5 
REMARK    6  A    between atoms: O_13  and  C_6 
REMARK    7  A    between atoms: O_24  and  C_7 
REMARK    8  A    between atoms: O_25  and  C_8 
ROOT
ATOM      1  N   UNL d   1       0.154   3.395  -0.561  0.00  0.00    -0.246 N 
ATOM      2  HN  UNL d   1       1.090   3.007  -0.677  1.00  0.00     0.196 HD
ATOM      3  C   UNL d   1      -0.060   4.670  -0.516  0.00  0.00     0.109 C 
ENDROOT
BRANCH   1   4
ATOM      4  O   UNL d   1      -0.999   2.568  -0.439  0.00  0.00    -0.193 OA
BRANCH   4   5
ATOM      5  C   UNL d   1      -0.528   1.290  -0.285  0.00  0.00     0.315 C 
ATOM      6  O   UNL d   1       0.666   0.973  -0.246  0.00  0.00    -0.257 OA
BRANCH   5   7
ATOM      7  C   UNL d   1      -1.554   0.216  -0.165  0.00  0.00     0.046 A 
ATOM      8  C   UNL d   1      -2.934   0.380  -0.230  0.00  0.00     0.057 A 
ATOM      9  C   UNL d   1      -3.791  -0.740  -0.086  0.00  0.00     0.105 A 
ATOM     10  C   UNL d   1      -3.257  -2.036   0.089  0.00  0.00     0.135 A 
ATOM     11  C   UNL d   1      -1.863  -2.208   0.054  0.00  0.00     0.105 A 
ATOM     12  C   UNL d   1      -1.040  -1.081  -0.010  0.00  0.00     0.057 A 
BRANCH   9  13
ATOM     13  O   UNL d   1      -5.122  -0.406  -0.194  0.00  0.00    -0.353 OA
ATOM     14  C   UNL d   1      -6.061  -1.226   0.494  0.00  0.00     0.210 C 
ENDBRANCH   9  13
BRANCH  10  15
ATOM     15  O   UNL d   1      -4.118  -3.106   0.155  0.00  0.00    -0.351 OA
ATOM     16  C   UNL d   1      -3.844  -4.065   1.179  0.00  0.00     0.210 C 
ENDBRANCH  10  15
BRANCH  11  17
ATOM     17  O   UNL d   1      -1.354  -3.485   0.061  0.00  0.00    -0.353 OA
ATOM     18  C   UNL d   1      -0.019  -3.639  -0.420  0.00  0.00     0.210 C 
ENDBRANCH  11  17
ENDBRANCH   5   7
ENDBRANCH   4   5
ENDBRANCH   1   4
BRANCH   3  19
ATOM     19  C   UNL d   1       1.161   5.554  -0.556  0.00  0.00     0.006 A 
ATOM     20  C   UNL d   1       1.127   6.826   0.030  0.00  0.00     0.054 A 
ATOM     21  C   UNL d   1       2.302   7.551   0.056  0.00  0.00     0.105 A 
ATOM     22  O   UNL d   1       2.470   8.770   0.639  0.00  0.00    -0.323 OA
ATOM     23  C   UNL d   1       3.471   7.074  -0.494  0.00  0.00     0.105 A 
ATOM     24  C   UNL d   1       3.905   8.902   0.559  0.00  0.00     0.352 C 
ATOM     25  O   UNL d   1       4.510   7.935  -0.323  0.00  0.00    -0.323 OA
ATOM     26  C   UNL d   1       3.532   5.842  -1.105  0.00  0.00     0.040 A 
ATOM     27  C   UNL d   1       2.364   5.069  -1.120  0.00  0.00     0.018 A 
ENDBRANCH   3  19
BRANCH   3  28
ATOM     28  N   UNL d   1      -1.301   5.245  -0.430  0.00  0.00    -0.286 NA
ATOM     29  H   UNL d   1      -2.047   4.600  -0.665  0.00  0.00     0.125 HD
ATOM     30  H   UNL d   1      -1.401   6.138  -0.905  0.00  0.00     0.125 HD
ENDBRANCH   3  28
TORSDOF 8
