REMARK  4 active torsions:
REMARK  status: ('A' for Active; 'I' for Inactive)
REMARK       I    between atoms: N_2  and  C_1 
REMARK    1  A    between atoms: C_3  and  C_1 
REMARK    2  A    between atoms: C_6  and  N_2 
REMARK    3  A    between atoms: C_4  and  C_6 
REMARK    4  A    between atoms: C_5  and  C_4 
ROOT
ATOM      1  C   UNL d   1       2.468  -0.062  -0.055  0.00  0.00     0.252 C 
ATOM      2  N   UNL d   1       3.244  -1.202   0.007  0.00  0.00    -0.350 N 
ATOM      3  O   UNL d   1       1.249  -0.101  -0.188  0.00  0.00    -0.268 OA
ATOM      4  H   UNL d   1       4.246  -1.144   0.122  0.00  0.00     0.163 HD
ENDROOT
BRANCH   2   5
ATOM      5  C   UNL d   1       2.643  -2.525  -0.033  0.00  0.00     0.206 C 
BRANCH   5   6
ATOM      6  C   UNL d   1       3.036  -3.292  -1.290  0.00  0.00     0.177 C 
ATOM      7  O   UNL d   1       4.149  -3.797  -1.425  0.00  0.00    -0.291 OA
BRANCH   6   8
ATOM      8  C   UNL d   1       2.052  -3.397  -2.401  0.00  0.00     0.011 A 
ATOM      9  C   UNL d   1       1.229  -2.319  -2.739  0.00  0.00     0.017 A 
ATOM     10  C   UNL d   1       0.339  -2.419  -3.810  0.00  0.00     0.025 A 
ATOM     11  C   UNL d   1       0.269  -3.600  -4.544  0.00  0.00     0.034 A 
ATOM     12  C   UNL d   1       1.087  -4.681  -4.218  0.00  0.00     0.025 A 
ATOM     13 CL   UNL d   1      -0.823  -3.716  -5.868  0.00  0.00    -0.084 Cl
ATOM     14  C   UNL d   1       1.987  -4.579  -3.150  0.00  0.00     0.017 A 
ENDBRANCH   6   8
ENDBRANCH   5   6
ENDBRANCH   2   5
BRANCH   1  15
ATOM     15  C   UNL d   1       3.172   1.252   0.030  0.00  0.00     0.037 A 
ATOM     16  C   UNL d   1       2.605   2.357   0.696  0.00  0.00    -0.046 A 
ATOM     17  C   UNL d   1       1.291   2.334   1.430  0.00  0.00     0.049 C 
ATOM     18  C   UNL d   1       3.291   3.588   0.666  0.00  0.00     0.007 A 
ATOM     19  C   UNL d   1       4.512   3.718   0.009  0.00  0.00     0.001 A 
ATOM     20  C   UNL d   1       5.071   2.621  -0.634  0.00  0.00     0.001 A 
ATOM     21  C   UNL d   1       4.403   1.394  -0.633  0.00  0.00     0.017 A 
ENDBRANCH   1  15
TORSDOF 4
