REMARK  3 active torsions:
REMARK  status: ('A' for Active; 'I' for Inactive)
REMARK    1  A    between atoms: C_3  and  C_1 
REMARK    2  A    between atoms: O_7  and  C_1 
REMARK    3  A    between atoms: C_4  and  O_7 
ROOT
ATOM      1  O   UNL d   1       0.242  -0.908  -1.160  0.00  0.00    -0.273 OA
ENDROOT
BRANCH   1   2
ATOM      2  C   UNL d   1      -1.180  -0.981  -1.094  0.00  0.00     0.102 A 
ATOM      3  C   UNL d   1      -1.896   0.225  -1.188  0.00  0.00     0.075 A 
ATOM      4  C   UNL d   1      -3.302   0.234  -1.081  0.00  0.00    -0.015 A 
ATOM      5 CL   UNL d   1      -1.004   1.695  -1.448  0.00  0.00    -0.081 Cl
ATOM      6  C   UNL d   1      -4.104   1.513  -1.141  0.00  0.00     0.052 C 
ATOM      7  C   UNL d   1      -3.973  -1.004  -0.926  0.00  0.00     0.047 A 
ATOM      8  C   UNL d   1      -3.259  -2.214  -0.843  0.00  0.00    -0.037 A 
ATOM      9 CL   UNL d   1      -5.711  -1.029  -0.844  0.00  0.00    -0.083 Cl
ATOM     10  C   UNL d   1      -1.858  -2.180  -0.903  0.00  0.00     0.047 A 
ATOM     11  C   UNL d   1      -3.894  -3.571  -0.687  0.00  0.00     0.050 C 
ENDBRANCH   1   2
BRANCH   1  12
ATOM     12  C   UNL d   1       1.129  -1.977  -1.104  0.00  0.00     0.302 C 
ATOM     13  O   UNL d   1       0.864  -3.168  -1.144  0.00  0.00    -0.259 OA
BRANCH  12  14
ATOM     14  C   UNL d   1       2.507  -1.460  -1.005  0.00  0.00     0.083 A 
ATOM     15  C   UNL d   1       3.494  -1.928  -1.888  0.00  0.00     0.052 A 
ATOM     16 CL   UNL d   1       3.176  -3.060  -3.154  0.00  0.00    -0.083 Cl
ATOM     17  C   UNL d   1       4.815  -1.471  -1.775  0.00  0.00     0.025 A 
ATOM     18  C   UNL d   1       5.157  -0.543  -0.794  0.00  0.00     0.003 A 
ATOM     19  C   UNL d   1       4.188  -0.092   0.096  0.00  0.00     0.025 A 
ATOM     20  C   UNL d   1       2.869  -0.559   0.007  0.00  0.00     0.052 A 
ATOM     21 CL   UNL d   1       1.778  -0.027   1.240  0.00  0.00    -0.083 Cl
ENDBRANCH  12  14
ENDBRANCH   1  12
TORSDOF 3
