REMARK  2 active torsions:
REMARK  status: ('A' for Active; 'I' for Inactive)
REMARK    1  A    between atoms: C_4  and  N_1 
REMARK    2  A    between atoms: S_12  and  C_11 
ROOT
ATOM      1  N   UNL d   1       2.589   0.015   0.196  0.00  0.00    -0.252 N 
ATOM      2  C   UNL d   1       1.977   1.072  -0.472  0.00  0.00     0.232 C 
ATOM      3  C   UNL d   1       1.834  -1.137   0.410  0.00  0.00     0.232 C 
ATOM      4  C   UNL d   1       0.456  -0.897   0.970  0.00  0.00     0.113 C 
ATOM      5  C   UNL d   1       0.585   1.397   0.037  0.00  0.00     0.113 C 
ATOM      6  C   UNL d   1      -0.313   0.172   0.199  0.00  0.00    -0.024 C 
ATOM      7  O   UNL d   1       2.222  -2.291   0.221  0.00  0.00    -0.273 OA
ATOM      8  O   UNL d   1       2.468   1.764  -1.360  0.00  0.00    -0.273 OA
ATOM      9  C   UNL d   1      -0.814  -0.364  -1.162  0.00  0.00     0.010 C 
ATOM     10  C   UNL d   1      -1.602   0.531   0.983  0.00  0.00     0.010 C 
ATOM     11  C   UNL d   1      -2.246  -0.807  -0.897  0.00  0.00     0.001 C 
ATOM     12  C   UNL d   1      -2.766   0.270   0.035  0.00  0.00     0.001 C 
ENDROOT
BRANCH   1  13
ATOM     13  C   UNL d   1       4.017  -0.064   0.383  0.00  0.00     0.046 A 
ATOM     14  C   UNL d   1       4.519  -0.979   1.333  0.00  0.00     0.048 A 
ATOM     15  C   UNL d   1       5.878  -1.081   1.644  0.00  0.00     0.002 A 
ATOM     16  C   UNL d   1       6.770  -0.210   1.017  0.00  0.00     0.018 A 
ATOM     17  C   UNL d   1       6.303   0.723   0.092  0.00  0.00     0.004 A 
ATOM     18  C   UNL d   1       4.938   0.800  -0.216  0.00  0.00     0.030 A 
BRANCH  15  19
ATOM     19  S   UNL d   1       6.506  -2.228   2.862  0.00  0.00    -0.134 SA
ATOM     20  C   UNL d   1       5.335  -3.611   2.709  0.00  0.00     0.095 C 
ENDBRANCH  15  19
ENDBRANCH   1  13
TORSDOF 2
