REMARK  3 active torsions:
REMARK  status: ('A' for Active; 'I' for Inactive)
REMARK    1  A    between atoms: O_3  and  C_8 
REMARK    2  A    between atoms: C_5  and  O_3 
REMARK    3  A    between atoms: C_8  and  C_9 
ROOT
ATOM      1  N   UNL d   1      -2.685  -0.340  -1.703  0.00  0.00    -0.191 NA
ATOM      2  C   UNL d   1      -1.642  -0.241  -1.205  0.00  0.00     0.099 C 
ATOM      3  C   UNL d   1      -0.353  -0.124  -0.589  0.00  0.00     0.045 A 
ATOM      4  C   UNL d   1       0.315   1.106  -0.590  0.00  0.00     0.032 A 
ATOM      5  C   UNL d   1       1.568   1.237   0.028  0.00  0.00    -0.033 A 
ATOM      6  C   UNL d   1       1.491  -1.123   0.616  0.00  0.00     0.002 A 
ATOM      7  C   UNL d   1       0.238  -1.238   0.016  0.00  0.00     0.022 A 
ATOM      8  C   UNL d   1       2.153   0.105   0.618  0.00  0.00     0.009 A 
ENDROOT
BRANCH   5   9
ATOM      9  C   UNL d   1       2.324   2.548   0.027  0.00  0.00     0.214 C 
BRANCH   9  10
ATOM     10  O   UNL d   1       1.413   3.649   0.001  0.00  0.00    -0.347 OA
BRANCH  10  11
ATOM     11  C   UNL d   1       1.984   4.890  -0.065  0.00  0.00     0.069 A 
ATOM     12  C   UNL d   1       1.195   5.880  -0.659  0.00  0.00     0.038 A 
ATOM     13  C   UNL d   1       1.668   7.190  -0.768  0.00  0.00     0.026 A 
ATOM     14  C   UNL d   1       2.925   7.513  -0.265  0.00  0.00     0.034 A 
ATOM     15  C   UNL d   1       3.710   6.537   0.345  0.00  0.00     0.026 A 
ATOM     16 CL   UNL d   1       3.513   9.124  -0.391  0.00  0.00    -0.084 Cl
ATOM     17  C   UNL d   1       3.239   5.225   0.447  0.00  0.00     0.038 A 
ENDBRANCH  10  11
ENDBRANCH   9  10
ENDBRANCH   5   9
TORSDOF 3
