REMARK  9 active torsions:
REMARK  status: ('A' for Active; 'I' for Inactive)
REMARK    1  A    between atoms: O_15  and  C_1 
REMARK       I    between atoms: C_2  and  N_9 
REMARK    2  A    between atoms: C_10  and  C_2 
REMARK    3  A    between atoms: C_3  and  C_11 
REMARK    4  A    between atoms: O_13  and  C_3 
REMARK    5  A    between atoms: O_16  and  C_4 
REMARK    6  A    between atoms: N_9  and  C_17 
REMARK    7  A    between atoms: C_11  and  C_10 
REMARK    8  A    between atoms: C_18  and  C_12 
REMARK    9  A    between atoms: C_17  and  C_18 
ROOT
ATOM      1  C   UNL d   1      -2.681   2.607   0.471  0.00  0.00     0.127 C 
ENDROOT
BRANCH   1   2
ATOM      2  N   UNL d   1      -3.222   3.945   0.607  0.00  0.00    -0.361 N 
ATOM      3  C   UNL d   1      -3.641   4.665  -0.488  0.00  0.00     0.218 C 
ATOM      4  O   UNL d   1      -3.535   4.265  -1.642  0.00  0.00    -0.274 OA
ATOM      5  H   UNL d   1      -3.279   4.358   1.531  0.00  0.00     0.162 HD
BRANCH   3   6
ATOM      6  C   UNL d   1      -4.227   6.014  -0.140  0.00  0.00     0.113 C 
BRANCH   6   7
ATOM      7  C   UNL d   1      -5.221   6.443  -1.213  0.00  0.00     0.119 C 
BRANCH   7   8
ATOM      8  C   UNL d   1      -5.855   7.767  -0.882  0.00  0.00     0.139 C 
ATOM      9  O   UNL d   1      -5.626   8.424   0.123  0.00  0.00    -0.650 OA
BRANCH   8  10
ATOM     10  O   UNL d   1      -6.741   8.160  -1.822  0.00  0.00    -0.776 OA
ATOM     11  H   UNL d   1      -6.828   7.534  -2.569  0.00  0.00     0.167 HD
ENDBRANCH   8  10
ENDBRANCH   7   8
ENDBRANCH   6   7
ENDBRANCH   3   6
ENDBRANCH   1   2
BRANCH   1  12
ATOM     12  C   UNL d   1      -1.172   2.615   0.231  0.00  0.00     0.058 C 
BRANCH  12  13
ATOM     13  C   UNL d   1      -0.639   1.211   0.083  0.00  0.00    -0.054 A 
ATOM     14  C   UNL d   1      -0.246   0.475   1.210  0.00  0.00     0.046 A 
ATOM     15  C   UNL d   1       0.262  -0.830   1.093  0.00  0.00     0.102 A 
ATOM     16  C   UNL d   1       0.320  -1.430  -0.174  0.00  0.00     0.101 A 
ATOM     17  C   UNL d   1      -0.086  -0.695  -1.297  0.00  0.00     0.040 A 
ATOM     18  C   UNL d   1      -0.559   0.612  -1.175  0.00  0.00     0.010 A 
BRANCH  15  19
ATOM     19  O   UNL d   1       0.702  -1.534   2.183  0.00  0.00    -0.353 OA
ATOM     20  C   UNL d   1       1.202  -0.763   3.272  0.00  0.00     0.210 C 
ENDBRANCH  15  19
BRANCH  16  21
ATOM     21  O   UNL d   1       0.826  -2.661  -0.501  0.00  0.00    -0.353 OA
ATOM     22  C   UNL d   1       0.698  -3.711   0.448  0.00  0.00     0.210 C 
ENDBRANCH  16  21
ENDBRANCH  12  13
ENDBRANCH   1  12
TORSDOF 9
