REMARK  6 active torsions:
REMARK  status: ('A' for Active; 'I' for Inactive)
REMARK       I    between atoms: N_2  and  C_1 
REMARK    1  A    between atoms: C_15  and  C_1 
REMARK    2  A    between atoms: C_7  and  N_2 
REMARK    3  A    between atoms: C_3  and  C_16 
REMARK    4  A    between atoms: O_9  and  C_3 
REMARK    5  A    between atoms: S_6  and  C_15 
REMARK    6  A    between atoms: C_16  and  S_6 
ROOT
ATOM      1  C   UNL d   1       1.053   0.021   0.012  0.00  0.00     0.231 C 
ATOM      2  N   UNL d   1       0.371   0.944   0.782  0.00  0.00    -0.327 N 
ATOM      3  O   UNL d   1       0.529  -0.804  -0.740  0.00  0.00    -0.272 OA
ATOM      4  H   UNL d   1       0.903   1.714   1.173  0.00  0.00     0.169 HD
ENDROOT
BRANCH   1   5
ATOM      5  C   UNL d   1       2.570   0.101   0.119  0.00  0.00     0.177 C 
BRANCH   5   6
ATOM      6  S   UNL d   1       3.274  -1.421   0.841  0.00  0.00    -0.149 SA
BRANCH   6   7
ATOM      7  C   UNL d   1       2.683  -2.714  -0.307  0.00  0.00     0.184 C 
BRANCH   7   8
ATOM      8  C   UNL d   1       3.045  -2.446  -1.750  0.00  0.00     0.149 C 
ATOM      9  O   UNL d   1       4.127  -2.731  -2.247  0.00  0.00    -0.649 OA
BRANCH   8  10
ATOM     10  O   UNL d   1       2.075  -1.835  -2.469  0.00  0.00    -0.776 OA
ATOM     11  H   UNL d   1       1.267  -1.606  -1.942  0.00  0.00     0.167 HD
ENDBRANCH   8  10
ENDBRANCH   7   8
ENDBRANCH   6   7
ENDBRANCH   5   6
ENDBRANCH   1   5
BRANCH   2  12
ATOM     12  C   UNL d   1      -1.025   0.992   0.975  0.00  0.00     0.034 A 
ATOM     13  C   UNL d   1      -1.876  -0.082   0.683  0.00  0.00     0.032 A 
ATOM     14  C   UNL d   1      -3.251   0.018   0.909  0.00  0.00     0.044 A 
ATOM     15  C   UNL d   1      -3.776   1.194   1.425  0.00  0.00     0.116 A 
ATOM     16  C   UNL d   1      -2.950   2.268   1.729  0.00  0.00     0.044 A 
ATOM     17  F   UNL d   1      -5.095   1.292   1.636  0.00  0.00    -0.206 F 
ATOM     18  C   UNL d   1      -1.572   2.163   1.515  0.00  0.00     0.032 A 
ENDBRANCH   2  12
TORSDOF 6
