REMARK  4 active torsions:
REMARK  status: ('A' for Active; 'I' for Inactive)
REMARK    1  A    between atoms: N_2  and  C_1 
REMARK       I    between atoms: C_3  and  N_6 
REMARK       I    between atoms: N_10  and  C_3 
REMARK    2  A    between atoms: N_7  and  C_4 
REMARK    3  A    between atoms: C_5  and  C_9 
REMARK    4  A    between atoms: C_23  and  N_10 
ROOT
ATOM      1  C   UNL d   1       1.383  -0.083   0.365  0.00  0.00     0.130 A 
ATOM      2  C   UNL d   1       0.640  -1.260   0.133  0.00  0.00     0.063 A 
ATOM      3  C   UNL d   1       0.802   1.198   0.418  0.00  0.00     0.054 A 
ATOM      4  C   UNL d   1      -0.571   1.350   0.213  0.00  0.00     0.050 A 
ATOM      5  C   UNL d   1      -0.738  -1.069  -0.073  0.00  0.00     0.032 A 
ATOM      6  C   UNL d   1      -1.333   0.203  -0.038  0.00  0.00     0.018 A 
ENDROOT
BRANCH   2   7
ATOM      7  N   UNL d   1       1.216  -2.525   0.062  0.00  0.00    -0.376 N 
ATOM      8  C   UNL d   1       0.581  -3.589  -0.743  0.00  0.00     0.143 C 
ATOM      9  C   UNL d   1       1.643  -4.629  -1.157  0.00  0.00     0.147 C 
ATOM     10  N   UNL d   1       2.367  -5.153   0.014  0.00  0.00    -0.331 N 
ATOM     11  C   UNL d   1       2.795  -6.452   0.208  0.00  0.00     0.318 C 
ATOM     12  C   UNL d   1       2.946  -4.101   0.865  0.00  0.00     0.147 C 
ATOM     13  N   UNL d   1       2.258  -7.380  -0.643  0.00  0.00    -0.339 N 
ATOM     14  O   UNL d   1       3.592  -6.755   1.093  0.00  0.00    -0.247 OA
ATOM     15  H   UNL d   1       1.349  -7.155  -1.008  0.00  0.00     0.164 HD
ATOM     16  C   UNL d   1       1.887  -3.058   1.276  0.00  0.00     0.143 C 
BRANCH  13  17
ATOM     17  C   UNL d   1       2.533  -8.812  -0.554  0.00  0.00     0.078 C 
ATOM     18  C   UNL d   1       4.010  -9.149  -0.743  0.00  0.00     0.032 C 
ATOM     19  C   UNL d   1       1.974  -9.422   0.731  0.00  0.00     0.032 C 
ENDBRANCH  13  17
ENDBRANCH   2   7
BRANCH   1  20
ATOM     20  N   UNL d   1       2.831  -0.127   0.480  0.00  0.00    -0.113 N 
ATOM     21  O   UNL d   1       3.480  -0.512  -0.501  0.00  0.00    -0.532 OA
ATOM     22  O   UNL d   1       3.314   0.277   1.550  0.00  0.00    -0.532 OA
ENDBRANCH   1  20
BRANCH   4  23
ATOM     23  C   UNL d   1      -1.224   2.710   0.239  0.00  0.00     0.417 C 
ATOM     24  F   UNL d   1      -0.362   3.720   0.544  0.00  0.00    -0.166 F 
ATOM     25  F   UNL d   1      -1.777   3.042  -0.961  0.00  0.00    -0.166 F 
ATOM     26  F   UNL d   1      -2.230   2.787   1.152  0.00  0.00    -0.166 F 
ENDBRANCH   4  23
TORSDOF 4
