REMARK  2 active torsions:
REMARK  status: ('A' for Active; 'I' for Inactive)
REMARK    1  A    between atoms: C_8  and  N_2 
REMARK    2  A    between atoms: C_10  and  C_6 
ROOT
ATOM      1  C   UNL d   1      -0.667  -0.957  -0.100  0.00  0.00     0.112 A 
ATOM      2  N   UNL d   1      -0.174   0.933   1.012  0.00  0.00    -0.175 N 
ATOM      3  C   UNL d   1      -1.244   0.282   0.439  0.00  0.00     0.288 A 
ATOM      4  C   UNL d   1       0.777  -0.961   0.163  0.00  0.00     0.321 A 
ATOM      5  O   UNL d   1       1.036   0.207   0.822  0.00  0.00    -0.184 OA
ATOM      6  C   UNL d   1      -1.428  -1.902  -0.670  0.00  0.00     0.034 C 
ATOM      7  O   UNL d   1      -2.423   0.586   0.385  0.00  0.00    -0.265 OA
ATOM      8  O   UNL d   1       1.604  -1.800  -0.141  0.00  0.00    -0.257 OA
ENDROOT
BRANCH   6   9
ATOM      9  C   UNL d   1      -0.961  -3.221  -1.097  0.00  0.00    -0.035 A 
ATOM     10  C   UNL d   1      -1.006  -4.289  -0.192  0.00  0.00     0.011 A 
ATOM     11  C   UNL d   1      -0.596  -5.564  -0.585  0.00  0.00     0.001 A 
ATOM     12  C   UNL d   1      -0.141  -5.780  -1.884  0.00  0.00     0.000 A 
ATOM     13  C   UNL d   1      -0.091  -4.719  -2.789  0.00  0.00     0.001 A 
ATOM     14  C   UNL d   1      -0.498  -3.441  -2.398  0.00  0.00     0.011 A 
ENDBRANCH   6   9
BRANCH   2  15
ATOM     15  C   UNL d   1      -0.127   2.077   1.832  0.00  0.00     0.067 A 
ATOM     16  C   UNL d   1      -1.292   2.738   2.241  0.00  0.00     0.032 A 
ATOM     17  C   UNL d   1      -1.222   3.858   3.077  0.00  0.00     0.002 A 
ATOM     18  C   UNL d   1       0.013   4.339   3.504  0.00  0.00     0.000 A 
ATOM     19  C   UNL d   1       1.180   3.697   3.101  0.00  0.00     0.002 A 
ATOM     20  C   UNL d   1       1.110   2.571   2.275  0.00  0.00     0.032 A 
ENDBRANCH   2  15
TORSDOF 2
