REMARK  7 active torsions:
REMARK  status: ('A' for Active; 'I' for Inactive)
REMARK    1  A    between atoms: C_3  and  C_1 
REMARK    2  A    between atoms: O_13  and  C_3 
REMARK    3  A    between atoms: C_5  and  C_14 
REMARK    4  A    between atoms: N_12  and  C_10 
REMARK    5  A    between atoms: C_17  and  N_12 
REMARK    6  A    between atoms: C_18  and  O_13 
REMARK    7  A    between atoms: C_14  and  C_17 
ROOT
ATOM      1  C   UNL d   1       0.942  -0.530   0.182  0.00  0.00     0.134 C 
ATOM      2  C   UNL d   1       0.152  -0.543  -1.001  0.00  0.00     0.107 C 
ATOM      3  N   UNL d   1      -0.439  -0.538  -1.996  0.00  0.00    -0.191 NA
ATOM      4  C   UNL d   1       2.287  -0.523   0.108  0.00  0.00     0.112 C 
ENDROOT
BRANCH   1   5
ATOM      5  C   UNL d   1       0.193  -0.460   1.460  0.00  0.00     0.305 C 
ATOM      6  O   UNL d   1      -1.029  -0.413   1.515  0.00  0.00    -0.258 OA
BRANCH   5   7
ATOM      7  O   UNL d   1       1.019  -0.344   2.534  0.00  0.00    -0.317 OA
BRANCH   7   8
ATOM      8  C   UNL d   1       0.416   0.282   3.681  0.00  0.00     0.174 C 
ATOM      9  C   UNL d   1       0.579   1.782   3.515  0.00  0.00     0.034 C 
ENDBRANCH   7   8
ENDBRANCH   5   7
ENDBRANCH   1   5
BRANCH   4  10
ATOM     10  N   UNL d   1       3.084  -0.569  -1.018  0.00  0.00    -0.397 N 
ATOM     11  H   UNL d   1       2.620  -0.539  -1.927  0.00  0.00     0.158 HD
BRANCH  10  12
ATOM     12  C   UNL d   1       4.543  -0.549  -1.038  0.00  0.00     0.123 C 
BRANCH  12  13
ATOM     13  C   UNL d   1       5.079  -1.292  -2.268  0.00  0.00     0.060 C 
BRANCH  13  14
ATOM     14  C   UNL d   1       6.575  -1.314  -2.304  0.00  0.00    -0.029 A 
ATOM     15  C   UNL d   1       7.398  -0.377  -2.898  0.00  0.00     0.096 A 
ATOM     16  N   UNL d   1       8.698  -0.746  -2.680  0.00  0.00    -0.365 N 
ATOM     17  C   UNL d   1       8.746  -1.927  -1.977  0.00  0.00     0.042 A 
ATOM     18  H   UNL d   1       9.511  -0.235  -2.997  0.00  0.00     0.165 HD
ATOM     19  C   UNL d   1       7.428  -2.309  -1.727  0.00  0.00    -0.002 A 
ATOM     20  C   UNL d   1       9.848  -2.679  -1.551  0.00  0.00     0.030 A 
ATOM     21  C   UNL d   1       7.199  -3.504  -1.014  0.00  0.00     0.014 A 
ATOM     22  C   UNL d   1       8.287  -4.275  -0.592  0.00  0.00     0.001 A 
ATOM     23  C   UNL d   1       9.592  -3.866  -0.858  0.00  0.00     0.002 A 
ENDBRANCH  13  14
ENDBRANCH  12  13
ENDBRANCH  10  12
ENDBRANCH   4  10
TORSDOF 7
