REMARK  4 active torsions:
REMARK  status: ('A' for Active; 'I' for Inactive)
REMARK    1  A    between atoms: C_9  and  C_1 
REMARK    2  A    between atoms: N_8  and  C_2 
REMARK    3  A    between atoms: C_10  and  C_4 
REMARK    4  A    between atoms: C_6  and  C_7 
REMARK       I    between atoms: C_7  and  N_8 
ROOT
ATOM      1  C   UNL d   1      -0.092   1.184  -0.082  0.00  0.00     0.077 A 
ATOM      2  C   UNL d   1       1.226   0.763  -0.177  0.00  0.00     0.057 A 
ATOM      3  S   UNL d   1      -1.161  -0.168   0.075  0.00  0.00    -0.084 SA
ATOM      4  C   UNL d   1       0.089  -1.314  -0.103  0.00  0.00     0.018 A 
ATOM      5  C   UNL d   1       1.303  -0.672  -0.233  0.00  0.00     0.051 A 
ENDROOT
BRANCH   2   6
ATOM      6  N   UNL d   1       2.424   1.475  -0.220  0.00  0.00    -0.322 N 
ATOM      7  C   UNL d   1       2.670   2.778   0.188  0.00  0.00     0.277 C 
ATOM      8  O   UNL d   1       1.788   3.527   0.609  0.00  0.00    -0.268 OA
ATOM      9  H   UNL d   1       3.250   0.901  -0.383  0.00  0.00     0.169 HD
BRANCH   7  10
ATOM     10  C   UNL d   1       4.158   3.228   0.088  0.00  0.00     0.269 C 
ATOM     11 CL   UNL d   1       5.224   1.867  -0.400  0.00  0.00    -0.073 Cl
ATOM     12 CL   UNL d   1       4.271   4.514  -1.136  0.00  0.00    -0.073 Cl
ATOM     13 CL   UNL d   1       4.686   3.814   1.683  0.00  0.00    -0.073 Cl
ENDBRANCH   7  10
ENDBRANCH   2   6
BRANCH   1  14
ATOM     14  C   UNL d   1      -0.749   2.486  -0.128  0.00  0.00     0.164 C 
ATOM     15  O   UNL d   1      -1.697   2.791   0.601  0.00  0.00    -0.292 OA
ATOM     16  C   UNL d   1      -0.359   3.435  -1.242  0.00  0.00     0.097 C 
ENDBRANCH   1  14
BRANCH   4  17
ATOM     17  C   UNL d   1      -0.176  -2.762  -0.071  0.00  0.00    -0.019 A 
ATOM     18  C   UNL d   1      -1.322  -3.319  -0.662  0.00  0.00     0.014 A 
ATOM     19  C   UNL d   1      -1.539  -4.701  -0.646  0.00  0.00     0.024 A 
ATOM     20  C   UNL d   1      -0.611  -5.544  -0.039  0.00  0.00     0.034 A 
ATOM     21  C   UNL d   1       0.534  -5.013   0.552  0.00  0.00     0.024 A 
ATOM     22 CL   UNL d   1      -0.872  -7.242  -0.028  0.00  0.00    -0.084 Cl
ATOM     23  C   UNL d   1       0.746  -3.632   0.535  0.00  0.00     0.014 A 
ENDBRANCH   4  17
TORSDOF 4
