REMARK  2 active torsions:
REMARK  status: ('A' for Active; 'I' for Inactive)
REMARK       I    between atoms: N_2  and  C_1 
REMARK    1  A    between atoms: C_3  and  C_1 
REMARK    2  A    between atoms: C_4  and  N_2 
ROOT
ATOM      1  C   UNL d   1       1.045   0.088  -0.144  0.00  0.00     0.262 C 
ATOM      2  N   UNL d   1       0.502   1.232   0.417  0.00  0.00    -0.318 N 
ATOM      3  O   UNL d   1       2.206   0.006  -0.531  0.00  0.00    -0.267 OA
ATOM      4  H   UNL d   1      -0.289   1.126   1.047  0.00  0.00     0.169 HD
ENDROOT
BRANCH   1   5
ATOM      5  C   UNL d   1       0.176  -1.119  -0.199  0.00  0.00     0.109 A 
ATOM      6  C   UNL d   1       0.596  -2.241  -0.921  0.00  0.00     0.135 A 
ATOM      7  F   UNL d   1       1.770  -2.265  -1.568  0.00  0.00    -0.205 F 
ATOM      8  C   UNL d   1      -0.199  -3.386  -1.012  0.00  0.00     0.043 A 
ATOM      9  C   UNL d   1      -1.438  -3.428  -0.380  0.00  0.00     0.006 A 
ATOM     10  C   UNL d   1      -1.873  -2.322   0.346  0.00  0.00     0.043 A 
ATOM     11  C   UNL d   1      -1.069  -1.183   0.432  0.00  0.00     0.135 A 
ATOM     12  F   UNL d   1      -1.532  -0.150   1.155  0.00  0.00    -0.205 F 
ENDBRANCH   1   5
BRANCH   2  13
ATOM     13  C   UNL d   1       1.138   2.496   0.434  0.00  0.00     0.113 A 
ATOM     14  C   UNL d   1       2.009   2.951  -0.562  0.00  0.00     0.146 A 
ATOM     15  F   UNL d   1       2.203   2.256  -1.691  0.00  0.00    -0.204 F 
ATOM     16  C   UNL d   1       2.623   4.202  -0.466  0.00  0.00     0.045 A 
ATOM     17  C   UNL d   1       2.365   5.027   0.627  0.00  0.00     0.006 A 
ATOM     18  C   UNL d   1       1.466   4.608   1.607  0.00  0.00     0.045 A 
ATOM     19  C   UNL d   1       0.852   3.361   1.494  0.00  0.00     0.146 A 
ATOM     20  F   UNL d   1      -0.010   2.977   2.449  0.00  0.00    -0.204 F 
ENDBRANCH   2  13
TORSDOF 2
