REMARK  6 active torsions:
REMARK  status: ('A' for Active; 'I' for Inactive)
REMARK    1  A    between atoms: N_7  and  C_1 
REMARK    2  A    between atoms: C_6  and  C_5 
REMARK    3  A    between atoms: C_9  and  C_6 
REMARK    4  A    between atoms: C_15  and  N_7 
REMARK       I    between atoms: N_10  and  C_9 
REMARK    5  A    between atoms: C_11  and  N_10 
REMARK    6  A    between atoms: C_23  and  C_13 
ROOT
ATOM      1  C   UNL d   1       1.024   0.931   0.694  0.00  0.00     0.148 C 
ATOM      2  N   UNL d   1       1.269  -0.233   1.350  0.00  0.00    -0.306 N 
ATOM      3  C   UNL d   1       0.232  -1.102   1.483  0.00  0.00     0.238 C 
ATOM      4  S   UNL d   1      -0.700   1.220   0.663  0.00  0.00    -0.079 SA
ATOM      5  C   UNL d   1      -1.024  -0.571   0.834  0.00  0.00     0.156 C 
ATOM      6  O   UNL d   1       0.336  -2.215   1.993  0.00  0.00    -0.272 OA
ATOM      7  H   UNL d   1       2.199  -0.514   1.617  0.00  0.00     0.171 HD
ENDROOT
BRANCH   1   8
ATOM      8  N   UNL d   1       1.880   1.705   0.122  0.00  0.00    -0.337 N 
ATOM      9  HN  UNL d   1       1.569   2.593  -0.272  1.00  0.00     0.168 HD
BRANCH   8  10
ATOM     10  C   UNL d   1       3.239   1.344   0.032  0.00  0.00     0.034 C 
ATOM     11  C   UNL d   1       3.663   0.061  -0.329  0.00  0.00     0.030 C 
ATOM     12  C   UNL d   1       5.016  -0.287  -0.309  0.00  0.00     0.010 C 
ATOM     13  C   UNL d   1       6.002   0.664  -0.015  0.00  0.00    -0.054 C 
ATOM     14  C   UNL d   1       5.578   1.987   0.164  0.00  0.00     0.010 C 
ATOM     15  C   UNL d   1       4.217   2.315   0.225  0.00  0.00     0.030 C 
BRANCH  13  16
ATOM     16  C   UNL d   1       7.456   0.208   0.086  0.00  0.00     0.018 C 
ATOM     17  C   UNL d   1       7.656  -0.836   1.209  0.00  0.00     0.009 C 
ATOM     18  C   UNL d   1       7.558  -0.215   2.602  0.00  0.00     0.001 C 
ATOM     19  C   UNL d   1       8.538   0.938   2.793  0.00  0.00     0.000 C 
ATOM     20  C   UNL d   1       8.524   1.951   1.655  0.00  0.00     0.001 C 
ATOM     21  C   UNL d   1       8.518   1.310   0.264  0.00  0.00     0.009 C 
ENDBRANCH  13  16
ENDBRANCH   8  10
ENDBRANCH   1   8
BRANCH   5  22
ATOM     22  C   UNL d   1      -2.272  -1.061   1.541  0.00  0.00     0.128 C 
BRANCH  22  23
ATOM     23  C   UNL d   1      -2.337  -0.700   3.005  0.00  0.00     0.223 C 
ATOM     24  N   UNL d   1      -1.723  -1.601   3.873  0.00  0.00    -0.327 N 
ATOM     25  H   UNL d   1      -1.085  -2.285   3.469  0.00  0.00     0.169 HD
ATOM     26  O   UNL d   1      -2.899   0.341   3.326  0.00  0.00    -0.273 OA
BRANCH  24  27
ATOM     27  C   UNL d   1      -1.758  -1.528   5.288  0.00  0.00     0.035 A 
ATOM     28  C   UNL d   1      -2.645  -0.684   5.959  0.00  0.00     0.036 A 
ATOM     29  C   UNL d   1      -2.597  -0.521   7.346  0.00  0.00    -0.059 A 
ATOM     30  C   UNL d   1      -3.472   0.500   8.008  0.00  0.00     0.048 C 
ATOM     31  C   UNL d   1      -1.686  -1.272   8.086  0.00  0.00     0.013 A 
ATOM     32  C   UNL d   1      -0.851  -2.204   7.454  0.00  0.00    -0.059 A 
ATOM     33  C   UNL d   1      -0.879  -2.317   6.049  0.00  0.00     0.036 A 
ATOM     34  C   UNL d   1       0.054  -3.045   8.309  0.00  0.00     0.048 C 
ENDBRANCH  24  27
ENDBRANCH  22  23
ENDBRANCH   5  22
TORSDOF 6
