REMARK  4 active torsions:
REMARK  status: ('A' for Active; 'I' for Inactive)
REMARK    1  A    between atoms: N_7  and  C_3 
REMARK    2  A    between atoms: C_8  and  C_4 
REMARK    3  A    between atoms: C_9  and  N_7 
REMARK    4  A    between atoms: S_12  and  C_11 
ROOT
ATOM      1  N   UNL d   1       1.384  -0.577   0.047  0.00  0.00    -0.339 N 
ATOM      2  HN  UNL d   1       2.282  -1.049   0.154  1.00  0.00     0.168 HD
ATOM      3  C   UNL d   1       0.231  -1.202  -0.076  0.00  0.00     0.149 A 
ATOM      4  C   UNL d   1       1.229   0.798   0.014  0.00  0.00     0.025 A 
ATOM      5  S   UNL d   1      -1.129  -0.153  -0.163  0.00  0.00    -0.064 SA
ATOM      6  C   UNL d   1      -0.092   1.205  -0.023  0.00  0.00     0.079 A 
ENDROOT
BRANCH   3   7
ATOM      7  N   UNL d   1       0.086  -2.542  -0.165  0.00  0.00    -0.337 N 
ATOM      8  H   UNL d   1      -0.785  -2.917  -0.513  0.00  0.00     0.168 HD
BRANCH   7   9
ATOM      9  C   UNL d   1       0.974  -3.493   0.373  0.00  0.00     0.035 A 
ATOM     10  C   UNL d   1       1.761  -3.221   1.506  0.00  0.00     0.048 A 
ATOM     11  C   UNL d   1       2.666  -4.158   2.014  0.00  0.00     0.002 A 
ATOM     12  C   UNL d   1       2.796  -5.385   1.362  0.00  0.00     0.018 A 
ATOM     13  C   UNL d   1       2.040  -5.668   0.222  0.00  0.00     0.004 A 
ATOM     14  C   UNL d   1       1.131  -4.727  -0.266  0.00  0.00     0.029 A 
BRANCH  11  15
ATOM     15  S   UNL d   1       3.611  -3.905   3.514  0.00  0.00    -0.134 SA
ATOM     16  C   UNL d   1       3.862  -2.108   3.525  0.00  0.00     0.095 C 
ENDBRANCH  11  15
ENDBRANCH   7   9
ENDBRANCH   3   7
BRANCH   4  17
ATOM     17  C   UNL d   1       2.474   1.673  -0.001  0.00  0.00    -0.008 C 
ATOM     18  C   UNL d   1       3.757   0.812  -0.036  0.00  0.00     0.021 C 
ATOM     19  C   UNL d   1       2.471   2.567  -1.258  0.00  0.00     0.021 C 
ATOM     20  C   UNL d   1       2.527   2.561   1.253  0.00  0.00     0.021 C 
ENDBRANCH   4  17
TORSDOF 4
