REMARK  6 active torsions:
REMARK  status: ('A' for Active; 'I' for Inactive)
REMARK    1  A    between atoms: C_7  and  S_1 
REMARK    2  A    between atoms: N_9  and  S_1 
REMARK    3  A    between atoms: S_2  and  C_8 
REMARK    4  A    between atoms: N_10  and  S_2 
REMARK    5  A    between atoms: C_22  and  N_9 
REMARK    6  A    between atoms: C_23  and  N_10 
ROOT
ATOM      1  C   UNL d   1      -0.832  -3.010  -2.118  0.00  0.00    -0.041 A 
ATOM      2  C   UNL d   1      -1.835  -4.913  -3.079  0.00  0.00    -0.041 A 
ATOM      3  C   UNL d   1      -0.104  -4.157  -1.724  0.00  0.00    -0.019 A 
ATOM      4  C   UNL d   1      -0.742  -5.328  -2.286  0.00  0.00    -0.019 A 
ATOM      5  C   UNL d   1       0.640  -1.643  -0.842  0.00  0.00     0.080 A 
ATOM      6  C   UNL d   1      -2.267  -7.180  -3.664  0.00  0.00     0.080 A 
ATOM      7  C   UNL d   1      -1.980  -3.404  -3.027  0.00  0.00     0.078 A 
ATOM      8  C   UNL d   1      -0.477  -1.744  -1.681  0.00  0.00     0.033 A 
ATOM      9  C   UNL d   1      -2.609  -5.827  -3.776  0.00  0.00     0.033 A 
ATOM     10  C   UNL d   1      -0.443  -6.673  -2.137  0.00  0.00     0.014 A 
ATOM     11  C   UNL d   1       1.031  -4.042  -0.937  0.00  0.00     0.014 A 
ATOM     12  C   UNL d   1       1.412  -2.770  -0.501  0.00  0.00     0.026 A 
ATOM     13  C   UNL d   1      -1.216  -7.608  -2.831  0.00  0.00     0.026 A 
ENDROOT
BRANCH   5  14
ATOM     14  S   UNL d   1       1.066  -0.073  -0.132  0.00  0.00     0.259 S 
ATOM     15  O   UNL d   1       0.057   0.893  -0.499  0.00  0.00    -0.201 OA
ATOM     16  O   UNL d   1       2.464   0.152  -0.428  0.00  0.00    -0.201 OA
BRANCH  14  17
ATOM     17  N   UNL d   1       0.992  -0.340   1.521  0.00  0.00    -0.307 N 
ATOM     18  H   UNL d   1       1.879  -0.160   1.990  0.00  0.00     0.173 HD
BRANCH  17  19
ATOM     19  C   UNL d   1      -0.217  -0.555   2.343  0.00  0.00     0.029 C 
ATOM     20  C   UNL d   1      -0.898  -1.879   1.995  0.00  0.00     0.038 C 
ATOM     21  C   UNL d   1       0.253  -0.633   3.809  0.00  0.00     0.038 C 
ATOM     22  C   UNL d   1      -1.205   0.607   2.221  0.00  0.00     0.038 C 
ENDBRANCH  17  19
ENDBRANCH  14  17
ENDBRANCH   5  14
BRANCH   6  23
ATOM     23  S   UNL d   1      -3.191  -8.402  -4.561  0.00  0.00     0.259 S 
ATOM     24  O   UNL d   1      -3.577  -9.414  -3.605  0.00  0.00    -0.201 OA
ATOM     25  O   UNL d   1      -4.173  -7.726  -5.379  0.00  0.00    -0.201 OA
BRANCH  23  26
ATOM     26  N   UNL d   1      -2.043  -9.132  -5.548  0.00  0.00    -0.307 N 
ATOM     27  H   UNL d   1      -2.013 -10.138  -5.382  0.00  0.00     0.173 HD
BRANCH  26  28
ATOM     28  C   UNL d   1      -1.629  -8.658  -6.889  0.00  0.00     0.029 C 
ATOM     29  C   UNL d   1      -1.027  -7.254  -6.829  0.00  0.00     0.038 C 
ATOM     30  C   UNL d   1      -0.539  -9.632  -7.385  0.00  0.00     0.038 C 
ATOM     31  C   UNL d   1      -2.796  -8.721  -7.879  0.00  0.00     0.038 C 
ENDBRANCH  26  28
ENDBRANCH  23  26
ENDBRANCH   6  23
TORSDOF 6
