REMARK  6 active torsions:
REMARK  status: ('A' for Active; 'I' for Inactive)
REMARK    1  A    between atoms: C_2  and  N_1 
REMARK       I    between atoms: C_4  and  N_1 
REMARK    2  A    between atoms: N_7  and  C_2 
REMARK    3  A    between atoms: C_3  and  C_5 
REMARK    4  A    between atoms: C_14  and  C_4 
REMARK    5  A    between atoms: C_6  and  N_7 
REMARK    6  A    between atoms: O_18  and  C_13 
ROOT
ATOM      1  N   UNL d   1       0.334   2.809  -0.198  0.00  0.00    -0.333 N 
ATOM      2  H   UNL d   1      -0.607   3.203  -0.195  0.00  0.00     0.168 HD
ENDROOT
BRANCH   1   3
ATOM      3  C   UNL d   1       1.294   3.829  -0.002  0.00  0.00     0.037 A 
ATOM      4  C   UNL d   1       2.066   3.930   1.158  0.00  0.00     0.046 A 
ATOM      5  C   UNL d   1       2.815   5.096   1.396  0.00  0.00     0.052 A 
ATOM      6  C   UNL d   1       2.829   6.113   0.425  0.00  0.00     0.053 A 
ATOM      7  C   UNL d   1       2.095   5.992  -0.754  0.00  0.00     0.071 A 
ATOM      8  C   UNL d   1       1.307   4.862  -0.948  0.00  0.00     0.066 A 
BRANCH   5   9
ATOM      9  C   UNL d   1       3.510   5.333   2.716  0.00  0.00     0.417 C 
ATOM     10  F   UNL d   1       3.743   4.191   3.419  0.00  0.00    -0.166 F 
ATOM     11  F   UNL d   1       4.722   5.939   2.576  0.00  0.00    -0.166 F 
ATOM     12  F   UNL d   1       2.783   6.139   3.538  0.00  0.00    -0.166 F 
ENDBRANCH   5   9
BRANCH   7  13
ATOM     13  O   UNL d   1       2.196   7.056  -1.607  0.00  0.00    -0.356 OA
ATOM     14  C   UNL d   1       1.623   6.901  -2.901  0.00  0.00     0.210 C 
ENDBRANCH   7  13
ENDBRANCH   1   3
BRANCH   1  15
ATOM     15  C   UNL d   1       0.352   1.555   0.381  0.00  0.00     0.179 C 
ATOM     16  S   UNL d   1      -0.946   1.111   1.327  0.00  0.00    -0.040 SA
BRANCH  15  17
ATOM     17  N   UNL d   1       1.396   0.768  -0.088  0.00  0.00    -0.299 N 
ATOM     18  C   UNL d   1       1.453  -0.624  -0.056  0.00  0.00     0.257 C 
ATOM     19  O   UNL d   1       1.009  -1.347   0.827  0.00  0.00    -0.267 OA
ATOM     20  H   UNL d   1       1.868   1.211  -0.863  0.00  0.00     0.171 HD
BRANCH  18  21
ATOM     21  C   UNL d   1       2.147  -1.270  -1.206  0.00  0.00     0.032 A 
ATOM     22  C   UNL d   1       3.351  -0.775  -1.722  0.00  0.00     0.017 A 
ATOM     23  C   UNL d   1       3.963  -1.426  -2.795  0.00  0.00     0.001 A 
ATOM     24  C   UNL d   1       3.381  -2.564  -3.358  0.00  0.00     0.000 A 
ATOM     25  C   UNL d   1       2.186  -3.062  -2.842  0.00  0.00     0.001 A 
ATOM     26  C   UNL d   1       1.573  -2.419  -1.763  0.00  0.00     0.017 A 
ENDBRANCH  18  21
ENDBRANCH  15  17
ENDBRANCH   1  15
TORSDOF 6
