REMARK  5 active torsions:
REMARK  status: ('A' for Active; 'I' for Inactive)
REMARK    1  A    between atoms: C_7  and  N_1 
REMARK    2  A    between atoms: C_4  and  C_2 
REMARK    3  A    between atoms: C_3  and  C_9 
REMARK    4  A    between atoms: O_21  and  C_11 
REMARK    5  A    between atoms: C_22  and  O_21 
ROOT
ATOM      1  C   UNL d   1      -3.004  -4.024   3.007  0.00  0.00     0.038 C 
ATOM      2  C   UNL d   1      -1.918  -3.354   3.439  0.00  0.00     0.055 C 
ATOM      3  C   UNL d   1      -1.217  -2.398   2.639  0.00  0.00     0.100 C 
ATOM      4  N   UNL d   1      -0.627  -1.632   1.998  0.00  0.00    -0.191 NA
ENDROOT
BRANCH   2   5
ATOM      5  C   UNL d   1      -1.434  -3.641   4.804  0.00  0.00    -0.015 A 
ATOM      6  C   UNL d   1      -0.354  -4.514   5.000  0.00  0.00     0.015 A 
ATOM      7  C   UNL d   1       0.099  -4.806   6.290  0.00  0.00     0.037 A 
ATOM      8  C   UNL d   1      -0.532  -4.221   7.396  0.00  0.00     0.102 A 
ATOM      9  C   UNL d   1      -1.615  -3.351   7.216  0.00  0.00     0.037 A 
ATOM     10  C   UNL d   1      -2.063  -3.066   5.921  0.00  0.00     0.015 A 
BRANCH   8  11
ATOM     11  N   UNL d   1      -0.056  -4.526   8.752  0.00  0.00    -0.116 N 
ATOM     12  O   UNL d   1      -0.637  -3.984   9.703  0.00  0.00    -0.532 OA
ATOM     13  O   UNL d   1       0.897  -5.310   8.864  0.00  0.00    -0.532 OA
ENDBRANCH   8  11
ENDBRANCH   2   5
BRANCH   1  14
ATOM     14  C   UNL d   1      -3.684  -3.821   1.718  0.00  0.00    -0.000 A 
ATOM     15  C   UNL d   1      -3.230  -4.245   0.457  0.00  0.00     0.079 A 
ATOM     16  C   UNL d   1      -3.974  -3.914  -0.689  0.00  0.00     0.039 A 
ATOM     17  C   UNL d   1      -5.170  -3.200  -0.598  0.00  0.00     0.022 A 
ATOM     18  C   UNL d   1      -5.627  -2.800   0.650  0.00  0.00     0.011 A 
ATOM     19  C   UNL d   1      -4.895  -3.104   1.797  0.00  0.00     0.033 A 
ATOM     20 BR   UNL d   1      -7.237  -1.821   0.795  0.00  0.00    -0.051 Br
BRANCH  15  21
ATOM     21  O   UNL d   1      -2.081  -4.921   0.153  0.00  0.00    -0.351 OA
BRANCH  21  22
ATOM     22  C   UNL d   1      -1.598  -5.891   1.076  0.00  0.00     0.171 C 
ATOM     23  C   UNL d   1      -0.871  -6.968   0.288  0.00  0.00     0.034 C 
ENDBRANCH  21  22
ENDBRANCH  15  21
ENDBRANCH   1  14
TORSDOF 5
