REMARK  4 active torsions:
REMARK  status: ('A' for Active; 'I' for Inactive)
REMARK    1  A    between atoms: C_6  and  C_1 
REMARK    2  A    between atoms: C_9  and  C_3 
REMARK    3  A    between atoms: C_10  and  C_4 
REMARK    4  A    between atoms: C_7  and  C_11 
ROOT
ATOM      1  C   UNL d   1      -1.450   0.688   0.009  0.00  0.00     0.011 A 
ATOM      2  N   UNL d   1       0.699   0.072  -0.053  0.00  0.00    -0.349 N 
ATOM      3  C   UNL d   1      -0.147   1.185   0.037  0.00  0.00     0.056 A 
ATOM      4  C   UNL d   1      -0.042  -1.109  -0.060  0.00  0.00     0.045 A 
ATOM      5  C   UNL d   1      -1.370  -0.724  -0.086  0.00  0.00     0.045 A 
ATOM      6  C   UNL d   1       2.146   0.113  -0.145  0.00  0.00     0.156 C 
ENDROOT
BRANCH   3   7
ATOM      7  C   UNL d   1       0.329   2.581   0.051  0.00  0.00    -0.008 A 
ATOM      8  C   UNL d   1      -0.164   3.511  -0.877  0.00  0.00     0.014 A 
ATOM      9  C   UNL d   1       0.213   4.857  -0.819  0.00  0.00     0.017 A 
ATOM     10  C   UNL d   1       1.141   5.296   0.136  0.00  0.00     0.048 A 
ATOM     11  C   UNL d   1       1.663   4.364   1.042  0.00  0.00     0.017 A 
ATOM     12  C   UNL d   1       1.243   3.030   1.015  0.00  0.00     0.014 A 
BRANCH  10  13
ATOM     13  C   UNL d   1       1.523   6.754   0.211  0.00  0.00     0.417 C 
ATOM     14  F   UNL d   1       2.629   6.987   0.971  0.00  0.00    -0.166 F 
ATOM     15  F   UNL d   1       1.792   7.293  -1.011  0.00  0.00    -0.166 F 
ATOM     16  F   UNL d   1       0.533   7.521   0.748  0.00  0.00    -0.166 F 
ENDBRANCH  10  13
ENDBRANCH   3   7
BRANCH   1  17
ATOM     17  C   UNL d   1      -2.741   1.467   0.064  0.00  0.00     0.017 A 
ATOM     18  S   UNL d   1      -4.228   0.850  -0.533  0.00  0.00    -0.101 SA
ATOM     19  C   UNL d   1      -5.046   2.319  -0.222  0.00  0.00     0.050 A 
ATOM     20  C   UNL d   1      -4.232   3.235   0.403  0.00  0.00     0.008 A 
ATOM     21  C   UNL d   1      -2.910   2.733   0.590  0.00  0.00     0.020 A 
ENDBRANCH   1  17
BRANCH   4  22
ATOM     22  C   UNL d   1       0.486  -2.487   0.015  0.00  0.00    -0.009 A 
ATOM     23  C   UNL d   1       1.575  -2.929  -0.741  0.00  0.00     0.014 A 
ATOM     24  C   UNL d   1       2.071  -4.232  -0.605  0.00  0.00     0.007 A 
ATOM     25  C   UNL d   1       1.457  -5.142   0.259  0.00  0.00    -0.062 A 
ATOM     26  C   UNL d   1       0.338  -4.728   0.983  0.00  0.00     0.007 A 
ATOM     27  C   UNL d   1       2.005  -6.532   0.397  0.00  0.00     0.048 C 
ATOM     28  C   UNL d   1      -0.138  -3.415   0.865  0.00  0.00     0.014 A 
ENDBRANCH   4  22
TORSDOF 4
