REMARK  3 active torsions:
REMARK  status: ('A' for Active; 'I' for Inactive)
REMARK    1  A    between atoms: C_9  and  N_6 
REMARK    2  A    between atoms: C_10  and  C_9 
REMARK    3  A    between atoms: C_11  and  C_10 
ROOT
ATOM      1  C   UNL d   1      -0.278  -1.295   0.166  0.00  0.00     0.709 A 
ATOM      2  N   UNL d   1       0.830  -0.804   0.731  0.00  0.00    -0.116 N 
ATOM      3  HN  UNL d   1       1.543  -1.279   1.285  1.00  0.00     0.207 HD
ATOM      4  N   UNL d   1      -1.015  -0.327  -0.472  0.00  0.00    -0.113 N 
ATOM      5  HN  UNL d   1      -1.901  -0.462  -0.957  1.00  0.00     0.203 HD
ATOM      6  N   UNL d   1       0.746   0.494   0.368  0.00  0.00    -0.196 N 
ATOM      7  N   UNL d   1      -0.357   0.815  -0.338  0.00  0.00     0.011 NA
ATOM      8  N   UNL d   1      -0.610  -2.601   0.087  0.00  0.00    -0.211 N 
ATOM      9  O   UNL d   1      -1.272  -5.361  -0.095  0.00  0.00    -0.388 OA
ATOM     10  C   UNL d   1      -0.212  -3.522   1.156  0.00  0.00     0.167 C 
ATOM     11  C   UNL d   1      -1.789  -3.027  -0.669  0.00  0.00     0.167 C 
ATOM     12  C   UNL d   1      -0.078  -4.944   0.590  0.00  0.00     0.188 C 
ATOM     13  C   UNL d   1      -1.565  -4.461  -1.177  0.00  0.00     0.188 C 
ENDROOT
BRANCH   6  14
ATOM     14  C   UNL d   1       1.959   1.262   0.173  0.00  0.00     0.251 C 
BRANCH  14  15
ATOM     15  C   UNL d   1       2.241   2.241   1.276  0.00  0.00     0.180 C 
ATOM     16  O   UNL d   1       1.557   2.342   2.291  0.00  0.00    -0.290 OA
BRANCH  15  17
ATOM     17  C   UNL d   1       3.428   3.141   1.105  0.00  0.00     0.012 A 
ATOM     18  C   UNL d   1       4.293   3.037   0.004  0.00  0.00     0.017 A 
ATOM     19  C   UNL d   1       5.370   3.919  -0.134  0.00  0.00     0.025 A 
ATOM     20  C   UNL d   1       5.591   4.904   0.825  0.00  0.00     0.034 A 
ATOM     21  C   UNL d   1       4.750   5.008   1.931  0.00  0.00     0.025 A 
ATOM     22 CL   UNL d   1       6.905   5.996   0.638  0.00  0.00    -0.084 Cl
ATOM     23  C   UNL d   1       3.672   4.128   2.072  0.00  0.00     0.017 A 
ENDBRANCH  15  17
ENDBRANCH  14  15
ENDBRANCH   6  14
TORSDOF 3
