REMARK  0 active torsions:
REMARK  status: ('A' for Active; 'I' for Inactive)
ROOT
ATOM      1  C   UNL d   1      -0.834  -0.191   0.006  0.00  0.00     0.280 A 
ATOM      2  C   UNL d   1      -0.630  -1.781   0.047  0.00  0.00     0.290 A 
ATOM      3  C   UNL d   1       0.619   0.252  -0.005  0.00  0.00     0.040 A 
ATOM      4  N   UNL d   1       0.736  -2.034   0.054  0.00  0.00    -0.321 N 
ATOM      5  C   UNL d   1       1.464  -0.857   0.024  0.00  0.00     0.047 A 
ATOM      6  O   UNL d   1      -1.438   0.302  -1.184  0.00  0.00    -0.344 OA
ATOM      7  O   UNL d   1      -1.439   0.362   1.169  0.00  0.00    -0.344 OA
ATOM      8  O   UNL d   1      -1.495  -2.646   0.070  0.00  0.00    -0.267 OA
ATOM      9  C   UNL d   1       1.154   1.532  -0.038  0.00  0.00     0.015 A 
ATOM     10  C   UNL d   1      -3.539   0.524  -0.013  0.00  0.00     0.053 C 
ATOM     11  C   UNL d   1       2.840  -0.747   0.020  0.00  0.00     0.030 A 
ATOM     12  C   UNL d   1      -2.825  -0.016  -1.239  0.00  0.00     0.174 C 
ATOM     13  C   UNL d   1      -2.825   0.048   1.239  0.00  0.00     0.174 C 
ATOM     14  C   UNL d   1       2.547   1.669  -0.043  0.00  0.00     0.001 A 
ATOM     15  C   UNL d   1       3.383   0.538  -0.014  0.00  0.00     0.002 A 
ATOM     16  H   UNL d   1       1.121  -2.965   0.078  0.00  0.00     0.169 HD
ENDROOT
TORSDOF 0
