REMARK  7 active torsions:
REMARK  status: ('A' for Active; 'I' for Inactive)
REMARK    1  A    between atoms: N_7  and  S_1 
REMARK    2  A    between atoms: C_8  and  S_1 
REMARK    3  A    between atoms: C_9  and  C_2 
REMARK    4  A    between atoms: C_3  and  N_7 
REMARK    5  A    between atoms: C_17  and  C_5 
REMARK    6  A    between atoms: O_26  and  C_9 
REMARK    7  A    between atoms: C_18  and  C_19 
ROOT
ATOM      1  C   UNL d   1       2.280   2.930  -0.800  0.00  0.00     0.108 A 
ATOM      2  C   UNL d   1       1.025   2.377  -0.973  0.00  0.00     0.067 A 
ATOM      3  S   UNL d   1       2.200   4.647  -0.823  0.00  0.00    -0.081 SA
ATOM      4  C   UNL d   1       0.519   4.669  -1.160  0.00  0.00     0.018 A 
ATOM      5  C   UNL d   1       0.033   3.376  -1.209  0.00  0.00     0.051 A 
ENDROOT
BRANCH   2   6
ATOM      6  N   UNL d   1       0.683   1.021  -1.018  0.00  0.00    -0.279 N 
ATOM      7  H   UNL d   1       0.742   0.499  -1.890  0.00  0.00     0.179 HD
BRANCH   6   8
ATOM      8  S   UNL d   1       0.357   0.093   0.351  0.00  0.00     0.263 S 
ATOM      9  O   UNL d   1       1.449   0.290   1.294  0.00  0.00    -0.200 OA
ATOM     10  O   UNL d   1      -0.003  -1.227  -0.105  0.00  0.00    -0.200 OA
BRANCH   8  11
ATOM     11  C   UNL d   1      -1.106   0.860   1.033  0.00  0.00     0.086 A 
ATOM     12  C   UNL d   1      -1.015   1.355   2.352  0.00  0.00     0.034 A 
ATOM     13  C   UNL d   1      -2.110   1.976   2.977  0.00  0.00    -0.039 A 
ATOM     14  C   UNL d   1      -1.992   2.463   4.394  0.00  0.00     0.050 C 
ATOM     15  C   UNL d   1      -3.298   2.106   2.253  0.00  0.00     0.040 A 
ATOM     16  C   UNL d   1      -3.390   1.621   0.946  0.00  0.00     0.032 A 
ATOM     17 CL   UNL d   1      -4.697   2.860   2.932  0.00  0.00    -0.084 Cl
ATOM     18  C   UNL d   1      -2.304   0.989   0.311  0.00  0.00    -0.037 A 
ATOM     19  C   UNL d   1      -2.553   0.461  -1.073  0.00  0.00     0.050 C 
ENDBRANCH   8  11
ENDBRANCH   6   8
ENDBRANCH   2   6
BRANCH   1  20
ATOM     20  C   UNL d   1       3.578   2.297  -0.629  0.00  0.00     0.302 C 
ATOM     21  O   UNL d   1       4.646   2.877  -0.479  0.00  0.00    -0.259 OA
BRANCH  20  22
ATOM     22  O   UNL d   1       3.446   0.946  -0.708  0.00  0.00    -0.322 OA
ATOM     23  C   UNL d   1       4.638   0.185  -0.526  0.00  0.00     0.213 C 
ENDBRANCH  20  22
ENDBRANCH   1  20
BRANCH   4  24
ATOM     24  C   UNL d   1      -0.216   5.932  -1.378  0.00  0.00    -0.019 A 
ATOM     25  C   UNL d   1      -1.576   6.038  -1.049  0.00  0.00     0.013 A 
ATOM     26  C   UNL d   1      -2.324   7.186  -1.372  0.00  0.00     0.009 A 
ATOM     27  C   UNL d   1      -1.741   8.274  -2.040  0.00  0.00    -0.051 A 
ATOM     28  C   UNL d   1      -0.360   8.185  -2.294  0.00  0.00     0.009 A 
ATOM     29  C   UNL d   1       0.386   7.039  -1.978  0.00  0.00     0.013 A 
BRANCH  27  30
ATOM     30  C   UNL d   1      -2.591   9.470  -2.523  0.00  0.00    -0.024 C 
ATOM     31  C   UNL d   1      -1.733  10.496  -3.296  0.00  0.00     0.019 C 
ATOM     32  C   UNL d   1      -3.714   8.984  -3.470  0.00  0.00     0.019 C 
ATOM     33  C   UNL d   1      -3.263  10.226  -1.358  0.00  0.00     0.019 C 
ENDBRANCH  27  30
ENDBRANCH   4  24
TORSDOF 7
