REMARK  1 active torsions:
REMARK  status: ('A' for Active; 'I' for Inactive)
REMARK    1  A    between atoms: C_5  and  C_1 
ROOT
ATOM      1  C   UNL d   1       0.390   1.088  -0.003  0.00  0.00     0.144 A 
ATOM      2  N   UNL d   1      -0.444   0.570   0.955  0.00  0.00    -0.266 N 
ATOM      3  HN  UNL d   1      -0.888   1.080   1.718  1.00  0.00     0.186 HD
ATOM      4  N   UNL d   1      -0.558  -0.725   0.692  0.00  0.00    -0.005 NA
ATOM      5  N   UNL d   1       0.821   0.170  -0.882  0.00  0.00    -0.271 N 
ATOM      6  HN  UNL d   1       1.439   0.270  -1.687  1.00  0.00     0.190 HD
ATOM      7  N   UNL d   1       0.203  -0.916  -0.394  0.00  0.00    -0.225 N 
ATOM      8  H   UNL d   1       0.304  -1.835  -0.818  0.00  0.00     0.205 HD
ENDROOT
BRANCH   1   9
ATOM      9  C   UNL d   1       0.747   2.505  -0.012  0.00  0.00     0.017 A 
ATOM     10  C   UNL d   1       0.327   3.439   0.912  0.00  0.00     0.065 A 
ATOM     11  S   UNL d   1       0.952   4.999   0.585  0.00  0.00    -0.113 SA
ATOM     12  C   UNL d   1       1.787   4.436  -0.798  0.00  0.00     0.050 A 
ATOM     13  C   UNL d   1       1.594   3.087  -1.006  0.00  0.00     0.023 A 
ENDBRANCH   1   9
TORSDOF 1
