REMARK  4 active torsions:
REMARK  status: ('A' for Active; 'I' for Inactive)
REMARK    1  A    between atoms: C_2  and  N_1 
REMARK    2  A    between atoms: C_3  and  N_1 
REMARK    3  A    between atoms: C_11  and  C_3 
REMARK    4  A    between atoms: C_7  and  C_11 
ROOT
ATOM      1  N   UNL d   1       1.101  -0.080   0.100  0.00  0.00    -0.380 N 
ATOM      2  H   UNL d   1       0.715  -0.998  -0.113  0.00  0.00     0.160 HD
ENDROOT
BRANCH   1   3
ATOM      3  C   UNL d   1       0.389   0.522   1.147  0.00  0.00     0.029 C 
ATOM      4  C   UNL d   1      -0.789  -0.084   1.616  0.00  0.00     0.041 C 
ATOM      5  C   UNL d   1      -1.470   0.384   2.762  0.00  0.00    -0.024 A 
ATOM      6  C   UNL d   1      -2.611  -0.260   3.273  0.00  0.00     0.012 A 
ATOM      7  C   UNL d   1      -0.974   1.518   3.437  0.00  0.00    -0.026 A 
ATOM      8  C   UNL d   1      -3.219   0.186   4.451  0.00  0.00     0.001 A 
ATOM      9  C   UNL d   1      -2.697   1.279   5.135  0.00  0.00     0.001 A 
ATOM     10  C   UNL d   1      -1.584   1.948   4.626  0.00  0.00     0.012 A 
ATOM     11  C   UNL d   1       0.125   2.195   2.904  0.00  0.00     0.014 C 
ATOM     12  C   UNL d   1       0.770   1.717   1.759  0.00  0.00     0.030 C 
ENDBRANCH   1   3
BRANCH   1  13
ATOM     13  C   UNL d   1       2.597  -0.086   0.012  0.00  0.00     0.033 C 
ATOM     14  C   UNL d   1       3.067   1.159  -0.789  0.00  0.00     0.031 C 
ATOM     15  C   UNL d   1       2.752   1.096  -2.284  0.00  0.00     0.002 C 
ATOM     16  C   UNL d   1       3.356  -0.151  -2.912  0.00  0.00     0.000 C 
ATOM     17  C   UNL d   1       2.793  -1.396  -2.245  0.00  0.00     0.002 C 
ATOM     18  C   UNL d   1       3.041  -1.386  -0.738  0.00  0.00     0.031 C 
BRANCH  13  19
ATOM     19  C   UNL d   1       3.313  -0.114   1.411  0.00  0.00     0.057 C 
BRANCH  19  20
ATOM     20  C   UNL d   1       2.926  -1.248   2.331  0.00  0.00    -0.034 C 
ATOM     21  C   UNL d   1       3.798  -2.103   2.882  0.00  0.00     0.007 C 
ENDBRANCH  19  20
ENDBRANCH  13  19
ENDBRANCH   1  13
TORSDOF 4
