REMARK  5 active torsions:
REMARK  status: ('A' for Active; 'I' for Inactive)
REMARK    1  A    between atoms: C_2  and  S_1 
REMARK    2  A    between atoms: N_6  and  S_1 
REMARK    3  A    between atoms: C_4  and  C_8 
REMARK    4  A    between atoms: C_5  and  C_9 
REMARK    5  A    between atoms: C_12  and  N_6 
ROOT
ATOM      1  C   UNL d   1       2.306  -4.191  -1.654  0.00  0.00     0.050 A 
ATOM      2  C   UNL d   1      -0.078  -4.723  -1.533  0.00  0.00     0.050 A 
ATOM      3  C   UNL d   1       0.812  -2.803  -0.340  0.00  0.00     0.044 A 
ATOM      4  C   UNL d   1       1.216  -5.006  -2.002  0.00  0.00     0.032 A 
ATOM      5  C   UNL d   1      -0.267  -3.616  -0.688  0.00  0.00     0.046 A 
ATOM      6  C   UNL d   1       2.087  -3.082  -0.823  0.00  0.00     0.046 A 
ENDROOT
BRANCH   3   7
ATOM      7  N   UNL d   1       0.605  -1.602   0.370  0.00  0.00    -0.281 N 
ATOM      8  H   UNL d   1       0.502  -0.718  -0.125  0.00  0.00     0.179 HD
BRANCH   7   9
ATOM      9  S   UNL d   1       0.362  -1.563   2.021  0.00  0.00     0.266 S 
ATOM     10  O   UNL d   1       0.012  -0.204   2.368  0.00  0.00    -0.200 OA
ATOM     11  O   UNL d   1      -0.495  -2.673   2.386  0.00  0.00    -0.200 OA
BRANCH   9  12
ATOM     12  C   UNL d   1       1.960  -1.871   2.697  0.00  0.00     0.121 A 
ATOM     13  C   UNL d   1       2.155  -2.916   3.603  0.00  0.00     0.072 A 
ATOM     14  C   UNL d   1       3.409  -3.082   4.183  0.00  0.00     0.135 A 
ATOM     15  F   UNL d   1       3.582  -4.079   5.062  0.00  0.00    -0.205 F 
ATOM     16  C   UNL d   1       4.462  -2.220   3.868  0.00  0.00     0.052 A 
ATOM     17  C   UNL d   1       4.267  -1.187   2.953  0.00  0.00     0.066 A 
ATOM     18 BR   UNL d   1       6.154  -2.430   4.684  0.00  0.00    -0.048 Br
ATOM     19  C   UNL d   1       3.011  -1.018   2.372  0.00  0.00     0.141 A 
ATOM     20  F   UNL d   1       2.846  -0.026   1.487  0.00  0.00    -0.204 F 
ENDBRANCH   9  12
ENDBRANCH   7   9
ENDBRANCH   3   7
BRANCH   2  21
ATOM     21  C   UNL d   1      -1.260  -5.565  -1.957  0.00  0.00     0.417 C 
ATOM     22  F   UNL d   1      -0.933  -6.536  -2.855  0.00  0.00    -0.166 F 
ATOM     23  F   UNL d   1      -1.852  -6.205  -0.913  0.00  0.00    -0.166 F 
ATOM     24  F   UNL d   1      -2.236  -4.824  -2.551  0.00  0.00    -0.166 F 
ENDBRANCH   2  21
BRANCH   1  25
ATOM     25  C   UNL d   1       3.695  -4.466  -2.179  0.00  0.00     0.417 C 
ATOM     26  F   UNL d   1       3.759  -5.536  -3.017  0.00  0.00    -0.166 F 
ATOM     27  F   UNL d   1       4.198  -3.410  -2.876  0.00  0.00    -0.166 F 
ATOM     28  F   UNL d   1       4.583  -4.713  -1.178  0.00  0.00    -0.166 F 
ENDBRANCH   1  25
TORSDOF 5
