REMARK  2 active torsions:
REMARK  status: ('A' for Active; 'I' for Inactive)
REMARK    1  A    between atoms: C_4  and  C_1 
REMARK    2  A    between atoms: C_14  and  C_5 
ROOT
ATOM      1  C   UNL d   1       0.537  -0.992  -0.062  0.00  0.00     0.186 A 
ATOM      2  N   UNL d   1       1.202   0.115   0.192  0.00  0.00    -0.318 N 
ATOM      3  HN  UNL d   1       2.173   0.218   0.487  1.00  0.00     0.169 HD
ATOM      4  C   UNL d   1       0.267   1.103  -0.040  0.00  0.00     0.138 A 
ATOM      5  N   UNL d   1      -0.941   0.631  -0.384  0.00  0.00    -0.242 N 
ATOM      6  HN  UNL d   1      -1.790   1.160  -0.583  1.00  0.00     0.196 HD
ATOM      7  O   UNL d   1      -0.764  -0.747  -0.407  0.00  0.00    -0.217 OA
ENDROOT
BRANCH   1   8
ATOM      8  C   UNL d   1       1.127  -2.346  -0.002  0.00  0.00     0.073 A 
ATOM      9  C   UNL d   1       0.500  -3.519  -0.346  0.00  0.00     0.089 A 
ATOM     10  O   UNL d   1       1.371  -4.549  -0.168  0.00  0.00    -0.242 OA
ATOM     11  C   UNL d   1      -0.838  -3.874  -0.856  0.00  0.00     0.080 C 
ATOM     12  N   UNL d   1       2.579  -4.062   0.296  0.00  0.00    -0.265 N 
ATOM     13  C   UNL d   1       2.427  -2.733   0.392  0.00  0.00     0.045 A 
ATOM     14  HN  UNL d   1       3.415  -4.602   0.520  1.00  0.00     0.194 HD
ATOM     15  C   UNL d   1       3.545  -1.890   0.871  0.00  0.00     0.071 C 
ENDBRANCH   1   8
BRANCH   4  16
ATOM     16  C   UNL d   1       0.593   2.523   0.041  0.00  0.00     0.010 A 
ATOM     17  C   UNL d   1       1.900   2.935   0.332  0.00  0.00     0.016 A 
ATOM     18  C   UNL d   1       2.230   4.294   0.366  0.00  0.00     0.007 A 
ATOM     19  C   UNL d   1       1.256   5.267   0.110  0.00  0.00    -0.062 A 
ATOM     20  C   UNL d   1      -0.052   4.862  -0.170  0.00  0.00     0.007 A 
ATOM     21  C   UNL d   1       1.628   6.721   0.119  0.00  0.00     0.048 C 
ATOM     22  C   UNL d   1      -0.381   3.503  -0.203  0.00  0.00     0.016 A 
ENDBRANCH   4  16
TORSDOF 2
