REMARK  1 active torsions:
REMARK  status: ('A' for Active; 'I' for Inactive)
REMARK    1  A    between atoms: C_11  and  C_3 
ROOT
ATOM      1  C   UNL d   1       0.257   0.576   0.062  0.00  0.00     0.077 A 
ATOM      2  C   UNL d   1      -0.446  -0.617   0.013  0.00  0.00     0.091 A 
ATOM      3  C   UNL d   1      -0.613   1.731   0.032  0.00  0.00    -0.001 A 
ATOM      4  C   UNL d   1       1.707   0.464   0.134  0.00  0.00     0.260 A 
ATOM      5  N   UNL d   1       0.068  -1.875  -0.011  0.00  0.00    -0.346 N 
ATOM      6  HN  UNL d   1      -0.517  -2.710  -0.033  1.00  0.00     0.167 HD
ATOM      7  S   UNL d   1      -2.129  -0.371  -0.019  0.00  0.00    -0.082 SA
ATOM      8  C   UNL d   1      -1.938   1.325  -0.015  0.00  0.00     0.065 A 
ATOM      9  N   UNL d   1       2.179  -0.827   0.045  0.00  0.00    -0.319 N 
ATOM     10  C   UNL d   1       1.360  -1.924  -0.001  0.00  0.00     0.184 A 
ATOM     11  O   UNL d   1       2.492   1.396   0.274  0.00  0.00    -0.267 OA
ATOM     12  H   UNL d   1       3.181  -0.931   0.079  0.00  0.00     0.169 HD
ENDROOT
BRANCH   3  13
ATOM     13  C   UNL d   1      -0.280   3.163   0.024  0.00  0.00    -0.024 A 
ATOM     14  C   UNL d   1       0.834   3.640  -0.676  0.00  0.00     0.012 A 
ATOM     15  C   UNL d   1       1.175   4.997  -0.654  0.00  0.00     0.001 A 
ATOM     16  C   UNL d   1       0.376   5.906   0.031  0.00  0.00     0.000 A 
ATOM     17  C   UNL d   1      -0.762   5.460   0.697  0.00  0.00     0.001 A 
ATOM     18  C   UNL d   1      -1.082   4.097   0.703  0.00  0.00     0.012 A 
ENDBRANCH   3  13
TORSDOF 1
