REMARK  4 active torsions:
REMARK  status: ('A' for Active; 'I' for Inactive)
REMARK    1  A    between atoms: C_8  and  C_1 
REMARK    2  A    between atoms: N_9  and  C_3 
REMARK    3  A    between atoms: C_12  and  N_9 
REMARK    4  A    between atoms: N_16  and  C_11 
ROOT
ATOM      1  C   UNL d   1       1.084  -0.496  -0.677  0.00  0.00     0.178 A 
ATOM      2  O   UNL d   1       0.841   0.848  -0.805  0.00  0.00    -0.259 OA
ATOM      3  C   UNL d   1      -0.282   1.009  -0.038  0.00  0.00     0.245 A 
ATOM      4  N   UNL d   1       0.186  -1.103   0.073  0.00  0.00    -0.276 N 
ATOM      5  HN  UNL d   1       0.148  -2.097   0.299  1.00  0.00     0.189 HD
ATOM      6  N   UNL d   1      -0.688  -0.128   0.489  0.00  0.00    -0.263 N 
ATOM      7  HN  UNL d   1      -1.499  -0.260   1.094  1.00  0.00     0.190 HD
ENDROOT
BRANCH   3   8
ATOM      8  N   UNL d   1      -0.731   2.273   0.063  0.00  0.00    -0.321 N 
ATOM      9  H   UNL d   1      -0.205   2.972  -0.445  0.00  0.00     0.169 HD
BRANCH   8  10
ATOM     10  C   UNL d   1      -1.577   2.791   1.062  0.00  0.00     0.035 A 
ATOM     11  C   UNL d   1      -2.313   1.992   1.946  0.00  0.00     0.037 A 
ATOM     12  C   UNL d   1      -3.097   2.543   2.976  0.00  0.00    -0.054 A 
ATOM     13  C   UNL d   1      -3.825   1.615   3.911  0.00  0.00     0.049 C 
ATOM     14  C   UNL d   1      -3.169   3.939   3.116  0.00  0.00    -0.056 A 
ATOM     15  C   UNL d   1      -2.475   4.747   2.207  0.00  0.00     0.009 A 
ATOM     16  C   UNL d   1      -3.966   4.575   4.220  0.00  0.00     0.049 C 
ATOM     17  C   UNL d   1      -1.695   4.181   1.193  0.00  0.00     0.030 A 
ENDBRANCH   8  10
ENDBRANCH   3   8
BRANCH   1  18
ATOM     18  C   UNL d   1       2.255  -1.041  -1.351  0.00  0.00     0.038 A 
ATOM     19  C   UNL d   1       2.333  -2.417  -1.666  0.00  0.00     0.020 A 
ATOM     20  C   UNL d   1       3.460  -2.889  -2.356  0.00  0.00     0.024 A 
ATOM     21  C   UNL d   1       4.535  -2.049  -2.643  0.00  0.00     0.002 A 
ATOM     22  C   UNL d   1       4.486  -0.707  -2.279  0.00  0.00     0.001 A 
ATOM     23  C   UNL d   1       3.349  -0.205  -1.646  0.00  0.00     0.017 A 
BRANCH  19  24
ATOM     24  N   UNL d   1       1.230  -3.285  -1.528  0.00  0.00    -0.302 NA
ATOM     25  H   UNL d   1       0.571  -2.990  -0.803  0.00  0.00     0.124 HD
ATOM     26  H   UNL d   1       1.483  -4.263  -1.432  0.00  0.00     0.124 HD
ENDBRANCH  19  24
ENDBRANCH   1  18
TORSDOF 4
