REMARK  5 active torsions:
REMARK  status: ('A' for Active; 'I' for Inactive)
REMARK    1  A    between atoms: N_11  and  C_3 
REMARK    2  A    between atoms: C_6  and  C_4 
REMARK    3  A    between atoms: S_12  and  C_5 
REMARK    4  A    between atoms: O_13  and  C_6 
REMARK    5  A    between atoms: C_14  and  O_13 
ROOT
ATOM      1  N   UNL d   1      -0.754   1.158   0.091  0.00  0.00    -0.327 N 
ATOM      2  HN  UNL d   1      -1.262   2.042   0.112  1.00  0.00     0.169 HD
ATOM      3  C   UNL d   1      -1.401  -0.023   0.099  0.00  0.00     0.097 A 
ATOM      4  C   UNL d   1      -0.725  -1.231   0.074  0.00  0.00     0.092 A 
ATOM      5  C   UNL d   1       0.590   1.123   0.055  0.00  0.00     0.142 A 
ATOM      6  N   UNL d   1       1.334   0.008   0.048  0.00  0.00    -0.346 N 
ATOM      7  HN  UNL d   1       2.354   0.037   0.031  1.00  0.00     0.167 HD
ATOM      8  C   UNL d   1       0.651  -1.155   0.065  0.00  0.00     0.111 A 
ENDROOT
BRANCH   4   9
ATOM      9  C   UNL d   1      -1.333  -2.560  -0.015  0.00  0.00     0.298 C 
ATOM     10  O   UNL d   1      -0.774  -3.572   0.377  0.00  0.00    -0.259 OA
BRANCH   9  11
ATOM     11  O   UNL d   1      -2.463  -2.502  -0.763  0.00  0.00    -0.318 OA
BRANCH  11  12
ATOM     12  C   UNL d   1      -2.930  -3.762  -1.271  0.00  0.00     0.174 C 
ATOM     13  C   UNL d   1      -2.269  -4.011  -2.615  0.00  0.00     0.034 C 
ENDBRANCH  11  12
ENDBRANCH   9  11
ENDBRANCH   4   9
BRANCH   3  14
ATOM     14  N   UNL d   1      -2.786   0.074   0.218  0.00  0.00    -0.288 NA
ATOM     15  H   UNL d   1      -3.061   1.049   0.136  0.00  0.00     0.125 HD
ATOM     16  H   UNL d   1      -3.277  -0.535  -0.432  0.00  0.00     0.125 HD
ENDBRANCH   3  14
BRANCH   5  17
ATOM     17  S   UNL d   1       1.431   2.673  -0.016  0.00  0.00    -0.107 SA
ATOM     18  H   UNL d   1       0.300   3.387   0.012  0.00  0.00     0.110 HD
ENDBRANCH   5  17
TORSDOF 5
