REMARK  3 active torsions:
REMARK  status: ('A' for Active; 'I' for Inactive)
REMARK    1  A    between atoms: C_5  and  N_1 
REMARK    2  A    between atoms: N_8  and  N_2 
REMARK    3  A    between atoms: C_20  and  C_14 
ROOT
ATOM      1  N   UNL d   1      -0.696  -1.160   0.175  0.00  0.00    -0.308 N 
ATOM      2  N   UNL d   1       0.758   1.110   0.251  0.00  0.00    -0.251 N 
ATOM      3  C   UNL d   1      -1.406   0.049   0.118  0.00  0.00     0.244 C 
ATOM      4  C   UNL d   1       1.498  -0.060   0.011  0.00  0.00     0.257 C 
ATOM      5  C   UNL d   1      -0.564   1.222  -0.354  0.00  0.00     0.255 C 
ATOM      6  C   UNL d   1       0.619  -1.223  -0.469  0.00  0.00     0.236 C 
ATOM      7  O   UNL d   1       2.722  -0.164   0.076  0.00  0.00    -0.270 OA
ATOM      8  O   UNL d   1      -2.620   0.155   0.285  0.00  0.00    -0.271 OA
ENDROOT
BRANCH   2   9
ATOM      9  N   UNL d   1       1.293   2.295   0.702  0.00  0.00    -0.306 N 
ATOM     10  C   UNL d   1       2.295   2.260   1.522  0.00  0.00     0.120 C 
ATOM     11  HN  UNL d   1       0.906   3.188   0.396  1.00  0.00     0.186 HD
BRANCH  10  12
ATOM     12  C   UNL d   1       2.840   3.503   2.095  0.00  0.00    -0.004 A 
ATOM     13  C   UNL d   1       3.886   3.435   3.003  0.00  0.00     0.100 A 
ATOM     14  N   UNL d   1       4.404   4.518   3.631  0.00  0.00    -0.374 N 
ATOM     15  C   UNL d   1       3.850   5.716   3.336  0.00  0.00     0.087 A 
ATOM     16  HN  UNL d   1       5.174   4.434   4.295  1.00  0.00     0.164 HD
ATOM     17  C   UNL d   1       2.809   5.883   2.435  0.00  0.00     0.018 A 
ATOM     18  C   UNL d   1       2.296   4.754   1.801  0.00  0.00     0.015 A 
ENDBRANCH  10  12
ENDBRANCH   2   9
BRANCH   1  19
ATOM     19  C   UNL d   1      -1.345  -2.355   0.593  0.00  0.00     0.041 A 
ATOM     20  C   UNL d   1      -1.209  -3.546  -0.127  0.00  0.00     0.053 A 
ATOM     21  C   UNL d   1      -1.866  -4.701   0.306  0.00  0.00     0.037 A 
ATOM     22 CL   UNL d   1      -1.753  -6.141  -0.630  0.00  0.00    -0.084 Cl
ATOM     23  C   UNL d   1      -2.618  -4.700   1.477  0.00  0.00     0.048 A 
ATOM     24  C   UNL d   1      -2.732  -3.521   2.206  0.00  0.00     0.037 A 
ATOM     25  C   UNL d   1      -2.119  -2.349   1.762  0.00  0.00     0.053 A 
ATOM     26 CL   UNL d   1      -3.619  -3.514   3.680  0.00  0.00    -0.084 Cl
ENDBRANCH   1  19
TORSDOF 3
