REMARK  6 active torsions:
REMARK  status: ('A' for Active; 'I' for Inactive)
REMARK    1  A    between atoms: N_3  and  C_1 
REMARK    2  A    between atoms: N_5  and  C_1 
REMARK    3  A    between atoms: C_2  and  C_7 
REMARK       I    between atoms: C_4  and  N_3 
REMARK    4  A    between atoms: C_6  and  C_4 
REMARK    5  A    between atoms: C_16  and  N_5 
REMARK    6  A    between atoms: C_17  and  C_9 
ROOT
ATOM      1  C   UNL d   1       0.932  -0.229  -0.071  0.00  0.00     0.179 C 
ATOM      2  S   UNL d   1       2.032  -1.387   0.398  0.00  0.00    -0.040 SA
ENDROOT
BRANCH   1   3
ATOM      3  N   UNL d   1       0.564   0.913   0.636  0.00  0.00    -0.300 N 
ATOM      4  C   UNL d   1       0.951   1.482   1.831  0.00  0.00     0.247 C 
ATOM      5  O   UNL d   1       0.088   1.927   2.585  0.00  0.00    -0.268 OA
ATOM      6  H   UNL d   1      -0.429   1.083   0.519  0.00  0.00     0.171 HD
BRANCH   4   7
ATOM      7  C   UNL d   1       2.403   1.652   2.092  0.00  0.00     0.075 C 
ATOM      8  C   UNL d   1       2.754   2.482   3.091  0.00  0.00     0.017 C 
BRANCH   8   9
ATOM      9  C   UNL d   1       4.109   2.907   3.482  0.00  0.00    -0.036 A 
ATOM     10  C   UNL d   1       5.283   2.445   2.874  0.00  0.00     0.011 A 
ATOM     11  C   UNL d   1       6.531   2.937   3.273  0.00  0.00     0.001 A 
ATOM     12  C   UNL d   1       6.623   3.892   4.285  0.00  0.00     0.000 A 
ATOM     13  C   UNL d   1       5.466   4.348   4.906  0.00  0.00     0.001 A 
ATOM     14  C   UNL d   1       4.220   3.860   4.510  0.00  0.00     0.011 A 
ENDBRANCH   8   9
ENDBRANCH   4   7
ENDBRANCH   1   3
BRANCH   1  15
ATOM     15  N   UNL d   1       0.198  -0.431  -1.225  0.00  0.00    -0.333 N 
ATOM     16  H   UNL d   1       0.176  -1.389  -1.559  0.00  0.00     0.168 HD
BRANCH  15  17
ATOM     17  C   UNL d   1      -0.428   0.540  -2.038  0.00  0.00     0.034 A 
ATOM     18  C   UNL d   1      -0.001   1.871  -2.069  0.00  0.00     0.030 A 
ATOM     19  C   UNL d   1      -0.621   2.798  -2.910  0.00  0.00     0.018 A 
ATOM     20  C   UNL d   1      -1.683   2.411  -3.737  0.00  0.00     0.048 A 
ATOM     21  C   UNL d   1      -2.101   1.071  -3.713  0.00  0.00     0.018 A 
ATOM     22  C   UNL d   1      -1.464   0.138  -2.883  0.00  0.00     0.030 A 
BRANCH  20  23
ATOM     23  C   UNL d   1      -2.329   3.430  -4.643  0.00  0.00     0.417 C 
ATOM     24  F   UNL d   1      -3.378   2.936  -5.358  0.00  0.00    -0.166 F 
ATOM     25  F   UNL d   1      -2.817   4.501  -3.957  0.00  0.00    -0.166 F 
ATOM     26  F   UNL d   1      -1.458   3.936  -5.559  0.00  0.00    -0.166 F 
ENDBRANCH  20  23
ENDBRANCH  15  17
ENDBRANCH   1  15
TORSDOF 6
