REMARK  5 active torsions:
REMARK  status: ('A' for Active; 'I' for Inactive)
REMARK    1  A    between atoms: N_10  and  C_1 
REMARK    2  A    between atoms: C_2  and  C_8 
REMARK    3  A    between atoms: C_15  and  N_5 
REMARK    4  A    between atoms: C_14  and  C_7 
REMARK       I    between atoms: C_8  and  N_10 
REMARK    5  A    between atoms: C_17  and  C_12 
ROOT
ATOM      1  C   UNL d   1      -0.327  -1.135   0.200  0.00  0.00     0.132 C 
ATOM      2  N   UNL d   1       0.717   0.821  -0.301  0.00  0.00    -0.291 N 
ATOM      3  HN  UNL d   1       1.287   1.526  -0.768  1.00  0.00     0.187 HD
ATOM      4  N   UNL d   1       0.562  -0.486  -0.656  0.00  0.00    -0.239 N 
ATOM      5  C   UNL d   1      -0.622  -0.231   1.198  0.00  0.00     0.082 C 
ATOM      6  C   UNL d   1      -0.038   0.982   0.792  0.00  0.00     0.069 C 
ENDROOT
BRANCH   1   7
ATOM      7  N   UNL d   1      -0.772  -2.434   0.053  0.00  0.00    -0.307 N 
ATOM      8  C   UNL d   1      -2.090  -2.853   0.102  0.00  0.00     0.259 C 
ATOM      9  O   UNL d   1      -2.307  -4.061  -0.003  0.00  0.00    -0.267 OA
ATOM     10  H   UNL d   1      -0.143  -3.141  -0.311  0.00  0.00     0.170 HD
BRANCH   8  11
ATOM     11  C   UNL d   1      -3.180  -1.884   0.186  0.00  0.00     0.064 C 
ATOM     12  C   UNL d   1      -3.256  -0.536  -0.290  0.00  0.00     0.057 C 
ATOM     13  C   UNL d   1      -4.429   0.007   0.183  0.00  0.00     0.087 C 
ATOM     14  O   UNL d   1      -5.175  -0.984   0.753  0.00  0.00    -0.314 OA
ATOM     15  C   UNL d   1      -4.437  -2.133   0.707  0.00  0.00     0.065 C 
ATOM     16  C   UNL d   1      -5.121  -3.338   1.230  0.00  0.00     0.077 C 
BRANCH  13  17
ATOM     17  C   UNL d   1      -4.985   1.358   0.193  0.00  0.00    -0.002 A 
ATOM     18  C   UNL d   1      -4.251   2.434  -0.335  0.00  0.00     0.016 A 
ATOM     19  C   UNL d   1      -4.770   3.733  -0.328  0.00  0.00     0.024 A 
ATOM     20  C   UNL d   1      -6.030   3.969   0.215  0.00  0.00     0.034 A 
ATOM     21  C   UNL d   1      -6.766   2.922   0.760  0.00  0.00     0.024 A 
ATOM     22 CL   UNL d   1      -6.678   5.563   0.209  0.00  0.00    -0.084 Cl
ATOM     23  C   UNL d   1      -6.244   1.624   0.751  0.00  0.00     0.016 A 
ENDBRANCH  13  17
ENDBRANCH   8  11
ENDBRANCH   1   7
BRANCH   4  24
ATOM     24  C   UNL d   1       1.196  -0.974  -1.838  0.00  0.00     0.058 A 
ATOM     25  C   UNL d   1       2.362  -0.337  -2.284  0.00  0.00     0.033 A 
ATOM     26  C   UNL d   1       3.061  -0.835  -3.389  0.00  0.00     0.020 A 
ATOM     27  C   UNL d   1       2.578  -1.951  -4.071  0.00  0.00     0.006 A 
ATOM     28  C   UNL d   1       1.391  -2.559  -3.673  0.00  0.00     0.020 A 
ATOM     29  I   UNL d   1       3.633  -2.709  -5.691  0.00  0.00    -0.045 I 
ATOM     30  C   UNL d   1       0.696  -2.068  -2.562  0.00  0.00     0.033 A 
ENDBRANCH   4  24
BRANCH   6  31
ATOM     31  C   UNL d   1      -0.251   2.316   1.448  0.00  0.00     0.033 A 
ATOM     32  S   UNL d   1      -1.111   2.534   2.912  0.00  0.00    -0.100 SA
ATOM     33  C   UNL d   1      -0.870   4.226   2.880  0.00  0.00     0.050 A 
ATOM     34  C   UNL d   1      -0.180   4.626   1.758  0.00  0.00     0.008 A 
ATOM     35  C   UNL d   1       0.179   3.520   0.929  0.00  0.00     0.021 A 
ENDBRANCH   6  31
TORSDOF 5
