REMARK  3 active torsions:
REMARK  status: ('A' for Active; 'I' for Inactive)
REMARK    1  A    between atoms: C_11  and  C_3 
REMARK    2  A    between atoms: C_7  and  C_4 
REMARK    3  A    between atoms: C_8  and  C_15 
ROOT
ATOM      1  N   UNL d   1       1.464  -0.605  -0.023  0.00  0.00    -0.349 N 
ATOM      2  HN  UNL d   1       2.346  -1.118  -0.035  1.00  0.00     0.166 HD
ATOM      3  C   UNL d   1       0.267  -1.163  -0.060  0.00  0.00     0.084 A 
ATOM      4  C   UNL d   1       1.352   0.777   0.034  0.00  0.00     0.050 A 
ATOM      5  S   UNL d   1      -1.049  -0.045  -0.000  0.00  0.00    -0.081 SA
ATOM      6  C   UNL d   1       0.057   1.254   0.037  0.00  0.00     0.082 A 
ENDROOT
BRANCH   3   7
ATOM      7  C   UNL d   1       0.009  -2.613  -0.089  0.00  0.00    -0.002 A 
ATOM      8  C   UNL d   1       0.907  -3.495   0.528  0.00  0.00     0.015 A 
ATOM      9  C   UNL d   1       0.654  -4.872   0.562  0.00  0.00     0.010 A 
ATOM     10  C   UNL d   1      -0.497  -5.413  -0.031  0.00  0.00    -0.035 A 
ATOM     11  C   UNL d   1      -1.381  -4.532  -0.675  0.00  0.00     0.010 A 
ATOM     12  C   UNL d   1      -1.127  -3.156  -0.708  0.00  0.00     0.015 A 
BRANCH  10  13
ATOM     13  C   UNL d   1      -0.769  -6.899   0.050  0.00  0.00     0.141 C 
ATOM     14  S   UNL d   1      -1.003  -7.687  -1.571  0.00  0.00    -0.148 SA
ATOM     15  C   UNL d   1      -1.872  -9.126  -0.913  0.00  0.00     0.085 C 
ATOM     16  C   UNL d   1      -2.905  -8.626   0.079  0.00  0.00     0.085 C 
ATOM     17  S   UNL d   1      -2.207  -7.296   1.106  0.00  0.00    -0.148 SA
ENDBRANCH  10  13
ENDBRANCH   3   7
BRANCH   4  18
ATOM     18  C   UNL d   1       2.525   1.644   0.053  0.00  0.00    -0.006 A 
ATOM     19  C   UNL d   1       2.497   2.897   0.684  0.00  0.00     0.053 A 
ATOM     20  C   UNL d   1       3.611   3.742   0.653  0.00  0.00     0.102 A 
ATOM     21  O   UNL d   1       3.423   4.959   1.261  0.00  0.00    -0.348 OA
ATOM     22  C   UNL d   1       4.795   3.312   0.041  0.00  0.00     0.102 A 
ATOM     23  C   UNL d   1       4.091   6.031   0.595  0.00  0.00     0.178 C 
ATOM     24  C   UNL d   1       5.529   6.156   1.067  0.00  0.00     0.053 C 
ATOM     25  C   UNL d   1       6.213   4.803   1.161  0.00  0.00     0.178 C 
ATOM     26  O   UNL d   1       5.969   4.019  -0.007  0.00  0.00    -0.348 OA
ATOM     27  C   UNL d   1       4.826   2.070  -0.597  0.00  0.00     0.040 A 
ATOM     28  C   UNL d   1       3.701   1.238  -0.585  0.00  0.00     0.017 A 
ENDBRANCH   4  18
TORSDOF 3
