REMARK  7 active torsions:
REMARK  status: ('A' for Active; 'I' for Inactive)
REMARK    1  A    between atoms: C_2  and  S_1 
REMARK    2  A    between atoms: N_7  and  S_1 
REMARK    3  A    between atoms: C_8  and  C_3 
REMARK    4  A    between atoms: C_12  and  N_7 
REMARK    5  A    between atoms: O_13  and  C_8 
REMARK    6  A    between atoms: C_21  and  C_16 
REMARK    7  A    between atoms: C_23  and  C_21 
ROOT
ATOM      1  S   UNL d   1       0.905   0.041  -0.115  0.00  0.00     0.249 S 
ATOM      2  O   UNL d   1       0.232   1.040   0.690  0.00  0.00    -0.205 OA
ATOM      3  O   UNL d   1       2.349  -0.021  -0.170  0.00  0.00    -0.205 OA
ENDROOT
BRANCH   1   4
ATOM      4  C   UNL d   1       0.394   0.452  -1.717  0.00  0.00     0.122 A 
ATOM      5  C   UNL d   1      -0.973   0.605  -2.141  0.00  0.00     0.094 A 
ATOM      6  C   UNL d   1      -0.908   1.054  -3.451  0.00  0.00     0.067 A 
ATOM      7  C   UNL d   1      -1.890   1.424  -4.497  0.00  0.00     0.078 C 
ATOM      8  O   UNL d   1       0.389   1.176  -3.838  0.00  0.00    -0.318 OA
ATOM      9  C   UNL d   1       1.182   0.832  -2.786  0.00  0.00     0.073 A 
ATOM     10  C   UNL d   1       2.627   1.004  -3.046  0.00  0.00     0.078 C 
BRANCH   5  11
ATOM     11  C   UNL d   1      -2.172   0.347  -1.365  0.00  0.00     0.297 C 
ATOM     12  O   UNL d   1      -2.197  -0.448  -0.437  0.00  0.00    -0.259 OA
BRANCH  11  13
ATOM     13  O   UNL d   1      -3.252   1.046  -1.816  0.00  0.00    -0.322 OA
ATOM     14  C   UNL d   1      -4.481   0.792  -1.142  0.00  0.00     0.213 C 
ENDBRANCH  11  13
ENDBRANCH   5  11
ENDBRANCH   1   4
BRANCH   1  15
ATOM     15  N   UNL d   1       0.296  -1.470   0.355  0.00  0.00    -0.181 NA
ATOM     16  H   UNL d   1      -0.722  -1.391   0.465  0.00  0.00     0.146 HD
BRANCH  15  17
ATOM     17  C   UNL d   1       0.733  -2.607  -0.389  0.00  0.00     0.022 A 
ATOM     18  C   UNL d   1       1.939  -3.237  -0.086  0.00  0.00     0.025 A 
ATOM     19  C   UNL d   1       2.393  -4.298  -0.877  0.00  0.00     0.009 A 
ATOM     20  C   UNL d   1       1.658  -4.711  -1.998  0.00  0.00    -0.058 A 
ATOM     21  C   UNL d   1       0.431  -4.091  -2.268  0.00  0.00     0.009 A 
ATOM     22  C   UNL d   1      -0.026  -3.043  -1.472  0.00  0.00     0.025 A 
BRANCH  20  23
ATOM     23  C   UNL d   1       2.203  -5.761  -2.936  0.00  0.00     0.038 C 
BRANCH  23  24
ATOM     24  C   UNL d   1       2.471  -5.220  -4.348  0.00  0.00     0.000 C 
ATOM     25  C   UNL d   1       3.510  -4.106  -4.378  0.00  0.00     0.005 C 
ENDBRANCH  23  24
ENDBRANCH  20  23
ENDBRANCH  15  17
ENDBRANCH   1  15
TORSDOF 7
