REMARK  6 active torsions:
REMARK  status: ('A' for Active; 'I' for Inactive)
REMARK    1  A    between atoms: C_7  and  N_1 
REMARK    2  A    between atoms: C_8  and  C_4 
REMARK    3  A    between atoms: C_12  and  C_6 
REMARK    4  A    between atoms: N_9  and  C_17 
REMARK    5  A    between atoms: C_13  and  C_11 
REMARK    6  A    between atoms: O_20  and  C_14 
ROOT
ATOM      1  C   UNL d   1       8.523  -3.178   2.859  0.00  0.00     0.056 A 
ATOM      2  C   UNL d   1       7.247  -2.869   3.356  0.00  0.00     0.034 A 
ATOM      3  C   UNL d   1       8.599  -3.761   1.598  0.00  0.00     0.034 A 
ATOM      4  C   UNL d   1       6.184  -3.729   1.335  0.00  0.00     0.032 A 
ATOM      5  C   UNL d   1       6.097  -3.140   2.598  0.00  0.00     0.032 A 
ATOM      6  C   UNL d   1       7.454  -3.981   0.824  0.00  0.00     0.032 A 
ENDROOT
BRANCH   1   7
ATOM      7  N   UNL d   1       9.675  -2.955   3.682  0.00  0.00    -0.260 N 
ATOM      8  N   UNL d   1       9.452  -2.826   5.023  0.00  0.00    -0.297 N 
ATOM      9  C   UNL d   1      10.632  -2.994   5.619  0.00  0.00     0.036 C 
ATOM     10  HN  UNL d   1       8.559  -2.639   5.478  1.00  0.00     0.187 HD
ATOM     11  C   UNL d   1      11.655  -3.051   4.655  0.00  0.00     0.055 C 
ATOM     12  C   UNL d   1      11.058  -2.895   3.412  0.00  0.00     0.044 C 
BRANCH   9  13
ATOM     13  C   UNL d   1      10.767  -3.063   7.132  0.00  0.00    -0.007 C 
ATOM     14  C   UNL d   1       9.401  -2.996   7.849  0.00  0.00     0.021 C 
ATOM     15  C   UNL d   1      11.447  -4.389   7.535  0.00  0.00     0.021 C 
ATOM     16  C   UNL d   1      11.629  -1.890   7.645  0.00  0.00     0.021 C 
ENDBRANCH   9  13
BRANCH  12  17
ATOM     17  C   UNL d   1      11.796  -2.657   2.084  0.00  0.00    -0.007 C 
ATOM     18  C   UNL d   1      11.074  -1.677   1.139  0.00  0.00     0.021 C 
ATOM     19  C   UNL d   1      13.164  -1.959   2.369  0.00  0.00     0.021 C 
ATOM     20  C   UNL d   1      12.174  -3.989   1.405  0.00  0.00     0.021 C 
ENDBRANCH  12  17
ENDBRANCH   1   7
BRANCH   4  21
ATOM     21  N   UNL d   1       4.998  -3.974   0.631  0.00  0.00    -0.365 N 
ATOM     22  C   UNL d   1       4.754  -5.039  -0.074  0.00  0.00     0.102 C 
ATOM     23  HN  UNL d   1       4.269  -3.262   0.675  1.00  0.00     0.165 HD
BRANCH  22  24
ATOM     24  C   UNL d   1       5.566  -6.249  -0.323  0.00  0.00     0.012 A 
ATOM     25  C   UNL d   1       5.632  -6.788  -1.616  0.00  0.00     0.077 A 
ATOM     26  C   UNL d   1       6.370  -7.946  -1.858  0.00  0.00     0.037 A 
ATOM     27  C   UNL d   1       7.059  -8.566  -0.816  0.00  0.00     0.003 A 
ATOM     28  C   UNL d   1       6.990  -8.041   0.474  0.00  0.00     0.001 A 
ATOM     29  C   UNL d   1       6.230  -6.896   0.725  0.00  0.00     0.015 A 
BRANCH  25  30
ATOM     30  O   UNL d   1       5.026  -6.235  -2.711  0.00  0.00    -0.360 OA
ATOM     31  H   UNL d   1       4.785  -5.310  -2.532  0.00  0.00     0.217 HD
ENDBRANCH  25  30
ENDBRANCH  22  24
ENDBRANCH   4  21
TORSDOF 6
