REMARK  2 active torsions:
REMARK  status: ('A' for Active; 'I' for Inactive)
REMARK    1  A    between atoms: C_2  and  N_3 
REMARK    2  A    between atoms: N_3  and  C_6 
ROOT
ATOM      1  C   UNL d   1       0.062  -0.490  -0.202  0.00  0.00     0.139 C 
ATOM      2  C   UNL d   1       1.224   0.283   0.058  0.00  0.00     0.112 C 
ATOM      3  C   UNL d   1      -1.171   0.174  -0.443  0.00  0.00     0.112 C 
ATOM      4  C   UNL d   1       0.110  -1.835  -0.222  0.00  0.00     0.122 C 
ATOM      5  N   UNL d   1       2.191   0.889   0.274  0.00  0.00    -0.191 NA
ATOM      6  N   UNL d   1      -2.188   0.702  -0.628  0.00  0.00    -0.191 NA
ENDROOT
BRANCH   4   7
ATOM      7  N   UNL d   1       1.168  -2.679   0.033  0.00  0.00    -0.360 N 
ATOM      8  H   UNL d   1       2.019  -2.275   0.427  0.00  0.00     0.165 HD
BRANCH   7   9
ATOM      9  C   UNL d   1       1.179  -4.093  -0.022  0.00  0.00     0.093 A 
ATOM     10  C   UNL d   1       2.064  -4.822   0.800  0.00  0.00     0.063 A 
ATOM     11 CL   UNL d   1       3.189  -3.998   1.829  0.00  0.00    -0.082 Cl
ATOM     12  C   UNL d   1       2.053  -6.222   0.830  0.00  0.00     0.026 A 
ATOM     13  C   UNL d   1       1.159  -6.930   0.030  0.00  0.00     0.005 A 
ATOM     14  C   UNL d   1       0.280  -6.237  -0.795  0.00  0.00     0.045 A 
ATOM     15  C   UNL d   1       0.290  -4.842  -0.811  0.00  0.00     0.144 A 
ATOM     16  F   UNL d   1      -0.566  -4.230  -1.645  0.00  0.00    -0.204 F 
ENDBRANCH   7   9
ENDBRANCH   4   7
TORSDOF 2
