REMARK  4 active torsions:
REMARK  status: ('A' for Active; 'I' for Inactive)
REMARK       I    between atoms: N_2  and  C_1 
REMARK    1  A    between atoms: C_3  and  C_1 
REMARK       I    between atoms: C_4  and  N_2 
REMARK    2  A    between atoms: O_8  and  C_4 
REMARK    3  A    between atoms: C_11  and  O_8 
REMARK    4  A    between atoms: C_18  and  C_11 
ROOT
ATOM      1  C   UNL d   1       2.429   1.588  -4.277  0.00  0.00    -0.079 C 
ATOM      2  C   UNL d   1       1.916   1.143  -5.269  0.00  0.00     0.015 C 
ATOM      3  C   UNL d   1       3.019   2.071  -3.002  0.00  0.00     0.130 C 
ATOM      4  C   UNL d   1       4.463   1.549  -2.937  0.00  0.00     0.061 C 
ENDROOT
BRANCH   3   5
ATOM      5  O   UNL d   1       2.322   1.465  -1.870  0.00  0.00    -0.280 OA
BRANCH   5   6
ATOM      6  C   UNL d   1       0.992   1.677  -1.769  0.00  0.00     0.369 C 
ATOM      7  N   UNL d   1       0.342   1.026  -0.749  0.00  0.00    -0.269 N 
ATOM      8  C   UNL d   1       0.781   0.357   0.387  0.00  0.00     0.266 C 
ATOM      9  H   UNL d   1      -0.650   1.203  -0.831  0.00  0.00     0.174 HD
ATOM     10  O   UNL d   1       1.943   0.134   0.694  0.00  0.00    -0.267 OA
ATOM     11  O   UNL d   1       0.315   2.392  -2.506  0.00  0.00    -0.238 OA
BRANCH   8  12
ATOM     12  C   UNL d   1      -0.338  -0.055   1.273  0.00  0.00     0.109 A 
ATOM     13  C   UNL d   1      -1.519  -0.571   0.732  0.00  0.00     0.135 A 
ATOM     14  F   UNL d   1      -1.619  -0.800  -0.586  0.00  0.00    -0.205 F 
ATOM     15  C   UNL d   1      -2.639  -0.812   1.524  0.00  0.00     0.043 A 
ATOM     16  C   UNL d   1      -2.585  -0.547   2.890  0.00  0.00     0.006 A 
ATOM     17  C   UNL d   1      -1.400  -0.070   3.453  0.00  0.00     0.043 A 
ATOM     18  C   UNL d   1      -0.281   0.168   2.647  0.00  0.00     0.135 A 
ATOM     19  F   UNL d   1       0.814   0.680   3.222  0.00  0.00    -0.205 F 
ENDBRANCH   8  12
ENDBRANCH   5   6
ENDBRANCH   3   5
BRANCH   3  20
ATOM     20  C   UNL d   1       2.984   3.617  -2.872  0.00  0.00     0.047 C 
ATOM     21  C   UNL d   1       3.944   4.392  -3.766  0.00  0.00     0.009 C 
ENDBRANCH   3  20
TORSDOF 4
