REMARK  3 active torsions:
REMARK  status: ('A' for Active; 'I' for Inactive)
REMARK    1  A    between atoms: C_8  and  C_1 
REMARK       I    between atoms: C_4  and  N_6 
REMARK    2  A    between atoms: C_9  and  C_4 
REMARK    3  A    between atoms: N_6  and  C_8 
ROOT
ATOM      1  C   UNL d   1      -0.456  -4.738   1.140  0.00  0.00     0.251 C 
ATOM      2  N   UNL d   1      -0.210  -3.861   0.106  0.00  0.00    -0.353 N 
ATOM      3  O   UNL d   1       0.377  -5.032   1.992  0.00  0.00    -0.268 OA
ATOM      4  H   UNL d   1      -0.884  -3.744  -0.636  0.00  0.00     0.163 HD
ENDROOT
BRANCH   2   5
ATOM      5  C   UNL d   1       1.052  -3.162  -0.037  0.00  0.00     0.162 C 
BRANCH   5   6
ATOM      6  C   UNL d   1       0.785  -1.685  -0.002  0.00  0.00    -0.022 A 
ATOM      7  C   UNL d   1       0.281  -1.044   1.116  0.00  0.00     0.060 A 
ATOM      8  S   UNL d   1       0.069   0.626   0.896  0.00  0.00    -0.101 SA
ATOM      9  C   UNL d   1       0.679   0.565  -0.710  0.00  0.00     0.015 A 
ATOM     10  C   UNL d   1       1.040  -0.738  -1.076  0.00  0.00    -0.011 A 
ATOM     11  C   UNL d   1       0.824   1.658  -1.589  0.00  0.00     0.019 A 
ATOM     12  C   UNL d   1       1.580  -0.917  -2.379  0.00  0.00     0.013 A 
ATOM     13  C   UNL d   1       1.729   0.167  -3.253  0.00  0.00     0.001 A 
ATOM     14  C   UNL d   1       1.350   1.442  -2.862  0.00  0.00     0.001 A 
ENDBRANCH   5   6
ENDBRANCH   2   5
BRANCH   1  15
ATOM     15  C   UNL d   1      -1.812  -5.360   1.183  0.00  0.00     0.032 A 
ATOM     16  C   UNL d   1      -1.960  -6.605   1.815  0.00  0.00     0.018 A 
ATOM     17  C   UNL d   1      -3.216  -7.218   1.889  0.00  0.00     0.025 A 
ATOM     18  C   UNL d   1      -4.329  -6.583   1.341  0.00  0.00     0.034 A 
ATOM     19  C   UNL d   1      -4.197  -5.339   0.726  0.00  0.00     0.025 A 
ATOM     20 CL   UNL d   1      -5.875  -7.330   1.436  0.00  0.00    -0.084 Cl
ATOM     21  C   UNL d   1      -2.942  -4.724   0.650  0.00  0.00     0.018 A 
ENDBRANCH   1  15
TORSDOF 3
