REMARK  5 active torsions:
REMARK  status: ('A' for Active; 'I' for Inactive)
REMARK    1  A    between atoms: C_4  and  C_1 
REMARK    2  A    between atoms: N_7  and  N_2 
REMARK    3  A    between atoms: C_8  and  C_4 
REMARK    4  A    between atoms: C_12  and  N_7 
REMARK    5  A    between atoms: O_22  and  C_14 
ROOT
ATOM      1  C   UNL d   1       0.943   0.046   0.108  0.00  0.00     0.179 C 
ATOM      2  N   UNL d   1       2.030  -0.666  -0.017  0.00  0.00    -0.287 N 
ATOM      3  HN  UNL d   1       2.399  -0.865  -0.947  1.00  0.00     0.188 HD
ATOM      4  C   UNL d   1       0.440   0.329   1.430  0.00  0.00     0.123 C 
ATOM      5  N   UNL d   1       0.104   0.529   2.526  0.00  0.00    -0.190 NA
ENDROOT
BRANCH   1   6
ATOM      6  C   UNL d   1       0.233   0.541  -1.119  0.00  0.00     0.220 C 
ATOM      7  O   UNL d   1      -0.990   0.602  -1.097  0.00  0.00    -0.284 OA
BRANCH   6   8
ATOM      8  C   UNL d   1       0.998   0.908  -2.335  0.00  0.00     0.017 A 
ATOM      9  C   UNL d   1       0.389   0.743  -3.586  0.00  0.00     0.018 A 
ATOM     10  C   UNL d   1       1.099   1.029  -4.758  0.00  0.00     0.037 A 
ATOM     11  C   UNL d   1       2.411   1.496  -4.681  0.00  0.00     0.068 A 
ATOM     12  C   UNL d   1       2.995   1.712  -3.431  0.00  0.00     0.037 A 
ATOM     13  C   UNL d   1       2.298   1.414  -2.259  0.00  0.00     0.018 A 
BRANCH  11  14
ATOM     14  O   UNL d   1       3.196   1.818  -5.753  0.00  0.00    -0.356 OA
ATOM     15  C   UNL d   1       2.969   1.052  -6.931  0.00  0.00     0.210 C 
ENDBRANCH  11  14
ENDBRANCH   6   8
ENDBRANCH   1   6
BRANCH   2  16
ATOM     16  N   UNL d   1       2.673  -1.143   1.081  0.00  0.00    -0.300 N 
ATOM     17  H   UNL d   1       2.363  -0.989   2.041  0.00  0.00     0.187 HD
BRANCH  16  18
ATOM     18  C   UNL d   1       3.897  -1.825   0.940  0.00  0.00     0.048 A 
ATOM     19  C   UNL d   1       4.542  -1.977  -0.295  0.00  0.00     0.034 A 
ATOM     20  C   UNL d   1       5.751  -2.675  -0.391  0.00  0.00     0.044 A 
ATOM     21  C   UNL d   1       6.309  -3.238   0.748  0.00  0.00     0.116 A 
ATOM     22  C   UNL d   1       5.681  -3.121   1.980  0.00  0.00     0.044 A 
ATOM     23  F   UNL d   1       7.467  -3.908   0.657  0.00  0.00    -0.206 F 
ATOM     24  C   UNL d   1       4.477  -2.419   2.074  0.00  0.00     0.034 A 
ENDBRANCH  16  18
ENDBRANCH   2  16
TORSDOF 5
