REMARK  6 active torsions:
REMARK  status: ('A' for Active; 'I' for Inactive)
REMARK    1  A    between atoms: N_6  and  C_1 
REMARK    2  A    between atoms: C_10  and  N_2 
REMARK       I    between atoms: C_8  and  N_6 
REMARK    3  A    between atoms: C_12  and  C_7 
REMARK       I    between atoms: N_11  and  C_8 
REMARK    4  A    between atoms: C_9  and  O_13 
REMARK    5  A    between atoms: C_22  and  N_11 
REMARK    6  A    between atoms: O_13  and  C_23 
ROOT
ATOM      1  C   UNL d   1      -0.359  -1.190   0.251  0.00  0.00     0.133 C 
ATOM      2  N   UNL d   1       0.932  -0.849  -0.123  0.00  0.00    -0.239 N 
ATOM      3  N   UNL d   1       1.047   0.477  -0.353  0.00  0.00    -0.291 N 
ATOM      4  HN  UNL d   1       1.805   0.962  -0.834  1.00  0.00     0.187 HD
ATOM      5  C   UNL d   1      -0.947  -0.004   0.635  0.00  0.00     0.082 C 
ATOM      6  C   UNL d   1      -0.057   1.019   0.192  0.00  0.00     0.062 C 
ENDROOT
BRANCH   1   7
ATOM      7  N   UNL d   1      -0.864  -2.475   0.146  0.00  0.00    -0.293 N 
ATOM      8  C   UNL d   1      -1.667  -3.051   1.123  0.00  0.00     0.326 C 
ATOM      9  N   UNL d   1      -1.965  -4.347   0.728  0.00  0.00    -0.309 N 
ATOM     10  O   UNL d   1      -1.969  -2.527   2.184  0.00  0.00    -0.247 OA
ATOM     11  H   UNL d   1      -2.014  -4.484  -0.272  0.00  0.00     0.170 HD
ATOM     12  H   UNL d   1      -0.303  -3.143  -0.369  0.00  0.00     0.172 HD
BRANCH   9  13
ATOM     13  C   UNL d   1      -2.274  -5.457   1.532  0.00  0.00     0.036 A 
ATOM     14  C   UNL d   1      -2.235  -5.446   2.925  0.00  0.00     0.032 A 
ATOM     15  C   UNL d   1      -2.461  -6.629   3.643  0.00  0.00     0.039 A 
ATOM     16  C   UNL d   1      -2.705  -7.830   2.975  0.00  0.00     0.078 A 
ATOM     17  C   UNL d   1      -2.782  -7.836   1.585  0.00  0.00     0.039 A 
ATOM     18  C   UNL d   1      -2.559  -6.657   0.869  0.00  0.00     0.032 A 
BRANCH  16  19
ATOM     19  O   UNL d   1      -2.977  -8.928   3.738  0.00  0.00    -0.255 OA
BRANCH  19  20
ATOM     20  C   UNL d   1      -2.143 -10.051   3.467  0.00  0.00     0.530 C 
ATOM     21  F   UNL d   1      -2.298 -10.504   2.204  0.00  0.00    -0.144 F 
ATOM     22  F   UNL d   1      -0.844  -9.752   3.679  0.00  0.00    -0.144 F 
ATOM     23  F   UNL d   1      -2.488 -11.053   4.307  0.00  0.00    -0.144 F 
ENDBRANCH  19  20
ENDBRANCH  16  19
ENDBRANCH   9  13
ENDBRANCH   1   7
BRANCH   2  24
ATOM     24  C   UNL d   1       2.068  -1.704  -0.198  0.00  0.00     0.058 A 
ATOM     25  C   UNL d   1       3.158  -1.350  -1.003  0.00  0.00     0.034 A 
ATOM     26  C   UNL d   1       4.277  -2.186  -1.063  0.00  0.00     0.044 A 
ATOM     27  C   UNL d   1       4.312  -3.350  -0.300  0.00  0.00     0.116 A 
ATOM     28  C   UNL d   1       3.255  -3.695   0.529  0.00  0.00     0.044 A 
ATOM     29  F   UNL d   1       5.391  -4.141  -0.351  0.00  0.00    -0.206 F 
ATOM     30  C   UNL d   1       2.129  -2.873   0.584  0.00  0.00     0.034 A 
ENDBRANCH   2  24
BRANCH   6  31
ATOM     31  C   UNL d   1      -0.247   2.477   0.220  0.00  0.00    -0.008 A 
ATOM     32  C   UNL d   1      -1.463   3.047   0.630  0.00  0.00     0.015 A 
ATOM     33  C   UNL d   1      -1.637   4.437   0.628  0.00  0.00     0.024 A 
ATOM     34  C   UNL d   1      -0.600   5.270   0.220  0.00  0.00     0.034 A 
ATOM     35  C   UNL d   1       0.615   4.727  -0.185  0.00  0.00     0.024 A 
ATOM     36 CL   UNL d   1      -0.822   6.976   0.210  0.00  0.00    -0.084 Cl
ATOM     37  C   UNL d   1       0.787   3.339  -0.184  0.00  0.00     0.015 A 
ENDBRANCH   6  31
TORSDOF 6
