REMARK  5 active torsions:
REMARK  status: ('A' for Active; 'I' for Inactive)
REMARK    1  A    between atoms: C_2  and  C_1 
REMARK       I    between atoms: N_5  and  C_1 
REMARK    2  A    between atoms: C_3  and  C_4 
REMARK    3  A    between atoms: O_8  and  C_3 
REMARK    4  A    between atoms: C_9  and  N_5 
REMARK    5  A    between atoms: C_10  and  C_9 
ROOT
ATOM      1  C   UNL d   1      -2.290  -0.308   1.242  0.00  0.00     0.241 C 
ATOM      2  N   UNL d   1      -2.022   0.098  -0.031  0.00  0.00    -0.357 N 
ATOM      3  O   UNL d   1      -1.964  -1.374   1.747  0.00  0.00    -0.269 OA
ATOM      4  H   UNL d   1      -2.283   1.031  -0.327  0.00  0.00     0.162 HD
ENDROOT
BRANCH   1   5
ATOM      5  C   UNL d   1      -3.002   0.708   2.032  0.00  0.00     0.080 C 
ATOM      6  C   UNL d   1      -2.611   1.111   3.248  0.00  0.00     0.086 C 
BRANCH   6   7
ATOM      7  C   UNL d   1      -1.427   0.746   4.048  0.00  0.00     0.165 C 
ATOM      8  O   UNL d   1      -1.002   1.524   4.891  0.00  0.00    -0.647 OA
BRANCH   7   9
ATOM      9  O   UNL d   1      -0.882  -0.459   3.843  0.00  0.00    -0.773 OA
ATOM     10  H   UNL d   1      -1.319  -1.033   3.170  0.00  0.00     0.167 HD
ENDBRANCH   7   9
ENDBRANCH   6   7
ENDBRANCH   1   5
BRANCH   2  11
ATOM     11  C   UNL d   1      -1.353  -0.750  -0.999  0.00  0.00     0.126 C 
BRANCH  11  12
ATOM     12  C   UNL d   1      -2.349  -1.492  -1.902  0.00  0.00    -0.005 C 
ATOM     13  C   UNL d   1      -3.272  -0.523  -2.648  0.00  0.00     0.011 C 
ATOM     14  C   UNL d   1      -1.593  -2.363  -2.906  0.00  0.00     0.011 C 
ENDBRANCH  11  12
ENDBRANCH   2  11
TORSDOF 5
