REMARK  2 active torsions:
REMARK  status: ('A' for Active; 'I' for Inactive)
REMARK    1  A    between atoms: C_10  and  C_4 
REMARK    2  A    between atoms: N_8  and  C_11 
ROOT
ATOM      1  N   UNL d   1       0.564   0.234  -0.885  0.00  0.00    -0.318 N 
ATOM      2  HN  UNL d   1       1.092   0.421  -1.737  1.00  0.00     0.169 HD
ATOM      3  C   UNL d   1       0.077  -0.916  -0.458  0.00  0.00     0.189 A 
ATOM      4  C   UNL d   1       0.185   1.121   0.101  0.00  0.00     0.138 A 
ATOM      5  N   UNL d   1      -0.501   0.553   1.105  0.00  0.00    -0.242 N 
ATOM      6  HN  UNL d   1      -0.879   0.999   1.941  1.00  0.00     0.196 HD
ATOM      7  O   UNL d   1      -0.574  -0.785   0.740  0.00  0.00    -0.217 OA
ATOM      8  C   UNL d   1       0.209  -2.159  -1.164  0.00  0.00     0.058 A 
ATOM      9  S   UNL d   1      -0.505  -3.603  -0.575  0.00  0.00    -0.098 SA
ATOM     10  C   UNL d   1       0.881  -2.383  -2.352  0.00  0.00     0.024 A 
ATOM     11  C   UNL d   1       0.077  -4.515  -1.898  0.00  0.00     0.050 A 
ATOM     12  C   UNL d   1       0.806  -3.744  -2.775  0.00  0.00     0.009 A 
ENDROOT
BRANCH   4  13
ATOM     13  C   UNL d   1       0.496   2.548   0.041  0.00  0.00     0.012 A 
ATOM     14  C   UNL d   1       1.210   3.078  -1.049  0.00  0.00     0.045 A 
ATOM     15  C   UNL d   1       1.502   4.452  -1.127  0.00  0.00     0.039 A 
ATOM     16  C   UNL d   1       1.075   5.292  -0.089  0.00  0.00     0.030 A 
ATOM     17  C   UNL d   1       0.367   4.774   0.998  0.00  0.00     0.003 A 
ATOM     18  C   UNL d   1       0.078   3.413   1.062  0.00  0.00     0.015 A 
BRANCH  15  19
ATOM     19  N   UNL d   1       2.212   4.987  -2.249  0.00  0.00    -0.333 N 
ATOM     20  C   UNL d   1       2.595   6.305  -2.433  0.00  0.00     0.096 A 
ATOM     21  C   UNL d   1       3.237   6.434  -3.646  0.00  0.00     0.019 A 
ATOM     22  C   UNL d   1       3.265   5.159  -4.238  0.00  0.00     0.019 A 
ATOM     23  C   UNL d   1       2.642   4.292  -3.367  0.00  0.00     0.096 A 
ENDBRANCH  15  19
ENDBRANCH   4  13
TORSDOF 2
