REMARK  5 active torsions:
REMARK  status: ('A' for Active; 'I' for Inactive)
REMARK    1  A    between atoms: C_5  and  C_1 
REMARK    2  A    between atoms: C_8  and  C_2 
REMARK    3  A    between atoms: C_6  and  C_10 
REMARK    4  A    between atoms: O_15  and  C_8 
REMARK    5  A    between atoms: N_11  and  O_15 
ROOT
ATOM      1  C   UNL d   1      -3.723   1.081   1.571  0.00  0.00     0.148 C 
ATOM      2  N   UNL d   1      -3.041   0.632   0.556  0.00  0.00    -0.246 N 
ATOM      3  HN  UNL d   1      -3.269   0.844  -0.415  1.00  0.00     0.196 HD
ATOM      4  N   UNL d   1      -3.288   0.078   3.947  0.00  0.00    -0.190 NA
ATOM      5  C   UNL d   1      -3.468   0.517   2.889  0.00  0.00     0.120 C 
ENDROOT
BRANCH   1   6
ATOM      6  C   UNL d   1      -4.696   2.196   1.477  0.00  0.00     0.047 A 
ATOM      7  C   UNL d   1      -5.981   2.120   2.044  0.00  0.00     0.049 A 
ATOM      8 CL   UNL d   1      -6.644   0.654   2.674  0.00  0.00    -0.083 Cl
ATOM      9  C   UNL d   1      -6.812   3.251   2.085  0.00  0.00     0.025 A 
ATOM     10  C   UNL d   1      -6.389   4.460   1.538  0.00  0.00     0.003 A 
ATOM     11  C   UNL d   1      -5.139   4.535   0.932  0.00  0.00     0.025 A 
ATOM     12  C   UNL d   1      -4.294   3.416   0.903  0.00  0.00     0.049 A 
ATOM     13 CL   UNL d   1      -2.733   3.664   0.197  0.00  0.00    -0.083 Cl
ENDBRANCH   1   6
BRANCH   2  14
ATOM     14  O   UNL d   1      -1.947  -0.183   0.945  0.00  0.00    -0.194 OA
BRANCH  14  15
ATOM     15  C   UNL d   1      -1.489  -0.967  -0.099  0.00  0.00     0.320 C 
ATOM     16  O   UNL d   1      -2.182  -1.407  -1.011  0.00  0.00    -0.257 OA
BRANCH  15  17
ATOM     17  C   UNL d   1      -0.077  -1.240   0.028  0.00  0.00     0.102 C 
ATOM     18  C   UNL d   1       0.665  -2.466  -0.075  0.00  0.00     0.087 C 
ATOM     19  N   UNL d   1       1.963  -2.231   0.190  0.00  0.00    -0.259 N 
ATOM     20  O   UNL d   1       2.107  -0.874   0.317  0.00  0.00    -0.241 OA
ATOM     21  HN  UNL d   1       2.700  -2.930   0.280  1.00  0.00     0.195 HD
ATOM     22  C   UNL d   1       0.900  -0.276   0.206  0.00  0.00     0.091 C 
ATOM     23  C   UNL d   1       0.924   1.198   0.228  0.00  0.00     0.080 C 
BRANCH  18  24
ATOM     24  C   UNL d   1       0.241  -3.842  -0.373  0.00  0.00     0.037 A 
ATOM     25  C   UNL d   1       0.935  -4.617  -1.336  0.00  0.00     0.048 A 
ATOM     26 CL   UNL d   1       2.232  -3.997  -2.311  0.00  0.00    -0.083 Cl
ATOM     27  C   UNL d   1       0.595  -5.956  -1.579  0.00  0.00     0.025 A 
ATOM     28  C   UNL d   1      -0.464  -6.545  -0.901  0.00  0.00     0.003 A 
ATOM     29  C   UNL d   1      -1.169  -5.801   0.039  0.00  0.00     0.025 A 
ATOM     30  C   UNL d   1      -0.809  -4.471   0.320  0.00  0.00     0.048 A 
ATOM     31 CL   UNL d   1      -1.680  -3.713   1.612  0.00  0.00    -0.083 Cl
ENDBRANCH  18  24
ENDBRANCH  15  17
ENDBRANCH  14  15
ENDBRANCH   2  14
TORSDOF 5
