REMARK  3 active torsions:
REMARK  status: ('A' for Active; 'I' for Inactive)
REMARK    1  A    between atoms: C_2  and  C_1 
REMARK    2  A    between atoms: O_13  and  C_1 
REMARK    3  A    between atoms: O_15  and  C_7 
ROOT
ATOM      1  C   UNL d   1      -1.833  -0.044  -0.095  0.00  0.00     0.218 A 
ATOM      2  C   UNL d   1      -0.885  -1.256  -0.050  0.00  0.00     0.207 A 
ATOM      3  C   UNL d   1      -0.843   1.130  -0.152  0.00  0.00     0.207 A 
ATOM      4  C   UNL d   1       0.495  -0.775  -0.029  0.00  0.00     0.028 A 
ATOM      5  C   UNL d   1       0.521   0.610  -0.088  0.00  0.00     0.028 A 
ATOM      6  O   UNL d   1      -1.107   2.323  -0.173  0.00  0.00    -0.288 OA
ATOM      7  O   UNL d   1      -1.173  -2.440   0.028  0.00  0.00    -0.288 OA
ATOM      8  C   UNL d   1       1.709   1.318  -0.034  0.00  0.00     0.016 A 
ATOM      9  C   UNL d   1       1.657  -1.517   0.089  0.00  0.00     0.016 A 
ATOM     10  C   UNL d   1       2.893   0.584   0.092  0.00  0.00     0.001 A 
ATOM     11  C   UNL d   1       2.869  -0.821   0.153  0.00  0.00     0.001 A 
ENDROOT
BRANCH   1  12
ATOM     12  C   UNL d   1      -2.869  -0.017  -1.218  0.00  0.00     0.025 A 
ATOM     13  C   UNL d   1      -3.763   1.064  -1.389  0.00  0.00     0.082 A 
ATOM     14  C   UNL d   1      -4.749   1.076  -2.400  0.00  0.00    -0.022 A 
ATOM     15  C   UNL d   1      -5.635   2.280  -2.607  0.00  0.00     0.052 C 
ATOM     16  C   UNL d   1      -4.900  -0.054  -3.227  0.00  0.00    -0.053 A 
ATOM     17  C   UNL d   1      -4.024  -1.132  -3.068  0.00  0.00     0.008 A 
ATOM     18  C   UNL d   1      -5.977  -0.129  -4.277  0.00  0.00     0.049 C 
ATOM     19  C   UNL d   1      -3.023  -1.109  -2.091  0.00  0.00     0.014 A 
BRANCH  13  20
ATOM     20  O   UNL d   1      -3.761   2.147  -0.547  0.00  0.00    -0.359 OA
ATOM     21  H   UNL d   1      -2.882   2.289  -0.145  0.00  0.00     0.217 HD
ENDBRANCH  13  20
ENDBRANCH   1  12
BRANCH   1  22
ATOM     22  O   UNL d   1      -2.502  -0.015   1.167  0.00  0.00    -0.370 OA
ATOM     23  H   UNL d   1      -3.296  -0.574   1.076  0.00  0.00     0.212 HD
ENDBRANCH   1  22
TORSDOF 3
