REMARK  6 active torsions:
REMARK  status: ('A' for Active; 'I' for Inactive)
REMARK    1  A    between atoms: C_3  and  C_1 
REMARK    2  A    between atoms: N_5  and  C_2 
REMARK       I    between atoms: C_4  and  N_6 
REMARK    3  A    between atoms: C_7  and  C_4 
REMARK    4  A    between atoms: S_16  and  C_22 
REMARK    5  A    between atoms: C_20  and  S_16 
REMARK    6  A    between atoms: C_22  and  C_21 
ROOT
ATOM      1  C   UNL d   1      -3.909   5.726   0.691  0.00  0.00     0.253 C 
ATOM      2  N   UNL d   1      -1.367   2.391   0.495  0.00  0.00    -0.266 NA
ATOM      3  N   UNL d   1      -2.896   4.778   0.757  0.00  0.00    -0.346 N 
ATOM      4  C   UNL d   1      -1.715   3.145  -0.735  0.00  0.00     0.117 C 
ATOM      5  C   UNL d   1      -2.436   2.491   1.510  0.00  0.00     0.117 C 
ATOM      6  C   UNL d   1      -2.525   3.969   1.929  0.00  0.00     0.141 C 
ATOM      7  C   UNL d   1      -1.957   4.634  -0.371  0.00  0.00     0.141 C 
ATOM      8  O   UNL d   1      -4.018   6.516  -0.246  0.00  0.00    -0.267 OA
ENDROOT
BRANCH   1   9
ATOM      9  C   UNL d   1      -4.926   5.809   1.776  0.00  0.00     0.032 A 
ATOM     10  C   UNL d   1      -5.355   7.077   2.189  0.00  0.00     0.025 A 
ATOM     11  C   UNL d   1      -6.330   7.213   3.190  0.00  0.00    -0.048 A 
ATOM     12  C   UNL d   1      -6.844   6.055   3.796  0.00  0.00     0.008 A 
ATOM     13  C   UNL d   1      -6.442   4.791   3.367  0.00  0.00     0.002 A 
ATOM     14  C   UNL d   1      -5.521   4.669   2.328  0.00  0.00     0.017 A 
BRANCH  11  15
ATOM     15  C   UNL d   1      -6.873   8.577   3.544  0.00  0.00     0.113 C 
BRANCH  15  16
ATOM     16  S   UNL d   1      -6.547   9.035   5.275  0.00  0.00    -0.156 SA
BRANCH  16  17
ATOM     17  C   UNL d   1      -7.352  10.699   5.379  0.00  0.00    -0.003 C 
ATOM     18  C   UNL d   1      -8.867  10.591   5.162  0.00  0.00     0.026 C 
ATOM     19  C   UNL d   1      -7.087  11.218   6.801  0.00  0.00     0.026 C 
ATOM     20  C   UNL d   1      -6.734  11.672   4.368  0.00  0.00     0.026 C 
ENDBRANCH  16  17
ENDBRANCH  15  16
ENDBRANCH  11  15
ENDBRANCH   1   9
BRANCH   2  21
ATOM     21  C   UNL d   1      -0.835   1.119   0.323  0.00  0.00     0.097 A 
ATOM     22  C   UNL d   1      -0.032   0.529   1.304  0.00  0.00     0.086 A 
ATOM     23  C   UNL d   1       0.466  -0.768   1.075  0.00  0.00     0.021 A 
ATOM     24  C   UNL d   1       0.187  -1.425  -0.112  0.00  0.00     0.018 A 
ATOM     25  C   UNL d   1      -0.584  -0.761  -1.037  0.00  0.00     0.089 A 
ATOM     26  N   UNL d   1      -1.093   0.479  -0.842  0.00  0.00    -0.356 N 
ATOM     27  HN  UNL d   1      -1.662   0.924  -1.563  1.00  0.00     0.166 HD
BRANCH  22  28
ATOM     28  C   UNL d   1       0.364   1.200   2.590  0.00  0.00     0.420 C 
ATOM     29  F   UNL d   1       0.041   2.514   2.739  0.00  0.00    -0.166 F 
ATOM     30  F   UNL d   1      -0.195   0.573   3.669  0.00  0.00    -0.166 F 
ATOM     31  F   UNL d   1       1.712   1.144   2.804  0.00  0.00    -0.166 F 
ENDBRANCH  22  28
ENDBRANCH   2  21
TORSDOF 6
