REMARK  1 active torsions:
REMARK  status: ('A' for Active; 'I' for Inactive)
REMARK    1  A    between atoms: S_11  and  C_5 
ROOT
ATOM      1  C   UNL d   1      -0.312  -0.705  -0.005  0.00  0.00     0.068 A 
ATOM      2  C   UNL d   1      -0.278   0.683  -0.006  0.00  0.00     0.068 A 
ATOM      3  N   UNL d   1      -1.620  -1.169  -0.001  0.00  0.00    -0.335 N 
ATOM      4  HN  UNL d   1      -1.936  -2.139   0.002  1.00  0.00     0.168 HD
ATOM      5  C   UNL d   1      -2.358  -0.088  -0.002  0.00  0.00     0.144 A 
ATOM      6  N   UNL d   1      -1.604   1.043  -0.007  0.00  0.00    -0.335 N 
ATOM      7  C   UNL d   1       0.898  -1.431  -0.004  0.00  0.00    -0.026 A 
ATOM      8  C   UNL d   1       0.898   1.448  -0.007  0.00  0.00    -0.026 A 
ATOM      9  C   UNL d   1       2.127   0.722  -0.001  0.00  0.00    -0.047 A 
ATOM     10  C   UNL d   1       2.131  -0.699  -0.005  0.00  0.00    -0.047 A 
ATOM     11  C   UNL d   1       0.889  -2.937  -0.001  0.00  0.00     0.051 C 
ATOM     12  C   UNL d   1       0.873   2.954  -0.010  0.00  0.00     0.051 C 
ATOM     13  C   UNL d   1       3.401   1.544   0.010  0.00  0.00     0.049 C 
ATOM     14  C   UNL d   1       3.410  -1.512  -0.010  0.00  0.00     0.049 C 
ATOM     15  H   UNL d   1      -1.973   1.979  -0.006  0.00  0.00     0.168 HD
ENDROOT
BRANCH   5  16
ATOM     16  S   UNL d   1      -4.075   0.069   0.001  0.00  0.00    -0.098 SA
ATOM     17  C   UNL d   1      -4.615  -1.652   0.006  0.00  0.00     0.099 C 
ENDBRANCH   5  16
TORSDOF 1
