REMARK  5 active torsions:
REMARK  status: ('A' for Active; 'I' for Inactive)
REMARK    1  A    between atoms: C_7  and  S_1 
REMARK    2  A    between atoms: C_10  and  S_1 
REMARK    3  A    between atoms: N_4  and  C_11 
REMARK    4  A    between atoms: C_5  and  C_7 
REMARK    5  A    between atoms: C_15  and  C_6 
ROOT
ATOM      1  N   UNL d   1       1.502   1.195   2.761  0.00  0.00    -0.352 N 
ATOM      2  HN  UNL d   1       1.671   0.205   2.580  1.00  0.00     0.166 HD
ATOM      3  C   UNL d   1       0.999   2.047   1.887  0.00  0.00     0.065 A 
ATOM      4  C   UNL d   1       1.768   1.838   3.964  0.00  0.00     0.049 A 
ATOM      5  S   UNL d   1       0.744   3.640   2.495  0.00  0.00    -0.085 SA
ATOM      6  C   UNL d   1       1.468   3.186   3.973  0.00  0.00     0.081 A 
ENDROOT
BRANCH   4   7
ATOM      7  C   UNL d   1       2.333   1.130   5.109  0.00  0.00    -0.009 A 
ATOM      8  C   UNL d   1       3.125  -0.011   4.907  0.00  0.00     0.016 A 
ATOM      9  C   UNL d   1       3.700  -0.685   5.992  0.00  0.00     0.037 A 
ATOM     10  C   UNL d   1       3.473  -0.220   7.293  0.00  0.00     0.102 A 
ATOM     11  C   UNL d   1       2.667   0.902   7.514  0.00  0.00     0.037 A 
ATOM     12  C   UNL d   1       2.099   1.568   6.424  0.00  0.00     0.016 A 
BRANCH  10  13
ATOM     13  N   UNL d   1       4.084  -0.908   8.437  0.00  0.00    -0.116 N 
ATOM     14  O   UNL d   1       4.801  -1.893   8.202  0.00  0.00    -0.532 OA
ATOM     15  O   UNL d   1       3.849  -0.465   9.570  0.00  0.00    -0.532 OA
ENDBRANCH  10  13
ENDBRANCH   4   7
BRANCH   3  16
ATOM     16  C   UNL d   1       0.522   1.665   0.525  0.00  0.00     0.206 C 
BRANCH  16  17
ATOM     17  S   UNL d   1       1.516   2.481  -0.722  0.00  0.00     0.157 S 
ATOM     18  O   UNL d   1       2.865   1.950  -0.652  0.00  0.00    -0.227 OA
ATOM     19  O   UNL d   1       1.297   3.915  -0.626  0.00  0.00    -0.227 OA
BRANCH  17  20
ATOM     20  C   UNL d   1       0.805   1.961  -2.327  0.00  0.00     0.053 C 
ATOM     21  C   UNL d   1      -0.672   2.372  -2.418  0.00  0.00     0.031 C 
ATOM     22  C   UNL d   1       1.587   2.674  -3.446  0.00  0.00     0.031 C 
ATOM     23  C   UNL d   1       0.939   0.444  -2.511  0.00  0.00     0.031 C 
ENDBRANCH  17  20
ENDBRANCH  16  17
ENDBRANCH   3  16
TORSDOF 5
