REMARK  7 active torsions:
REMARK  status: ('A' for Active; 'I' for Inactive)
REMARK    1  A    between atoms: N_8  and  C_2 
REMARK    2  A    between atoms: C_7  and  N_8 
REMARK    3  A    between atoms: N_14  and  C_7 
REMARK    4  A    between atoms: N_10  and  N_14 
REMARK    5  A    between atoms: C_17  and  C_16 
REMARK    6  A    between atoms: O_24  and  C_19 
REMARK    7  A    between atoms: C_25  and  O_24 
ROOT
ATOM      1  C   UNL d   1       5.120   3.506  -1.877  0.00  0.00     0.186 C 
ATOM      2  S   UNL d   1       6.451   3.383  -0.894  0.00  0.00    -0.040 SA
ENDROOT
BRANCH   1   3
ATOM      3  N   UNL d   1       4.103   2.607  -2.009  0.00  0.00    -0.361 N 
ATOM      4  H   UNL d   1       3.477   2.954  -2.730  0.00  0.00     0.162 HD
BRANCH   3   5
ATOM      5  C   UNL d   1       3.908   1.233  -1.554  0.00  0.00     0.089 C 
ATOM      6  C   UNL d   1       4.376   0.214  -2.629  0.00  0.00     0.017 C 
ATOM      7  C   UNL d   1       4.215  -1.233  -2.083  0.00  0.00     0.018 A 
ATOM      8  C   UNL d   1       3.221   0.310  -3.638  0.00  0.00     0.012 C 
ATOM      9  C   UNL d   1       2.676  -1.446  -2.099  0.00  0.00     0.001 A 
ATOM     10  C   UNL d   1       4.717  -2.312  -2.999  0.00  0.00    -0.025 A 
ATOM     11  C   UNL d   1       2.382  -2.598  -3.076  0.00  0.00     0.032 A 
ATOM     12  C   UNL d   1       2.162  -0.082  -2.603  0.00  0.00    -0.007 C 
ATOM     13  C   UNL d   1       3.732  -3.043  -3.523  0.00  0.00    -0.030 A 
ATOM     14  C   UNL d   1       2.387   0.964  -1.493  0.00  0.00     0.030 C 
ENDBRANCH   3   5
ENDBRANCH   1   3
BRANCH   1  15
ATOM     15  N   UNL d   1       4.910   4.611  -2.700  0.00  0.00    -0.277 N 
ATOM     16  H   UNL d   1       5.590   5.365  -2.716  0.00  0.00     0.189 HD
BRANCH  15  17
ATOM     17  N   UNL d   1       3.834   4.599  -3.550  0.00  0.00    -0.309 N 
ATOM     18  C   UNL d   1       3.719   5.577  -4.390  0.00  0.00     0.118 C 
ATOM     19  HN  UNL d   1       3.148   3.846  -3.522  1.00  0.00     0.186 HD
BRANCH  18  20
ATOM     20  C   UNL d   1       2.596   5.592  -5.358  0.00  0.00    -0.019 A 
ATOM     21  C   UNL d   1       1.596   4.615  -5.292  0.00  0.00     0.015 A 
ATOM     22  C   UNL d   1       0.552   4.605  -6.223  0.00  0.00     0.037 A 
ATOM     23  C   UNL d   1       0.498   5.569  -7.229  0.00  0.00     0.068 A 
ATOM     24  C   UNL d   1       1.500   6.547  -7.289  0.00  0.00     0.037 A 
ATOM     25  C   UNL d   1       2.546   6.565  -6.356  0.00  0.00     0.015 A 
BRANCH  23  26
ATOM     26  O   UNL d   1      -0.463   5.657  -8.202  0.00  0.00    -0.352 OA
BRANCH  26  27
ATOM     27  C   UNL d   1      -1.526   4.704  -8.140  0.00  0.00     0.171 C 
ATOM     28  C   UNL d   1      -2.482   4.963  -9.291  0.00  0.00     0.034 C 
ENDBRANCH  26  27
ENDBRANCH  23  26
ENDBRANCH  18  20
ENDBRANCH  15  17
ENDBRANCH   1  15
TORSDOF 7
