REMARK  5 active torsions:
REMARK  status: ('A' for Active; 'I' for Inactive)
REMARK    1  A    between atoms: C_13  and  C_1 
REMARK    2  A    between atoms: C_4  and  C_19 
REMARK       I    between atoms: N_5  and  C_4 
REMARK    3  A    between atoms: C_8  and  N_5 
REMARK    4  A    between atoms: S_12  and  C_13 
REMARK    5  A    between atoms: C_19  and  S_12 
ROOT
ATOM      1  C   UNL d   1      -2.336   5.688  -0.104  0.00  0.00     0.231 C 
ATOM      2  N   UNL d   1      -3.529   5.005  -0.273  0.00  0.00    -0.326 N 
ATOM      3  O   UNL d   1      -2.229   6.905   0.042  0.00  0.00    -0.272 OA
ATOM      4  H   UNL d   1      -3.457   3.993  -0.294  0.00  0.00     0.169 HD
ENDROOT
BRANCH   1   5
ATOM      5  C   UNL d   1      -1.098   4.814   0.033  0.00  0.00     0.177 C 
BRANCH   5   6
ATOM      6  S   UNL d   1      -1.103   3.351  -1.046  0.00  0.00    -0.155 SA
BRANCH   6   7
ATOM      7  C   UNL d   1       0.640   2.871  -0.802  0.00  0.00     0.117 C 
BRANCH   7   8
ATOM      8  C   UNL d   1       1.024   1.653  -1.595  0.00  0.00     0.011 A 
ATOM      9  C   UNL d   1       1.676   1.817  -2.825  0.00  0.00     0.125 A 
ATOM     10  F   UNL d   1       1.954   3.050  -3.272  0.00  0.00    -0.205 F 
ATOM     11  C   UNL d   1       2.067   0.730  -3.604  0.00  0.00     0.043 A 
ATOM     12  C   UNL d   1       1.806  -0.563  -3.164  0.00  0.00     0.005 A 
ATOM     13  C   UNL d   1       1.158  -0.756  -1.944  0.00  0.00     0.024 A 
ATOM     14  C   UNL d   1       0.769   0.342  -1.166  0.00  0.00     0.044 A 
ATOM     15 CL   UNL d   1      -0.011   0.012   0.341  0.00  0.00    -0.084 Cl
ENDBRANCH   7   8
ENDBRANCH   6   7
ENDBRANCH   5   6
ENDBRANCH   1   5
BRANCH   2  16
ATOM     16  C   UNL d   1      -4.816   5.569  -0.419  0.00  0.00     0.036 A 
ATOM     17  C   UNL d   1      -5.045   6.938  -0.596  0.00  0.00     0.056 A 
ATOM     18  C   UNL d   1      -6.349   7.424  -0.740  0.00  0.00     0.074 A 
ATOM     19 CL   UNL d   1      -6.601   9.112  -0.979  0.00  0.00    -0.081 Cl
ATOM     20  C   UNL d   1      -7.427   6.548  -0.699  0.00  0.00     0.138 A 
ATOM     21  C   UNL d   1      -7.216   5.183  -0.526  0.00  0.00     0.046 A 
ATOM     22  F   UNL d   1      -8.684   6.997  -0.829  0.00  0.00    -0.204 F 
ATOM     23  C   UNL d   1      -5.912   4.695  -0.396  0.00  0.00     0.032 A 
ENDBRANCH   2  16
TORSDOF 5
