REMARK  4 active torsions:
REMARK  status: ('A' for Active; 'I' for Inactive)
REMARK    1  A    between atoms: N_6  and  C_1 
REMARK    2  A    between atoms: C_8  and  C_2 
REMARK       I    between atoms: N_15  and  C_8 
REMARK    3  A    between atoms: C_9  and  C_10 
REMARK    4  A    between atoms: O_21  and  C_11 
ROOT
ATOM      1  C   UNL d   1      -2.202  -0.872   0.086  0.00  0.00     0.090 A 
ATOM      2  C   UNL d   1      -1.068  -1.685   0.005  0.00  0.00     0.072 A 
ATOM      3  S   UNL d   1      -1.759   0.795   0.123  0.00  0.00    -0.075 SA
ATOM      4  C   UNL d   1       0.153  -0.904   0.030  0.00  0.00    -0.026 A 
ATOM      5  C   UNL d   1      -0.105   0.450   0.031  0.00  0.00    -0.008 A 
ATOM      6  C   UNL d   1       1.563  -1.432   0.011  0.00  0.00     0.041 C 
ATOM      7  C   UNL d   1       0.929   1.535   0.028  0.00  0.00     0.047 C 
ATOM      8  C   UNL d   1       2.581  -0.354   0.416  0.00  0.00     0.005 C 
ATOM      9  C   UNL d   1       2.317   0.970  -0.309  0.00  0.00     0.005 C 
ENDROOT
BRANCH   1  10
ATOM     10  N   UNL d   1      -3.494  -1.305   0.224  0.00  0.00    -0.359 N 
ATOM     11  C   UNL d   1      -4.476  -0.601  -0.241  0.00  0.00     0.103 C 
ATOM     12  HN  UNL d   1      -3.685  -2.189   0.695  1.00  0.00     0.166 HD
BRANCH  11  13
ATOM     13  C   UNL d   1      -5.867  -1.087  -0.095  0.00  0.00     0.014 A 
ATOM     14  C   UNL d   1      -6.171  -2.302   0.538  0.00  0.00     0.077 A 
ATOM     15  C   UNL d   1      -7.490  -2.740   0.630  0.00  0.00     0.039 A 
ATOM     16  C   UNL d   1      -8.517  -1.966   0.093  0.00  0.00     0.022 A 
ATOM     17  C   UNL d   1      -8.218  -0.756  -0.533  0.00  0.00     0.011 A 
ATOM     18  C   UNL d   1      -6.899  -0.307  -0.629  0.00  0.00     0.034 A 
ATOM     19 BR   UNL d   1      -9.613   0.285  -1.270  0.00  0.00    -0.051 Br
BRANCH  14  20
ATOM     20  O   UNL d   1      -5.224  -3.121   1.088  0.00  0.00    -0.360 OA
ATOM     21  H   UNL d   1      -4.364  -2.647   1.057  0.00  0.00     0.217 HD
ENDBRANCH  14  20
ENDBRANCH  11  13
ENDBRANCH   1  10
BRANCH   2  22
ATOM     22  C   UNL d   1      -1.111  -3.152  -0.049  0.00  0.00     0.252 C 
ATOM     23  O   UNL d   1      -0.173  -3.877   0.269  0.00  0.00    -0.268 OA
ATOM     24  N   UNL d   1      -2.265  -3.709  -0.521  0.00  0.00    -0.366 N 
ATOM     25  H   UNL d   1      -3.072  -3.140  -0.741  0.00  0.00     0.159 HD
ATOM     26  H   UNL d   1      -2.352  -4.714  -0.512  0.00  0.00     0.159 HD
ENDBRANCH   2  22
TORSDOF 4
