REMARK  8 active torsions:
REMARK  status: ('A' for Active; 'I' for Inactive)
REMARK    1  A    between atoms: C_8  and  C_1 
REMARK    2  A    between atoms: C_9  and  C_1 
REMARK    3  A    between atoms: C_2  and  N_11 
REMARK    4  A    between atoms: N_11  and  C_6 
REMARK    5  A    between atoms: O_18  and  C_8 
REMARK    6  A    between atoms: O_17  and  C_9 
REMARK    7  A    between atoms: C_21  and  O_17 
REMARK    8  A    between atoms: C_20  and  O_18 
ROOT
ATOM      1  N   UNL d   1       0.844   1.937   1.356  0.00  0.00    -0.345 N 
ATOM      2  H   UNL d   1       1.833   2.113   1.156  0.00  0.00     0.167 HD
ENDROOT
BRANCH   1   3
ATOM      3  C   UNL d   1       0.180   2.880   2.064  0.00  0.00     0.149 A 
ATOM      4  N   UNL d   1      -0.987   2.722   2.642  0.00  0.00    -0.335 N 
ATOM      5  C   UNL d   1      -1.353   3.880   3.305  0.00  0.00     0.051 A 
ATOM      6  HN  UNL d   1      -1.544   1.868   2.608  1.00  0.00     0.168 HD
ATOM      7  C   UNL d   1      -2.510   4.053   4.090  0.00  0.00     0.031 A 
ATOM      8  C   UNL d   1      -0.480   4.957   3.158  0.00  0.00     0.035 A 
ATOM      9  C   UNL d   1      -2.779   5.300   4.667  0.00  0.00     0.009 A 
ATOM     10  C   UNL d   1      -1.923   6.385   4.464  0.00  0.00    -0.061 A 
ATOM     11  C   UNL d   1      -0.750   6.220   3.711  0.00  0.00     0.028 A 
ATOM     12  C   UNL d   1      -2.260   7.721   5.062  0.00  0.00     0.048 C 
ATOM     13  S   UNL d   1       0.884   4.440   2.252  0.00  0.00    -0.052 SA
ENDBRANCH   1   3
BRANCH   1  14
ATOM     14  C   UNL d   1       0.330   0.809   0.752  0.00  0.00     0.114 C 
ATOM     15  C   UNL d   1       0.988  -0.120   0.028  0.00  0.00     0.129 C 
BRANCH  15  16
ATOM     16  C   UNL d   1       0.234  -1.178  -0.686  0.00  0.00     0.300 C 
ATOM     17  O   UNL d   1       0.652  -2.300  -0.919  0.00  0.00    -0.259 OA
BRANCH  16  18
ATOM     18  O   UNL d   1      -0.930  -0.658  -1.164  0.00  0.00    -0.318 OA
BRANCH  18  19
ATOM     19  C   UNL d   1      -1.557  -1.373  -2.239  0.00  0.00     0.174 C 
ATOM     20  C   UNL d   1      -1.167  -0.688  -3.537  0.00  0.00     0.034 C 
ENDBRANCH  18  19
ENDBRANCH  16  18
ENDBRANCH  15  16
BRANCH  15  21
ATOM     21  C   UNL d   1       2.457   0.018  -0.109  0.00  0.00     0.300 C 
ATOM     22  O   UNL d   1       3.102   0.936   0.388  0.00  0.00    -0.259 OA
BRANCH  21  23
ATOM     23  O   UNL d   1       2.968  -0.922  -0.936  0.00  0.00    -0.318 OA
BRANCH  23  24
ATOM     24  C   UNL d   1       4.306  -0.693  -1.395  0.00  0.00     0.174 C 
ATOM     25  C   UNL d   1       4.228   0.128  -2.668  0.00  0.00     0.034 C 
ENDBRANCH  23  24
ENDBRANCH  21  23
ENDBRANCH  15  21
ENDBRANCH   1  14
TORSDOF 8
