REMARK  4 active torsions:
REMARK  status: ('A' for Active; 'I' for Inactive)
REMARK    1  A    between atoms: C_6  and  S_1 
REMARK    2  A    between atoms: C_10  and  S_1 
REMARK    3  A    between atoms: C_7  and  C_4 
REMARK    4  A    between atoms: C_5  and  C_6 
ROOT
ATOM      1  N   UNL d   1       1.114   0.674   2.977  0.00  0.00    -0.352 N 
ATOM      2  HN  UNL d   1       1.054  -0.314   2.734  1.00  0.00     0.166 HD
ATOM      3  C   UNL d   1       1.603   1.149   4.176  0.00  0.00     0.050 A 
ATOM      4  C   UNL d   1       0.737   1.648   2.187  0.00  0.00     0.065 A 
ATOM      5  S   UNL d   1       0.919   3.220   2.862  0.00  0.00    -0.085 SA
ATOM      6  C   UNL d   1       1.563   2.523   4.297  0.00  0.00     0.081 A 
ENDROOT
BRANCH   3   7
ATOM      7  C   UNL d   1       2.103   0.217   5.183  0.00  0.00    -0.003 A 
ATOM      8  C   UNL d   1       2.772  -0.975   4.823  0.00  0.00    -0.049 A 
ATOM      9  C   UNL d   1       3.116  -1.900   5.827  0.00  0.00     0.014 A 
ATOM     10  C   UNL d   1       3.103  -1.368   3.405  0.00  0.00     0.049 C 
ATOM     11  C   UNL d   1       2.842  -1.651   7.176  0.00  0.00    -0.061 A 
ATOM     12  C   UNL d   1       2.225  -0.450   7.529  0.00  0.00     0.007 A 
ATOM     13  C   UNL d   1       3.189  -2.686   8.203  0.00  0.00     0.048 C 
ATOM     14  C   UNL d   1       1.857   0.470   6.545  0.00  0.00     0.015 A 
ENDBRANCH   3   7
BRANCH   4  15
ATOM     15  C   UNL d   1       0.304   1.468   0.775  0.00  0.00     0.206 C 
BRANCH  15  16
ATOM     16  S   UNL d   1      -0.586  -0.084   0.625  0.00  0.00     0.157 S 
ATOM     17  O   UNL d   1      -1.825   0.032   1.378  0.00  0.00    -0.227 OA
ATOM     18  O   UNL d   1       0.323  -1.191   0.856  0.00  0.00    -0.227 OA
BRANCH  16  19
ATOM     19  C   UNL d   1      -1.060  -0.195  -1.136  0.00  0.00     0.053 C 
ATOM     20  C   UNL d   1       0.191  -0.218  -2.025  0.00  0.00     0.031 C 
ATOM     21  C   UNL d   1      -1.836  -1.510  -1.333  0.00  0.00     0.031 C 
ATOM     22  C   UNL d   1      -1.962   0.981  -1.529  0.00  0.00     0.031 C 
ENDBRANCH  16  19
ENDBRANCH  15  16
ENDBRANCH   4  15
TORSDOF 4
