REMARK  6 active torsions:
REMARK  status: ('A' for Active; 'I' for Inactive)
REMARK    1  A    between atoms: C_3  and  C_1 
REMARK    2  A    between atoms: N_4  and  C_2 
REMARK       I    between atoms: N_14  and  C_3 
REMARK       I    between atoms: C_5  and  N_4 
REMARK    3  A    between atoms: C_7  and  C_5 
REMARK    4  A    between atoms: C_10  and  C_7 
REMARK    5  A    between atoms: O_15  and  C_10 
REMARK    6  A    between atoms: C_16  and  O_15 
ROOT
ATOM      1  C   UNL d   1       3.761   1.009  -2.239  0.00  0.00     0.099 A 
ATOM      2  C   UNL d   1       3.531   1.236  -0.889  0.00  0.00     0.058 A 
ATOM      3  S   UNL d   1       4.910  -0.246  -2.490  0.00  0.00    -0.094 SA
ATOM      4  C   UNL d   1       4.337   0.369  -0.081  0.00  0.00     0.038 A 
ATOM      5  C   UNL d   1       5.124  -0.483  -0.820  0.00  0.00     0.053 A 
ENDROOT
BRANCH   2   6
ATOM      6  N   UNL d   1       2.626   2.198  -0.424  0.00  0.00    -0.325 N 
ATOM      7  C   UNL d   1       2.583   2.656   0.873  0.00  0.00     0.231 C 
ATOM      8  O   UNL d   1       3.416   2.364   1.738  0.00  0.00    -0.273 OA
ATOM      9  H   UNL d   1       1.993   2.595  -1.125  0.00  0.00     0.169 HD
BRANCH   7  10
ATOM     10  C   UNL d   1       1.518   3.652   1.250  0.00  0.00     0.214 C 
BRANCH  10  11
ATOM     11  C   UNL d   1       0.324   3.831   0.372  0.00  0.00     0.267 C 
ATOM     12  O   UNL d   1       0.072   3.193  -0.638  0.00  0.00    -0.265 OA
BRANCH  11  13
ATOM     13  O   UNL d   1      -0.453   4.824   0.896  0.00  0.00    -0.322 OA
BRANCH  13  14
ATOM     14  C   UNL d   1      -1.696   5.098   0.233  0.00  0.00     0.174 C 
ATOM     15  C   UNL d   1      -1.480   5.988  -0.976  0.00  0.00     0.034 C 
ENDBRANCH  13  14
ENDBRANCH  11  13
ENDBRANCH  10  11
ENDBRANCH   7  10
ENDBRANCH   2   6
BRANCH   1  16
ATOM     16  C   UNL d   1       3.183   1.720  -3.371  0.00  0.00     0.258 C 
ATOM     17  O   UNL d   1       2.276   2.542  -3.268  0.00  0.00    -0.267 OA
ATOM     18  N   UNL d   1       3.729   1.479  -4.602  0.00  0.00    -0.365 N 
ATOM     19  H   UNL d   1       4.550   0.901  -4.709  0.00  0.00     0.159 HD
ATOM     20  H   UNL d   1       3.400   2.030  -5.384  0.00  0.00     0.159 HD
ENDBRANCH   1  16
TORSDOF 6
