REMARK  4 active torsions:
REMARK  status: ('A' for Active; 'I' for Inactive)
REMARK    1  A    between atoms: O_3  and  C_1 
REMARK    2  A    between atoms: C_8  and  C_1 
REMARK    3  A    between atoms: C_2  and  C_6 
REMARK    4  A    between atoms: C_11  and  O_3 
ROOT
ATOM      1  C   UNL d   1       2.196  -4.961   0.105  0.00  0.00    -0.035 A 
ATOM      2  C   UNL d   1       2.500  -4.025   1.111  0.00  0.00     0.012 A 
ATOM      3  C   UNL d   1       1.194  -4.633  -0.827  0.00  0.00     0.012 A 
ATOM      4  C   UNL d   1       0.903  -2.466   0.195  0.00  0.00     0.079 A 
ATOM      5  C   UNL d   1       0.555  -3.391  -0.787  0.00  0.00     0.038 A 
ATOM      6  C   UNL d   1       1.864  -2.779   1.152  0.00  0.00     0.038 A 
ENDROOT
BRANCH   4   7
ATOM      7  O   UNL d   1       0.344  -1.177   0.049  0.00  0.00    -0.275 OA
BRANCH   7   8
ATOM      8  C   UNL d   1       0.121  -0.340   1.130  0.00  0.00     0.298 C 
ATOM      9  O   UNL d   1       0.182  -0.637   2.312  0.00  0.00    -0.259 OA
BRANCH   8  10
ATOM     10  C   UNL d   1      -0.201   1.033   0.646  0.00  0.00     0.039 A 
ATOM     11  C   UNL d   1      -0.387   2.040   1.605  0.00  0.00     0.017 A 
ATOM     12  C   UNL d   1      -0.662   3.352   1.212  0.00  0.00     0.001 A 
ATOM     13  C   UNL d   1      -0.755   3.668  -0.143  0.00  0.00     0.000 A 
ATOM     14  C   UNL d   1      -0.576   2.674  -1.104  0.00  0.00     0.001 A 
ATOM     15  C   UNL d   1      -0.301   1.361  -0.715  0.00  0.00     0.017 A 
ENDBRANCH   8  10
ENDBRANCH   7   8
ENDBRANCH   4   7
BRANCH   1  16
ATOM     16  C   UNL d   1       2.975  -6.249  -0.068  0.00  0.00     0.141 C 
ATOM     17  S   UNL d   1       3.022  -7.314   1.401  0.00  0.00    -0.148 SA
ATOM     18  C   UNL d   1       4.603  -8.090   0.988  0.00  0.00     0.085 C 
ATOM     19  C   UNL d   1       5.538  -6.971   0.575  0.00  0.00     0.085 C 
ATOM     20  S   UNL d   1       4.686  -5.928  -0.641  0.00  0.00    -0.148 SA
ENDBRANCH   1  16
TORSDOF 4
