REMARK  15 active torsions:
REMARK  status: ('A' for Active; 'I' for Inactive)
REMARK    1  A    between atoms: O_10  and  C_1 
REMARK    2  A    between atoms: C_8  and  N_2 
REMARK    3  A    between atoms: C_7  and  C_3 
REMARK    4  A    between atoms: S_11  and  C_7 
REMARK    5  A    between atoms: C_15  and  S_11 
REMARK    6  A    between atoms: C_16  and  C_15 
REMARK    7  A    between atoms: C_24  and  C_16 
REMARK    8  A    between atoms: C_17  and  C_18 
REMARK    9  A    between atoms: C_18  and  C_23 
REMARK   10  A    between atoms: C_19  and  C_25 
REMARK   11  A    between atoms: C_20  and  C_19 
REMARK   12  A    between atoms: C_21  and  C_20 
REMARK   13  A    between atoms: C_22  and  C_21 
REMARK   14  A    between atoms: C_23  and  C_22 
REMARK   15  A    between atoms: C_25  and  C_24 
ROOT
ATOM      1  C   UNL d   1      -6.997   2.687   0.858  0.00  0.00     0.176 C 
ATOM      2  N   UNL d   1      -7.261   4.047   1.045  0.00  0.00    -0.233 N 
ATOM      3  C   UNL d   1      -5.725   2.437   1.384  0.00  0.00     0.068 C 
ATOM      4  N   UNL d   1      -6.193   4.686   1.561  0.00  0.00    -0.295 N 
ATOM      5  HN  UNL d   1      -6.078   5.691   1.690  1.00  0.00     0.187 HD
ATOM      6  C   UNL d   1      -5.315   3.725   1.869  0.00  0.00     0.039 C 
ATOM      7  C   UNL d   1      -4.114   4.163   2.632  0.00  0.00     0.071 C 
ENDROOT
BRANCH   3   8
ATOM      8  C   UNL d   1      -5.017   1.150   1.358  0.00  0.00     0.084 C 
ATOM      9  S   UNL d   1      -3.355   1.141   1.143  0.00  0.00    -0.071 SA
BRANCH   8  10
ATOM     10  S   UNL d   1      -5.952  -0.315   1.611  0.00  0.00    -0.117 SA
BRANCH  10  11
ATOM     11  C   UNL d   1      -5.508  -1.294   0.127  0.00  0.00     0.080 C 
BRANCH  11  12
ATOM     12  C   UNL d   1      -6.223  -2.648   0.071  0.00  0.00     0.010 C 
BRANCH  12  13
ATOM     13  C   UNL d   1      -7.746  -2.524   0.004  0.00  0.00     0.001 C 
BRANCH  13  14
ATOM     14  C   UNL d   1      -8.435  -3.886  -0.012  0.00  0.00     0.000 C 
BRANCH  14  15
ATOM     15  C   UNL d   1      -9.951  -3.694  -0.007  0.00  0.00     0.000 C 
BRANCH  15  16
ATOM     16  C   UNL d   1     -10.678  -5.032  -0.001  0.00  0.00     0.000 C 
BRANCH  16  17
ATOM     17  C   UNL d   1     -12.188  -4.820   0.004  0.00  0.00     0.000 C 
BRANCH  17  18
ATOM     18  C   UNL d   1     -12.919  -6.157   0.007  0.00  0.00     0.000 C 
BRANCH  18  19
ATOM     19  C   UNL d   1     -14.429  -5.949   0.009  0.00  0.00     0.000 C 
BRANCH  19  20
ATOM     20  C   UNL d   1     -15.155  -7.290   0.011  0.00  0.00    -0.000 C 
BRANCH  20  21
ATOM     21  C   UNL d   1     -16.669  -7.094   0.011  0.00  0.00    -0.005 C 
ATOM     22  C   UNL d   1     -17.389  -8.432   0.012  0.00  0.00     0.005 C 
ENDBRANCH  20  21
ENDBRANCH  19  20
ENDBRANCH  18  19
ENDBRANCH  17  18
ENDBRANCH  16  17
ENDBRANCH  15  16
ENDBRANCH  14  15
ENDBRANCH  13  14
ENDBRANCH  12  13
ENDBRANCH  11  12
ENDBRANCH  10  11
ENDBRANCH   8  10
ENDBRANCH   3   8
BRANCH   1  23
ATOM     23  O   UNL d   1      -7.808   1.848   0.204  0.00  0.00    -0.344 OA
ATOM     24  H   UNL d   1      -8.468   2.356  -0.303  0.00  0.00     0.219 HD
ENDBRANCH   1  23
BRANCH   2  25
ATOM     25  C   UNL d   1      -8.434   4.804   0.768  0.00  0.00     0.059 A 
ATOM     26  C   UNL d   1      -9.714   4.221   0.788  0.00  0.00     0.031 A 
ATOM     27  C   UNL d   1     -10.841   5.006   0.533  0.00  0.00     0.002 A 
ATOM     28  C   UNL d   1     -10.710   6.369   0.261  0.00  0.00     0.000 A 
ATOM     29  C   UNL d   1      -9.445   6.956   0.254  0.00  0.00     0.002 A 
ATOM     30  C   UNL d   1      -8.318   6.181   0.517  0.00  0.00     0.031 A 
ENDBRANCH   2  25
TORSDOF 15
