REMARK  8 active torsions:
REMARK  status: ('A' for Active; 'I' for Inactive)
REMARK    1  A    between atoms: C_2  and  S_1 
REMARK    2  A    between atoms: C_7  and  S_1 
REMARK    3  A    between atoms: C_15  and  C_2 
REMARK    4  A    between atoms: C_3  and  C_14 
REMARK    5  A    between atoms: S_6  and  C_3 
REMARK    6  A    between atoms: C_8  and  S_6 
REMARK    7  A    between atoms: S_12  and  C_15 
REMARK    8  A    between atoms: C_14  and  S_12 
ROOT
ATOM      1  S   UNL d   1       1.496  -1.076  -4.083  0.00  0.00    -0.160 SA
ENDROOT
BRANCH   1   2
ATOM      2  C   UNL d   1       1.227   0.117  -2.715  0.00  0.00     0.089 C 
BRANCH   2   3
ATOM      3  C   UNL d   1       0.652  -0.573  -1.492  0.00  0.00     0.156 C 
BRANCH   3   4
ATOM      4  S   UNL d   1       0.440   0.565  -0.142  0.00  0.00     0.176 S 
ATOM      5  O   UNL d   1      -0.478   1.605  -0.568  0.00  0.00    -0.223 OA
ATOM      6  O   UNL d   1       1.744   0.889   0.401  0.00  0.00    -0.223 OA
BRANCH   4   7
ATOM      7  C   UNL d   1      -0.414  -0.445   1.049  0.00  0.00     0.059 A 
ATOM      8  C   UNL d   1       0.320  -1.196   1.970  0.00  0.00     0.023 A 
ATOM      9  C   UNL d   1      -0.356  -2.022   2.869  0.00  0.00     0.002 A 
ATOM     10  C   UNL d   1      -1.751  -2.086   2.849  0.00  0.00     0.000 A 
ATOM     11  C   UNL d   1      -2.478  -1.319   1.937  0.00  0.00     0.002 A 
ATOM     12  C   UNL d   1      -1.811  -0.490   1.035  0.00  0.00     0.023 A 
ENDBRANCH   4   7
ENDBRANCH   3   4
ENDBRANCH   2   3
ENDBRANCH   1   2
BRANCH   1  13
ATOM     13  C   UNL d   1      -0.228  -1.548  -4.455  0.00  0.00     0.164 C 
BRANCH  13  14
ATOM     14  C   UNL d   1      -0.341  -2.606  -5.543  0.00  0.00     0.200 C 
ATOM     15  O   UNL d   1       0.575  -3.049  -6.224  0.00  0.00    -0.284 OA
BRANCH  14  16
ATOM     16  S   UNL d   1      -2.016  -3.118  -5.809  0.00  0.00    -0.052 SA
BRANCH  16  17
ATOM     17  C   UNL d   1      -1.948  -4.893  -5.653  0.00  0.00     0.009 A 
ATOM     18  C   UNL d   1      -2.874  -5.524  -4.812  0.00  0.00     0.042 A 
ATOM     19  C   UNL d   1      -2.932  -6.918  -4.744  0.00  0.00     0.035 A 
ATOM     20 CL   UNL d   1      -4.091  -7.675  -3.723  0.00  0.00    -0.084 Cl
ATOM     21  C   UNL d   1      -2.071  -7.700  -5.511  0.00  0.00     0.024 A 
ATOM     22  C   UNL d   1      -1.142  -7.082  -6.344  0.00  0.00     0.003 A 
ATOM     23  C   UNL d   1      -1.082  -5.685  -6.417  0.00  0.00     0.019 A 
ENDBRANCH  16  17
ENDBRANCH  14  16
ENDBRANCH  13  14
ENDBRANCH   1  13
TORSDOF 8
