REMARK  3 active torsions:
REMARK  status: ('A' for Active; 'I' for Inactive)
REMARK    1  A    between atoms: N_10  and  C_3 
REMARK    2  A    between atoms: C_9  and  C_6 
REMARK    3  A    between atoms: O_14  and  C_8 
ROOT
ATOM      1  N   UNL d   1      -0.218   1.221  -0.104  0.00  0.00    -0.313 N 
ATOM      2  HN  UNL d   1      -0.746   2.094  -0.122  1.00  0.00     0.170 HD
ATOM      3  C   UNL d   1      -0.814   0.033  -0.154  0.00  0.00     0.157 A 
ATOM      4  N   UNL d   1      -0.187  -1.144  -0.091  0.00  0.00    -0.332 N 
ATOM      5  HN  UNL d   1      -0.708  -2.021  -0.111  1.00  0.00     0.168 HD
ATOM      6  C   UNL d   1       1.162  -1.134  -0.001  0.00  0.00     0.048 A 
ATOM      7  C   UNL d   1       1.869   0.049   0.021  0.00  0.00     0.086 A 
ATOM      8  C   UNL d   1       1.121   1.199  -0.029  0.00  0.00     0.146 A 
ENDROOT
BRANCH   6   9
ATOM      9  C   UNL d   1       1.813  -2.461   0.077  0.00  0.00    -0.009 A 
ATOM     10  C   UNL d   1       3.029  -2.658   0.760  0.00  0.00     0.015 A 
ATOM     11  C   UNL d   1       3.633  -3.919   0.828  0.00  0.00     0.024 A 
ATOM     12  C   UNL d   1       3.027  -5.011   0.217  0.00  0.00     0.034 A 
ATOM     13  C   UNL d   1       1.823  -4.853  -0.459  0.00  0.00     0.024 A 
ATOM     14 CL   UNL d   1       3.767  -6.561   0.304  0.00  0.00    -0.084 Cl
ATOM     15  C   UNL d   1       1.223  -3.590  -0.525  0.00  0.00     0.015 A 
ENDBRANCH   6   9
BRANCH   8  16
ATOM     16  O   UNL d   1       1.834   2.383   0.009  0.00  0.00    -0.341 OA
ATOM     17  C   UNL d   1       1.006   3.541  -0.033  0.00  0.00     0.211 C 
ENDBRANCH   8  16
BRANCH   3  18
ATOM     18  N   UNL d   1      -2.192   0.013  -0.226  0.00  0.00    -0.274 NA
ATOM     19  H   UNL d   1      -2.567   0.869   0.156  0.00  0.00     0.127 HD
ATOM     20  H   UNL d   1      -2.539  -0.856   0.155  0.00  0.00     0.127 HD
ENDBRANCH   3  18
TORSDOF 3
