REMARK  2 active torsions:
REMARK  status: ('A' for Active; 'I' for Inactive)
REMARK    1  A    between atoms: C_12  and  N_6 
REMARK    2  A    between atoms: O_20  and  C_15 
ROOT
ATOM      1  N   UNL d   1       0.389   0.491  -0.427  0.00  0.00    -0.315 N 
ATOM      2  C   UNL d   1       0.832  -0.810  -0.381  0.00  0.00     0.115 A 
ATOM      3  N   UNL d   1      -0.184  -1.640  -0.219  0.00  0.00    -0.342 N 
ATOM      4  HN  UNL d   1      -0.146  -2.659  -0.186  1.00  0.00     0.167 HD
ATOM      5  C   UNL d   1       1.252   1.653  -0.564  0.00  0.00     0.259 C 
ATOM      6  N   UNL d   1       2.327   1.766   0.418  0.00  0.00    -0.343 N 
ATOM      7  C   UNL d   1      -0.978   0.494  -0.273  0.00  0.00     0.064 A 
ATOM      8  C   UNL d   1      -1.298  -0.850  -0.104  0.00  0.00     0.060 A 
ATOM      9  C   UNL d   1       3.420   0.811   0.320  0.00  0.00     0.296 C 
ATOM     10  O   UNL d   1       3.009  -0.526   0.557  0.00  0.00    -0.359 OA
ATOM     11  C   UNL d   1       2.275  -1.202  -0.463  0.00  0.00     0.187 C 
ATOM     12  C   UNL d   1      -1.943   1.510  -0.223  0.00  0.00     0.032 A 
ATOM     13  C   UNL d   1      -2.627  -1.216   0.157  0.00  0.00     0.032 A 
ATOM     14  C   UNL d   1       2.858  -1.111  -1.870  0.00  0.00     0.048 C 
ATOM     15  C   UNL d   1      -3.261   1.127   0.047  0.00  0.00     0.002 A 
ATOM     16  C   UNL d   1      -3.601  -0.213   0.240  0.00  0.00     0.002 A 
ENDROOT
BRANCH   6  17
ATOM     17  C   UNL d   1       2.118   2.462   1.605  0.00  0.00     0.033 A 
ATOM     18  C   UNL d   1       0.848   2.631   2.171  0.00  0.00     0.032 A 
ATOM     19  C   UNL d   1       0.645   3.391   3.329  0.00  0.00     0.039 A 
ATOM     20  C   UNL d   1       1.713   4.007   3.970  0.00  0.00     0.068 A 
ATOM     21  C   UNL d   1       2.988   3.847   3.441  0.00  0.00     0.039 A 
ATOM     22  C   UNL d   1       3.181   3.087   2.274  0.00  0.00     0.032 A 
BRANCH  20  23
ATOM     23  O   UNL d   1       1.376   4.731   5.077  0.00  0.00    -0.356 OA
ATOM     24  C   UNL d   1       2.440   5.341   5.792  0.00  0.00     0.210 C 
ENDBRANCH  20  23
ENDBRANCH   6  17
TORSDOF 2
