REMARK  7 active torsions:
REMARK  status: ('A' for Active; 'I' for Inactive)
REMARK    1  A    between atoms: C_3  and  C_1 
REMARK    2  A    between atoms: C_9  and  C_2 
REMARK       I    between atoms: N_6  and  C_3 
REMARK    3  A    between atoms: C_4  and  O_10 
REMARK    4  A    between atoms: C_5  and  C_13 
REMARK    5  A    between atoms: C_8  and  N_6 
REMARK    6  A    between atoms: O_28  and  C_9 
REMARK    7  A    between atoms: O_10  and  C_14 
ROOT
ATOM      1  C   UNL d   1       2.312   3.046   0.123  0.00  0.00     0.070 A 
ATOM      2  C   UNL d   1       4.654   3.625   0.442  0.00  0.00     0.050 A 
ATOM      3  C   UNL d   1       2.671   2.099  -0.846  0.00  0.00     0.102 A 
ATOM      4  C   UNL d   1       3.296   3.827   0.731  0.00  0.00     0.048 A 
ATOM      5  C   UNL d   1       5.006   2.634  -0.491  0.00  0.00     0.019 A 
ATOM      6  C   UNL d   1       4.019   1.882  -1.136  0.00  0.00     0.040 A 
ENDROOT
BRANCH   1   7
ATOM      7  N   UNL d   1       0.970   3.143   0.546  0.00  0.00    -0.320 N 
ATOM      8  C   UNL d   1       0.315   4.346   0.754  0.00  0.00     0.264 C 
ATOM      9  O   UNL d   1       0.831   5.420   0.431  0.00  0.00    -0.267 OA
ATOM     10  H   UNL d   1       0.387   2.326   0.408  0.00  0.00     0.169 HD
BRANCH   8  11
ATOM     11  C   UNL d   1      -1.009   4.244   1.347  0.00  0.00     0.094 A 
ATOM     12  C   UNL d   1      -1.705   3.171   1.880  0.00  0.00     0.057 A 
ATOM     13  C   UNL d   1      -2.902   3.576   2.543  0.00  0.00     0.032 A 
ATOM     14 CL   UNL d   1      -1.241   1.520   1.871  0.00  0.00    -0.083 Cl
ATOM     15  C   UNL d   1      -3.134   4.926   2.426  0.00  0.00     0.052 A 
ATOM     16  S   UNL d   1      -1.926   5.697   1.504  0.00  0.00    -0.095 SA
ENDBRANCH   8  11
ENDBRANCH   1   7
BRANCH   3  17
ATOM     17  O   UNL d   1       1.754   1.346  -1.543  0.00  0.00    -0.307 OA
BRANCH  17  18
ATOM     18  C   UNL d   1       0.698   1.908  -2.199  0.00  0.00     0.099 A 
ATOM     19  C   UNL d   1      -0.376   1.137  -2.615  0.00  0.00     0.114 A 
ATOM     20  S   UNL d   1      -1.603   2.119  -3.321  0.00  0.00    -0.093 SA
ATOM     21  C   UNL d   1      -0.694   3.544  -3.111  0.00  0.00     0.053 A 
ATOM     22  C   UNL d   1       0.531   3.290  -2.540  0.00  0.00     0.046 A 
BRANCH  19  23
ATOM     23  C   UNL d   1      -0.624  -0.291  -2.525  0.00  0.00     0.302 C 
ATOM     24  O   UNL d   1      -1.651  -0.868  -2.868  0.00  0.00    -0.259 OA
BRANCH  23  25
ATOM     25  O   UNL d   1       0.453  -0.934  -1.988  0.00  0.00    -0.322 OA
ATOM     26  C   UNL d   1       0.292  -2.345  -1.851  0.00  0.00     0.213 C 
ENDBRANCH  23  25
ENDBRANCH  19  23
ENDBRANCH  17  18
ENDBRANCH   3  17
BRANCH   2  27
ATOM     27  C   UNL d   1       5.726   4.422   1.147  0.00  0.00     0.417 C 
ATOM     28  F   UNL d   1       5.237   5.366   1.999  0.00  0.00    -0.166 F 
ATOM     29  F   UNL d   1       6.541   3.631   1.900  0.00  0.00    -0.166 F 
ATOM     30  F   UNL d   1       6.542   5.082   0.283  0.00  0.00    -0.166 F 
ENDBRANCH   2  27
TORSDOF 7
