REMARK  5 active torsions:
REMARK  status: ('A' for Active; 'I' for Inactive)
REMARK    1  A    between atoms: C_2  and  C_1 
REMARK       I    between atoms: N_3  and  C_2 
REMARK    2  A    between atoms: C_7  and  N_3 
REMARK    3  A    between atoms: C_14  and  C_7 
REMARK    4  A    between atoms: O_12  and  C_9 
REMARK    5  A    between atoms: O_13  and  C_14 
ROOT
ATOM      1  C   UNL d   1       0.286  -2.408   0.028  0.00  0.00     0.253 C 
ATOM      2  N   UNL d   1       1.022  -3.550  -0.167  0.00  0.00    -0.346 N 
ATOM      3  O   UNL d   1      -0.938  -2.433   0.154  0.00  0.00    -0.268 OA
ATOM      4  H   UNL d   1       2.027  -3.482  -0.043  0.00  0.00     0.163 HD
ENDROOT
BRANCH   1   5
ATOM      5  C   UNL d   1       0.996  -1.078   0.068  0.00  0.00     0.052 A 
ATOM      6  C   UNL d   1       2.382  -0.849   0.074  0.00  0.00     0.026 A 
ATOM      7  C   UNL d   1       2.879   0.464   0.117  0.00  0.00     0.023 A 
ATOM      8 BR   UNL d   1       3.730  -2.190   0.047  0.00  0.00    -0.050 Br
ATOM      9  C   UNL d   1       2.012   1.555   0.151  0.00  0.00     0.038 A 
ATOM     10  C   UNL d   1       0.637   1.357   0.143  0.00  0.00     0.069 A 
ATOM     11  C   UNL d   1       0.139   0.052   0.102  0.00  0.00     0.055 A 
BRANCH  10  12
ATOM     12  O   UNL d   1      -0.102   2.506   0.179  0.00  0.00    -0.356 OA
ATOM     13  C   UNL d   1      -1.518   2.369   0.171  0.00  0.00     0.210 C 
ENDBRANCH  10  12
ENDBRANCH   1   5
BRANCH   2  14
ATOM     14  C   UNL d   1       0.522  -4.941  -0.112  0.00  0.00     0.047 C 
ATOM     15  C   UNL d   1       0.211  -5.327   1.344  0.00  0.00     0.040 C 
ATOM     16  C   UNL d   1      -0.724  -5.159  -0.986  0.00  0.00     0.040 C 
BRANCH  14  17
ATOM     17  C   UNL d   1       1.644  -5.860  -0.670  0.00  0.00     0.194 C 
BRANCH  17  18
ATOM     18  O   UNL d   1       2.842  -5.722   0.094  0.00  0.00    -0.398 OA
ATOM     19  H   UNL d   1       3.490  -6.343  -0.283  0.00  0.00     0.209 HD
ENDBRANCH  17  18
ENDBRANCH  14  17
ENDBRANCH   2  14
TORSDOF 5
