REMARK  6 active torsions:
REMARK  status: ('A' for Active; 'I' for Inactive)
REMARK    1  A    between atoms: C_10  and  N_6 
REMARK    2  A    between atoms: C_9  and  N_16 
REMARK    3  A    between atoms: N_12  and  C_9 
REMARK    4  A    between atoms: C_11  and  C_10 
REMARK       I    between atoms: N_17  and  C_11 
REMARK    5  A    between atoms: C_13  and  N_12 
REMARK    6  A    between atoms: N_16  and  N_17 
ROOT
ATOM      1  C   UNL d   1       3.082   0.437  -0.368  0.00  0.00     0.257 C 
ATOM      2  N   UNL d   1       3.681  -0.434   0.509  0.00  0.00    -0.266 N 
ATOM      3  O   UNL d   1       3.574   0.598  -1.487  0.00  0.00    -0.270 OA
ATOM      4  H   UNL d   1       4.553  -0.868   0.209  0.00  0.00     0.190 HD
ENDROOT
BRANCH   1   5
ATOM      5  C   UNL d   1       1.881   1.222   0.080  0.00  0.00     0.272 C 
BRANCH   5   6
ATOM      6  N   UNL d   1       0.648   0.466   0.086  0.00  0.00    -0.194 N 
ATOM      7  N   UNL d   1       0.428  -0.631  -0.661  0.00  0.00    -0.115 N 
ATOM      8  C   UNL d   1      -0.898  -0.772  -0.504  0.00  0.00     0.709 A 
ATOM      9  HN  UNL d   1       1.085  -1.197  -1.197  1.00  0.00     0.207 HD
ATOM     10  N   UNL d   1      -1.415   0.144   0.385  0.00  0.00    -0.113 N 
ATOM     11  N   UNL d   1      -1.691  -1.675  -1.131  0.00  0.00    -0.215 N 
ATOM     12  N   UNL d   1      -0.410   0.913   0.779  0.00  0.00     0.011 NA
ATOM     13  HN  UNL d   1      -2.387   0.216   0.684  1.00  0.00     0.203 HD
ATOM     14  C   UNL d   1      -1.097  -2.955  -1.527  0.00  0.00     0.141 C 
ATOM     15  C   UNL d   1      -3.114  -1.718  -0.772  0.00  0.00     0.141 C 
ATOM     16  C   UNL d   1      -1.914  -3.626  -2.632  0.00  0.00     0.020 C 
ATOM     17  C   UNL d   1      -3.390  -3.729  -2.264  0.00  0.00     0.003 C 
ATOM     18  C   UNL d   1      -3.934  -2.355  -1.896  0.00  0.00     0.020 C 
ENDBRANCH   5   6
ENDBRANCH   1   5
BRANCH   2  19
ATOM     19  N   UNL d   1       3.282  -0.632   1.828  0.00  0.00    -0.273 N 
ATOM     20  H   UNL d   1       2.291  -0.759   2.018  0.00  0.00     0.189 HD
BRANCH  19  21
ATOM     21  C   UNL d   1       4.194  -0.921   2.825  0.00  0.00     0.191 C 
ATOM     22  S   UNL d   1       5.849  -0.743   2.704  0.00  0.00    -0.039 SA
BRANCH  21  23
ATOM     23  N   UNL d   1       3.636  -1.282   4.025  0.00  0.00    -0.330 N 
ATOM     24  H   UNL d   1       4.184  -1.071   4.856  0.00  0.00     0.168 HD
BRANCH  23  25
ATOM     25  C   UNL d   1       2.525  -2.131   4.228  0.00  0.00     0.073 A 
ATOM     26  C   UNL d   1       1.881  -2.112   5.471  0.00  0.00     0.145 A 
ATOM     27  C   UNL d   1       0.807  -2.953   5.740  0.00  0.00     0.086 A 
ATOM     28  F   UNL d   1       2.283  -1.247   6.415  0.00  0.00    -0.204 F 
ATOM     29  C   UNL d   1       0.404  -3.855   4.765  0.00  0.00     0.119 A 
ATOM     30  C   UNL d   1       1.048  -3.920   3.534  0.00  0.00     0.044 A 
ATOM     31  F   UNL d   1      -0.612  -4.690   5.018  0.00  0.00    -0.206 F 
ATOM     32  C   UNL d   1       2.106  -3.051   3.259  0.00  0.00     0.036 A 
ENDBRANCH  23  25
ENDBRANCH  21  23
ENDBRANCH  19  21
ENDBRANCH   2  19
TORSDOF 6
