REMARK  4 active torsions:
REMARK  status: ('A' for Active; 'I' for Inactive)
REMARK    1  A    between atoms: N_2  and  C_1 
REMARK    2  A    between atoms: O_8  and  C_1 
REMARK    3  A    between atoms: C_7  and  N_2 
REMARK    4  A    between atoms: C_9  and  C_4 
ROOT
ATOM      1  C   UNL d   1       2.138  -5.001   0.240  0.00  0.00    -0.055 A 
ATOM      2  C   UNL d   1       2.426  -4.024   1.204  0.00  0.00     0.010 A 
ATOM      3  C   UNL d   1       1.184  -4.703  -0.742  0.00  0.00     0.010 A 
ATOM      4  C   UNL d   1       0.905  -2.459   0.144  0.00  0.00     0.034 A 
ATOM      5  C   UNL d   1       0.591  -3.438  -0.804  0.00  0.00     0.030 A 
ATOM      6  C   UNL d   1       1.811  -2.769   1.159  0.00  0.00     0.030 A 
ENDROOT
BRANCH   4   7
ATOM      7  N   UNL d   1       0.380  -1.166  -0.044  0.00  0.00    -0.328 N 
ATOM      8  H   UNL d   1       0.069  -0.942  -0.979  0.00  0.00     0.169 HD
BRANCH   7   9
ATOM      9  C   UNL d   1       0.191  -0.170   0.881  0.00  0.00     0.214 C 
ATOM     10  S   UNL d   1      -0.141  -0.296   2.507  0.00  0.00    -0.033 SA
BRANCH   9  11
ATOM     11  O   UNL d   1       0.081   1.082   0.365  0.00  0.00    -0.332 OA
ATOM     12  C   UNL d   1       1.060   1.535  -0.585  0.00  0.00     0.212 C 
ENDBRANCH   9  11
ENDBRANCH   7   9
ENDBRANCH   4   7
BRANCH   1  13
ATOM     13  C   UNL d   1       2.908  -6.310   0.240  0.00  0.00     0.010 C 
ATOM     14  C   UNL d   1       2.002  -7.524   0.449  0.00  0.00     0.015 C 
ATOM     15  C   UNL d   1       3.728  -6.456  -1.046  0.00  0.00     0.015 C 
ENDBRANCH   1  13
TORSDOF 4
