REMARK  5 active torsions:
REMARK  status: ('A' for Active; 'I' for Inactive)
REMARK    1  A    between atoms: C_6  and  S_1 
REMARK    2  A    between atoms: C_10  and  S_1 
REMARK    3  A    between atoms: C_4  and  C_6 
REMARK    4  A    between atoms: C_14  and  C_5 
REMARK    5  A    between atoms: C_7  and  C_11 
ROOT
ATOM      1  N   UNL d   1       1.441   0.492  -3.857  0.00  0.00    -0.352 N 
ATOM      2  HN  UNL d   1       1.624  -0.428  -4.257  1.00  0.00     0.166 HD
ATOM      3  C   UNL d   1       0.916   0.702  -2.668  0.00  0.00     0.065 A 
ATOM      4  C   UNL d   1       1.712   1.696  -4.490  0.00  0.00     0.049 A 
ATOM      5  S   UNL d   1       0.599   2.357  -2.302  0.00  0.00    -0.085 SA
ATOM      6  C   UNL d   1       1.263   2.813  -3.814  0.00  0.00     0.081 A 
ENDROOT
BRANCH   4   7
ATOM      7  C   UNL d   1       2.381   1.742  -5.785  0.00  0.00    -0.009 A 
ATOM      8  C   UNL d   1       2.224   0.683  -6.688  0.00  0.00     0.014 A 
ATOM      9  C   UNL d   1       2.863   0.704  -7.934  0.00  0.00     0.017 A 
ATOM     10  C   UNL d   1       3.680   1.784  -8.298  0.00  0.00     0.048 A 
ATOM     11  C   UNL d   1       3.853   2.835  -7.385  0.00  0.00     0.017 A 
ATOM     12  C   UNL d   1       3.210   2.814  -6.143  0.00  0.00     0.014 A 
BRANCH  10  13
ATOM     13  C   UNL d   1       4.372   1.829  -9.638  0.00  0.00     0.417 C 
ATOM     14  F   UNL d   1       4.099   0.758 -10.433  0.00  0.00    -0.166 F 
ATOM     15  F   UNL d   1       4.021   2.928 -10.363  0.00  0.00    -0.166 F 
ATOM     16  F   UNL d   1       5.729   1.876  -9.525  0.00  0.00    -0.166 F 
ENDBRANCH  10  13
ENDBRANCH   4   7
BRANCH   3  17
ATOM     17  C   UNL d   1       0.451  -0.361  -1.733  0.00  0.00     0.206 C 
BRANCH  17  18
ATOM     18  S   UNL d   1       1.849  -1.328  -1.164  0.00  0.00     0.157 S 
ATOM     19  O   UNL d   1       2.689  -0.461  -0.357  0.00  0.00    -0.227 OA
ATOM     20  O   UNL d   1       2.410  -2.055  -2.287  0.00  0.00    -0.227 OA
BRANCH  18  21
ATOM     21  C   UNL d   1       1.123  -2.583  -0.041  0.00  0.00     0.053 C 
ATOM     22  C   UNL d   1       0.086  -3.434  -0.788  0.00  0.00     0.031 C 
ATOM     23  C   UNL d   1       2.255  -3.503   0.452  0.00  0.00     0.031 C 
ATOM     24  C   UNL d   1       0.469  -1.910   1.174  0.00  0.00     0.031 C 
ENDBRANCH  18  21
ENDBRANCH  17  18
ENDBRANCH   3  17
TORSDOF 5
