REMARK  5 active torsions:
REMARK  status: ('A' for Active; 'I' for Inactive)
REMARK    1  A    between atoms: C_2  and  C_1 
REMARK    2  A    between atoms: C_8  and  C_2 
REMARK    3  A    between atoms: C_10  and  N_3 
REMARK    4  A    between atoms: C_11  and  C_8 
REMARK    5  A    between atoms: N_13  and  C_9 
ROOT
ATOM      1  C   UNL d   1      -0.563  -2.928   0.169  0.00  0.00     0.077 C 
ATOM      2  C   UNL d   1       0.598  -3.609   0.066  0.00  0.00     0.104 C 
ENDROOT
BRANCH   1   3
ATOM      3  C   UNL d   1      -1.812  -3.559  -0.019  0.00  0.00     0.154 A 
ATOM      4  N   UNL d   1      -2.566  -4.170   0.991  0.00  0.00    -0.224 N 
ATOM      5  N   UNL d   1      -3.709  -4.628   0.415  0.00  0.00     0.001 NA
ATOM      6  N   UNL d   1      -3.646  -4.319  -0.867  0.00  0.00    -0.007 NA
ATOM      7  N   UNL d   1      -2.495  -3.650  -1.149  0.00  0.00    -0.269 N 
ATOM      8  HN  UNL d   1      -2.212  -3.287  -2.059  1.00  0.00     0.185 HD
BRANCH   4   9
ATOM      9  C   UNL d   1      -2.400  -4.306   2.406  0.00  0.00     0.056 A 
ATOM     10  C   UNL d   1      -1.200  -4.020   3.069  0.00  0.00     0.033 A 
ATOM     11  C   UNL d   1      -1.153  -4.000   4.470  0.00  0.00     0.026 A 
ATOM     12  C   UNL d   1      -2.290  -4.296   5.215  0.00  0.00     0.034 A 
ATOM     13  C   UNL d   1      -3.472  -4.649   4.574  0.00  0.00     0.026 A 
ATOM     14 CL   UNL d   1      -2.238  -4.209   6.931  0.00  0.00    -0.084 Cl
ATOM     15  C   UNL d   1      -3.526  -4.664   3.176  0.00  0.00     0.033 A 
ENDBRANCH   4   9
ENDBRANCH   1   3
BRANCH   1  16
ATOM     16  C   UNL d   1      -0.429  -1.423   0.181  0.00  0.00     0.197 C 
ATOM     17  O   UNL d   1       0.610  -0.871  -0.185  0.00  0.00    -0.286 OA
BRANCH  16  18
ATOM     18  C   UNL d   1      -1.530  -0.539   0.645  0.00  0.00     0.015 A 
ATOM     19  C   UNL d   1      -2.287  -0.814   1.784  0.00  0.00     0.016 A 
ATOM     20  C   UNL d   1      -3.255   0.085   2.235  0.00  0.00     0.007 A 
ATOM     21  C   UNL d   1      -3.446   1.306   1.582  0.00  0.00    -0.062 A 
ATOM     22  C   UNL d   1      -2.668   1.602   0.459  0.00  0.00     0.007 A 
ATOM     23  C   UNL d   1      -4.474   2.270   2.095  0.00  0.00     0.048 C 
ATOM     24  C   UNL d   1      -1.715   0.688  -0.004  0.00  0.00     0.016 A 
ENDBRANCH  16  18
ENDBRANCH   1  16
BRANCH   2  25
ATOM     25  N   UNL d   1       0.954  -4.949  -0.103  0.00  0.00    -0.398 N 
ATOM     26  C   UNL d   1       2.354  -5.303  -0.391  0.00  0.00     0.148 C 
ATOM     27  C   UNL d   1       0.023  -6.072  -0.192  0.00  0.00     0.148 C 
ENDBRANCH   2  25
TORSDOF 5
