REMARK  4 active torsions:
REMARK  status: ('A' for Active; 'I' for Inactive)
REMARK    1  A    between atoms: N_2  and  S_1 
REMARK    2  A    between atoms: C_8  and  S_1 
REMARK    3  A    between atoms: C_3  and  N_2 
REMARK       I    between atoms: C_12  and  N_13 
REMARK    4  A    between atoms: N_13  and  C_17 
ROOT
ATOM      1  S   UNL d   1       1.025   0.157  -0.001  0.00  0.00     0.247 S 
ATOM      2  O   UNL d   1       0.425   1.421   0.369  0.00  0.00    -0.205 OA
ATOM      3  O   UNL d   1       0.870  -1.026   0.817  0.00  0.00    -0.205 OA
ENDROOT
BRANCH   1   4
ATOM      4  N   UNL d   1       2.667   0.484  -0.284  0.00  0.00    -0.165 NA
ATOM      5  H   UNL d   1       2.780   1.466  -0.019  0.00  0.00     0.147 HD
BRANCH   4   6
ATOM      6  C   UNL d   1       3.575  -0.309   0.411  0.00  0.00     0.117 A 
ATOM      7  N   UNL d   1       4.095   0.077   1.575  0.00  0.00    -0.249 N 
ATOM      8  O   UNL d   1       4.922  -0.964   1.970  0.00  0.00    -0.241 OA
ATOM      9  HN  UNL d   1       3.922   0.951   2.071  1.00  0.00     0.196 HD
ATOM     10  C   UNL d   1       4.939  -1.918   0.999  0.00  0.00     0.075 A 
ATOM     11  C   UNL d   1       4.113  -1.532  -0.028  0.00  0.00     0.079 A 
ATOM     12  C   UNL d   1       5.796  -3.091   1.246  0.00  0.00     0.079 C 
ENDBRANCH   4   6
ENDBRANCH   1   4
BRANCH   1  13
ATOM     13  C   UNL d   1       0.448  -0.257  -1.631  0.00  0.00     0.075 A 
ATOM     14  C   UNL d   1       0.469  -1.588  -2.053  0.00  0.00     0.027 A 
ATOM     15  C   UNL d   1      -0.037  -1.924  -3.314  0.00  0.00     0.031 A 
ATOM     16  C   UNL d   1      -0.570  -0.939  -4.155  0.00  0.00     0.034 A 
ATOM     17  C   UNL d   1      -0.611   0.384  -3.704  0.00  0.00     0.031 A 
ATOM     18  C   UNL d   1      -0.108   0.729  -2.444  0.00  0.00     0.027 A 
BRANCH  16  19
ATOM     19  N   UNL d   1      -1.037  -1.343  -5.427  0.00  0.00    -0.328 N 
ATOM     20  C   UNL d   1      -1.553  -0.533  -6.417  0.00  0.00     0.218 C 
ATOM     21  O   UNL d   1      -1.721   0.684  -6.363  0.00  0.00    -0.274 OA
ATOM     22  C   UNL d   1      -1.920  -1.274  -7.684  0.00  0.00     0.117 C 
ATOM     23  H   UNL d   1      -0.962  -2.333  -5.633  0.00  0.00     0.169 HD
ENDBRANCH  16  19
ENDBRANCH   1  13
TORSDOF 4
