REMARK  1 active torsions:
REMARK  status: ('A' for Active; 'I' for Inactive)
REMARK    1  A    between atoms: C_4  and  N_1 
ROOT
ATOM      1  N   UNL d   1       0.616   1.145  -0.442  0.00  0.00    -0.251 N 
ATOM      2  C   UNL d   1       1.410   0.058  -0.054  0.00  0.00     0.240 C 
ATOM      3  C   UNL d   1      -0.660   1.249   0.118  0.00  0.00     0.240 C 
ATOM      4  S   UNL d   1      -0.822  -1.434   0.609  0.00  0.00    -0.150 SA
ATOM      5  O   UNL d   1      -1.102   2.218   0.734  0.00  0.00    -0.272 OA
ATOM      6  O   UNL d   1       2.576   0.148   0.331  0.00  0.00    -0.272 OA
ATOM      7  C   UNL d   1       0.777  -1.313  -0.207  0.00  0.00     0.178 C 
ATOM      8  C   UNL d   1      -1.543   0.041  -0.127  0.00  0.00     0.178 C 
ENDROOT
BRANCH   1   9
ATOM      9  C   UNL d   1       1.251   2.287  -1.061  0.00  0.00     0.045 A 
ATOM     10  C   UNL d   1       0.644   3.554  -1.137  0.00  0.00     0.033 A 
ATOM     11  C   UNL d   1       1.216   4.593  -1.882  0.00  0.00     0.044 A 
ATOM     12  C   UNL d   1       2.393   4.377  -2.579  0.00  0.00     0.116 A 
ATOM     13  C   UNL d   1       3.023   3.145  -2.527  0.00  0.00     0.044 A 
ATOM     14  F   UNL d   1       2.917   5.358  -3.324  0.00  0.00    -0.206 F 
ATOM     15  C   UNL d   1       2.459   2.113  -1.773  0.00  0.00     0.033 A 
ENDBRANCH   1   9
TORSDOF 1
