REMARK  6 active torsions:
REMARK  status: ('A' for Active; 'I' for Inactive)
REMARK       I    between atoms: N_2  and  C_1 
REMARK    1  A    between atoms: C_6  and  C_1 
REMARK    2  A    between atoms: C_9  and  N_2 
REMARK    3  A    between atoms: C_3  and  C_8 
REMARK    4  A    between atoms: O_11  and  C_3 
REMARK    5  A    between atoms: C_4  and  C_6 
REMARK    6  A    between atoms: C_8  and  C_4 
ROOT
ATOM      1  C   UNL d   1       0.738  -0.444  -0.505  0.00  0.00     0.222 C 
ATOM      2  N   UNL d   1      -0.196   0.343   0.159  0.00  0.00    -0.327 N 
ATOM      3  O   UNL d   1       0.482  -1.339  -1.302  0.00  0.00    -0.273 OA
ATOM      4  H   UNL d   1       0.164   1.146   0.658  0.00  0.00     0.169 HD
ENDROOT
BRANCH   1   5
ATOM      5  C   UNL d   1       2.163  -0.089  -0.099  0.00  0.00     0.112 C 
BRANCH   5   6
ATOM      6  C   UNL d   1       3.312  -0.884  -0.783  0.00  0.00    -0.030 C 
ATOM      7  C   UNL d   1       4.656  -0.352  -0.230  0.00  0.00     0.016 C 
ATOM      8  C   UNL d   1       3.239  -2.382  -0.404  0.00  0.00     0.016 C 
BRANCH   6   9
ATOM      9  C   UNL d   1       3.297  -0.790  -2.332  0.00  0.00     0.119 C 
BRANCH   9  10
ATOM     10  C   UNL d   1       3.299   0.603  -2.925  0.00  0.00     0.140 C 
ATOM     11  O   UNL d   1       3.495   1.640  -2.314  0.00  0.00    -0.650 OA
BRANCH  10  12
ATOM     12  O   UNL d   1       3.081   0.588  -4.262  0.00  0.00    -0.776 OA
ATOM     13  H   UNL d   1       2.919  -0.306  -4.621  0.00  0.00     0.167 HD
ENDBRANCH  10  12
ENDBRANCH   9  10
ENDBRANCH   6   9
ENDBRANCH   5   6
ENDBRANCH   1   5
BRANCH   2  14
ATOM     14  C   UNL d   1      -1.581   0.104   0.271  0.00  0.00     0.034 A 
ATOM     15  C   UNL d   1      -2.222  -1.010  -0.277  0.00  0.00     0.031 A 
ATOM     16  C   UNL d   1      -3.572  -1.258  -0.009  0.00  0.00     0.026 A 
ATOM     17  C   UNL d   1      -4.292  -0.384   0.799  0.00  0.00     0.034 A 
ATOM     18  C   UNL d   1      -3.681   0.757   1.312  0.00  0.00     0.026 A 
ATOM     19 CL   UNL d   1      -5.931  -0.729   1.185  0.00  0.00    -0.084 Cl
ATOM     20  C   UNL d   1      -2.330   1.003   1.043  0.00  0.00     0.031 A 
ENDBRANCH   2  14
TORSDOF 6
