REMARK  2 active torsions:
REMARK  status: ('A' for Active; 'I' for Inactive)
REMARK    1  A    between atoms: N_11  and  C_3 
REMARK    2  A    between atoms: C_15  and  N_11 
ROOT
ATOM      1  C   UNL d   1       0.581  -0.643   0.097  0.00  0.00     0.043 A 
ATOM      2  C   UNL d   1       1.131   0.635   0.119  0.00  0.00     0.089 A 
ATOM      3  C   UNL d   1       1.526  -1.701   0.007  0.00  0.00     0.095 A 
ATOM      4  S   UNL d   1      -0.023   1.883   0.113  0.00  0.00    -0.075 SA
ATOM      5  C   UNL d   1      -0.874  -0.548   0.175  0.00  0.00    -0.029 A 
ATOM      6  C   UNL d   1      -1.301   0.771   0.139  0.00  0.00    -0.008 A 
ATOM      7  N   UNL d   1       2.433   0.965   0.128  0.00  0.00    -0.346 N 
ATOM      8  HN  UNL d   1       2.777   1.925   0.143  1.00  0.00     0.167 HD
ATOM      9  N   UNL d   1       2.846  -1.379   0.048  0.00  0.00    -0.342 N 
ATOM     10  HN  UNL d   1       3.550  -2.116   0.030  1.00  0.00     0.167 HD
ATOM     11  C   UNL d   1       3.221  -0.101   0.113  0.00  0.00     0.182 A 
ATOM     12  C   UNL d   1      -1.879  -1.657   0.332  0.00  0.00     0.041 C 
ATOM     13  C   UNL d   1      -2.723   1.243   0.101  0.00  0.00     0.047 C 
ATOM     14  C   UNL d   1      -3.296  -1.220  -0.082  0.00  0.00     0.005 C 
ATOM     15  C   UNL d   1      -3.683   0.131   0.531  0.00  0.00     0.005 C 
ENDROOT
BRANCH   3  16
ATOM     16  N   UNL d   1       1.192  -3.058  -0.156  0.00  0.00    -0.274 NA
ATOM     17  H   UNL d   1       0.257  -3.154  -0.527  0.00  0.00     0.129 HD
BRANCH  16  18
ATOM     18  C   UNL d   1       2.202  -3.852  -0.878  0.00  0.00     0.053 C 
ATOM     19  C   UNL d   1       3.162  -4.523   0.104  0.00  0.00     0.026 C 
ATOM     20  C   UNL d   1       1.506  -4.918  -1.728  0.00  0.00     0.026 C 
ENDBRANCH  16  18
ENDBRANCH   3  16
TORSDOF 2
