REMARK  1 active torsions:
REMARK  status: ('A' for Active; 'I' for Inactive)
REMARK    1  A    between atoms: C_2  and  S_1 
ROOT
ATOM      1  C   UNL d   1       0.471  -1.435  -0.899  0.00  0.00     0.099 A 
ATOM      2  S   UNL d   1      -0.382  -1.238  -2.369  0.00  0.00    -0.090 SA
ATOM      3  C   UNL d   1       0.715  -2.769  -0.630  0.00  0.00     0.031 A 
ATOM      4  C   UNL d   1      -0.400  -2.924  -2.660  0.00  0.00     0.051 A 
ATOM      5  C   UNL d   1       0.217  -3.629  -1.651  0.00  0.00     0.009 A 
ENDROOT
BRANCH   1   6
ATOM      6  S   UNL d   1       0.880   0.047  -0.007  0.00  0.00     0.178 S 
ATOM      7  O   UNL d   1       1.693  -0.406   1.106  0.00  0.00    -0.222 OA
ATOM      8  O   UNL d   1      -0.366   0.756   0.195  0.00  0.00    -0.222 OA
ATOM      9  C   UNL d   1       1.913   0.964  -1.120  0.00  0.00     0.167 C 
ENDBRANCH   1   6
TORSDOF 1
