REMARK  1 active torsions:
REMARK  status: ('A' for Active; 'I' for Inactive)
REMARK    1  A    between atoms: N_11  and  C_7 
ROOT
ATOM      1  S   UNL d   1      -1.175  -1.642   0.059  0.00  0.00     0.270 S 
ATOM      2  C   UNL d   1      -2.328  -0.423   0.465  0.00  0.00     0.145 C 
ATOM      3  N   UNL d   1      -1.703  -2.022  -1.520  0.00  0.00    -0.275 N 
ATOM      4  C   UNL d   1      -2.283   0.720  -0.449  0.00  0.00     0.209 C 
ATOM      5  C   UNL d   1      -2.193   0.408  -1.904  0.00  0.00     0.043 A 
ATOM      6  C   UNL d   1      -1.876  -0.877  -2.402  0.00  0.00     0.059 A 
ATOM      7  C   UNL d   1      -3.298  -0.691   1.354  0.00  0.00     0.114 C 
ATOM      8  O   UNL d   1       0.150  -1.060  -0.069  0.00  0.00    -0.200 OA
ATOM      9  O   UNL d   1      -1.359  -2.829   0.873  0.00  0.00    -0.200 OA
ATOM     10  O   UNL d   1      -2.340   1.879  -0.055  0.00  0.00    -0.286 OA
ATOM     11  C   UNL d   1      -1.272  -3.327  -2.046  0.00  0.00     0.170 C 
ATOM     12  C   UNL d   1      -2.493   1.463  -2.784  0.00  0.00     0.018 A 
ATOM     13  C   UNL d   1      -1.909  -1.063  -3.793  0.00  0.00     0.031 A 
ATOM     14  C   UNL d   1      -2.506   1.253  -4.158  0.00  0.00     0.001 A 
ATOM     15  C   UNL d   1      -2.210  -0.008  -4.662  0.00  0.00     0.002 A 
ENDROOT
BRANCH   7  16
ATOM     16  N   UNL d   1      -4.495  -0.059   1.690  0.00  0.00    -0.397 N 
ATOM     17  C   UNL d   1      -4.978   1.182   1.081  0.00  0.00     0.148 C 
ATOM     18  C   UNL d   1      -5.297  -0.509   2.830  0.00  0.00     0.148 C 
ENDBRANCH   7  16
TORSDOF 1
