REMARK  3 active torsions:
REMARK  status: ('A' for Active; 'I' for Inactive)
REMARK    1  A    between atoms: C_6  and  C_1 
REMARK    2  A    between atoms: C_7  and  C_2 
REMARK    3  A    between atoms: N_9  and  C_3 
ROOT
ATOM      1  C   UNL d   1       1.235   1.759  -0.108  0.00  0.00     0.068 A 
ATOM      2  C   UNL d   1      -1.229   1.729   0.140  0.00  0.00     0.068 A 
ATOM      3  C   UNL d   1       0.028  -0.362   0.003  0.00  0.00     0.075 A 
ATOM      4  C   UNL d   1       1.236   0.357  -0.190  0.00  0.00     0.054 A 
ATOM      5  C   UNL d   1      -1.198   0.326   0.205  0.00  0.00     0.054 A 
ATOM      6  C   UNL d   1      -0.004   2.417   0.020  0.00  0.00     0.035 A 
ATOM      7 BR   UNL d   1      -2.774  -0.607   0.773  0.00  0.00    -0.048 Br
ATOM      8 BR   UNL d   1       2.832  -0.533  -0.772  0.00  0.00    -0.048 Br
ENDROOT
BRANCH   3   9
ATOM      9  N   UNL d   1       0.047  -1.783   0.002  0.00  0.00    -0.330 N 
ATOM     10  C   UNL d   1       0.835  -2.587   0.803  0.00  0.00     0.097 A 
ATOM     11  C   UNL d   1       0.568  -3.909   0.509  0.00  0.00     0.019 A 
ATOM     12  C   UNL d   1      -0.419  -3.922  -0.501  0.00  0.00     0.019 A 
ATOM     13  C   UNL d   1      -0.720  -2.608  -0.798  0.00  0.00     0.097 A 
ENDBRANCH   3   9
BRANCH   1  14
ATOM     14  C   UNL d   1       2.465   2.640  -0.197  0.00  0.00     0.418 C 
ATOM     15  F   UNL d   1       3.639   2.053   0.155  0.00  0.00    -0.166 F 
ATOM     16  F   UNL d   1       2.643   3.149  -1.446  0.00  0.00    -0.166 F 
ATOM     17  F   UNL d   1       2.361   3.724   0.628  0.00  0.00    -0.166 F 
ENDBRANCH   1  14
BRANCH   2  18
ATOM     18  C   UNL d   1      -2.479   2.576   0.247  0.00  0.00     0.418 C 
ATOM     19  F   UNL d   1      -3.633   1.976  -0.145  0.00  0.00    -0.166 F 
ATOM     20  F   UNL d   1      -2.686   3.026   1.514  0.00  0.00    -0.166 F 
ATOM     21  F   UNL d   1      -2.392   3.696  -0.528  0.00  0.00    -0.166 F 
ENDBRANCH   2  18
TORSDOF 3
