REMARK  3 active torsions:
REMARK  status: ('A' for Active; 'I' for Inactive)
REMARK    1  A    between atoms: N_6  and  C_1 
REMARK    2  A    between atoms: C_9  and  N_4 
REMARK    3  A    between atoms: C_7  and  N_6 
ROOT
ATOM      1  C   UNL d   1      -0.035  -1.214   0.032  0.00  0.00     0.123 A 
ATOM      2  C   UNL d   1       1.310  -0.585  -0.154  0.00  0.00     0.291 A 
ATOM      3  N   UNL d   1      -0.239   1.062   0.304  0.00  0.00    -0.193 NA
ATOM      4  N   UNL d   1       1.133   0.791   0.023  0.00  0.00    -0.234 N 
ATOM      5  C   UNL d   1      -0.882  -0.186   0.242  0.00  0.00     0.037 A 
ATOM      6  O   UNL d   1       2.338  -1.199  -0.402  0.00  0.00    -0.264 OA
ATOM      7  C   UNL d   1      -0.806   2.229  -0.390  0.00  0.00     0.143 C 
ATOM      8  C   UNL d   1      -2.361  -0.331   0.419  0.00  0.00     0.066 C 
ENDROOT
BRANCH   1   9
ATOM      9  N   UNL d   1      -0.384  -2.539  -0.060  0.00  0.00    -0.328 N 
ATOM     10  H   UNL d   1      -1.377  -2.734  -0.089  0.00  0.00     0.168 HD
BRANCH   9  11
ATOM     11  C   UNL d   1       0.348  -3.678  -0.076  0.00  0.00     0.170 C 
ATOM     12  S   UNL d   1      -0.418  -5.141  -0.278  0.00  0.00    -0.041 SA
ATOM     13  N   UNL d   1       1.665  -3.643   0.163  0.00  0.00    -0.376 N 
ATOM     14  H   UNL d   1       2.205  -2.794   0.005  0.00  0.00     0.158 HD
ATOM     15  H   UNL d   1       2.190  -4.505   0.095  0.00  0.00     0.158 HD
ENDBRANCH   9  11
ENDBRANCH   1   9
BRANCH   4  16
ATOM     16  C   UNL d   1       2.153   1.767   0.055  0.00  0.00     0.055 A 
ATOM     17  C   UNL d   1       3.309   1.601  -0.724  0.00  0.00     0.031 A 
ATOM     18  C   UNL d   1       4.315   2.571  -0.736  0.00  0.00     0.002 A 
ATOM     19  C   UNL d   1       4.191   3.713   0.046  0.00  0.00     0.000 A 
ATOM     20  C   UNL d   1       3.062   3.881   0.848  0.00  0.00     0.002 A 
ATOM     21  C   UNL d   1       2.050   2.915   0.849  0.00  0.00     0.031 A 
ENDBRANCH   4  16
TORSDOF 3
