REMARK  3 active torsions:
REMARK  status: ('A' for Active; 'I' for Inactive)
REMARK    1  A    between atoms: C_8  and  N_1 
REMARK    2  A    between atoms: C_12  and  C_4 
REMARK    3  A    between atoms: C_9  and  C_11 
ROOT
ATOM      1  N   UNL d   1      -0.267  -1.157   0.065  0.00  0.00    -0.243 N 
ATOM      2  N   UNL d   1       0.992  -0.657   0.082  0.00  0.00    -0.235 N 
ATOM      3  HN  UNL d   1       1.845  -1.211   0.149  1.00  0.00     0.209 HD
ATOM      4  C   UNL d   1      -0.364   1.038  -0.071  0.00  0.00     0.119 A 
ATOM      5  C   UNL d   1      -1.170  -0.097  -0.045  0.00  0.00     0.064 A 
ATOM      6  N   UNL d   1       0.943   0.659  -0.002  0.00  0.00    -0.280 N 
ATOM      7  HN  UNL d   1       1.747   1.286  -0.013  1.00  0.00     0.188 HD
ATOM      8  C   UNL d   1      -2.651  -0.212  -0.017  0.00  0.00     0.073 C 
ENDROOT
BRANCH   1   9
ATOM      9  C   UNL d   1      -0.470  -2.571   0.076  0.00  0.00     0.080 A 
ATOM     10  C   UNL d   1      -1.566  -3.126  -0.616  0.00  0.00     0.049 A 
ATOM     11  C   UNL d   1      -1.766  -4.519  -0.681  0.00  0.00     0.050 A 
ATOM     12  C   UNL d   1      -0.852  -5.366  -0.046  0.00  0.00     0.018 A 
ATOM     13  C   UNL d   1       0.234  -4.832   0.643  0.00  0.00     0.027 A 
ATOM     14  C   UNL d   1       0.433  -3.445   0.712  0.00  0.00     0.062 A 
ATOM     15 CL   UNL d   1       1.758  -2.951   1.714  0.00  0.00    -0.082 Cl
BRANCH  11  16
ATOM     16  C   UNL d   1      -2.929  -5.116  -1.443  0.00  0.00     0.417 C 
ATOM     17  F   UNL d   1      -3.748  -4.180  -1.996  0.00  0.00    -0.166 F 
ATOM     18  F   UNL d   1      -2.522  -5.914  -2.467  0.00  0.00    -0.166 F 
ATOM     19  F   UNL d   1      -3.722  -5.890  -0.654  0.00  0.00    -0.166 F 
ENDBRANCH  11  16
ENDBRANCH   1   9
BRANCH   4  20
ATOM     20  C   UNL d   1      -0.751   2.445  -0.132  0.00  0.00     0.175 C 
ATOM     21  O   UNL d   1      -1.929   2.797  -0.227  0.00  0.00    -0.291 OA
ATOM     22  C   UNL d   1       0.333   3.495  -0.054  0.00  0.00     0.098 C 
ENDBRANCH   4  20
TORSDOF 3
