REMARK  4 active torsions:
REMARK  status: ('A' for Active; 'I' for Inactive)
REMARK    1  A    between atoms: C_2  and  C_1 
REMARK    2  A    between atoms: C_12  and  N_3 
REMARK    3  A    between atoms: O_18  and  C_5 
REMARK    4  A    between atoms: C_6  and  C_7 
ROOT
ATOM      1  C   UNL d   1      -2.688  -2.052   1.000  0.00  0.00     0.102 C 
ATOM      2  N   UNL d   1      -3.287  -2.522  -0.049  0.00  0.00    -0.365 N 
ATOM      3  HN  UNL d   1      -3.267  -2.009  -0.931  1.00  0.00     0.165 HD
ENDROOT
BRANCH   2   4
ATOM      4  C   UNL d   1      -3.965  -3.750   0.049  0.00  0.00     0.031 A 
ATOM      5  C   UNL d   1      -5.093  -3.942  -0.751  0.00  0.00     0.030 A 
ATOM      6  C   UNL d   1      -5.819  -5.139  -0.695  0.00  0.00     0.010 A 
ATOM      7  C   UNL d   1      -5.439  -6.186   0.161  0.00  0.00    -0.051 A 
ATOM      8  C   UNL d   1      -4.295  -5.985   0.949  0.00  0.00     0.010 A 
ATOM      9  C   UNL d   1      -3.563  -4.796   0.877  0.00  0.00     0.030 A 
BRANCH   7  10
ATOM     10  C   UNL d   1      -6.243  -7.496   0.211  0.00  0.00    -0.024 C 
ATOM     11  C   UNL d   1      -5.646  -8.538   1.185  0.00  0.00     0.019 C 
ATOM     12  C   UNL d   1      -7.688  -7.206   0.669  0.00  0.00     0.019 C 
ATOM     13  C   UNL d   1      -6.278  -8.146  -1.188  0.00  0.00     0.019 C 
ENDBRANCH   7  10
ENDBRANCH   2   4
BRANCH   1  14
ATOM     14  C   UNL d   1      -2.000  -0.750   0.968  0.00  0.00     0.014 A 
ATOM     15  C   UNL d   1      -2.033   0.078  -0.160  0.00  0.00     0.077 A 
ATOM     16  C   UNL d   1      -1.403   1.317  -0.137  0.00  0.00     0.039 A 
ATOM     17  C   UNL d   1      -0.732   1.732   1.015  0.00  0.00     0.026 A 
ATOM     18  C   UNL d   1      -0.695   0.902   2.136  0.00  0.00     0.035 A 
ATOM     19  C   UNL d   1      -1.325  -0.340   2.121  0.00  0.00     0.039 A 
ATOM     20 CL   UNL d   1       0.130   1.418   3.555  0.00  0.00    -0.084 Cl
BRANCH  15  21
ATOM     21  O   UNL d   1      -2.679  -0.267  -1.316  0.00  0.00    -0.360 OA
ATOM     22  H   UNL d   1      -3.057  -1.167  -1.181  0.00  0.00     0.217 HD
ENDBRANCH  15  21
ENDBRANCH   1  14
TORSDOF 4
