REMARK  3 active torsions:
REMARK  status: ('A' for Active; 'I' for Inactive)
REMARK    1  A    between atoms: C_2  and  C_1 
REMARK       I    between atoms: N_8  and  C_2 
REMARK    2  A    between atoms: C_3  and  C_4 
REMARK    3  A    between atoms: C_14  and  N_8 
ROOT
ATOM      1  C   UNL d   1       1.043   0.048   0.135  0.00  0.00     0.113 C 
ATOM      2  C   UNL d   1       0.527   0.152   1.378  0.00  0.00     0.047 C 
ATOM      3  C   UNL d   1       0.275   0.014  -1.055  0.00  0.00     0.105 C 
ATOM      4  N   UNL d   1      -0.278  -0.004  -2.078  0.00  0.00    -0.191 NA
ENDROOT
BRANCH   1   5
ATOM      5  C   UNL d   1       2.551  -0.038   0.054  0.00  0.00     0.266 C 
ATOM      6  N   UNL d   1       3.103  -0.255  -1.203  0.00  0.00    -0.322 N 
ATOM      7  H   UNL d   1       2.506  -0.205  -2.023  0.00  0.00     0.169 HD
ATOM      8  O   UNL d   1       3.212   0.082   1.083  0.00  0.00    -0.267 OA
BRANCH   6   9
ATOM      9  C   UNL d   1       4.461  -0.587  -1.468  0.00  0.00     0.036 A 
ATOM     10  C   UNL d   1       5.377  -0.939  -0.469  0.00  0.00     0.056 A 
ATOM     11  C   UNL d   1       6.671  -1.356  -0.798  0.00  0.00     0.074 A 
ATOM     12 CL   UNL d   1       7.750  -1.832   0.458  0.00  0.00    -0.081 Cl
ATOM     13  C   UNL d   1       7.067  -1.408  -2.128  0.00  0.00     0.138 A 
ATOM     14  C   UNL d   1       6.186  -1.028  -3.135  0.00  0.00     0.046 A 
ATOM     15  F   UNL d   1       8.293  -1.835  -2.465  0.00  0.00    -0.204 F 
ATOM     16  C   UNL d   1       4.885  -0.623  -2.806  0.00  0.00     0.032 A 
ENDBRANCH   6   9
ENDBRANCH   1   5
BRANCH   2  17
ATOM     17  C   UNL d   1      -0.856   0.160   1.746  0.00  0.00     0.007 A 
ATOM     18  C   UNL d   1      -1.450   0.932   2.736  0.00  0.00     0.038 A 
ATOM     19  C   UNL d   1      -2.817   0.614   2.931  0.00  0.00     0.018 A 
ATOM     20 BR   UNL d   1      -3.881   1.503   4.208  0.00  0.00    -0.051 Br
ATOM     21  C   UNL d   1      -3.255  -0.400   2.120  0.00  0.00     0.069 A 
ATOM     22  S   UNL d   1      -1.996  -0.974   1.117  0.00  0.00    -0.101 SA
ENDBRANCH   2  17
TORSDOF 3
