REMARK  4 active torsions:
REMARK  status: ('A' for Active; 'I' for Inactive)
REMARK    1  A    between atoms: C_8  and  C_1 
REMARK    2  A    between atoms: N_2  and  C_9 
REMARK    3  A    between atoms: C_17  and  C_8 
REMARK    4  A    between atoms: C_11  and  N_10 
ROOT
ATOM      1  N   UNL d   1      -5.992   2.178  -1.465  0.00  0.00    -0.367 N 
ATOM      2  C   UNL d   1      -3.881   0.790  -0.030  0.00  0.00     0.064 C 
ATOM      3  C   UNL d   1      -5.596   2.689  -0.160  0.00  0.00     0.125 C 
ATOM      4  C   UNL d   1      -4.885   1.665  -2.276  0.00  0.00     0.125 C 
ATOM      5  C   UNL d   1      -4.106   0.572  -1.531  0.00  0.00     0.032 C 
ATOM      6  C   UNL d   1      -5.053   1.521   0.653  0.00  0.00     0.032 C 
ENDROOT
BRANCH   2   7
ATOM      7  C   UNL d   1      -2.529   1.418   0.377  0.00  0.00     0.164 C 
ATOM      8  O   UNL d   1      -2.513   2.499   0.975  0.00  0.00    -0.292 OA
BRANCH   7   9
ATOM      9  C   UNL d   1      -1.185   0.738   0.135  0.00  0.00     0.023 C 
ATOM     10  C   UNL d   1      -0.088   1.556  -0.273  0.00  0.00    -0.041 C 
ATOM     11  C   UNL d   1       1.232   1.022  -0.303  0.00  0.00    -0.049 C 
ATOM     12  C   UNL d   1      -0.279   3.023  -0.607  0.00  0.00     0.050 C 
ATOM     13  C   UNL d   1       2.444   1.902  -0.553  0.00  0.00     0.049 C 
ATOM     14  C   UNL d   1       1.446  -0.360  -0.074  0.00  0.00    -0.049 C 
ATOM     15  C   UNL d   1       0.350  -1.198   0.241  0.00  0.00    -0.049 C 
ATOM     16  C   UNL d   1       2.865  -0.899  -0.118  0.00  0.00     0.049 C 
ATOM     17  C   UNL d   1      -0.944  -0.630   0.451  0.00  0.00    -0.041 C 
ATOM     18  C   UNL d   1       0.594  -2.682   0.426  0.00  0.00     0.049 C 
ATOM     19  C   UNL d   1      -2.006  -1.508   1.067  0.00  0.00     0.050 C 
ENDBRANCH   7   9
ENDBRANCH   2   7
BRANCH   1  20
ATOM     20  C   UNL d   1      -7.119   2.627  -2.134  0.00  0.00     0.103 A 
ATOM     21  N   UNL d   1      -7.534   1.927  -3.217  0.00  0.00    -0.350 N 
ATOM     22  C   UNL d   1      -8.695   2.271  -3.838  0.00  0.00     0.125 A 
ATOM     23  HN  UNL d   1      -6.978   1.145  -3.566  1.00  0.00     0.166 HD
ATOM     24  C   UNL d   1      -9.480   3.332  -3.431  0.00  0.00     0.118 A 
ATOM     25  C   UNL d   1      -9.061   4.085  -2.343  0.00  0.00     0.041 A 
ATOM     26  C   UNL d   1      -7.875   3.721  -1.696  0.00  0.00     0.051 A 
BRANCH  24  27
ATOM     27  N   UNL d   1     -10.718   3.638  -4.130  0.00  0.00    -0.114 N 
ATOM     28  O   UNL d   1     -11.046   2.911  -5.075  0.00  0.00    -0.532 OA
ATOM     29  O   UNL d   1     -11.371   4.619  -3.736  0.00  0.00    -0.532 OA
ENDBRANCH  24  27
ENDBRANCH   1  20
TORSDOF 4
