REMARK  1 active torsions:
REMARK  status: ('A' for Active; 'I' for Inactive)
REMARK    1  A    between atoms: O_11  and  C_1 
ROOT
ATOM      1  C   UNL d   1      -0.792   1.142  -0.001  0.00  0.00     0.103 A 
ATOM      2  C   UNL d   1      -1.415  -0.118  -0.002  0.00  0.00     0.047 A 
ATOM      3  C   UNL d   1       0.625   1.167   0.000  0.00  0.00     0.047 A 
ATOM      4  N   UNL d   1       2.134  -3.435   0.004  0.00  0.00    -0.191 NA
ATOM      5  C   UNL d   1       1.522  -2.449   0.002  0.00  0.00     0.099 C 
ATOM      6  C   UNL d   1       0.757  -1.238   0.000  0.00  0.00     0.047 A 
ATOM      7  C   UNL d   1      -0.637  -1.292  -0.001  0.00  0.00     0.044 A 
ATOM      8  C   UNL d   1       1.392  -0.003   0.000  0.00  0.00     0.044 A 
ATOM      9 BR   UNL d   1       1.597   2.812   0.002  0.00  0.00    -0.048 Br
ATOM     10 BR   UNL d   1      -3.286  -0.469  -0.007  0.00  0.00    -0.048 Br
ENDROOT
BRANCH   1  11
ATOM     11  O   UNL d   1      -1.347   2.391  -0.001  0.00  0.00    -0.353 OA
ATOM     12  C   UNL d   1      -2.744   2.601  -0.003  0.00  0.00     0.210 C 
ENDBRANCH   1  11
TORSDOF 1
