REMARK  2 active torsions:
REMARK  status: ('A' for Active; 'I' for Inactive)
REMARK    1  A    between atoms: C_3  and  C_6 
REMARK    2  A    between atoms: C_14  and  C_5 
ROOT
ATOM      1  C   UNL d   1      -2.066   0.340   0.052  0.00  0.00    -0.006 C 
ATOM      2  C   UNL d   1      -1.087  -0.791   0.018  0.00  0.00     0.189 C 
ATOM      3  C   UNL d   1       0.358  -0.411   0.017  0.00  0.00     0.021 A 
ATOM      4  C   UNL d   1      -3.273   0.132  -0.500  0.00  0.00     0.022 C 
ATOM      5  C   UNL d   1       0.748   0.940  -0.027  0.00  0.00    -0.044 A 
ATOM      6  C   UNL d   1      -1.555   1.609   0.666  0.00  0.00     0.047 C 
ATOM      7  O   UNL d   1      -1.439  -1.964  -0.031  0.00  0.00    -0.287 OA
ATOM      8  C   UNL d   1      -0.279   2.043  -0.046  0.00  0.00     0.044 C 
ATOM      9  C   UNL d   1       1.328  -1.422   0.024  0.00  0.00     0.016 A 
ATOM     10  C   UNL d   1       2.111   1.258  -0.100  0.00  0.00     0.008 A 
ATOM     11  C   UNL d   1       2.682  -1.090  -0.027  0.00  0.00     0.001 A 
ATOM     12  C   UNL d   1       3.072   0.247  -0.096  0.00  0.00     0.001 A 
ENDROOT
BRANCH   4  13
ATOM     13  C   UNL d   1      -4.300   1.164  -0.647  0.00  0.00    -0.036 A 
ATOM     14  C   UNL d   1      -4.324   1.958  -1.798  0.00  0.00     0.012 A 
ATOM     15  C   UNL d   1      -5.316   2.927  -1.967  0.00  0.00     0.017 A 
ATOM     16  C   UNL d   1      -6.300   3.116  -0.985  0.00  0.00     0.048 A 
ATOM     17  C   UNL d   1      -6.254   2.331   0.179  0.00  0.00     0.017 A 
ATOM     18  C   UNL d   1      -5.260   1.362   0.348  0.00  0.00     0.012 A 
BRANCH  16  19
ATOM     19  C   UNL d   1      -7.405   4.127  -1.174  0.00  0.00     0.417 C 
ATOM     20  F   UNL d   1      -7.324   4.811  -2.349  0.00  0.00    -0.166 F 
ATOM     21  F   UNL d   1      -8.641   3.554  -1.162  0.00  0.00    -0.166 F 
ATOM     22  F   UNL d   1      -7.422   5.072  -0.193  0.00  0.00    -0.166 F 
ENDBRANCH  16  19
ENDBRANCH   4  13
TORSDOF 2
