REMARK  5 active torsions:
REMARK  status: ('A' for Active; 'I' for Inactive)
REMARK    1  A    between atoms: N_2  and  C_1 
REMARK    2  A    between atoms: N_8  and  C_1 
REMARK    3  A    between atoms: C_3  and  N_2 
REMARK    4  A    between atoms: C_13  and  N_8 
REMARK    5  A    between atoms: C_14  and  C_13 
ROOT
ATOM      1  N   UNL d   1       0.431  -1.261  -0.052  0.00  0.00    -0.331 N 
ATOM      2  H   UNL d   1       0.758  -1.883   0.682  0.00  0.00     0.168 HD
ENDROOT
BRANCH   1   3
ATOM      3  C   UNL d   1       0.990  -0.011  -0.002  0.00  0.00     0.172 C 
ATOM      4  S   UNL d   1       0.184   1.451  -0.010  0.00  0.00    -0.041 SA
BRANCH   3   5
ATOM      5  N   UNL d   1       2.351   0.007   0.146  0.00  0.00    -0.367 N 
ATOM      6  H   UNL d   1       2.718   0.948   0.240  0.00  0.00     0.161 HD
BRANCH   5   7
ATOM      7  C   UNL d   1       3.267  -0.968  -0.429  0.00  0.00     0.121 C 
BRANCH   7   8
ATOM      8  C   UNL d   1       3.568  -0.673  -1.903  0.00  0.00     0.015 C 
ATOM      9  C   UNL d   1       4.272   0.663  -2.108  0.00  0.00     0.006 C 
ENDBRANCH   7   8
ENDBRANCH   5   7
ENDBRANCH   3   5
ENDBRANCH   1   3
BRANCH   1  10
ATOM     10  C   UNL d   1      -0.765  -1.652  -0.689  0.00  0.00     0.073 A 
ATOM     11  C   UNL d   1      -1.500  -2.714  -0.151  0.00  0.00     0.145 A 
ATOM     12  C   UNL d   1      -2.646  -3.194  -0.780  0.00  0.00     0.086 A 
ATOM     13  F   UNL d   1      -1.108  -3.279   1.002  0.00  0.00    -0.204 F 
ATOM     14  C   UNL d   1      -3.041  -2.626  -1.984  0.00  0.00     0.119 A 
ATOM     15  C   UNL d   1      -2.315  -1.576  -2.547  0.00  0.00     0.044 A 
ATOM     16  F   UNL d   1      -4.124  -3.090  -2.615  0.00  0.00    -0.206 F 
ATOM     17  C   UNL d   1      -1.178  -1.083  -1.899  0.00  0.00     0.036 A 
ENDBRANCH   1  10
TORSDOF 5
