REMARK  3 active torsions:
REMARK  status: ('A' for Active; 'I' for Inactive)
REMARK    1  A    between atoms: N_3  and  C_1 
REMARK    2  A    between atoms: N_2  and  C_4 
REMARK    3  A    between atoms: C_6  and  C_9 
ROOT
ATOM      1  C   UNL d   1       1.398  -0.250  -0.822  0.00  0.00     0.130 A 
ATOM      2  C   UNL d   1       0.630  -1.266  -0.224  0.00  0.00     0.064 A 
ATOM      3  C   UNL d   1       1.052   1.116  -0.724  0.00  0.00     0.054 A 
ATOM      4  C   UNL d   1      -0.104   1.503  -0.037  0.00  0.00     0.050 A 
ATOM      5  C   UNL d   1      -0.569  -0.842   0.386  0.00  0.00     0.032 A 
ATOM      6  C   UNL d   1      -0.933   0.508   0.483  0.00  0.00     0.018 A 
ENDROOT
BRANCH   2   7
ATOM      7  N   UNL d   1       1.056  -2.578  -0.069  0.00  0.00    -0.373 N 
ATOM      8  C   UNL d   1       0.492  -3.341   1.071  0.00  0.00     0.086 C 
ATOM      9  C   UNL d   1      -0.349  -4.357   0.253  0.00  0.00     0.036 C 
ATOM     10  C   UNL d   1       0.896  -4.160   2.301  0.00  0.00     0.034 C 
ATOM     11  C   UNL d   1       0.752  -4.902  -0.631  0.00  0.00    -0.025 C 
ATOM     12  C   UNL d   1       1.264  -3.525  -1.206  0.00  0.00     0.132 C 
ATOM     13  C   UNL d   1       1.798  -5.642   0.291  0.00  0.00     0.019 C 
ATOM     14  C   UNL d   1       0.257  -5.824  -1.739  0.00  0.00     0.017 C 
ATOM     15  C   UNL d   1       1.595  -5.510   1.868  0.00  0.00    -0.045 C 
ATOM     16  C   UNL d   1       2.986  -5.588   2.536  0.00  0.00     0.015 C 
ATOM     17  C   UNL d   1       0.769  -6.692   2.412  0.00  0.00     0.015 C 
ENDBRANCH   2   7
BRANCH   1  18
ATOM     18  N   UNL d   1       2.667  -0.543  -1.454  0.00  0.00    -0.113 N 
ATOM     19  O   UNL d   1       2.642  -1.184  -2.517  0.00  0.00    -0.532 OA
ATOM     20  O   UNL d   1       3.684  -0.052  -0.940  0.00  0.00    -0.532 OA
ENDBRANCH   1  18
BRANCH   4  21
ATOM     21  C   UNL d   1      -0.447   2.954   0.201  0.00  0.00     0.417 C 
ATOM     22  F   UNL d   1       0.468   3.818  -0.314  0.00  0.00    -0.166 F 
ATOM     23  F   UNL d   1      -1.644   3.301  -0.341  0.00  0.00    -0.166 F 
ATOM     24  F   UNL d   1      -0.537   3.249   1.527  0.00  0.00    -0.166 F 
ENDBRANCH   4  21
TORSDOF 3
