REMARK  6 active torsions:
REMARK  status: ('A' for Active; 'I' for Inactive)
REMARK    1  A    between atoms: C_8  and  N_1 
REMARK    2  A    between atoms: C_9  and  C_2 
REMARK    3  A    between atoms: S_14  and  C_3 
REMARK    4  A    between atoms: C_13  and  C_9 
REMARK    5  A    between atoms: O_22  and  C_10 
REMARK    6  A    between atoms: O_24  and  C_11 
ROOT
ATOM      1  N   UNL d   1      -0.243  -0.939   0.948  0.00  0.00    -0.279 N 
ATOM      2  C   UNL d   1       0.840  -0.784   0.073  0.00  0.00     0.109 A 
ATOM      3  C   UNL d   1      -1.263  -0.223   0.324  0.00  0.00     0.164 A 
ATOM      4  N   UNL d   1       0.468  -0.043  -0.955  0.00  0.00    -0.286 N 
ATOM      5  HN  UNL d   1       1.064   0.229  -1.737  1.00  0.00     0.188 HD
ATOM      6  N   UNL d   1      -0.838   0.298  -0.802  0.00  0.00    -0.278 N 
ATOM      7  HN  UNL d   1      -1.391   0.860  -1.449  1.00  0.00     0.189 HD
ENDROOT
BRANCH   2   8
ATOM      8  C   UNL d   1       2.224  -1.345   0.171  0.00  0.00     0.117 C 
BRANCH   8   9
ATOM      9  C   UNL d   1       2.365  -2.826  -0.084  0.00  0.00    -0.048 A 
ATOM     10  C   UNL d   1       2.509  -3.725   0.986  0.00  0.00     0.047 A 
ATOM     11  C   UNL d   1       2.754  -5.092   0.784  0.00  0.00     0.102 A 
ATOM     12  C   UNL d   1       2.843  -5.583  -0.525  0.00  0.00     0.101 A 
ATOM     13  C   UNL d   1       2.675  -4.693  -1.597  0.00  0.00     0.040 A 
ATOM     14  C   UNL d   1       2.434  -3.330  -1.385  0.00  0.00     0.010 A 
BRANCH  11  15
ATOM     15  O   UNL d   1       2.882  -5.963   1.837  0.00  0.00    -0.353 OA
ATOM     16  C   UNL d   1       3.269  -5.416   3.090  0.00  0.00     0.210 C 
ENDBRANCH  11  15
BRANCH  12  17
ATOM     17  O   UNL d   1       3.095  -6.869  -0.942  0.00  0.00    -0.353 OA
ATOM     18  C   UNL d   1       3.458  -7.836   0.031  0.00  0.00     0.210 C 
ENDBRANCH  12  17
ENDBRANCH   8   9
ENDBRANCH   2   8
BRANCH   1  19
ATOM     19  C   UNL d   1      -0.298  -1.637   2.194  0.00  0.00     0.043 A 
ATOM     20  C   UNL d   1       0.780  -1.602   3.088  0.00  0.00     0.032 A 
ATOM     21  C   UNL d   1       0.714  -2.286   4.309  0.00  0.00     0.026 A 
ATOM     22  C   UNL d   1      -0.443  -2.972   4.664  0.00  0.00     0.034 A 
ATOM     23  C   UNL d   1      -1.531  -2.997   3.798  0.00  0.00     0.026 A 
ATOM     24 CL   UNL d   1      -0.528  -3.785   6.175  0.00  0.00    -0.084 Cl
ATOM     25  C   UNL d   1      -1.451  -2.351   2.559  0.00  0.00     0.032 A 
ENDBRANCH   1  19
BRANCH   3  26
ATOM     26  S   UNL d   1      -2.834   0.163   0.962  0.00  0.00    -0.105 SA
ATOM     27  H   UNL d   1      -2.645  -0.118   2.256  0.00  0.00     0.110 HD
ENDBRANCH   3  26
TORSDOF 6
