REMARK  5 active torsions:
REMARK  status: ('A' for Active; 'I' for Inactive)
REMARK    1  A    between atoms: C_2  and  C_1 
REMARK    2  A    between atoms: O_6  and  C_1 
REMARK    3  A    between atoms: C_5  and  C_2 
REMARK    4  A    between atoms: C_4  and  O_12 
REMARK    5  A    between atoms: O_12  and  C_5 
ROOT
ATOM      1  C   UNL d   1       1.104   3.746   3.325  0.00  0.00     0.068 A 
ATOM      2  C   UNL d   1       2.645   5.751   4.567  0.00  0.00    -0.062 A 
ATOM      3  C   UNL d   1       0.803   4.170   4.621  0.00  0.00     0.037 A 
ATOM      4  C   UNL d   1       2.182   4.328   2.655  0.00  0.00     0.037 A 
ATOM      5  C   UNL d   1       1.568   5.165   5.237  0.00  0.00     0.009 A 
ATOM      6  C   UNL d   1       2.950   5.325   3.271  0.00  0.00     0.009 A 
ATOM      7  C   UNL d   1       3.449   6.817   5.249  0.00  0.00     0.048 C 
ENDROOT
BRANCH   1   8
ATOM      8  O   UNL d   1       0.422   2.784   2.623  0.00  0.00    -0.351 OA
BRANCH   8   9
ATOM      9  C   UNL d   1      -0.707   2.217   3.293  0.00  0.00     0.186 C 
BRANCH   9  10
ATOM     10  C   UNL d   1      -1.369   1.190   2.389  0.00  0.00     0.136 C 
BRANCH  10  11
ATOM     11  C   UNL d   1      -2.565   0.595   3.084  0.00  0.00     0.141 C 
ATOM     12  O   UNL d   1      -2.947   0.892   4.205  0.00  0.00    -0.650 OA
BRANCH  11  13
ATOM     13  O   UNL d   1      -3.200  -0.330   2.329  0.00  0.00    -0.776 OA
ATOM     14  H   UNL d   1      -2.794  -0.475   1.454  0.00  0.00     0.167 HD
ENDBRANCH  11  13
ENDBRANCH  10  11
ENDBRANCH   9  10
ENDBRANCH   8   9
ENDBRANCH   1   8
TORSDOF 5
