REMARK  6 active torsions:
REMARK  status: ('A' for Active; 'I' for Inactive)
REMARK    1  A    between atoms: S_8  and  C_2 
REMARK    2  A    between atoms: S_9  and  C_3 
REMARK    3  A    between atoms: C_10  and  S_8 
REMARK    4  A    between atoms: C_11  and  S_9 
REMARK    5  A    between atoms: C_14  and  C_10 
REMARK    6  A    between atoms: C_15  and  C_11 
ROOT
ATOM      1  S   UNL d   1       1.152   0.001   0.038  0.00  0.00    -0.038 SA
ATOM      2  C   UNL d   1      -0.092   1.184   0.036  0.00  0.00     0.129 A 
ATOM      3  C   UNL d   1      -0.081  -1.193  -0.012  0.00  0.00     0.129 A 
ATOM      4  N   UNL d   1      -1.309   0.684  -0.005  0.00  0.00    -0.287 N 
ATOM      5  HN  UNL d   1      -2.157   1.250  -0.013  1.00  0.00     0.188 HD
ATOM      6  N   UNL d   1      -1.302  -0.703  -0.038  0.00  0.00    -0.287 N 
ATOM      7  HN  UNL d   1      -2.146  -1.275  -0.077  1.00  0.00     0.188 HD
ENDROOT
BRANCH   2   8
ATOM      8  S   UNL d   1       0.233   2.907   0.062  0.00  0.00    -0.099 SA
BRANCH   8   9
ATOM      9  C   UNL d   1      -1.291   3.535   0.825  0.00  0.00     0.120 C 
BRANCH   9  10
ATOM     10  C   UNL d   1      -1.288   5.044   0.967  0.00  0.00    -0.048 A 
ATOM     11  C   UNL d   1      -1.868   5.857  -0.019  0.00  0.00     0.009 A 
ATOM     12  C   UNL d   1      -1.891   7.250   0.126  0.00  0.00     0.024 A 
ATOM     13  C   UNL d   1      -1.326   7.837   1.255  0.00  0.00     0.034 A 
ATOM     14  C   UNL d   1      -0.737   7.048   2.238  0.00  0.00     0.024 A 
ATOM     15 CL   UNL d   1      -1.363   9.549   1.440  0.00  0.00    -0.084 Cl
ATOM     16  C   UNL d   1      -0.715   5.655   2.094  0.00  0.00     0.009 A 
ENDBRANCH   9  10
ENDBRANCH   8   9
ENDBRANCH   2   8
BRANCH   3  17
ATOM     17  S   UNL d   1       0.260  -2.913   0.013  0.00  0.00    -0.099 SA
BRANCH  17  18
ATOM     18  C   UNL d   1      -1.217  -3.577  -0.808  0.00  0.00     0.120 C 
BRANCH  18  19
ATOM     19  C   UNL d   1      -1.247  -5.092  -0.806  0.00  0.00    -0.048 A 
ATOM     20  C   UNL d   1      -1.903  -5.789   0.223  0.00  0.00     0.009 A 
ATOM     21  C   UNL d   1      -1.961  -7.187   0.215  0.00  0.00     0.024 A 
ATOM     22  C   UNL d   1      -1.357  -7.900  -0.818  0.00  0.00     0.034 A 
ATOM     23  C   UNL d   1      -0.690  -7.227  -1.839  0.00  0.00     0.024 A 
ATOM     24 CL   UNL d   1      -1.438  -9.619  -0.833  0.00  0.00    -0.084 Cl
ATOM     25  C   UNL d   1      -0.632  -5.829  -1.832  0.00  0.00     0.009 A 
ENDBRANCH  18  19
ENDBRANCH  17  18
ENDBRANCH   3  17
TORSDOF 6
