REMARK  7 active torsions:
REMARK  status: ('A' for Active; 'I' for Inactive)
REMARK    1  A    between atoms: N_8  and  C_1 
REMARK    2  A    between atoms: N_5  and  C_2 
REMARK    3  A    between atoms: N_4  and  C_3 
REMARK    4  A    between atoms: C_6  and  C_16 
REMARK    5  A    between atoms: C_7  and  C_9 
REMARK    6  A    between atoms: N_13  and  N_8 
REMARK    7  A    between atoms: O_28  and  C_12 
ROOT
ATOM      1  C   UNL d   1       1.049  -2.529   0.154  0.00  0.00     0.114 A 
ATOM      2  C   UNL d   1       0.107  -3.350  -0.504  0.00  0.00     0.134 A 
ATOM      3  C   UNL d   1       0.499  -1.416   0.818  0.00  0.00     0.134 A 
ATOM      4  C   UNL d   1      -1.798  -2.045   0.284  0.00  0.00     0.052 A 
ATOM      5  C   UNL d   1      -0.890  -1.178   0.903  0.00  0.00     0.054 A 
ATOM      6  C   UNL d   1      -1.286  -3.127  -0.443  0.00  0.00     0.054 A 
ENDROOT
BRANCH   1   7
ATOM      7  N   UNL d   1       2.431  -2.796   0.048  0.00  0.00    -0.296 N 
ATOM      8  H   UNL d   1       2.694  -3.788   0.097  0.00  0.00     0.187 HD
BRANCH   7   9
ATOM      9  N   UNL d   1       3.326  -1.802   0.184  0.00  0.00    -0.304 N 
ATOM     10  C   UNL d   1       4.449  -2.041   0.806  0.00  0.00     0.035 C 
ATOM     11  C   UNL d   1       4.807  -3.374   1.429  0.00  0.00     0.070 C 
ATOM     12  HN  UNL d   1       3.131  -0.875  -0.193  1.00  0.00     0.186 HD
BRANCH  10  13
ATOM     13  C   UNL d   1       5.420  -0.908   0.922  0.00  0.00     0.024 A 
ATOM     14  C   UNL d   1       5.520   0.048  -0.105  0.00  0.00     0.099 A 
ATOM     15  C   UNL d   1       6.418   1.115   0.019  0.00  0.00     0.069 A 
ATOM     16 CL   UNL d   1       6.570   2.315  -1.214  0.00  0.00    -0.081 Cl
ATOM     17  C   UNL d   1       7.214   1.238   1.158  0.00  0.00     0.050 A 
ATOM     18  C   UNL d   1       7.105   0.294   2.175  0.00  0.00     0.036 A 
ATOM     19  C   UNL d   1       6.210  -0.771   2.071  0.00  0.00     0.040 A 
ATOM     20 CL   UNL d   1       8.088   0.441   3.580  0.00  0.00    -0.084 Cl
BRANCH  14  21
ATOM     21  O   UNL d   1       4.767  -0.046  -1.249  0.00  0.00    -0.358 OA
ATOM     22  H   UNL d   1       4.037  -0.681  -1.087  0.00  0.00     0.217 HD
ENDBRANCH  14  21
ENDBRANCH  10  13
ENDBRANCH   7   9
ENDBRANCH   1   7
BRANCH   2  23
ATOM     23  N   UNL d   1       0.559  -4.472  -1.318  0.00  0.00    -0.113 N 
ATOM     24  O   UNL d   1       1.438  -5.204  -0.835  0.00  0.00    -0.532 OA
ATOM     25  O   UNL d   1       0.020  -4.629  -2.419  0.00  0.00    -0.532 OA
ENDBRANCH   2  23
BRANCH   3  26
ATOM     26  N   UNL d   1       1.337  -0.485   1.556  0.00  0.00    -0.113 N 
ATOM     27  O   UNL d   1       1.869  -0.899   2.594  0.00  0.00    -0.532 OA
ATOM     28  O   UNL d   1       1.362   0.684   1.140  0.00  0.00    -0.532 OA
ENDBRANCH   3  26
BRANCH   4  29
ATOM     29  C   UNL d   1      -3.292  -1.839   0.396  0.00  0.00     0.417 C 
ATOM     30  F   UNL d   1      -3.631  -0.761   1.153  0.00  0.00    -0.166 F 
ATOM     31  F   UNL d   1      -3.881  -1.657  -0.815  0.00  0.00    -0.166 F 
ATOM     32  F   UNL d   1      -3.909  -2.909   0.964  0.00  0.00    -0.166 F 
ENDBRANCH   4  29
TORSDOF 7
