REMARK  7 active torsions:
REMARK  status: ('A' for Active; 'I' for Inactive)
REMARK    1  A    between atoms: C_10  and  N_1 
REMARK    2  A    between atoms: C_13  and  C_5 
REMARK    3  A    between atoms: C_8  and  C_10 
REMARK    4  A    between atoms: C_19  and  C_11 
REMARK    5  A    between atoms: C_17  and  C_13 
REMARK    6  A    between atoms: O_27  and  C_17 
REMARK    7  A    between atoms: C_30  and  O_27 
ROOT
ATOM      1  N   UNL d   1       3.624  -7.046   8.172  0.00  0.00    -0.191 NA
ATOM      2  C   UNL d   1       3.845  -6.280   7.328  0.00  0.00     0.099 C 
ATOM      3  C   UNL d   1       4.617  -3.420   4.271  0.00  0.00    -0.009 A 
ATOM      4  C   UNL d   1       3.866  -4.578   4.005  0.00  0.00     0.015 A 
ATOM      5  C   UNL d   1       5.134  -3.246   5.564  0.00  0.00     0.015 A 
ATOM      6  C   UNL d   1       4.121  -5.329   6.292  0.00  0.00     0.044 A 
ATOM      7  C   UNL d   1       4.886  -4.192   6.568  0.00  0.00     0.023 A 
ATOM      8  C   UNL d   1       3.618  -5.524   5.005  0.00  0.00     0.023 A 
ENDROOT
BRANCH   3   9
ATOM      9  C   UNL d   1       4.788  -2.422   3.214  0.00  0.00     0.049 A 
ATOM     10  N   UNL d   1       4.115  -2.554   2.008  0.00  0.00    -0.351 N 
ATOM     11  C   UNL d   1       4.326  -1.506   1.236  0.00  0.00     0.071 A 
ATOM     12  HN  UNL d   1       3.536  -3.353   1.752  1.00  0.00     0.166 HD
ATOM     13  S   UNL d   1       5.419  -0.343   1.879  0.00  0.00    -0.085 SA
ATOM     14  C   UNL d   1       5.569  -1.287   3.304  0.00  0.00     0.081 A 
BRANCH  11  15
ATOM     15  C   UNL d   1       3.720  -1.309  -0.121  0.00  0.00     0.217 C 
BRANCH  15  16
ATOM     16  N   UNL d   1       2.416  -0.655  -0.018  0.00  0.00    -0.251 N 
ATOM     17  N   UNL d   1       2.419   0.721  -0.004  0.00  0.00    -0.298 N 
ATOM     18  C   UNL d   1       1.290   1.360   0.026  0.00  0.00     0.046 A 
ATOM     19  HN  UNL d   1       3.300   1.234  -0.016  1.00  0.00     0.187 HD
ATOM     20  C   UNL d   1      -0.028   0.678   0.003  0.00  0.00     0.004 A 
ATOM     21  C   UNL d   1      -0.018  -0.713   0.046  0.00  0.00     0.046 A 
ATOM     22  C   UNL d   1      -1.252   1.355  -0.078  0.00  0.00     0.014 A 
ATOM     23  C   UNL d   1       1.266  -1.435   0.041  0.00  0.00     0.273 A 
ATOM     24  C   UNL d   1      -1.225  -1.429   0.041  0.00  0.00     0.018 A 
ATOM     25  O   UNL d   1       1.261  -2.664   0.036  0.00  0.00    -0.266 OA
ATOM     26  C   UNL d   1      -2.440  -0.750  -0.021  0.00  0.00     0.001 A 
ATOM     27  C   UNL d   1      -2.454   0.639  -0.083  0.00  0.00     0.001 A 
BRANCH  18  28
ATOM     28  C   UNL d   1       1.367   2.872   0.036  0.00  0.00     0.170 C 
BRANCH  28  29
ATOM     29  C   UNL d   1       0.753   3.528   1.240  0.00  0.00     0.264 C 
ATOM     30  O   UNL d   1       0.244   2.945   2.185  0.00  0.00    -0.265 OA
BRANCH  29  31
ATOM     31  O   UNL d   1       0.742   4.878   1.051  0.00  0.00    -0.322 OA
BRANCH  31  32
ATOM     32  C   UNL d   1      -0.175   5.611   1.876  0.00  0.00     0.174 C 
ATOM     33  C   UNL d   1      -1.480   5.741   1.111  0.00  0.00     0.034 C 
ENDBRANCH  31  32
ENDBRANCH  29  31
ENDBRANCH  28  29
ENDBRANCH  18  28
ENDBRANCH  15  16
ENDBRANCH  11  15
ENDBRANCH   3   9
TORSDOF 7
