REMARK  4 active torsions:
REMARK  status: ('A' for Active; 'I' for Inactive)
REMARK    1  A    between atoms: N_2  and  C_1 
REMARK    2  A    between atoms: N_4  and  C_1 
REMARK    3  A    between atoms: C_3  and  N_2 
REMARK    4  A    between atoms: C_11  and  N_4 
ROOT
ATOM      1  C   UNL d   1       1.175  -0.056  -0.058  0.00  0.00     0.172 C 
ATOM      2  S   UNL d   1       2.791  -0.116  -0.471  0.00  0.00    -0.041 SA
ENDROOT
BRANCH   1   3
ATOM      3  N   UNL d   1       0.591   0.459   1.099  0.00  0.00    -0.333 N 
ATOM      4  H   UNL d   1      -0.417   0.449   1.074  0.00  0.00     0.168 HD
BRANCH   3   5
ATOM      5  C   UNL d   1       1.109   0.982   2.309  0.00  0.00     0.035 A 
ATOM      6  C   UNL d   1       2.453   1.224   2.586  0.00  0.00     0.036 A 
ATOM      7  C   UNL d   1       2.865   1.685   3.847  0.00  0.00    -0.059 A 
ATOM      8  C   UNL d   1       4.324   1.886   4.139  0.00  0.00     0.048 C 
ATOM      9  C   UNL d   1       1.914   1.895   4.849  0.00  0.00     0.013 A 
ATOM     10  C   UNL d   1       0.556   1.692   4.590  0.00  0.00    -0.059 A 
ATOM     11  C   UNL d   1       0.167   1.244   3.318  0.00  0.00     0.036 A 
ATOM     12  C   UNL d   1      -0.452   1.890   5.682  0.00  0.00     0.048 C 
ENDBRANCH   3   5
ENDBRANCH   1   3
BRANCH   1  13
ATOM     13  N   UNL d   1       0.162  -0.536  -0.891  0.00  0.00    -0.362 N 
ATOM     14  H   UNL d   1      -0.720  -0.732  -0.442  0.00  0.00     0.162 HD
BRANCH  13  15
ATOM     15  C   UNL d   1       0.311  -1.137  -2.227  0.00  0.00     0.083 C 
ATOM     16  C   UNL d   1      -0.851  -0.693  -3.126  0.00  0.00     0.025 C 
ATOM     17  C   UNL d   1      -2.175  -1.357  -2.758  0.00  0.00     0.002 C 
ATOM     18  C   UNL d   1      -2.048  -2.877  -2.727  0.00  0.00     0.000 C 
ATOM     19  C   UNL d   1      -0.927  -3.331  -1.796  0.00  0.00     0.002 C 
ATOM     20  C   UNL d   1       0.406  -2.668  -2.143  0.00  0.00     0.025 C 
ENDBRANCH  13  15
ENDBRANCH   1  13
TORSDOF 4
