REMARK  5 active torsions:
REMARK  status: ('A' for Active; 'I' for Inactive)
REMARK    1  A    between atoms: N_9  and  C_3 
REMARK    2  A    between atoms: N_10  and  C_4 
REMARK    3  A    between atoms: C_5  and  C_11 
REMARK       I    between atoms: C_6  and  N_8 
REMARK    4  A    between atoms: C_12  and  C_6 
REMARK    5  A    between atoms: N_8  and  C_7 
ROOT
ATOM      1  N   UNL d   1      -1.195   0.071  -0.173  0.00  0.00    -0.331 N 
ATOM      2  HN  UNL d   1      -2.134   0.100  -0.571  1.00  0.00     0.168 HD
ATOM      3  C   UNL d   1      -0.495   1.219   0.024  0.00  0.00     0.111 A 
ATOM      4  C   UNL d   1      -0.631  -1.115   0.166  0.00  0.00     0.104 A 
ATOM      5  C   UNL d   1       0.838   1.196   0.499  0.00  0.00     0.074 A 
ATOM      6  C   UNL d   1       0.653  -1.164   0.723  0.00  0.00     0.051 A 
ATOM      7  C   UNL d   1       1.390  -0.004   0.893  0.00  0.00     0.037 A 
ENDROOT
BRANCH   5   8
ATOM      8  N   UNL d   1       1.600   2.390   0.445  0.00  0.00    -0.320 N 
ATOM      9  C   UNL d   1       2.710   2.672   1.204  0.00  0.00     0.256 C 
ATOM     10  O   UNL d   1       3.153   2.011   2.133  0.00  0.00    -0.267 OA
ATOM     11  H   UNL d   1       1.172   3.121  -0.112  0.00  0.00     0.169 HD
BRANCH   9  12
ATOM     12  C   UNL d   1       3.364   3.954   0.871  0.00  0.00     0.033 A 
ATOM     13  C   UNL d   1       3.793   4.206  -0.437  0.00  0.00     0.033 A 
ATOM     14  C   UNL d   1       4.505   5.380  -0.725  0.00  0.00     0.048 A 
ATOM     15  C   UNL d   1       4.752   6.298   0.312  0.00  0.00     0.016 A 
ATOM     16  C   UNL d   1       4.306   6.046   1.612  0.00  0.00     0.002 A 
ATOM     17  C   UNL d   1       3.621   4.867   1.896  0.00  0.00     0.017 A 
BRANCH  14  18
ATOM     18  C   UNL d   1       5.060   5.635  -2.105  0.00  0.00     0.417 C 
ATOM     19  F   UNL d   1       4.566   4.786  -3.049  0.00  0.00    -0.166 F 
ATOM     20  F   UNL d   1       4.789   6.891  -2.555  0.00  0.00    -0.166 F 
ATOM     21  F   UNL d   1       6.413   5.502  -2.151  0.00  0.00    -0.166 F 
ENDBRANCH  14  18
ENDBRANCH   9  12
ENDBRANCH   5   8
BRANCH   3  22
ATOM     22  N   UNL d   1      -1.065   2.482  -0.272  0.00  0.00    -0.263 NA
ATOM     23  C   UNL d   1      -2.311   2.443  -1.063  0.00  0.00     0.123 C 
ATOM     24  C   UNL d   1      -2.661   3.890  -1.475  0.00  0.00     0.182 C 
ATOM     25  O   UNL d   1      -2.788   4.767  -0.337  0.00  0.00    -0.389 OA
ATOM     26  C   UNL d   1      -1.592   4.750   0.459  0.00  0.00     0.182 C 
ATOM     27  C   UNL d   1      -1.271   3.325   0.937  0.00  0.00     0.123 C 
ENDBRANCH   3  22
BRANCH   4  28
ATOM     28  N   UNL d   1      -1.250  -2.321  -0.153  0.00  0.00    -0.363 N 
ATOM     29  C   UNL d   1      -2.427  -2.284  -1.028  0.00  0.00     0.150 C 
ATOM     30  C   UNL d   1      -2.598  -3.683  -1.656  0.00  0.00     0.187 C 
ATOM     31  O   UNL d   1      -2.708  -4.713  -0.656  0.00  0.00    -0.388 OA
ATOM     32  C   UNL d   1      -1.544  -4.720   0.189  0.00  0.00     0.187 C 
ATOM     33  C   UNL d   1      -1.351  -3.362   0.884  0.00  0.00     0.150 C 
ENDBRANCH   4  28
TORSDOF 5
