REMARK  4 active torsions:
REMARK  status: ('A' for Active; 'I' for Inactive)
REMARK    1  A    between atoms: S_11  and  C_6 
REMARK    2  A    between atoms: C_15  and  S_11 
REMARK    3  A    between atoms: C_13  and  C_15 
REMARK    4  A    between atoms: O_17  and  C_13 
ROOT
ATOM      1  C   UNL d   1       1.174   0.592  -0.002  0.00  0.00     0.089 A 
ATOM      2  C   UNL d   1       0.610  -0.678   0.070  0.00  0.00     0.039 A 
ATOM      3  S   UNL d   1       0.031   1.850  -0.035  0.00  0.00    -0.075 SA
ATOM      4  C   UNL d   1      -0.847  -0.572   0.039  0.00  0.00    -0.029 A 
ATOM      5  C   UNL d   1      -1.259   0.753   0.028  0.00  0.00    -0.008 A 
ATOM      6  C   UNL d   1       1.556  -1.720   0.148  0.00  0.00     0.084 A 
ATOM      7  N   UNL d   1       2.479   0.902  -0.035  0.00  0.00    -0.346 N 
ATOM      8  HN  UNL d   1       2.831   1.858  -0.090  1.00  0.00     0.167 HD
ATOM      9  N   UNL d   1       2.880  -1.446   0.097  0.00  0.00    -0.346 N 
ATOM     10  HN  UNL d   1       3.569  -2.197   0.122  1.00  0.00     0.167 HD
ATOM     11  C   UNL d   1       3.265  -0.171   0.013  0.00  0.00     0.182 A 
ATOM     12  C   UNL d   1      -1.861  -1.686   0.057  0.00  0.00     0.040 C 
ATOM     13  C   UNL d   1      -2.676   1.237   0.031  0.00  0.00     0.047 C 
ATOM     14  C   UNL d   1      -3.290  -1.195  -0.256  0.00  0.00     0.005 C 
ATOM     15  C   UNL d   1      -3.621   0.114   0.469  0.00  0.00     0.005 C 
ENDROOT
BRANCH   6  16
ATOM     16  S   UNL d   1       1.081  -3.419   0.302  0.00  0.00    -0.101 SA
BRANCH  16  17
ATOM     17  C   UNL d   1       2.672  -4.165   0.812  0.00  0.00     0.191 C 
BRANCH  17  18
ATOM     18  C   UNL d   1       3.093  -3.765   2.217  0.00  0.00     0.268 C 
ATOM     19  O   UNL d   1       2.455  -3.090   3.012  0.00  0.00    -0.264 OA
BRANCH  18  20
ATOM     20  O   UNL d   1       4.310  -4.333   2.491  0.00  0.00    -0.326 OA
ATOM     21  C   UNL d   1       4.790  -4.083   3.814  0.00  0.00     0.213 C 
ENDBRANCH  18  20
ENDBRANCH  17  18
ENDBRANCH  16  17
ENDBRANCH   6  16
TORSDOF 4
