REMARK  7 active torsions:
REMARK  status: ('A' for Active; 'I' for Inactive)
REMARK       I    between atoms: N_2  and  C_1 
REMARK    1  A    between atoms: O_3  and  C_1 
REMARK    2  A    between atoms: C_5  and  O_3 
REMARK    3  A    between atoms: C_4  and  C_7 
REMARK    4  A    between atoms: C_6  and  C_5 
REMARK    5  A    between atoms: O_16  and  C_7 
REMARK    6  A    between atoms: O_18  and  C_12 
REMARK    7  A    between atoms: O_17  and  C_13 
ROOT
ATOM      1  C   UNL d   1      -1.379   0.827   0.647  0.00  0.00     0.092 C 
ATOM      2  C   UNL d   1      -1.787  -0.347   1.566  0.00  0.00     0.052 C 
ATOM      3  C   UNL d   1      -1.641   2.108   1.473  0.00  0.00     0.052 C 
ENDROOT
BRANCH   1   4
ATOM      4  O   UNL d   1       0.064   0.830   0.423  0.00  0.00    -0.288 OA
BRANCH   4   5
ATOM      5  C   UNL d   1       0.653  -0.250  -0.143  0.00  0.00     0.364 C 
ATOM      6  N   UNL d   1       2.001  -0.048  -0.359  0.00  0.00    -0.313 N 
ATOM      7  C   UNL d   1       2.816   1.044   0.199  0.00  0.00     0.187 C 
ATOM      8  C   UNL d   1       2.818  -1.218  -0.641  0.00  0.00     0.129 C 
ATOM      9  C   UNL d   1       4.230   0.678  -0.272  0.00  0.00     0.038 C 
ATOM     10  C   UNL d   1       4.239  -0.840  -0.253  0.00  0.00     0.022 C 
ATOM     11  O   UNL d   1       0.076  -1.277  -0.473  0.00  0.00    -0.238 OA
BRANCH   7  12
ATOM     12  C   UNL d   1       2.542   2.483  -0.250  0.00  0.00     0.163 C 
ATOM     13  O   UNL d   1       3.139   3.454   0.198  0.00  0.00    -0.648 OA
BRANCH  12  14
ATOM     14  O   UNL d   1       1.628   2.607  -1.240  0.00  0.00    -0.775 OA
ATOM     15  H   UNL d   1       1.238   1.741  -1.484  0.00  0.00     0.167 HD
ENDBRANCH  12  14
ENDBRANCH   7  12
ENDBRANCH   4   5
ENDBRANCH   1   4
BRANCH   1  16
ATOM     16  C   UNL d   1      -2.107   0.913  -0.705  0.00  0.00    -0.019 A 
ATOM     17  C   UNL d   1      -2.979  -0.098  -1.164  0.00  0.00     0.047 A 
ATOM     18  C   UNL d   1      -3.583  -0.015  -2.424  0.00  0.00     0.071 A 
ATOM     19  C   UNL d   1      -3.329   1.085  -3.242  0.00  0.00     0.073 A 
ATOM     20  C   UNL d   1      -2.517   2.121  -2.797  0.00  0.00     0.071 A 
ATOM     21  C   UNL d   1      -1.889   2.018  -1.553  0.00  0.00     0.047 A 
BRANCH  18  22
ATOM     22  O   UNL d   1      -4.448  -0.918  -2.980  0.00  0.00    -0.356 OA
ATOM     23  C   UNL d   1      -4.758  -2.087  -2.238  0.00  0.00     0.210 C 
ENDBRANCH  18  22
BRANCH  20  24
ATOM     24  O   UNL d   1      -2.260   3.268  -3.500  0.00  0.00    -0.356 OA
ATOM     25  C   UNL d   1      -3.242   3.615  -4.475  0.00  0.00     0.210 C 
ENDBRANCH  20  24
ENDBRANCH   1  16
TORSDOF 7
