REMARK  5 active torsions:
REMARK  status: ('A' for Active; 'I' for Inactive)
REMARK    1  A    between atoms: C_4  and  N_1 
REMARK    2  A    between atoms: C_2  and  C_3 
REMARK    3  A    between atoms: S_8  and  C_14 
REMARK    4  A    between atoms: C_16  and  S_8 
REMARK    5  A    between atoms: C_15  and  C_16 
ROOT
ATOM      1  C   UNL d   1      -0.974  -4.752  -4.490  0.00  0.00     0.117 C 
ENDROOT
BRANCH   1   2
ATOM      2  C   UNL d   1      -1.510  -5.544  -5.659  0.00  0.00    -0.048 A 
ATOM      3  C   UNL d   1      -2.340  -6.657  -5.453  0.00  0.00     0.024 A 
ATOM      4  C   UNL d   1      -2.825  -7.410  -6.537  0.00  0.00     0.048 A 
ATOM      5  C   UNL d   1      -2.480  -7.023  -7.841  0.00  0.00     0.016 A 
ATOM      6  C   UNL d   1      -1.670  -5.909  -8.057  0.00  0.00     0.001 A 
ATOM      7  C   UNL d   1      -1.190  -5.173  -6.974  0.00  0.00     0.008 A 
BRANCH   4   8
ATOM      8  C   UNL d   1      -3.697  -8.623  -6.321  0.00  0.00     0.417 C 
ATOM      9  F   UNL d   1      -3.940  -8.894  -5.008  0.00  0.00    -0.166 F 
ATOM     10  F   UNL d   1      -4.919  -8.502  -6.910  0.00  0.00    -0.166 F 
ATOM     11  F   UNL d   1      -3.145  -9.757  -6.837  0.00  0.00    -0.166 F 
ENDBRANCH   4   8
ENDBRANCH   1   2
BRANCH   1  12
ATOM     12  S   UNL d   1      -2.087  -3.378  -4.039  0.00  0.00    -0.125 SA
BRANCH  12  13
ATOM     13  C   UNL d   1      -1.125  -2.575  -2.767  0.00  0.00     0.001 A 
ATOM     14  C   UNL d   1       0.166  -2.094  -3.018  0.00  0.00     0.021 A 
ATOM     15  C   UNL d   1       0.881  -1.420  -2.021  0.00  0.00     0.037 A 
ATOM     16  C   UNL d   1       0.294  -1.215  -0.767  0.00  0.00     0.102 A 
ATOM     17  C   UNL d   1      -1.000  -1.681  -0.507  0.00  0.00     0.037 A 
ATOM     18  C   UNL d   1      -1.705  -2.356  -1.510  0.00  0.00     0.021 A 
BRANCH  16  19
ATOM     19  N   UNL d   1       1.035  -0.492   0.276  0.00  0.00    -0.116 N 
ATOM     20  O   UNL d   1       0.471  -0.312   1.365  0.00  0.00    -0.532 OA
ATOM     21  O   UNL d   1       2.181  -0.105   0.004  0.00  0.00    -0.532 OA
ENDBRANCH  16  19
ENDBRANCH  12  13
ENDBRANCH   1  12
TORSDOF 5
