REMARK  8 active torsions:
REMARK  status: ('A' for Active; 'I' for Inactive)
REMARK    1  A    between atoms: N_2  and  C_1 
REMARK    2  A    between atoms: N_10  and  C_1 
REMARK    3  A    between atoms: C_3  and  N_2 
REMARK    4  A    between atoms: O_18  and  C_6 
REMARK    5  A    between atoms: O_20  and  C_8 
REMARK    6  A    between atoms: C_21  and  N_10 
REMARK    7  A    between atoms: C_15  and  C_22 
REMARK    8  A    between atoms: C_22  and  C_21 
ROOT
ATOM      1  N   UNL d   1       2.375   0.025   0.130  0.00  0.00    -0.367 N 
ATOM      2  H   UNL d   1       2.791  -0.538   0.864  0.00  0.00     0.161 HD
ENDROOT
BRANCH   1   3
ATOM      3  C   UNL d   1       1.006   0.063   0.188  0.00  0.00     0.172 C 
ATOM      4  S   UNL d   1       0.259  -0.938   1.299  0.00  0.00    -0.041 SA
BRANCH   3   5
ATOM      5  N   UNL d   1       0.380   0.908  -0.698  0.00  0.00    -0.331 N 
ATOM      6  H   UNL d   1       0.696   0.852  -1.657  0.00  0.00     0.168 HD
BRANCH   5   7
ATOM      7  C   UNL d   1      -0.796   1.671  -0.478  0.00  0.00     0.073 A 
ATOM      8  C   UNL d   1      -1.568   2.083  -1.574  0.00  0.00     0.145 A 
ATOM      9  C   UNL d   1      -2.650   2.945  -1.419  0.00  0.00     0.086 A 
ATOM     10  F   UNL d   1      -1.271   1.639  -2.805  0.00  0.00    -0.204 F 
ATOM     11  C   UNL d   1      -2.961   3.415  -0.144  0.00  0.00     0.119 A 
ATOM     12  C   UNL d   1      -2.226   3.007   0.961  0.00  0.00     0.044 A 
ATOM     13  F   UNL d   1      -3.966   4.283   0.016  0.00  0.00    -0.206 F 
ATOM     14  C   UNL d   1      -1.146   2.136   0.797  0.00  0.00     0.036 A 
ENDBRANCH   5   7
ENDBRANCH   3   5
ENDBRANCH   1   3
BRANCH   1  15
ATOM     15  C   UNL d   1       3.237   0.917  -0.626  0.00  0.00     0.126 C 
BRANCH  15  16
ATOM     16  C   UNL d   1       4.734   0.731  -0.345  0.00  0.00     0.058 C 
BRANCH  16  17
ATOM     17  C   UNL d   1       5.524   1.719  -1.176  0.00  0.00    -0.054 A 
ATOM     18  C   UNL d   1       5.942   1.387  -2.476  0.00  0.00     0.046 A 
ATOM     19  C   UNL d   1       6.550   2.334  -3.320  0.00  0.00     0.102 A 
ATOM     20  C   UNL d   1       6.720   3.649  -2.851  0.00  0.00     0.101 A 
ATOM     21  C   UNL d   1       6.328   3.966  -1.541  0.00  0.00     0.040 A 
ATOM     22  C   UNL d   1       5.746   3.014  -0.706  0.00  0.00     0.010 A 
BRANCH  19  23
ATOM     23  O   UNL d   1       6.979   2.039  -4.585  0.00  0.00    -0.353 OA
ATOM     24  C   UNL d   1       6.804   0.718  -5.077  0.00  0.00     0.210 C 
ENDBRANCH  19  23
BRANCH  20  25
ATOM     25  O   UNL d   1       7.222   4.741  -3.510  0.00  0.00    -0.353 OA
ATOM     26  C   UNL d   1       7.647   4.605  -4.857  0.00  0.00     0.210 C 
ENDBRANCH  20  25
ENDBRANCH  16  17
ENDBRANCH  15  16
ENDBRANCH   1  15
TORSDOF 8
