REMARK  1 active torsions:
REMARK  status: ('A' for Active; 'I' for Inactive)
REMARK    1  A    between atoms: C_9  and  C_4 
ROOT
ATOM      1  C   UNL d   1      -2.071   0.339   0.036  0.00  0.00    -0.006 C 
ATOM      2  C   UNL d   1      -1.085  -0.787   0.000  0.00  0.00     0.189 C 
ATOM      3  C   UNL d   1       0.356  -0.404   0.011  0.00  0.00     0.021 A 
ATOM      4  C   UNL d   1      -3.280   0.121  -0.510  0.00  0.00     0.022 C 
ATOM      5  C   UNL d   1       0.743   0.949  -0.026  0.00  0.00    -0.044 A 
ATOM      6  C   UNL d   1      -1.569   1.613   0.648  0.00  0.00     0.047 C 
ATOM      7  O   UNL d   1      -1.433  -1.961  -0.052  0.00  0.00    -0.287 OA
ATOM      8  C   UNL d   1      -0.287   2.049  -0.051  0.00  0.00     0.044 C 
ATOM      9  C   UNL d   1       1.328  -1.413   0.020  0.00  0.00     0.016 A 
ATOM     10  C   UNL d   1       2.106   1.270  -0.087  0.00  0.00     0.008 A 
ATOM     11  C   UNL d   1       2.682  -1.079  -0.020  0.00  0.00     0.001 A 
ATOM     12  C   UNL d   1       3.069   0.259  -0.080  0.00  0.00     0.001 A 
ENDROOT
BRANCH   4  13
ATOM     13  C   UNL d   1      -4.319   1.142  -0.640  0.00  0.00    -0.036 A 
ATOM     14  C   UNL d   1      -4.341   1.976  -1.762  0.00  0.00     0.012 A 
ATOM     15  C   UNL d   1      -5.348   2.934  -1.908  0.00  0.00     0.007 A 
ATOM     16  C   UNL d   1      -6.344   3.068  -0.934  0.00  0.00    -0.062 A 
ATOM     17  C   UNL d   1      -6.304   2.247   0.199  0.00  0.00     0.007 A 
ATOM     18  C   UNL d   1      -7.444   4.070  -1.124  0.00  0.00     0.048 C 
ATOM     19  C   UNL d   1      -5.297   1.289   0.346  0.00  0.00     0.012 A 
ENDBRANCH   4  13
TORSDOF 1
