REMARK  6 active torsions:
REMARK  status: ('A' for Active; 'I' for Inactive)
REMARK    1  A    between atoms: C_2  and  S_1 
REMARK    2  A    between atoms: N_4  and  S_1 
REMARK    3  A    between atoms: C_7  and  C_3 
REMARK    4  A    between atoms: C_5  and  C_8 
REMARK    5  A    between atoms: C_9  and  N_6 
REMARK    6  A    between atoms: O_28  and  C_7 
ROOT
ATOM      1  N   UNL d   1       0.527  -0.690  -1.167  0.00  0.00    -0.203 NA
ATOM      2  N   UNL d   1      -1.383  -2.782  -0.610  0.00  0.00    -0.365 N 
ATOM      3  C   UNL d   1      -0.944  -0.467  -1.410  0.00  0.00     0.127 C 
ATOM      4  C   UNL d   1       0.852  -2.142  -1.360  0.00  0.00     0.127 C 
ATOM      5  C   UNL d   1       0.041  -3.029  -0.398  0.00  0.00     0.140 C 
ATOM      6  C   UNL d   1      -1.843  -1.387  -0.548  0.00  0.00     0.140 C 
ENDROOT
BRANCH   1   7
ATOM      7  S   UNL d   1       1.174   0.002   0.232  0.00  0.00     0.245 S 
ATOM      8  O   UNL d   1       0.185   0.022   1.282  0.00  0.00    -0.206 OA
ATOM      9  O   UNL d   1       2.499  -0.544   0.446  0.00  0.00    -0.206 OA
BRANCH   7  10
ATOM     10  C   UNL d   1       1.539   1.661  -0.088  0.00  0.00     0.099 A 
ATOM     11  C   UNL d   1       2.463   2.106  -1.023  0.00  0.00     0.101 A 
ATOM     12  S   UNL d   1       2.540   3.832  -1.007  0.00  0.00    -0.094 SA
ATOM     13  C   UNL d   1       1.384   3.961   0.239  0.00  0.00     0.052 A 
ATOM     14  C   UNL d   1       0.917   2.731   0.633  0.00  0.00     0.033 A 
BRANCH  11  15
ATOM     15  C   UNL d   1       3.314   1.425  -1.989  0.00  0.00     0.184 C 
ATOM     16  O   UNL d   1       3.655   1.884  -3.071  0.00  0.00    -0.646 OA
BRANCH  15  17
ATOM     17  O   UNL d   1       3.772   0.212  -1.593  0.00  0.00    -0.772 OA
ATOM     18  H   UNL d   1       3.564  -0.068  -0.673  0.00  0.00     0.167 HD
ENDBRANCH  15  17
ENDBRANCH  11  15
ENDBRANCH   7  10
ENDBRANCH   1   7
BRANCH   2  19
ATOM     19  C   UNL d   1      -2.325  -3.777  -0.497  0.00  0.00     0.102 A 
ATOM     20  N   UNL d   1      -3.466  -3.632  -1.205  0.00  0.00    -0.352 N 
ATOM     21  C   UNL d   1      -4.362  -4.648  -1.222  0.00  0.00     0.106 A 
ATOM     22  HN  UNL d   1      -3.650  -2.771  -1.720  1.00  0.00     0.166 HD
ATOM     23  C   UNL d   1      -4.203  -5.831  -0.525  0.00  0.00     0.063 A 
ATOM     24  C   UNL d   1      -3.048  -5.961   0.243  0.00  0.00     0.021 A 
ATOM     25  C   UNL d   1      -2.105  -4.933   0.249  0.00  0.00     0.049 A 
BRANCH  23  26
ATOM     26  C   UNL d   1      -5.226  -6.918  -0.598  0.00  0.00     0.418 C 
ATOM     27  F   UNL d   1      -6.273  -6.631  -1.419  0.00  0.00    -0.166 F 
ATOM     28  F   UNL d   1      -4.706  -8.091  -1.054  0.00  0.00    -0.166 F 
ATOM     29  F   UNL d   1      -5.771  -7.202   0.617  0.00  0.00    -0.166 F 
ENDBRANCH  23  26
ENDBRANCH   2  19
TORSDOF 6
