REMARK  8 active torsions:
REMARK  status: ('A' for Active; 'I' for Inactive)
REMARK    1  A    between atoms: C_4  and  C_1 
REMARK    2  A    between atoms: C_5  and  C_1 
REMARK    3  A    between atoms: N_8  and  C_2 
REMARK    4  A    between atoms: O_14  and  C_4 
REMARK    5  A    between atoms: O_13  and  C_5 
REMARK    6  A    between atoms: C_9  and  N_8 
REMARK    7  A    between atoms: C_20  and  O_13 
REMARK    8  A    between atoms: C_19  and  O_14 
ROOT
ATOM      1  C   UNL d   1       0.722   4.166  -2.429  0.00  0.00     0.109 A 
ATOM      2  C   UNL d   1       2.030   4.586  -1.998  0.00  0.00     0.105 C 
ATOM      3  N   UNL d   1       3.092   4.907  -1.653  0.00  0.00    -0.191 NA
ATOM      4  C   UNL d   1       0.221   2.884  -2.135  0.00  0.00     0.056 A 
ATOM      5  C   UNL d   1      -0.061   5.078  -3.144  0.00  0.00     0.139 A 
ATOM      6  F   UNL d   1       0.401   6.305  -3.411  0.00  0.00    -0.204 F 
ATOM      7  C   UNL d   1      -1.840   3.474  -3.325  0.00  0.00     0.005 A 
ATOM      8  C   UNL d   1      -1.067   2.556  -2.603  0.00  0.00     0.031 A 
ATOM      9  C   UNL d   1      -1.337   4.741  -3.586  0.00  0.00     0.044 A 
ENDROOT
BRANCH   4  10
ATOM     10  N   UNL d   1       0.946   1.984  -1.321  0.00  0.00    -0.363 N 
ATOM     11  H   UNL d   1       1.964   2.132  -1.257  0.00  0.00     0.165 HD
BRANCH  10  12
ATOM     12  C   UNL d   1       0.471   0.928  -0.575  0.00  0.00     0.112 C 
ATOM     13  C   UNL d   1       1.169  -0.002   0.109  0.00  0.00     0.129 C 
BRANCH  13  14
ATOM     14  C   UNL d   1       0.467  -1.095   0.821  0.00  0.00     0.300 C 
ATOM     15  O   UNL d   1       0.933  -1.720   1.760  0.00  0.00    -0.259 OA
BRANCH  14  16
ATOM     16  O   UNL d   1      -0.720  -1.362   0.211  0.00  0.00    -0.318 OA
BRANCH  16  17
ATOM     17  C   UNL d   1      -1.310  -2.635   0.510  0.00  0.00     0.174 C 
ATOM     18  C   UNL d   1      -0.855  -3.615  -0.555  0.00  0.00     0.034 C 
ENDBRANCH  16  17
ENDBRANCH  14  16
ENDBRANCH  13  14
BRANCH  13  19
ATOM     19  C   UNL d   1       2.645   0.039   0.034  0.00  0.00     0.300 C 
ATOM     20  O   UNL d   1       3.282   1.025  -0.316  0.00  0.00    -0.259 OA
BRANCH  19  21
ATOM     21  O   UNL d   1       3.154  -1.203   0.215  0.00  0.00    -0.318 OA
BRANCH  21  22
ATOM     22  C   UNL d   1       4.486  -1.411  -0.272  0.00  0.00     0.174 C 
ATOM     23  C   UNL d   1       4.379  -1.910  -1.701  0.00  0.00     0.034 C 
ENDBRANCH  21  22
ENDBRANCH  19  21
ENDBRANCH  13  19
ENDBRANCH  10  12
ENDBRANCH   4  10
TORSDOF 8
