REMARK  5 active torsions:
REMARK  status: ('A' for Active; 'I' for Inactive)
REMARK    1  A    between atoms: C_4  and  C_1 
REMARK    2  A    between atoms: N_5  and  C_2 
REMARK       I    between atoms: C_3  and  N_6 
REMARK    3  A    between atoms: C_11  and  C_3 
REMARK    4  A    between atoms: O_15  and  C_4 
REMARK    5  A    between atoms: N_6  and  C_9 
ROOT
ATOM      1  C   UNL d   1       1.423  -0.242   0.151  0.00  0.00     0.068 A 
ATOM      2  C   UNL d   1       0.611  -1.392   0.021  0.00  0.00     0.046 A 
ATOM      3  C   UNL d   1       0.841   1.042   0.207  0.00  0.00     0.049 A 
ATOM      4  C   UNL d   1      -0.781  -1.175  -0.036  0.00  0.00     0.032 A 
ATOM      5  C   UNL d   1      -0.537   1.239   0.140  0.00  0.00     0.036 A 
ATOM      6  C   UNL d   1      -1.349   0.112   0.035  0.00  0.00     0.032 A 
ENDROOT
BRANCH   5   7
ATOM      7  N   UNL d   1      -1.131   2.522   0.189  0.00  0.00    -0.323 N 
ATOM      8  C   UNL d   1      -0.445   3.718   0.006  0.00  0.00     0.256 C 
ATOM      9  O   UNL d   1       0.717   3.817  -0.373  0.00  0.00    -0.267 OA
ATOM     10  H   UNL d   1      -2.139   2.561   0.246  0.00  0.00     0.169 HD
BRANCH   8  11
ATOM     11  C   UNL d   1      -1.185   4.987   0.244  0.00  0.00     0.032 A 
ATOM     12  C   UNL d   1      -2.253   5.093   1.138  0.00  0.00     0.017 A 
ATOM     13  C   UNL d   1      -2.828   6.347   1.385  0.00  0.00     0.001 A 
ATOM     14  C   UNL d   1      -2.339   7.489   0.746  0.00  0.00     0.000 A 
ATOM     15  C   UNL d   1      -1.275   7.387  -0.145  0.00  0.00     0.001 A 
ATOM     16  C   UNL d   1      -0.701   6.141  -0.395  0.00  0.00     0.017 A 
ENDBRANCH   8  11
ENDBRANCH   5   7
BRANCH   1  17
ATOM     17  C   UNL d   1       2.919  -0.298   0.138  0.00  0.00     0.295 C 
ATOM     18  O   UNL d   1       3.604  -1.122  -0.444  0.00  0.00    -0.259 OA
BRANCH  17  19
ATOM     19  O   UNL d   1       3.401   0.706   0.918  0.00  0.00    -0.322 OA
ATOM     20  C   UNL d   1       4.821   0.850   0.947  0.00  0.00     0.213 C 
ENDBRANCH  17  19
ENDBRANCH   1  17
BRANCH   2  21
ATOM     21  N   UNL d   1       1.138  -2.676  -0.063  0.00  0.00    -0.376 N 
ATOM     22  C   UNL d   1       0.452  -3.748  -0.799  0.00  0.00     0.149 C 
ATOM     23  C   UNL d   1       1.489  -4.806  -1.219  0.00  0.00     0.187 C 
ATOM     24  O   UNL d   1       2.202  -5.328  -0.083  0.00  0.00    -0.388 OA
ATOM     25  C   UNL d   1       2.895  -4.261   0.593  0.00  0.00     0.187 C 
ATOM     26  C   UNL d   1       1.911  -3.188   1.089  0.00  0.00     0.149 C 
ENDBRANCH   2  21
TORSDOF 5
