REMARK  6 active torsions:
REMARK  status: ('A' for Active; 'I' for Inactive)
REMARK    1  A    between atoms: C_6  and  C_1 
REMARK    2  A    between atoms: C_10  and  C_2 
REMARK    3  A    between atoms: O_15  and  C_6 
REMARK    4  A    between atoms: C_7  and  O_14 
REMARK    5  A    between atoms: C_13  and  C_7 
REMARK    6  A    between atoms: O_14  and  N_8 
ROOT
ATOM      1  C   UNL d   1      -0.763  -1.382   0.022  0.00  0.00     0.075 A 
ATOM      2  C   UNL d   1       0.686  -1.399  -0.033  0.00  0.00     0.022 A 
ATOM      3  C   UNL d   1      -1.141  -0.038   0.002  0.00  0.00     0.022 A 
ATOM      4  N   UNL d   1      -0.005   0.724  -0.035  0.00  0.00    -0.362 N 
ATOM      5  C   UNL d   1       1.107  -0.071  -0.040  0.00  0.00     0.018 A 
ATOM      6  C   UNL d   1      -2.465   0.644   0.006  0.00  0.00     0.069 C 
ATOM      7  C   UNL d   1       2.456   0.568  -0.038  0.00  0.00     0.069 C 
ATOM      8  H   UNL d   1       0.013   1.736  -0.051  0.00  0.00     0.165 HD
ENDROOT
BRANCH   2   9
ATOM      9  C   UNL d   1       1.579  -2.552  -0.052  0.00  0.00     0.129 C 
ATOM     10  N   UNL d   1       2.754  -2.397  -0.560  0.00  0.00    -0.268 N 
ATOM     11  HN  UNL d   1       3.074  -1.535  -1.002  1.00  0.00     0.194 HD
BRANCH  10  12
ATOM     12  O   UNL d   1       3.541  -3.553  -0.434  0.00  0.00    -0.195 OA
BRANCH  12  13
ATOM     13  C   UNL d   1       4.852  -3.193  -0.606  0.00  0.00     0.315 C 
ATOM     14  O   UNL d   1       5.302  -2.062  -0.751  0.00  0.00    -0.257 OA
BRANCH  13  15
ATOM     15  C   UNL d   1       5.732  -4.385  -0.636  0.00  0.00     0.041 A 
ATOM     16  C   UNL d   1       5.379  -5.604  -0.046  0.00  0.00     0.017 A 
ATOM     17  C   UNL d   1       6.268  -6.681  -0.095  0.00  0.00     0.001 A 
ATOM     18  C   UNL d   1       7.505  -6.544  -0.733  0.00  0.00     0.000 A 
ATOM     19  C   UNL d   1       7.861  -5.330  -1.315  0.00  0.00     0.001 A 
ATOM     20  C   UNL d   1       6.980  -4.251  -1.264  0.00  0.00     0.017 A 
ENDBRANCH  13  15
ENDBRANCH  12  13
ENDBRANCH  10  12
ENDBRANCH   2   9
BRANCH   1  21
ATOM     21  C   UNL d   1      -1.705  -2.509   0.062  0.00  0.00     0.295 C 
ATOM     22  O   UNL d   1      -2.923  -2.380   0.122  0.00  0.00    -0.259 OA
BRANCH  21  23
ATOM     23  O   UNL d   1      -1.089  -3.728   0.031  0.00  0.00    -0.322 OA
ATOM     24  C   UNL d   1      -1.996  -4.831   0.079  0.00  0.00     0.213 C 
ENDBRANCH  21  23
ENDBRANCH   1  21
TORSDOF 6
