REMARK  2 active torsions:
REMARK  status: ('A' for Active; 'I' for Inactive)
REMARK    1  A    between atoms: N_2  and  C_1 
REMARK       I    between atoms: C_4  and  N_2 
REMARK       I    between atoms: N_8  and  C_4 
REMARK    2  A    between atoms: C_11  and  N_8 
ROOT
ATOM      1  N   UNL d   1      -0.390  -2.896   0.259  0.00  0.00    -0.293 N 
ATOM      2  C   UNL d   1      -1.486  -3.674   0.596  0.00  0.00     0.326 C 
ATOM      3  N   UNL d   1      -2.654  -3.044   0.186  0.00  0.00    -0.309 N 
ATOM      4  O   UNL d   1      -1.427  -4.758   1.161  0.00  0.00    -0.247 OA
ATOM      5  H   UNL d   1      -0.556  -1.900   0.237  0.00  0.00     0.172 HD
ATOM      6  H   UNL d   1      -2.528  -2.291  -0.476  0.00  0.00     0.170 HD
ENDROOT
BRANCH   1   7
ATOM      7  C   UNL d   1       0.940  -3.280   0.343  0.00  0.00     0.126 A 
ATOM      8  N   UNL d   1       1.501  -4.542   0.347  0.00  0.00    -0.281 N 
ATOM      9  N   UNL d   1       2.855  -4.511   0.435  0.00  0.00    -0.308 N 
ATOM     10  C   UNL d   1       0.896  -5.838   0.148  0.00  0.00     0.179 C 
ATOM     11  C   UNL d   1       3.154  -3.216   0.454  0.00  0.00     0.111 A 
ATOM     12  HN  UNL d   1       3.497  -5.303   0.478  1.00  0.00     0.186 HD
ATOM     13  C   UNL d   1       2.011  -2.408   0.383  0.00  0.00     0.068 A 
ENDBRANCH   1   7
BRANCH   3  14
ATOM     14  C   UNL d   1      -3.977  -3.489   0.375  0.00  0.00     0.036 A 
ATOM     15  C   UNL d   1      -4.330  -4.528   1.241  0.00  0.00     0.031 A 
ATOM     16  C   UNL d   1      -5.662  -4.941   1.348  0.00  0.00     0.026 A 
ATOM     17  C   UNL d   1      -6.649  -4.311   0.596  0.00  0.00     0.034 A 
ATOM     18  C   UNL d   1      -6.317  -3.257  -0.250  0.00  0.00     0.026 A 
ATOM     19 CL   UNL d   1      -8.282  -4.840   0.707  0.00  0.00    -0.084 Cl
ATOM     20  C   UNL d   1      -4.985  -2.843  -0.354  0.00  0.00     0.031 A 
ENDBRANCH   3  14
TORSDOF 2
