REMARK  4 active torsions:
REMARK  status: ('A' for Active; 'I' for Inactive)
REMARK    1  A    between atoms: C_7  and  C_1 
REMARK    2  A    between atoms: N_10  and  C_3 
REMARK    3  A    between atoms: O_12  and  C_7 
REMARK    4  A    between atoms: C_15  and  O_12 
ROOT
ATOM      1  C   UNL d   1      -1.758  -1.705   0.051  0.00  0.00     0.085 A 
ATOM      2  C   UNL d   1      -0.792  -0.650   0.055  0.00  0.00     0.007 A 
ATOM      3  C   UNL d   1      -3.046  -1.152   0.070  0.00  0.00     0.085 A 
ATOM      4  C   UNL d   1      -1.373   0.596   0.051  0.00  0.00     0.001 A 
ATOM      5  S   UNL d   1      -3.038   0.577   0.061  0.00  0.00    -0.075 SA
ATOM      6  C   UNL d   1       0.641  -0.430   0.031  0.00  0.00    -0.017 A 
ATOM      7  C   UNL d   1      -0.418   1.741   0.025  0.00  0.00     0.086 A 
ATOM      8  C   UNL d   1       0.887   0.969   0.017  0.00  0.00    -0.042 A 
ATOM      9  C   UNL d   1       1.694  -1.323   0.022  0.00  0.00     0.013 A 
ATOM     10  C   UNL d   1       2.176   1.477  -0.003  0.00  0.00     0.008 A 
ATOM     11  C   UNL d   1       2.998  -0.815   0.001  0.00  0.00     0.001 A 
ATOM     12  C   UNL d   1       3.236   0.569  -0.009  0.00  0.00     0.001 A 
ENDROOT
BRANCH   1  13
ATOM     13  C   UNL d   1      -1.465  -3.137  -0.007  0.00  0.00     0.297 C 
ATOM     14  O   UNL d   1      -0.329  -3.598   0.009  0.00  0.00    -0.259 OA
BRANCH  13  15
ATOM     15  O   UNL d   1      -2.574  -3.921  -0.177  0.00  0.00    -0.318 OA
BRANCH  15  16
ATOM     16  C   UNL d   1      -2.310  -5.231  -0.699  0.00  0.00     0.174 C 
ATOM     17  C   UNL d   1      -2.338  -5.138  -2.214  0.00  0.00     0.034 C 
ENDBRANCH  15  16
ENDBRANCH  13  15
ENDBRANCH   1  13
BRANCH   3  18
ATOM     18  N   UNL d   1      -4.238  -1.785   0.086  0.00  0.00    -0.393 N 
ATOM     19  H   UNL d   1      -4.303  -2.797  -0.003  0.00  0.00     0.156 HD
ATOM     20  H   UNL d   1      -5.109  -1.272  -0.004  0.00  0.00     0.156 HD
ENDBRANCH   3  18
TORSDOF 4
