REMARK  9 active torsions:
REMARK  status: ('A' for Active; 'I' for Inactive)
REMARK    1  A    between atoms: C_5  and  C_1 
REMARK    2  A    between atoms: C_6  and  C_1 
REMARK    3  A    between atoms: C_7  and  C_2 
REMARK    4  A    between atoms: C_8  and  C_2 
REMARK    5  A    between atoms: O_4  and  C_3 
REMARK    6  A    between atoms: O_12  and  C_5 
REMARK    7  A    between atoms: O_11  and  C_6 
REMARK    8  A    between atoms: O_13  and  C_7 
REMARK    9  A    between atoms: O_14  and  C_8 
ROOT
ATOM      1  C   UNL d   1       0.220   1.257   0.288  0.00  0.00     0.029 C 
ATOM      2  C   UNL d   1       0.204  -1.414   0.186  0.00  0.00     0.029 C 
ATOM      3  C   UNL d   1       0.924  -0.069  -0.153  0.00  0.00     0.143 C 
ATOM      4  C   UNL d   1      -1.258   1.206  -0.177  0.00  0.00     0.016 C 
ATOM      5  C   UNL d   1      -1.276  -1.324  -0.252  0.00  0.00     0.016 C 
ATOM      6  C   UNL d   1      -1.991  -0.068   0.236  0.00  0.00     0.002 C 
ENDROOT
BRANCH   1   7
ATOM      7  C   UNL d   1       0.275   1.546   1.809  0.00  0.00     0.178 C 
BRANCH   7   8
ATOM      8  O   UNL d   1       1.613   1.626   2.288  0.00  0.00    -0.400 OA
ATOM      9  H   UNL d   1       1.956   2.502   2.022  0.00  0.00     0.209 HD
ENDBRANCH   7   8
ENDBRANCH   1   7
BRANCH   1  10
ATOM     10  C   UNL d   1       0.931   2.437  -0.439  0.00  0.00     0.178 C 
BRANCH  10  11
ATOM     11  O   UNL d   1       0.478   3.708   0.023  0.00  0.00    -0.400 OA
ATOM     12  H   UNL d   1      -0.479   3.773  -0.134  0.00  0.00     0.209 HD
ENDBRANCH  10  11
ENDBRANCH   1  10
BRANCH   3  13
ATOM     13  O   UNL d   1       2.295  -0.109   0.244  0.00  0.00    -0.394 OA
ATOM     14  H   UNL d   1       2.298  -0.102   1.231  0.00  0.00     0.210 HD
ENDBRANCH   3  13
BRANCH   2  15
ATOM     15  C   UNL d   1       0.867  -2.558  -0.640  0.00  0.00     0.178 C 
BRANCH  15  16
ATOM     16  O   UNL d   1       2.232  -2.758  -0.286  0.00  0.00    -0.400 OA
ATOM     17  H   UNL d   1       2.679  -1.889  -0.403  0.00  0.00     0.209 HD
ENDBRANCH  15  16
ENDBRANCH   2  15
BRANCH   2  18
ATOM     18  C   UNL d   1       0.285  -1.835   1.677  0.00  0.00     0.178 C 
BRANCH  18  19
ATOM     19  O   UNL d   1       1.616  -1.853   2.174  0.00  0.00    -0.400 OA
ATOM     20  H   UNL d   1       2.115  -2.475   1.602  0.00  0.00     0.209 HD
ENDBRANCH  18  19
ENDBRANCH   2  18
TORSDOF 9
