REMARK  3 active torsions:
REMARK  status: ('A' for Active; 'I' for Inactive)
REMARK    1  A    between atoms: N_2  and  C_1 
REMARK    2  A    between atoms: N_3  and  C_6 
REMARK    3  A    between atoms: N_8  and  C_4 
ROOT
ATOM      1  C   UNL d   1      -1.149   1.176  -0.090  0.00  0.00     0.132 A 
ATOM      2  C   UNL d   1       0.261   1.293  -0.021  0.00  0.00     0.069 A 
ATOM      3  C   UNL d   1      -1.839  -0.052  -0.053  0.00  0.00     0.074 A 
ATOM      4  C   UNL d   1      -1.107  -1.230   0.034  0.00  0.00     0.105 A 
ATOM      5  C   UNL d   1       0.968   0.059   0.098  0.00  0.00    -0.030 A 
ATOM      6  C   UNL d   1       0.286  -1.180   0.096  0.00  0.00     0.045 A 
ATOM      7  C   UNL d   1       2.472  -0.020   0.234  0.00  0.00     0.050 C 
ENDROOT
BRANCH   2   8
ATOM      8  N   UNL d   1       0.997   2.489  -0.011  0.00  0.00    -0.377 N 
ATOM      9  C   UNL d   1       0.436   3.728   0.576  0.00  0.00     0.133 C 
ATOM     10  C   UNL d   1       1.538   4.645   1.118  0.00  0.00     0.093 C 
ATOM     11  S   UNL d   1       2.712   5.176  -0.174  0.00  0.00    -0.166 SA
ATOM     12  C   UNL d   1       3.092   3.527  -0.854  0.00  0.00     0.093 C 
ATOM     13  C   UNL d   1       1.824   2.741  -1.220  0.00  0.00     0.133 C 
ENDBRANCH   2   8
BRANCH   1  14
ATOM     14  N   UNL d   1      -2.006   2.327  -0.272  0.00  0.00    -0.113 N 
ATOM     15  O   UNL d   1      -2.030   2.841  -1.400  0.00  0.00    -0.532 OA
ATOM     16  O   UNL d   1      -2.686   2.681   0.701  0.00  0.00    -0.532 OA
ENDBRANCH   1  14
BRANCH   4  17
ATOM     17  N   UNL d   1      -1.797  -2.525   0.064  0.00  0.00    -0.116 N 
ATOM     18  O   UNL d   1      -3.036  -2.513   0.042  0.00  0.00    -0.532 OA
ATOM     19  O   UNL d   1      -1.101  -3.548   0.107  0.00  0.00    -0.532 OA
ENDBRANCH   4  17
TORSDOF 3
