REMARK  4 active torsions:
REMARK  status: ('A' for Active; 'I' for Inactive)
REMARK    1  A    between atoms: C_3  and  C_1 
REMARK    2  A    between atoms: C_7  and  C_2 
REMARK    3  A    between atoms: C_4  and  C_3 
REMARK    4  A    between atoms: N_12  and  C_10 
ROOT
ATOM      1  C   UNL d   1      -0.774  -0.765  -0.895  0.00  0.00     0.096 C 
ATOM      2  C   UNL d   1       0.389  -0.127  -1.143  0.00  0.00     0.040 C 
ATOM      3  C   UNL d   1      -1.441  -1.542  -1.883  0.00  0.00     0.103 C 
ATOM      4  N   UNL d   1      -1.982  -2.184  -2.683  0.00  0.00    -0.191 NA
ENDROOT
BRANCH   1   5
ATOM      5  C   UNL d   1      -1.388  -0.576   0.469  0.00  0.00     0.209 C 
ATOM      6  O   UNL d   1      -1.034   0.395   1.142  0.00  0.00    -0.285 OA
BRANCH   5   7
ATOM      7  C   UNL d   1      -2.390  -1.528   0.936  0.00  0.00     0.056 A 
ATOM      8  S   UNL d   1      -3.651  -0.965   1.961  0.00  0.00    -0.098 SA
ATOM      9  C   UNL d   1      -4.389  -2.504   2.020  0.00  0.00     0.050 A 
ATOM     10  C   UNL d   1      -3.674  -3.445   1.315  0.00  0.00     0.009 A 
ATOM     11  C   UNL d   1      -2.509  -2.889   0.712  0.00  0.00     0.023 A 
ENDBRANCH   5   7
ENDBRANCH   1   5
BRANCH   2  12
ATOM     12  C   UNL d   1       1.119  -0.170  -2.420  0.00  0.00    -0.013 A 
ATOM     13  C   UNL d   1       2.092  -1.131  -2.714  0.00  0.00     0.046 A 
ATOM     14  C   UNL d   1       2.806  -1.079  -3.922  0.00  0.00     0.054 A 
ATOM     15 CL   UNL d   1       2.465  -2.405  -1.603  0.00  0.00    -0.083 Cl
ATOM     16  C   UNL d   1       2.581  -0.076  -4.878  0.00  0.00     0.031 A 
ATOM     17  C   UNL d   1       1.566   0.847  -4.579  0.00  0.00     0.030 A 
ATOM     18  C   UNL d   1       0.847   0.809  -3.375  0.00  0.00     0.015 A 
BRANCH  16  19
ATOM     19  N   UNL d   1       3.345   0.035  -6.028  0.00  0.00    -0.390 N 
ATOM     20  C   UNL d   1       2.796   0.554  -7.278  0.00  0.00     0.149 C 
ATOM     21  C   UNL d   1       4.676  -0.555  -6.130  0.00  0.00     0.149 C 
ENDBRANCH  16  19
ENDBRANCH   2  12
TORSDOF 4
