REMARK  2 active torsions:
REMARK  status: ('A' for Active; 'I' for Inactive)
REMARK    1  A    between atoms: C_7  and  N_1 
REMARK    2  A    between atoms: C_3  and  C_2 
ROOT
ATOM      1  N   UNL d   1      -0.595  -1.143   0.362  0.00  0.00    -0.285 N 
ATOM      2  C   UNL d   1       0.724  -1.388  -0.202  0.00  0.00     0.191 C 
ATOM      3  S   UNL d   1       1.469   0.254  -0.508  0.00  0.00    -0.129 SA
ATOM      4  C   UNL d   1      -1.101   0.146   0.237  0.00  0.00     0.236 C 
ATOM      5  C   UNL d   1      -0.093   1.117  -0.334  0.00  0.00     0.179 C 
ATOM      6  O   UNL d   1      -2.243   0.514   0.495  0.00  0.00    -0.272 OA
ENDROOT
BRANCH   2   7
ATOM      7  C   UNL d   1       1.660  -2.206   0.681  0.00  0.00    -0.003 A 
ATOM      8  C   UNL d   1       2.351  -3.333   0.197  0.00  0.00     0.044 A 
ATOM      9  C   UNL d   1       3.263  -4.023   1.004  0.00  0.00     0.048 A 
ATOM     10 CL   UNL d   1       2.146  -3.925  -1.416  0.00  0.00    -0.084 Cl
ATOM     11  C   UNL d   1       3.501  -3.598   2.306  0.00  0.00     0.035 A 
ATOM     12  C   UNL d   1       2.817  -2.502   2.822  0.00  0.00     0.024 A 
ATOM     13 CL   UNL d   1       4.657  -4.420   3.279  0.00  0.00    -0.084 Cl
ATOM     14  C   UNL d   1       1.899  -1.817   2.020  0.00  0.00     0.013 A 
ENDBRANCH   2   7
BRANCH   1  15
ATOM     15  C   UNL d   1      -1.441  -2.256   0.599  0.00  0.00     0.111 A 
ATOM     16  N   UNL d   1      -1.129  -3.415  -0.024  0.00  0.00    -0.352 N 
ATOM     17  C   UNL d   1      -1.962  -4.468   0.133  0.00  0.00     0.089 A 
ATOM     18  HN  UNL d   1      -0.288  -3.493  -0.597  1.00  0.00     0.166 HD
ATOM     19  C   UNL d   1      -3.087  -4.444   0.936  0.00  0.00     0.017 A 
ATOM     20  C   UNL d   1      -3.374  -3.269   1.613  0.00  0.00     0.005 A 
ATOM     21  C   UNL d   1      -2.550  -2.159   1.437  0.00  0.00     0.049 A 
ENDBRANCH   1  15
TORSDOF 2
