REMARK  5 active torsions:
REMARK  status: ('A' for Active; 'I' for Inactive)
REMARK    1  A    between atoms: C_2  and  N_1 
REMARK    2  A    between atoms: C_3  and  N_1 
REMARK    3  A    between atoms: N_4  and  C_2 
REMARK    4  A    between atoms: C_12  and  C_3 
REMARK    5  A    between atoms: C_10  and  N_4 
ROOT
ATOM      1  N   UNL d   1       1.070   0.166   0.014  0.00  0.00    -0.319 N 
ATOM      2  H   UNL d   1       0.530  -0.569  -0.421  0.00  0.00     0.170 HD
ENDROOT
BRANCH   1   3
ATOM      3  C   UNL d   1       0.485   1.400  -0.159  0.00  0.00     0.177 C 
ATOM      4  S   UNL d   1       0.254   2.550   1.040  0.00  0.00    -0.040 SA
BRANCH   3   5
ATOM      5  N   UNL d   1      -0.032   1.710  -1.383  0.00  0.00    -0.333 N 
ATOM      6  H   UNL d   1      -0.616   2.541  -1.328  0.00  0.00     0.168 HD
BRANCH   5   7
ATOM      7  C   UNL d   1       0.345   1.345  -2.691  0.00  0.00     0.035 A 
ATOM      8  C   UNL d   1       1.371   0.457  -3.014  0.00  0.00     0.055 A 
ATOM      9  C   UNL d   1       1.737   0.257  -4.356  0.00  0.00     0.058 A 
ATOM     10 CL   UNL d   1       3.022  -0.857  -4.676  0.00  0.00    -0.082 Cl
ATOM     11  C   UNL d   1       1.088   0.954  -5.380  0.00  0.00     0.055 A 
ATOM     12  C   UNL d   1       0.059   1.837  -5.062  0.00  0.00     0.028 A 
ATOM     13 CL   UNL d   1       1.520   0.789  -7.043  0.00  0.00    -0.083 Cl
ATOM     14  C   UNL d   1      -0.312   2.024  -3.728  0.00  0.00     0.031 A 
ENDBRANCH   5   7
ENDBRANCH   3   5
ENDBRANCH   1   3
BRANCH   1  15
ATOM     15  C   UNL d   1       1.922  -0.217   1.043  0.00  0.00     0.111 C 
ATOM     16  N   UNL d   1       2.769   0.606   1.558  0.00  0.00    -0.385 N 
ATOM     17  H   UNL d   1       2.680   1.521   1.104  0.00  0.00     0.157 HD
ATOM     18  HN  UNL d   1       3.427   0.382   2.305  1.00  0.00     0.157 HD
BRANCH  15  19
ATOM     19  C   UNL d   1       1.830  -1.606   1.562  0.00  0.00     0.007 A 
ATOM     20  C   UNL d   1       1.529  -2.709   0.758  0.00  0.00     0.015 A 
ATOM     21  C   UNL d   1       1.429  -3.980   1.340  0.00  0.00     0.001 A 
ATOM     22  C   UNL d   1       1.623  -4.148   2.712  0.00  0.00     0.000 A 
ATOM     23  C   UNL d   1       1.932  -3.052   3.513  0.00  0.00     0.001 A 
ATOM     24  C   UNL d   1       2.041  -1.787   2.937  0.00  0.00     0.015 A 
ENDBRANCH  15  19
ENDBRANCH   1  15
TORSDOF 5
