REMARK  7 active torsions:
REMARK  status: ('A' for Active; 'I' for Inactive)
REMARK    1  A    between atoms: N_2  and  C_1 
REMARK    2  A    between atoms: C_3  and  C_1 
REMARK    3  A    between atoms: C_4  and  C_1 
REMARK    4  A    between atoms: O_11  and  C_1 
REMARK       I    between atoms: C_6  and  N_2 
REMARK    5  A    between atoms: C_5  and  C_7 
REMARK       I    between atoms: N_9  and  C_6 
REMARK    6  A    between atoms: C_8  and  N_9 
REMARK    7  A    between atoms: C_23  and  O_11 
ROOT
ATOM      1  N   UNL d   1       0.303   1.236   0.033  0.00  0.00    -0.296 N 
ATOM      2  C   UNL d   1       0.338   1.589   1.353  0.00  0.00     0.323 C 
ATOM      3  N   UNL d   1       0.268   2.958   1.488  0.00  0.00    -0.308 N 
ATOM      4  O   UNL d   1       0.506   0.762   2.229  0.00  0.00    -0.247 OA
ATOM      5  H   UNL d   1      -0.403   1.705  -0.521  0.00  0.00     0.167 HD
ATOM      6  H   UNL d   1       0.526   3.460   0.645  0.00  0.00     0.170 HD
ENDROOT
BRANCH   1   7
ATOM      7  C   UNL d   1       0.591  -0.149  -0.382  0.00  0.00     0.338 C 
BRANCH   7   8
ATOM      8  C   UNL d   1      -0.417  -1.209   0.150  0.00  0.00     0.447 C 
ATOM      9  F   UNL d   1      -1.620  -0.627   0.422  0.00  0.00    -0.166 F 
ATOM     10  F   UNL d   1      -0.673  -2.160  -0.787  0.00  0.00    -0.166 F 
ATOM     11  F   UNL d   1      -0.042  -1.868   1.263  0.00  0.00    -0.166 F 
ENDBRANCH   7   8
BRANCH   7  12
ATOM     12  C   UNL d   1       1.995  -0.688   0.017  0.00  0.00     0.447 C 
ATOM     13  F   UNL d   1       2.941   0.277  -0.175  0.00  0.00    -0.166 F 
ATOM     14  F   UNL d   1       2.131  -1.088   1.296  0.00  0.00    -0.166 F 
ATOM     15  F   UNL d   1       2.360  -1.735  -0.765  0.00  0.00    -0.166 F 
ENDBRANCH   7  12
BRANCH   7  16
ATOM     16  O   UNL d   1       0.410  -0.075  -1.835  0.00  0.00    -0.346 OA
BRANCH  16  17
ATOM     17  C   UNL d   1       1.415   0.632  -2.560  0.00  0.00     0.167 C 
ATOM     18  C   UNL d   1       1.075   0.527  -4.033  0.00  0.00     0.033 C 
ENDBRANCH  16  17
ENDBRANCH   7  16
ENDBRANCH   1   7
BRANCH   3  19
ATOM     19  C   UNL d   1       0.415   3.635   2.716  0.00  0.00     0.051 A 
ATOM     20  C   UNL d   1       1.075   4.877   2.769  0.00  0.00     0.074 A 
ATOM     21  C   UNL d   1       1.298   5.474   4.024  0.00  0.00     0.018 A 
ATOM     22  C   UNL d   1       0.822   4.885   5.194  0.00  0.00     0.001 A 
ATOM     23  C   UNL d   1       0.105   3.696   5.126  0.00  0.00     0.002 A 
ATOM     24  C   UNL d   1      -0.094   3.074   3.896  0.00  0.00     0.030 A 
BRANCH  20  25
ATOM     25  C   UNL d   1       1.640   5.563   1.552  0.00  0.00     0.419 C 
ATOM     26  F   UNL d   1       1.145   5.087   0.370  0.00  0.00    -0.166 F 
ATOM     27  F   UNL d   1       1.393   6.903   1.532  0.00  0.00    -0.166 F 
ATOM     28  F   UNL d   1       2.992   5.432   1.457  0.00  0.00    -0.166 F 
ENDBRANCH  20  25
ENDBRANCH   3  19
TORSDOF 7
