REMARK  3 active torsions:
REMARK  status: ('A' for Active; 'I' for Inactive)
REMARK    1  A    between atoms: C_4  and  N_1 
REMARK    2  A    between atoms: C_2  and  C_5 
REMARK    3  A    between atoms: C_10  and  C_3 
ROOT
ATOM      1  C   UNL d   1       2.013  -0.691   2.118  0.00  0.00     0.037 C 
ATOM      2  C   UNL d   1       2.764   0.240   1.497  0.00  0.00     0.055 C 
ATOM      3  C   UNL d   1       2.377   0.842   0.262  0.00  0.00     0.100 C 
ATOM      4  N   UNL d   1       2.056   1.323  -0.746  0.00  0.00    -0.191 NA
ENDROOT
BRANCH   2   5
ATOM      5  C   UNL d   1       4.059   0.639   2.077  0.00  0.00    -0.015 A 
ATOM      6  C   UNL d   1       5.224  -0.072   1.747  0.00  0.00     0.013 A 
ATOM      7  C   UNL d   1       6.471   0.363   2.203  0.00  0.00     0.001 A 
ATOM      8  C   UNL d   1       6.563   1.505   2.996  0.00  0.00     0.000 A 
ATOM      9  C   UNL d   1       5.409   2.201   3.352  0.00  0.00     0.001 A 
ATOM     10  C   UNL d   1       4.159   1.769   2.899  0.00  0.00     0.013 A 
ENDBRANCH   2   5
BRANCH   1  11
ATOM     11  C   UNL d   1       0.747  -1.247   1.603  0.00  0.00    -0.002 A 
ATOM     12  C   UNL d   1      -0.538  -0.763   1.905  0.00  0.00     0.113 A 
ATOM     13  C   UNL d   1      -1.696  -1.372   1.393  0.00  0.00     0.037 A 
ATOM     14  C   UNL d   1      -1.577  -2.481   0.556  0.00  0.00     0.002 A 
ATOM     15  C   UNL d   1      -0.312  -2.963   0.225  0.00  0.00     0.001 A 
ATOM     16  C   UNL d   1       0.837  -2.352   0.740  0.00  0.00     0.014 A 
BRANCH  12  17
ATOM     17  N   UNL d   1      -0.722   0.393   2.771  0.00  0.00    -0.115 N 
ATOM     18  O   UNL d   1      -0.104   0.412   3.843  0.00  0.00    -0.532 OA
ATOM     19  O   UNL d   1      -1.510   1.266   2.386  0.00  0.00    -0.532 OA
ENDBRANCH  12  17
ENDBRANCH   1  11
TORSDOF 3
