REMARK  3 active torsions:
REMARK  status: ('A' for Active; 'I' for Inactive)
REMARK    1  A    between atoms: C_4  and  C_1 
REMARK    2  A    between atoms: O_11  and  C_2 
REMARK    3  A    between atoms: O_13  and  N_8 
ROOT
ATOM      1  C   UNL d   1       0.862   4.413   0.026  0.00  0.00     0.024 A 
ATOM      2  C   UNL d   1       0.672   5.814   0.023  0.00  0.00     0.099 A 
ATOM      3  C   UNL d   1       1.773   6.686   0.026  0.00  0.00     0.069 A 
ATOM      4  C   UNL d   1       3.070   6.184   0.033  0.00  0.00     0.050 A 
ATOM      5  C   UNL d   1       2.178   3.928   0.034  0.00  0.00     0.040 A 
ATOM      6  C   UNL d   1       3.264   4.810   0.038  0.00  0.00     0.036 A 
ATOM      7 CL   UNL d   1       1.567   8.402   0.020  0.00  0.00    -0.081 Cl
ATOM      8 CL   UNL d   1       4.866   4.179   0.048  0.00  0.00    -0.084 Cl
ENDROOT
BRANCH   1   9
ATOM      9  C   UNL d   1      -0.326   3.477   0.018  0.00  0.00     0.041 C 
ATOM     10  N   UNL d   1      -1.522   4.003   0.009  0.00  0.00    -0.273 N 
ATOM     11  HN  UNL d   1      -1.705   5.006   0.009  1.00  0.00     0.194 HD
ATOM     12  C   UNL d   1      -0.136   1.968   0.018  0.00  0.00     0.071 C 
BRANCH  10  13
ATOM     13  O   UNL d   1      -2.521   3.024   0.001  0.00  0.00    -0.290 OA
ATOM     14  H   UNL d   1      -3.345   3.547  -0.011  0.00  0.00     0.244 HD
ENDBRANCH  10  13
ENDBRANCH   1   9
BRANCH   2  15
ATOM     15  O   UNL d   1      -0.579   6.383   0.017  0.00  0.00    -0.358 OA
ATOM     16  H   UNL d   1      -1.244   5.661   0.016  0.00  0.00     0.217 HD
ENDBRANCH   2  15
TORSDOF 3
