REMARK  8 active torsions:
REMARK  status: ('A' for Active; 'I' for Inactive)
REMARK    1  A    between atoms: C_2  and  C_1 
REMARK    2  A    between atoms: O_6  and  C_2 
REMARK    3  A    between atoms: N_3  and  O_6 
REMARK    4  A    between atoms: C_7  and  C_5 
REMARK    5  A    between atoms: N_11  and  C_5 
REMARK    6  A    between atoms: O_12  and  C_17 
REMARK    7  A    between atoms: C_13  and  O_12 
REMARK    8  A    between atoms: C_17  and  C_14 
ROOT
ATOM      1  N   UNL d   1       3.640   4.997  -0.532  0.00  0.00    -0.246 N 
ATOM      2  HN  UNL d   1       4.105   5.857  -0.823  1.00  0.00     0.196 HD
ATOM      3  C   UNL d   1       2.387   4.917  -0.192  0.00  0.00     0.109 C 
ENDROOT
BRANCH   3   4
ATOM      4  C   UNL d   1       1.605   6.193  -0.112  0.00  0.00     0.004 A 
ATOM      5  C   UNL d   1       0.519   6.313   0.766  0.00  0.00     0.024 A 
ATOM      6  C   UNL d   1      -0.178   7.524   0.873  0.00  0.00    -0.033 A 
ATOM      7  C   UNL d   1       0.209   8.609   0.071  0.00  0.00     0.009 A 
ATOM      8  C   UNL d   1       1.291   8.490  -0.801  0.00  0.00     0.002 A 
ATOM      9  C   UNL d   1       1.994   7.288  -0.888  0.00  0.00     0.015 A 
BRANCH   6  10
ATOM     10  C   UNL d   1      -1.324   7.664   1.849  0.00  0.00     0.214 C 
BRANCH  10  11
ATOM     11  O   UNL d   1      -2.542   7.317   1.189  0.00  0.00    -0.347 OA
BRANCH  11  12
ATOM     12  C   UNL d   1      -3.678   7.475   1.938  0.00  0.00     0.069 A 
ATOM     13  C   UNL d   1      -4.850   7.715   1.213  0.00  0.00     0.038 A 
ATOM     14  C   UNL d   1      -6.069   7.890   1.876  0.00  0.00     0.026 A 
ATOM     15  C   UNL d   1      -6.118   7.807   3.265  0.00  0.00     0.034 A 
ATOM     16  C   UNL d   1      -4.960   7.543   3.993  0.00  0.00     0.026 A 
ATOM     17 CL   UNL d   1      -7.612   8.026   4.087  0.00  0.00    -0.084 Cl
ATOM     18  C   UNL d   1      -3.741   7.374   3.330  0.00  0.00     0.038 A 
ENDBRANCH  11  12
ENDBRANCH  10  11
ENDBRANCH   6  10
ENDBRANCH   3   4
BRANCH   3  19
ATOM     19  N   UNL d   1       1.739   3.737   0.108  0.00  0.00    -0.286 NA
ATOM     20  H   UNL d   1       2.263   2.922  -0.198  0.00  0.00     0.125 HD
ATOM     21  H   UNL d   1       0.766   3.691  -0.174  0.00  0.00     0.125 HD
ENDBRANCH   3  19
BRANCH   1  22
ATOM     22  O   UNL d   1       4.268   3.748  -0.447  0.00  0.00    -0.193 OA
BRANCH  22  23
ATOM     23  C   UNL d   1       5.637   3.743  -0.601  0.00  0.00     0.316 C 
ATOM     24  O   UNL d   1       6.239   2.690  -0.414  0.00  0.00    -0.257 OA
BRANCH  23  25
ATOM     25  C   UNL d   1       6.412   4.965  -1.006  0.00  0.00     0.063 A 
ATOM     26  C   UNL d   1       7.525   4.858  -1.863  0.00  0.00     0.050 A 
ATOM     27 CL   UNL d   1       8.038   3.382  -2.610  0.00  0.00    -0.083 Cl
ATOM     28  C   UNL d   1       8.297   5.990  -2.181  0.00  0.00     0.025 A 
ATOM     29  C   UNL d   1       7.965   7.242  -1.670  0.00  0.00     0.002 A 
ATOM     30  C   UNL d   1       6.879   7.362  -0.812  0.00  0.00     0.001 A 
ATOM     31  C   UNL d   1       6.131   6.231  -0.461  0.00  0.00     0.019 A 
ENDBRANCH  23  25
ENDBRANCH  22  23
ENDBRANCH   1  22
TORSDOF 8
