REMARK  2 active torsions:
REMARK  status: ('A' for Active; 'I' for Inactive)
REMARK       I    between atoms: N_2  and  C_1 
REMARK    1  A    between atoms: C_5  and  C_1 
REMARK    2  A    between atoms: C_6  and  N_2 
ROOT
ATOM      1  C   UNL d   1       1.022   0.275  -0.311  0.00  0.00     0.275 C 
ATOM      2  N   UNL d   1       0.599   0.655   0.942  0.00  0.00    -0.308 N 
ATOM      3  O   UNL d   1       2.010   0.700  -0.905  0.00  0.00    -0.266 OA
ATOM      4  H   UNL d   1      -0.118   0.094   1.390  0.00  0.00     0.170 HD
ENDROOT
BRANCH   2   5
ATOM      5  C   UNL d   1       1.164   1.637   1.752  0.00  0.00     0.108 A 
ATOM      6  N   UNL d   1       0.857   1.533   3.063  0.00  0.00    -0.345 N 
ATOM      7  C   UNL d   1       1.411   2.428   3.929  0.00  0.00     0.024 A 
ATOM      8  HN  UNL d   1       0.226   0.804   3.397  1.00  0.00     0.167 HD
ATOM      9  C   UNL d   1       1.125   2.188   5.383  0.00  0.00     0.069 C 
ATOM     10  C   UNL d   1       2.219   3.480   3.498  0.00  0.00     0.033 A 
ATOM     11  C   UNL d   1       2.488   3.596   2.139  0.00  0.00     0.025 A 
ATOM     12 BR   UNL d   1       2.974   4.756   4.676  0.00  0.00    -0.049 Br
ATOM     13  C   UNL d   1       1.966   2.654   1.256  0.00  0.00     0.050 A 
ENDBRANCH   2   5
BRANCH   1  14
ATOM     14  C   UNL d   1       0.198  -0.789  -0.943  0.00  0.00     0.116 A 
ATOM     15  N   UNL d   1      -1.071  -0.965  -0.477  0.00  0.00    -0.359 N 
ATOM     16  C   UNL d   1      -1.795  -1.895  -1.147  0.00  0.00     0.105 A 
ATOM     17  HN  UNL d   1      -1.446  -0.439   0.312  1.00  0.00     0.165 HD
ATOM     18  C   UNL d   1      -1.274  -2.638  -2.196  0.00  0.00     0.104 A 
ATOM     19  N   UNL d   1      -0.002  -2.486  -2.633  0.00  0.00    -0.372 N 
ATOM     20  C   UNL d   1       0.721  -1.536  -1.989  0.00  0.00     0.122 A 
ATOM     21  HN  UNL d   1       0.385  -3.046  -3.393  1.00  0.00     0.164 HD
ENDBRANCH   1  14
TORSDOF 2
