REMARK  6 active torsions:
REMARK  status: ('A' for Active; 'I' for Inactive)
REMARK    1  A    between atoms: N_9  and  S_1 
REMARK    2  A    between atoms: C_16  and  S_1 
REMARK    3  A    between atoms: C_15  and  C_2 
REMARK    4  A    between atoms: C_11  and  C_4 
REMARK    5  A    between atoms: C_8  and  N_14 
REMARK    6  A    between atoms: O_29  and  C_15 
ROOT
ATOM      1  C   UNL d   1      -4.862  -3.835   4.375  0.00  0.00     0.074 A 
ATOM      2  C   UNL d   1      -3.450  -3.642   4.133  0.00  0.00     0.068 A 
ATOM      3  C   UNL d   1      -1.265  -4.057   5.116  0.00  0.00     0.070 A 
ATOM      4  C   UNL d   1      -2.664  -4.129   5.186  0.00  0.00     0.047 A 
ATOM      5  N   UNL d   1      -2.896  -3.082   3.020  0.00  0.00    -0.341 N 
ATOM      6  HN  UNL d   1      -3.489  -2.697   2.285  1.00  0.00     0.167 HD
ATOM      7  C   UNL d   1      -1.559  -3.044   2.906  0.00  0.00     0.104 A 
ATOM      8  S   UNL d   1      -3.643  -4.770   6.445  0.00  0.00    -0.098 SA
ATOM      9  C   UNL d   1      -5.074  -4.439   5.602  0.00  0.00     0.070 A 
ATOM     10  C   UNL d   1      -0.744  -3.504   3.935  0.00  0.00     0.066 A 
ENDROOT
BRANCH   7  11
ATOM     11  N   UNL d   1      -1.021  -2.592   1.694  0.00  0.00    -0.365 N 
ATOM     12  C   UNL d   1       0.400  -2.855   1.400  0.00  0.00     0.140 C 
ATOM     13  C   UNL d   1       0.740  -2.519  -0.059  0.00  0.00     0.127 C 
ATOM     14  N   UNL d   1       0.383  -1.107  -0.396  0.00  0.00    -0.203 NA
ATOM     15  C   UNL d   1      -1.084  -0.897  -0.157  0.00  0.00     0.127 C 
ATOM     16  C   UNL d   1      -1.531  -1.266   1.280  0.00  0.00     0.140 C 
BRANCH  14  17
ATOM     17  S   UNL d   1       1.456   0.072   0.208  0.00  0.00     0.243 S 
ATOM     18  O   UNL d   1       2.807  -0.389  -0.014  0.00  0.00    -0.206 OA
ATOM     19  O   UNL d   1       1.007   0.459   1.529  0.00  0.00    -0.206 OA
BRANCH  17  20
ATOM     20  C   UNL d   1       1.189   1.438  -0.897  0.00  0.00     0.074 A 
ATOM     21  C   UNL d   1       0.698   2.656  -0.418  0.00  0.00     0.026 A 
ATOM     22  C   UNL d   1       0.454   3.698  -1.317  0.00  0.00     0.025 A 
ATOM     23  C   UNL d   1       0.713   3.518  -2.678  0.00  0.00     0.034 A 
ATOM     24  C   UNL d   1       1.246   2.317  -3.147  0.00  0.00     0.025 A 
ATOM     25 CL   UNL d   1       0.358   4.783  -3.788  0.00  0.00    -0.084 Cl
ATOM     26  C   UNL d   1       1.490   1.272  -2.254  0.00  0.00     0.026 A 
ENDBRANCH  17  20
ENDBRANCH  14  17
ENDBRANCH   7  11
BRANCH   3  27
ATOM     27  C   UNL d   1      -0.296  -4.539   6.163  0.00  0.00     0.418 C 
ATOM     28  F   UNL d   1      -0.855  -5.109   7.262  0.00  0.00    -0.166 F 
ATOM     29  F   UNL d   1       0.564  -5.472   5.663  0.00  0.00    -0.166 F 
ATOM     30  F   UNL d   1       0.492  -3.531   6.631  0.00  0.00    -0.166 F 
ENDBRANCH   3  27
BRANCH   1  31
ATOM     31  C   UNL d   1      -6.002  -3.507   3.526  0.00  0.00     0.295 C 
ATOM     32  O   UNL d   1      -7.161  -3.730   3.877  0.00  0.00    -0.259 OA
BRANCH  31  33
ATOM     33  O   UNL d   1      -5.682  -2.956   2.324  0.00  0.00    -0.322 OA
ATOM     34  C   UNL d   1      -6.815  -2.696   1.496  0.00  0.00     0.213 C 
ENDBRANCH  31  33
ENDBRANCH   1  31
TORSDOF 6
