REMARK  6 active torsions:
REMARK  status: ('A' for Active; 'I' for Inactive)
REMARK       I    between atoms: N_3  and  C_1 
REMARK    1  A    between atoms: C_8  and  C_1 
REMARK    2  A    between atoms: C_2  and  C_7 
REMARK    3  A    between atoms: O_10  and  C_2 
REMARK    4  A    between atoms: C_7  and  N_3 
REMARK    5  A    between atoms: S_4  and  C_8 
REMARK    6  A    between atoms: C_9  and  S_4 
ROOT
ATOM      1  C   UNL d   1       1.052  -0.002   0.187  0.00  0.00     0.227 C 
ATOM      2  N   UNL d   1       0.374   1.177   0.384  0.00  0.00    -0.351 N 
ATOM      3  O   UNL d   1       0.458  -1.058  -0.028  0.00  0.00    -0.273 OA
ATOM      4  H   UNL d   1       0.883   1.995   0.707  0.00  0.00     0.163 HD
ENDROOT
BRANCH   1   5
ATOM      5  C   UNL d   1       2.569   0.069   0.120  0.00  0.00     0.182 C 
BRANCH   5   6
ATOM      6  S   UNL d   1       3.288   1.294   1.260  0.00  0.00    -0.121 SA
BRANCH   6   7
ATOM      7  C   UNL d   1       5.017   0.897   1.031  0.00  0.00     0.001 A 
ATOM      8  C   UNL d   1       5.655   1.125  -0.193  0.00  0.00     0.018 A 
ATOM      9  C   UNL d   1       7.005   0.798  -0.357  0.00  0.00     0.001 A 
ATOM     10  C   UNL d   1       7.724   0.248   0.702  0.00  0.00     0.000 A 
ATOM     11  C   UNL d   1       7.097   0.029   1.928  0.00  0.00     0.001 A 
ATOM     12  C   UNL d   1       5.749   0.358   2.093  0.00  0.00     0.018 A 
ENDBRANCH   6   7
ENDBRANCH   5   6
ENDBRANCH   1   5
BRANCH   2  13
ATOM     13  C   UNL d   1      -1.082   1.190   0.439  0.00  0.00     0.233 C 
BRANCH  13  14
ATOM     14  C   UNL d   1      -1.720   2.542   0.733  0.00  0.00     0.276 C 
ATOM     15  O   UNL d   1      -2.930   2.724   0.783  0.00  0.00    -0.263 OA
BRANCH  14  16
ATOM     16  O   UNL d   1      -0.781   3.510   0.945  0.00  0.00    -0.325 OA
ATOM     17  C   UNL d   1      -1.337   4.795   1.233  0.00  0.00     0.213 C 
ENDBRANCH  14  16
ENDBRANCH  13  14
ENDBRANCH   2  13
TORSDOF 6
