REMARK  8 active torsions:
REMARK  status: ('A' for Active; 'I' for Inactive)
REMARK    1  A    between atoms: C_2  and  C_1 
REMARK    2  A    between atoms: C_3  and  N_5 
REMARK    3  A    between atoms: N_9  and  C_3 
REMARK    4  A    between atoms: N_5  and  C_4 
REMARK    5  A    between atoms: C_6  and  C_8 
REMARK    6  A    between atoms: O_15  and  C_6 
REMARK    7  A    between atoms: C_8  and  C_14 
REMARK    8  A    between atoms: C_14  and  N_9 
ROOT
ATOM      1  N   UNL d   1      -0.150  -1.068  -1.876  0.00  0.00    -0.333 N 
ATOM      2  H   UNL d   1      -0.786  -1.344  -2.620  0.00  0.00     0.168 HD
ENDROOT
BRANCH   1   3
ATOM      3  C   UNL d   1       0.423  -2.135  -1.199  0.00  0.00     0.172 C 
ATOM      4  S   UNL d   1       2.065  -2.346  -0.937  0.00  0.00    -0.041 SA
BRANCH   3   5
ATOM      5  N   UNL d   1      -0.555  -3.032  -0.806  0.00  0.00    -0.366 N 
ATOM      6  H   UNL d   1      -1.508  -2.712  -0.928  0.00  0.00     0.161 HD
BRANCH   5   7
ATOM      7  C   UNL d   1      -0.374  -4.136   0.136  0.00  0.00     0.132 C 
BRANCH   7   8
ATOM      8  C   UNL d   1      -0.264  -3.637   1.569  0.00  0.00     0.129 C 
BRANCH   8   9
ATOM      9  C   UNL d   1       0.018  -4.792   2.485  0.00  0.00     0.140 C 
ATOM     10  O   UNL d   1      -0.854  -5.477   2.995  0.00  0.00    -0.650 OA
BRANCH   9  11
ATOM     11  O   UNL d   1       1.335  -5.030   2.668  0.00  0.00    -0.776 OA
ATOM     12  H   UNL d   1       1.932  -4.420   2.190  0.00  0.00     0.167 HD
ENDBRANCH   9  11
ENDBRANCH   8   9
ENDBRANCH   7   8
ENDBRANCH   5   7
ENDBRANCH   3   5
ENDBRANCH   1   3
BRANCH   1  13
ATOM     13  C   UNL d   1       0.212   0.301  -1.800  0.00  0.00     0.049 A 
ATOM     14  C   UNL d   1      -0.140   1.204  -2.821  0.00  0.00     0.074 A 
ATOM     15  C   UNL d   1       0.183   2.572  -2.669  0.00  0.00     0.018 A 
ATOM     16  C   UNL d   1       0.827   3.040  -1.527  0.00  0.00     0.001 A 
ATOM     17  C   UNL d   1       1.152   2.151  -0.512  0.00  0.00     0.002 A 
ATOM     18  C   UNL d   1       0.838   0.799  -0.645  0.00  0.00     0.030 A 
BRANCH  14  19
ATOM     19  C   UNL d   1      -0.822   0.799  -4.101  0.00  0.00     0.419 C 
ATOM     20  F   UNL d   1      -1.169  -0.519  -4.160  0.00  0.00    -0.166 F 
ATOM     21  F   UNL d   1      -0.052   1.030  -5.201  0.00  0.00    -0.166 F 
ATOM     22  F   UNL d   1      -1.981   1.486  -4.310  0.00  0.00    -0.166 F 
ENDBRANCH  14  19
ENDBRANCH   1  13
TORSDOF 8
