REMARK  7 active torsions:
REMARK  status: ('A' for Active; 'I' for Inactive)
REMARK    1  A    between atoms: C_5  and  C_1 
REMARK    2  A    between atoms: C_2  and  C_4 
REMARK    3  A    between atoms: C_3  and  C_10 
REMARK    4  A    between atoms: C_15  and  C_6 
REMARK    5  A    between atoms: C_7  and  C_16 
REMARK    6  A    between atoms: O_28  and  C_9 
REMARK    7  A    between atoms: N_12  and  C_15 
ROOT
ATOM      1  C   UNL d   1       0.858   5.459  -2.482  0.00  0.00    -0.070 C 
ATOM      2  C   UNL d   1       0.649   4.275  -2.441  0.00  0.00    -0.064 C 
ENDROOT
BRANCH   1   3
ATOM      3  C   UNL d   1       1.092   6.923  -2.535  0.00  0.00     0.086 C 
ATOM      4  C   UNL d   1       0.705   7.463  -3.920  0.00  0.00     0.052 C 
ATOM      5  C   UNL d   1       0.278   7.671  -1.472  0.00  0.00     0.052 C 
BRANCH   3   6
ATOM      6  N   UNL d   1       2.532   7.198  -2.377  0.00  0.00    -0.379 N 
ATOM      7  C   UNL d   1       3.106   6.855  -1.276  0.00  0.00     0.099 C 
ATOM      8  HN  UNL d   1       3.062   7.649  -3.122  1.00  0.00     0.160 HD
BRANCH   7   9
ATOM      9  C   UNL d   1       4.534   7.148  -1.027  0.00  0.00     0.015 A 
ATOM     10  C   UNL d   1       5.138   6.732   0.164  0.00  0.00     0.099 A 
ATOM     11  C   UNL d   1       6.491   7.013   0.392  0.00  0.00     0.069 A 
ATOM     12 CL   UNL d   1       7.251   6.499   1.853  0.00  0.00    -0.081 Cl
ATOM     13  C   UNL d   1       7.240   7.710  -0.554  0.00  0.00     0.050 A 
ATOM     14  C   UNL d   1       6.629   8.129  -1.734  0.00  0.00     0.036 A 
ATOM     15  C   UNL d   1       5.283   7.854  -1.977  0.00  0.00     0.039 A 
ATOM     16 CL   UNL d   1       7.548   8.998  -2.901  0.00  0.00    -0.084 Cl
BRANCH  10  17
ATOM     17  O   UNL d   1       4.401   6.054   1.100  0.00  0.00    -0.358 OA
ATOM     18  H   UNL d   1       4.991   5.849   1.852  0.00  0.00     0.217 HD
ENDBRANCH  10  17
ENDBRANCH   7   9
ENDBRANCH   3   6
ENDBRANCH   1   3
BRANCH   2  19
ATOM     19  C   UNL d   1       0.404   2.860  -2.387  0.00  0.00     0.019 A 
ATOM     20  C   UNL d   1       0.740   2.133  -1.241  0.00  0.00     0.036 A 
ATOM     21  C   UNL d   1       0.524   0.744  -1.178  0.00  0.00     0.050 A 
ATOM     22  C   UNL d   1      -0.045   0.093  -2.284  0.00  0.00     0.032 A 
ATOM     23  C   UNL d   1      -0.394   0.808  -3.443  0.00  0.00     0.050 A 
ATOM     24  C   UNL d   1      -0.163   2.197  -3.481  0.00  0.00     0.036 A 
BRANCH  21  25
ATOM     25  C   UNL d   1       0.911  -0.025   0.064  0.00  0.00     0.417 C 
ATOM     26  F   UNL d   1       0.672  -1.363  -0.030  0.00  0.00    -0.166 F 
ATOM     27  F   UNL d   1       0.239   0.397   1.169  0.00  0.00    -0.166 F 
ATOM     28  F   UNL d   1       2.235   0.096   0.358  0.00  0.00    -0.166 F 
ENDBRANCH  21  25
BRANCH  23  29
ATOM     29  C   UNL d   1      -0.998   0.105  -4.636  0.00  0.00     0.417 C 
ATOM     30  F   UNL d   1      -1.153  -1.236  -4.453  0.00  0.00    -0.166 F 
ATOM     31  F   UNL d   1      -2.233   0.582  -4.953  0.00  0.00    -0.166 F 
ATOM     32  F   UNL d   1      -0.241   0.241  -5.759  0.00  0.00    -0.166 F 
ENDBRANCH  23  29
ENDBRANCH   2  19
TORSDOF 7
