REMARK  5 active torsions:
REMARK  status: ('A' for Active; 'I' for Inactive)
REMARK    1  A    between atoms: C_3  and  S_1 
REMARK    2  A    between atoms: N_4  and  S_1 
REMARK    3  A    between atoms: S_2  and  N_5 
REMARK    4  A    between atoms: C_7  and  S_2 
REMARK    5  A    between atoms: C_6  and  C_8 
ROOT
ATOM      1  N   UNL d   1       0.657   0.417   1.258  0.00  0.00    -0.304 N 
ATOM      2  N   UNL d   1       2.334   2.151   2.911  0.00  0.00    -0.304 N 
ATOM      3  C   UNL d   1       2.720   0.729   2.646  0.00  0.00     0.156 C 
ATOM      4  C   UNL d   1       0.248   1.824   1.547  0.00  0.00     0.156 C 
ATOM      5  C   UNL d   1       1.472   2.711   1.826  0.00  0.00     0.156 C 
ATOM      6  C   UNL d   1       1.500  -0.155   2.345  0.00  0.00     0.156 C 
ENDROOT
BRANCH   2   7
ATOM      7  S   UNL d   1       1.901   2.552   4.505  0.00  0.00     0.261 S 
ATOM      8  O   UNL d   1       1.453   3.926   4.535  0.00  0.00    -0.200 OA
ATOM      9  O   UNL d   1       1.083   1.476   5.021  0.00  0.00    -0.200 OA
BRANCH   7  10
ATOM     10  C   UNL d   1       3.479   2.509   5.324  0.00  0.00     0.080 A 
ATOM     11  C   UNL d   1       4.533   3.258   4.784  0.00  0.00     0.041 A 
ATOM     12  C   UNL d   1       5.817   3.165   5.338  0.00  0.00     0.049 A 
ATOM     13  C   UNL d   1       6.009   2.348   6.465  0.00  0.00     0.016 A 
ATOM     14  C   UNL d   1       4.946   1.627   7.018  0.00  0.00     0.002 A 
ATOM     15  C   UNL d   1       3.677   1.698   6.442  0.00  0.00     0.025 A 
BRANCH  12  16
ATOM     16  C   UNL d   1       6.990   3.880   4.712  0.00  0.00     0.417 C 
ATOM     17  F   UNL d   1       6.649   4.651   3.643  0.00  0.00    -0.166 F 
ATOM     18  F   UNL d   1       7.632   4.706   5.583  0.00  0.00    -0.166 F 
ATOM     19  F   UNL d   1       7.933   3.009   4.256  0.00  0.00    -0.166 F 
ENDBRANCH  12  16
ENDBRANCH   7  10
ENDBRANCH   2   7
BRANCH   1  20
ATOM     20  S   UNL d   1       1.076   0.042  -0.341  0.00  0.00     0.261 S 
ATOM     21  O   UNL d   1       1.596   1.238  -0.964  0.00  0.00    -0.200 OA
ATOM     22  O   UNL d   1       1.806  -1.208  -0.358  0.00  0.00    -0.200 OA
BRANCH  20  23
ATOM     23  C   UNL d   1      -0.518  -0.302  -1.041  0.00  0.00     0.083 A 
ATOM     24  C   UNL d   1      -0.979   0.414  -2.148  0.00  0.00     0.049 A 
ATOM     25  C   UNL d   1      -2.238   0.114  -2.666  0.00  0.00     0.037 A 
ATOM     26 CL   UNL d   1      -2.827   0.984  -4.029  0.00  0.00    -0.084 Cl
ATOM     27  C   UNL d   1      -3.030  -0.882  -2.093  0.00  0.00     0.047 A 
ATOM     28  C   UNL d   1      -2.550  -1.592  -0.994  0.00  0.00     0.037 A 
ATOM     29  C   UNL d   1      -1.294  -1.313  -0.464  0.00  0.00     0.049 A 
ATOM     30 CL   UNL d   1      -3.521  -2.820  -0.281  0.00  0.00    -0.084 Cl
ENDBRANCH  20  23
ENDBRANCH   1  20
TORSDOF 5
