REMARK  1 active torsions:
REMARK  status: ('A' for Active; 'I' for Inactive)
REMARK    1  A    between atoms: C_11  and  N_3 
ROOT
ATOM      1  C   UNL d   1       1.635  -0.682  -0.001  0.00  0.00     0.085 A 
ATOM      2  C   UNL d   1       0.885   0.481  -0.050  0.00  0.00     0.087 A 
ATOM      3  N   UNL d   1       1.815   1.513  -0.124  0.00  0.00    -0.255 N 
ATOM      4  C   UNL d   1       1.051  -2.000   0.111  0.00  0.00     0.262 A 
ATOM      5  N   UNL d   1       3.077   1.029  -0.317  0.00  0.00    -0.297 N 
ATOM      6  HN  UNL d   1       3.915   1.560  -0.551  1.00  0.00     0.187 HD
ATOM      7  N   UNL d   1      -0.354  -2.042   0.148  0.00  0.00    -0.317 N 
ATOM      8  C   UNL d   1      -0.580   0.428  -0.086  0.00  0.00     0.021 A 
ATOM      9  C   UNL d   1       2.977  -0.289  -0.133  0.00  0.00     0.040 C 
ATOM     10  C   UNL d   1      -1.175  -0.855   0.067  0.00  0.00     0.049 A 
ATOM     11  O   UNL d   1       1.758  -3.003   0.158  0.00  0.00    -0.267 OA
ATOM     12  C   UNL d   1      -0.983  -3.353   0.155  0.00  0.00     0.159 C 
ATOM     13  C   UNL d   1      -1.411   1.529  -0.325  0.00  0.00     0.016 A 
ATOM     14  C   UNL d   1       4.189  -1.145  -0.135  0.00  0.00     0.071 C 
ATOM     15  C   UNL d   1      -2.578  -0.955   0.100  0.00  0.00     0.031 A 
ATOM     16  C   UNL d   1      -2.801   1.411  -0.275  0.00  0.00     0.001 A 
ATOM     17  C   UNL d   1      -3.385   0.173  -0.046  0.00  0.00     0.002 A 
ENDROOT
BRANCH   3  18
ATOM     18  C   UNL d   1       1.669   2.924  -0.011  0.00  0.00     0.057 A 
ATOM     19  C   UNL d   1       0.749   3.501   0.869  0.00  0.00     0.031 A 
ATOM     20  C   UNL d   1       0.609   4.893   0.913  0.00  0.00     0.002 A 
ATOM     21  C   UNL d   1       1.403   5.705   0.103  0.00  0.00     0.000 A 
ATOM     22  C   UNL d   1       2.364   5.134  -0.728  0.00  0.00     0.002 A 
ATOM     23  C   UNL d   1       2.511   3.748  -0.774  0.00  0.00     0.031 A 
ENDBRANCH   3  18
TORSDOF 1
