REMARK  4 active torsions:
REMARK  status: ('A' for Active; 'I' for Inactive)
REMARK    1  A    between atoms: N_2  and  C_1 
REMARK    2  A    between atoms: N_3  and  C_1 
REMARK    3  A    between atoms: C_4  and  N_2 
REMARK    4  A    between atoms: C_5  and  N_3 
ROOT
ATOM      1  C   UNL d   1       0.926   0.140  -0.045  0.00  0.00     0.176 C 
ATOM      2  S   UNL d   1       2.544   0.540   0.083  0.00  0.00    -0.041 SA
ENDROOT
BRANCH   1   3
ATOM      3  N   UNL d   1       0.405  -0.940  -0.716  0.00  0.00    -0.331 N 
ATOM      4  H   UNL d   1      -0.368  -0.699  -1.331  0.00  0.00     0.168 HD
BRANCH   3   5
ATOM      5  C   UNL d   1       0.972  -2.213  -0.934  0.00  0.00     0.073 A 
ATOM      6  C   UNL d   1       0.598  -2.918  -2.084  0.00  0.00     0.145 A 
ATOM      7  C   UNL d   1       1.058  -4.207  -2.323  0.00  0.00     0.086 A 
ATOM      8  F   UNL d   1      -0.213  -2.340  -2.984  0.00  0.00    -0.204 F 
ATOM      9  C   UNL d   1       1.877  -4.807  -1.374  0.00  0.00     0.119 A 
ATOM     10  C   UNL d   1       2.241  -4.135  -0.210  0.00  0.00     0.044 A 
ATOM     11  F   UNL d   1       2.306  -6.058  -1.573  0.00  0.00    -0.206 F 
ATOM     12  C   UNL d   1       1.794  -2.830   0.010  0.00  0.00     0.036 A 
ENDBRANCH   3   5
ENDBRANCH   1   3
BRANCH   1  13
ATOM     13  N   UNL d   1      -0.010   1.033   0.413  0.00  0.00    -0.331 N 
ATOM     14  H   UNL d   1       0.312   1.992   0.524  0.00  0.00     0.168 HD
BRANCH  13  15
ATOM     15  C   UNL d   1      -1.280   0.748   0.962  0.00  0.00     0.073 A 
ATOM     16  C   UNL d   1      -2.186   1.803   1.121  0.00  0.00     0.145 A 
ATOM     17  C   UNL d   1      -3.437   1.605   1.693  0.00  0.00     0.086 A 
ATOM     18  F   UNL d   1      -1.854   3.033   0.700  0.00  0.00    -0.204 F 
ATOM     19  C   UNL d   1      -3.772   0.335   2.145  0.00  0.00     0.119 A 
ATOM     20  C   UNL d   1      -2.880  -0.726   2.032  0.00  0.00     0.044 A 
ATOM     21  F   UNL d   1      -4.966   0.133   2.716  0.00  0.00    -0.206 F 
ATOM     22  C   UNL d   1      -1.635  -0.522   1.433  0.00  0.00     0.036 A 
ENDBRANCH  13  15
ENDBRANCH   1  13
TORSDOF 4
