REMARK  5 active torsions:
REMARK  status: ('A' for Active; 'I' for Inactive)
REMARK    1  A    between atoms: N_2  and  C_1 
REMARK    2  A    between atoms: C_3  and  O_8 
REMARK    3  A    between atoms: C_5  and  C_3 
REMARK    4  A    between atoms: C_4  and  C_9 
REMARK    5  A    between atoms: O_8  and  C_6 
ROOT
ATOM      1  C   UNL d   1       1.211   0.293  -0.044  0.00  0.00     0.137 A 
ATOM      2  C   UNL d   1       0.696  -1.004  -0.081  0.00  0.00     0.112 A 
ATOM      3  C   UNL d   1       0.386   1.421  -0.026  0.00  0.00     0.055 A 
ATOM      4  C   UNL d   1      -1.004   1.248  -0.037  0.00  0.00     0.050 A 
ATOM      5  C   UNL d   1      -0.683  -1.184  -0.098  0.00  0.00     0.041 A 
ATOM      6  C   UNL d   1      -1.526  -0.062  -0.069  0.00  0.00     0.019 A 
ENDROOT
BRANCH   2   7
ATOM      7  O   UNL d   1       1.631  -2.063  -0.146  0.00  0.00    -0.272 OA
BRANCH   7   8
ATOM      8  C   UNL d   1       1.422  -3.431  -0.026  0.00  0.00     0.301 C 
ATOM      9  O   UNL d   1       0.356  -3.985   0.182  0.00  0.00    -0.259 OA
BRANCH   8  10
ATOM     10  C   UNL d   1       2.716  -4.149  -0.187  0.00  0.00     0.078 A 
ATOM     11  C   UNL d   1       3.928  -3.497  -0.437  0.00  0.00     0.132 A 
ATOM     12  F   UNL d   1       4.003  -2.166  -0.560  0.00  0.00    -0.205 F 
ATOM     13  C   UNL d   1       5.116  -4.214  -0.577  0.00  0.00     0.043 A 
ATOM     14  C   UNL d   1       5.107  -5.602  -0.476  0.00  0.00     0.003 A 
ATOM     15  C   UNL d   1       3.906  -6.269  -0.233  0.00  0.00     0.001 A 
ATOM     16  C   UNL d   1       2.716  -5.549  -0.087  0.00  0.00     0.021 A 
ENDBRANCH   8  10
ENDBRANCH   7   8
ENDBRANCH   2   7
BRANCH   1  17
ATOM     17  N   UNL d   1       2.641   0.499   0.000  0.00  0.00    -0.113 N 
ATOM     18  O   UNL d   1       3.204   0.295   1.084  0.00  0.00    -0.532 OA
ATOM     19  O   UNL d   1       3.177   0.919  -1.034  0.00  0.00    -0.532 OA
ENDBRANCH   1  17
BRANCH   4  20
ATOM     20  C   UNL d   1      -1.932   2.440   0.016  0.00  0.00     0.417 C 
ATOM     21  F   UNL d   1      -1.291   3.626  -0.179  0.00  0.00    -0.166 F 
ATOM     22  F   UNL d   1      -2.912   2.385  -0.925  0.00  0.00    -0.166 F 
ATOM     23  F   UNL d   1      -2.563   2.548   1.216  0.00  0.00    -0.166 F 
ENDBRANCH   4  20
TORSDOF 5
