REMARK  6 active torsions:
REMARK  status: ('A' for Active; 'I' for Inactive)
REMARK    1  A    between atoms: C_2  and  C_1 
REMARK    2  A    between atoms: C_3  and  C_2 
REMARK    3  A    between atoms: C_8  and  C_3 
REMARK    4  A    between atoms: N_9  and  C_5 
REMARK       I    between atoms: C_12  and  N_9 
REMARK    5  A    between atoms: C_13  and  C_12 
REMARK    6  A    between atoms: O_24  and  C_23 
ROOT
ATOM      1  C   UNL d   1      -2.719  -4.579  -0.635  0.00  0.00     0.148 A 
ATOM      2  S   UNL d   1      -1.100  -4.814  -0.107  0.00  0.00    -0.031 SA
ATOM      3  C   UNL d   1      -0.877  -3.133  -0.259  0.00  0.00     0.168 A 
ATOM      4  N   UNL d   1      -3.049  -3.308  -0.765  0.00  0.00    -0.290 N 
ATOM      5  HN  UNL d   1      -3.983  -2.985  -1.015  1.00  0.00     0.187 HD
ATOM      6  N   UNL d   1      -1.981  -2.468  -0.523  0.00  0.00    -0.279 N 
ATOM      7  HN  UNL d   1      -2.041  -1.450  -0.545  1.00  0.00     0.189 HD
ENDROOT
BRANCH   3   8
ATOM      8  N   UNL d   1       0.338  -2.514  -0.089  0.00  0.00    -0.302 N 
ATOM      9  C   UNL d   1       1.566  -3.145  -0.102  0.00  0.00     0.257 C 
ATOM     10  O   UNL d   1       1.775  -4.335  -0.287  0.00  0.00    -0.267 OA
ATOM     11  H   UNL d   1       0.291  -1.509  -0.169  0.00  0.00     0.171 HD
BRANCH   9  12
ATOM     12  C   UNL d   1       2.741  -2.241   0.052  0.00  0.00     0.035 A 
ATOM     13  C   UNL d   1       2.680  -1.089   0.849  0.00  0.00     0.053 A 
ATOM     14  C   UNL d   1       3.785  -0.239   0.932  0.00  0.00     0.069 A 
ATOM     15  C   UNL d   1       4.961  -0.570   0.252  0.00  0.00     0.037 A 
ATOM     16  C   UNL d   1       5.041  -1.737  -0.508  0.00  0.00     0.004 A 
ATOM     17  C   UNL d   1       3.930  -2.572  -0.610  0.00  0.00     0.017 A 
BRANCH  14  18
ATOM     18  O   UNL d   1       3.841   0.932   1.635  0.00  0.00    -0.356 OA
ATOM     19  C   UNL d   1       2.655   1.339   2.307  0.00  0.00     0.210 C 
ENDBRANCH  14  18
ENDBRANCH   9  12
ENDBRANCH   3   8
BRANCH   1  20
ATOM     20  C   UNL d   1      -3.595  -5.748  -0.965  0.00  0.00     0.366 C 
ATOM     21  F   UNL d   1      -2.851  -6.849  -1.298  0.00  0.00    -0.191 F 
ATOM     22  F   UNL d   1      -4.295  -6.125   0.150  0.00  0.00    -0.191 F 
BRANCH  20  23
ATOM     23  C   UNL d   1      -4.570  -5.468  -2.095  0.00  0.00     0.409 C 
ATOM     24  F   UNL d   1      -5.347  -6.582  -2.301  0.00  0.00    -0.189 F 
ATOM     25  F   UNL d   1      -5.459  -4.490  -1.754  0.00  0.00    -0.189 F 
BRANCH  23  26
ATOM     26  C   UNL d   1      -3.830  -5.116  -3.379  0.00  0.00     0.461 C 
ATOM     27  F   UNL d   1      -2.482  -5.141  -3.261  0.00  0.00    -0.165 F 
ATOM     28  F   UNL d   1      -4.139  -5.975  -4.383  0.00  0.00    -0.165 F 
ATOM     29  F   UNL d   1      -4.160  -3.880  -3.827  0.00  0.00    -0.165 F 
ENDBRANCH  23  26
ENDBRANCH  20  23
ENDBRANCH   1  20
TORSDOF 6
