REMARK  8 active torsions:
REMARK  status: ('A' for Active; 'I' for Inactive)
REMARK    1  A    between atoms: C_6  and  N_1 
REMARK    2  A    between atoms: C_11  and  C_6 
REMARK    3  A    between atoms: C_12  and  C_11 
REMARK    4  A    between atoms: O_20  and  C_11 
REMARK    5  A    between atoms: N_15  and  C_12 
REMARK    6  A    between atoms: C_21  and  N_15 
REMARK    7  A    between atoms: C_23  and  C_21 
REMARK    8  A    between atoms: C_24  and  C_23 
ROOT
ATOM      1  N   UNL d   1      -0.266  -1.295   0.959  0.00  0.00    -0.343 N 
ATOM      2  C   UNL d   1      -0.421   0.639  -0.165  0.00  0.00     0.005 A 
ATOM      3  C   UNL d   1       0.135   0.900   1.126  0.00  0.00     0.005 A 
ATOM      4  C   UNL d   1      -0.684  -0.731  -0.239  0.00  0.00     0.046 A 
ATOM      5  C   UNL d   1       0.216  -0.314   1.808  0.00  0.00     0.046 A 
ATOM      6  C   UNL d   1      -1.291  -1.300  -1.374  0.00  0.00     0.032 A 
ATOM      7  C   UNL d   1       0.693  -0.388   3.128  0.00  0.00     0.032 A 
ATOM      8  C   UNL d   1      -0.753   1.468  -1.259  0.00  0.00     0.038 A 
ATOM      9  C   UNL d   1       0.540   2.086   1.775  0.00  0.00     0.038 A 
ATOM     10  C   UNL d   1      -1.359   0.905  -2.382  0.00  0.00     0.035 A 
ATOM     11  C   UNL d   1       0.996   2.017   3.092  0.00  0.00     0.035 A 
ATOM     12  C   UNL d   1      -1.632  -0.457  -2.439  0.00  0.00     0.026 A 
ATOM     13  C   UNL d   1       1.073   0.801   3.760  0.00  0.00     0.026 A 
ATOM     14 CL   UNL d   1      -1.796   1.920  -3.705  0.00  0.00    -0.084 Cl
ATOM     15 CL   UNL d   1       1.447   3.466   3.907  0.00  0.00    -0.084 Cl
ENDROOT
BRANCH   1  16
ATOM     16  C   UNL d   1      -0.448  -2.695   1.325  0.00  0.00     0.163 C 
BRANCH  16  17
ATOM     17  C   UNL d   1       0.649  -3.638   0.810  0.00  0.00     0.164 C 
BRANCH  17  18
ATOM     18  C   UNL d   1       1.947  -3.684   1.666  0.00  0.00     0.305 C 
BRANCH  18  19
ATOM     19  N   UNL d   1       1.842  -3.980   3.108  0.00  0.00     0.086 N 
ATOM     20  C   UNL d   1       3.121  -3.746   3.776  0.00  0.00     0.310 C 
BRANCH  19  21
ATOM     21  C   UNL d   1       1.237  -5.269   3.476  0.00  0.00     0.272 C 
BRANCH  21  22
ATOM     22  C   UNL d   1       1.823  -6.590   2.941  0.00  0.00     0.030 C 
BRANCH  22  23
ATOM     23  C   UNL d   1       3.135  -7.103   3.540  0.00  0.00    -0.003 C 
ATOM     24  C   UNL d   1       3.087  -7.346   5.040  0.00  0.00     0.005 C 
ENDBRANCH  22  23
ENDBRANCH  21  22
ENDBRANCH  19  21
ENDBRANCH  18  19
ENDBRANCH  17  18
BRANCH  17  25
ATOM     25  O   UNL d   1       0.087  -4.951   0.651  0.00  0.00    -0.392 OA
ATOM     26  H   UNL d   1       0.788  -5.526   0.298  0.00  0.00     0.210 HD
ENDBRANCH  17  25
ENDBRANCH  16  17
ENDBRANCH   1  16
TORSDOF 8
