REMARK  1 active torsions:
REMARK  status: ('A' for Active; 'I' for Inactive)
REMARK    1  A    between atoms: C_10  and  C_2 
ROOT
ATOM      1  S   UNL d   1      -1.255   1.722   0.143  0.00  0.00     0.185 S 
ATOM      2  C   UNL d   1      -2.587   0.615  -0.320  0.00  0.00     0.153 C 
ATOM      3  C   UNL d   1       0.195   0.717   0.034  0.00  0.00     0.073 A 
ATOM      4  C   UNL d   1       0.117  -0.670  -0.065  0.00  0.00     0.031 A 
ATOM      5  C   UNL d   1      -1.167  -1.417  -0.068  0.00  0.00     0.162 C 
ATOM      6  C   UNL d   1      -2.415  -0.715   0.393  0.00  0.00     0.109 C 
ATOM      7  O   UNL d   1      -1.115   2.733  -0.887  0.00  0.00    -0.222 OA
ATOM      8  O   UNL d   1      -1.364   2.065   1.547  0.00  0.00    -0.222 OA
ATOM      9  O   UNL d   1      -1.185  -2.603  -0.379  0.00  0.00    -0.292 OA
ATOM     10  C   UNL d   1       1.436   1.369   0.048  0.00  0.00     0.024 A 
ATOM     11  C   UNL d   1       1.306  -1.410  -0.146  0.00  0.00     0.017 A 
ATOM     12  C   UNL d   1       2.546  -0.767  -0.119  0.00  0.00     0.001 A 
ATOM     13  C   UNL d   1       2.611   0.622  -0.025  0.00  0.00     0.002 A 
ENDROOT
BRANCH   2  14
ATOM     14  C   UNL d   1      -3.906   1.312  -0.028  0.00  0.00    -0.039 A 
ATOM     15  C   UNL d   1      -4.514   2.096  -1.023  0.00  0.00     0.008 A 
ATOM     16  C   UNL d   1      -5.721   2.753  -0.777  0.00  0.00     0.001 A 
ATOM     17  C   UNL d   1      -6.340   2.639   0.464  0.00  0.00     0.000 A 
ATOM     18  C   UNL d   1      -5.749   1.874   1.464  0.00  0.00     0.001 A 
ATOM     19  C   UNL d   1      -4.540   1.221   1.222  0.00  0.00     0.008 A 
ENDBRANCH   2  14
TORSDOF 1
