REMARK  6 active torsions:
REMARK  status: ('A' for Active; 'I' for Inactive)
REMARK    1  A    between atoms: C_4  and  C_1 
REMARK    2  A    between atoms: N_2  and  C_3 
REMARK       I    between atoms: N_9  and  C_4 
REMARK    3  A    between atoms: N_5  and  N_9 
REMARK    4  A    between atoms: C_14  and  C_13 
REMARK    5  A    between atoms: O_22  and  C_15 
REMARK    6  A    between atoms: C_23  and  O_22 
ROOT
ATOM      1  C   UNL d   1       2.857  -0.349  -0.133  0.00  0.00     0.272 C 
ATOM      2  N   UNL d   1       3.660   0.698   0.300  0.00  0.00    -0.266 N 
ATOM      3  O   UNL d   1       3.381  -1.391  -0.530  0.00  0.00    -0.266 OA
ATOM      4  H   UNL d   1       4.634   0.539   0.053  0.00  0.00     0.190 HD
ENDROOT
BRANCH   2   5
ATOM      5  N   UNL d   1       3.346   2.019   0.450  0.00  0.00    -0.308 N 
ATOM      6  C   UNL d   1       2.337   2.340   1.199  0.00  0.00     0.118 C 
ATOM      7  HN  UNL d   1       3.894   2.740  -0.019  1.00  0.00     0.186 HD
BRANCH   6   8
ATOM      8  C   UNL d   1       1.915   3.748   1.339  0.00  0.00    -0.019 A 
ATOM      9  C   UNL d   1       2.748   4.787   0.917  0.00  0.00     0.015 A 
ATOM     10  C   UNL d   1       2.361   6.115   1.113  0.00  0.00     0.037 A 
ATOM     11  C   UNL d   1       1.140   6.406   1.725  0.00  0.00     0.068 A 
ATOM     12  C   UNL d   1       0.282   5.363   2.084  0.00  0.00     0.037 A 
ATOM     13  C   UNL d   1       0.670   4.032   1.904  0.00  0.00     0.015 A 
BRANCH  11  14
ATOM     14  O   UNL d   1       0.679   7.670   1.978  0.00  0.00    -0.352 OA
BRANCH  14  15
ATOM     15  C   UNL d   1       1.691   8.636   2.273  0.00  0.00     0.171 C 
ATOM     16  C   UNL d   1       1.010   9.936   2.660  0.00  0.00     0.034 C 
ENDBRANCH  14  15
ENDBRANCH  11  14
ENDBRANCH   6   8
ENDBRANCH   2   5
BRANCH   1  17
ATOM     17  C   UNL d   1       1.376  -0.244  -0.167  0.00  0.00     0.060 A 
ATOM     18  C   UNL d   1       0.503  -1.220   0.358  0.00  0.00     0.054 A 
ATOM     19  C   UNL d   1      -0.887  -1.034   0.203  0.00  0.00     0.031 A 
ATOM     20  C   UNL d   1      -1.401   0.087  -0.451  0.00  0.00     0.002 A 
ATOM     21  C   UNL d   1      -0.538   1.020  -1.009  0.00  0.00     0.001 A 
ATOM     22  C   UNL d   1       0.839   0.836  -0.897  0.00  0.00     0.019 A 
BRANCH  18  23
ATOM     23  N   UNL d   1       0.933  -2.401   1.040  0.00  0.00    -0.332 N 
ATOM     24  C   UNL d   1       2.053  -2.576   1.829  0.00  0.00     0.096 A 
ATOM     25  C   UNL d   1       2.101  -3.882   2.270  0.00  0.00     0.019 A 
ATOM     26  C   UNL d   1       0.952  -4.533   1.783  0.00  0.00     0.019 A 
ATOM     27  C   UNL d   1       0.242  -3.604   1.058  0.00  0.00     0.096 A 
ENDBRANCH  18  23
ENDBRANCH   1  17
TORSDOF 6
