REMARK  4 active torsions:
REMARK  status: ('A' for Active; 'I' for Inactive)
REMARK    1  A    between atoms: C_2  and  C_1 
REMARK       I    between atoms: N_3  and  C_2 
REMARK    2  A    between atoms: C_7  and  N_3 
REMARK    3  A    between atoms: C_4  and  C_7 
REMARK    4  A    between atoms: C_6  and  C_4 
ROOT
ATOM      1  C   UNL d   1       0.934  -2.985   0.786  0.00  0.00     0.255 C 
ATOM      2  N   UNL d   1       0.166  -3.689  -0.112  0.00  0.00    -0.349 N 
ATOM      3  O   UNL d   1       0.474  -2.540   1.833  0.00  0.00    -0.268 OA
ATOM      4  H   UNL d   1       0.579  -4.067  -0.960  0.00  0.00     0.163 HD
ENDROOT
BRANCH   2   5
ATOM      5  C   UNL d   1      -1.260  -3.873   0.085  0.00  0.00     0.206 C 
BRANCH   5   6
ATOM      6  C   UNL d   1      -1.641  -5.345   0.044  0.00  0.00     0.177 C 
ATOM      7  O   UNL d   1      -1.732  -5.969  -1.013  0.00  0.00    -0.291 OA
BRANCH   6   8
ATOM      8  C   UNL d   1      -1.865  -6.060   1.328  0.00  0.00     0.011 A 
ATOM      9  C   UNL d   1      -2.831  -7.072   1.381  0.00  0.00     0.017 A 
ATOM     10  C   UNL d   1      -3.030  -7.789   2.565  0.00  0.00     0.025 A 
ATOM     11  C   UNL d   1      -2.248  -7.507   3.686  0.00  0.00     0.034 A 
ATOM     12  C   UNL d   1      -1.281  -6.505   3.637  0.00  0.00     0.025 A 
ATOM     13 CL   UNL d   1      -2.470  -8.408   5.134  0.00  0.00    -0.084 Cl
ATOM     14  C   UNL d   1      -1.091  -5.777   2.459  0.00  0.00     0.017 A 
ENDBRANCH   6   8
ENDBRANCH   5   6
ENDBRANCH   2   5
BRANCH   1  15
ATOM     15  C   UNL d   1       2.373  -2.767   0.464  0.00  0.00     0.070 A 
ATOM     16  C   UNL d   1       2.990  -3.291  -0.672  0.00  0.00     0.132 A 
ATOM     17  F   UNL d   1       2.304  -4.039  -1.551  0.00  0.00    -0.205 F 
ATOM     18  C   UNL d   1       4.340  -3.053  -0.931  0.00  0.00     0.043 A 
ATOM     19  C   UNL d   1       5.093  -2.280  -0.048  0.00  0.00     0.003 A 
ATOM     20  C   UNL d   1       4.494  -1.747   1.092  0.00  0.00     0.001 A 
ATOM     21  C   UNL d   1       3.141  -1.990   1.348  0.00  0.00     0.020 A 
ENDBRANCH   1  15
TORSDOF 4
