REMARK  2 active torsions:
REMARK  status: ('A' for Active; 'I' for Inactive)
REMARK    1  A    between atoms: C_15  and  C_10 
REMARK    2  A    between atoms: C_17  and  C_15 
ROOT
ATOM      1  N   UNL d   1       1.116   1.488   0.054  0.00  0.00    -0.356 N 
ATOM      2  HN  UNL d   1       1.068   2.506   0.045  1.00  0.00     0.166 HD
ATOM      3  N   UNL d   1       1.250  -1.309   0.056  0.00  0.00    -0.356 N 
ATOM      4  HN  UNL d   1       1.298  -2.328   0.050  1.00  0.00     0.166 HD
ATOM      5  C   UNL d   1       0.068  -0.669   0.058  0.00  0.00     0.061 A 
ATOM      6  C   UNL d   1       0.002   0.740   0.052  0.00  0.00     0.061 A 
ATOM      7  C   UNL d   1      -1.108  -1.406   0.072  0.00  0.00     0.057 A 
ATOM      8  C   UNL d   1      -1.237   1.365   0.051  0.00  0.00     0.057 A 
ATOM      9  C   UNL d   1       2.309   0.842   0.067  0.00  0.00     0.028 A 
ATOM     10  C   UNL d   1       2.380  -0.552   0.062  0.00  0.00     0.032 A 
ATOM     11  C   UNL d   1      -2.352  -0.773   0.086  0.00  0.00     0.058 A 
ATOM     12  C   UNL d   1      -2.417   0.620   0.073  0.00  0.00     0.058 A 
ATOM     13 CL   UNL d   1      -3.763  -1.767   0.126  0.00  0.00    -0.082 Cl
ATOM     14 CL   UNL d   1      -3.913   1.482   0.095  0.00  0.00    -0.082 Cl
ATOM     15  C   UNL d   1       3.523   1.720   0.086  0.00  0.00     0.070 C 
ENDROOT
BRANCH  10  16
ATOM     16  C   UNL d   1       3.675  -1.321   0.070  0.00  0.00     0.059 C 
BRANCH  16  17
ATOM     17  C   UNL d   1       4.224  -1.626   1.468  0.00  0.00     0.002 C 
ATOM     18  C   UNL d   1       3.316  -2.512   2.310  0.00  0.00     0.005 C 
ENDBRANCH  16  17
ENDBRANCH  10  16
TORSDOF 2
