REMARK  2 active torsions:
REMARK  status: ('A' for Active; 'I' for Inactive)
REMARK    1  A    between atoms: N_7  and  C_1 
REMARK    2  A    between atoms: C_9  and  N_7 
ROOT
ATOM      1  C   UNL d   1      -0.555  -1.748  -0.059  0.00  0.00     0.051 A 
ATOM      2  C   UNL d   1      -1.782  -1.205  -0.081  0.00  0.00     0.113 A 
ATOM      3  C   UNL d   1      -2.045   0.236  -0.067  0.00  0.00     0.290 A 
ATOM      4  C   UNL d   1       0.600  -0.829  -0.056  0.00  0.00     0.025 A 
ATOM      5  O   UNL d   1      -0.945   1.072  -0.104  0.00  0.00    -0.275 OA
ATOM      6  C   UNL d   1       0.361   0.548  -0.081  0.00  0.00     0.091 A 
ATOM      7  O   UNL d   1      -3.191   0.665  -0.030  0.00  0.00    -0.260 OA
ATOM      8  C   UNL d   1       1.937  -1.249   0.018  0.00  0.00     0.016 A 
ATOM      9  C   UNL d   1       1.394   1.487  -0.059  0.00  0.00     0.038 A 
ATOM     10  C   UNL d   1       2.983  -0.318   0.041  0.00  0.00     0.001 A 
ATOM     11  C   UNL d   1       2.713   1.048   0.000  0.00  0.00     0.003 A 
ENDROOT
BRANCH   1  12
ATOM     12  N   UNL d   1      -0.336  -3.115  -0.084  0.00  0.00    -0.355 N 
ATOM     13  H   UNL d   1       0.530  -3.407  -0.524  0.00  0.00     0.166 HD
BRANCH  12  14
ATOM     14  C   UNL d   1      -0.800  -4.050   0.870  0.00  0.00     0.032 A 
ATOM     15  C   UNL d   1      -1.521  -3.683   2.016  0.00  0.00     0.032 A 
ATOM     16  C   UNL d   1      -2.014  -4.647   2.898  0.00  0.00     0.044 A 
ATOM     17  C   UNL d   1      -1.798  -5.991   2.632  0.00  0.00     0.116 A 
ATOM     18  C   UNL d   1      -1.099  -6.387   1.499  0.00  0.00     0.044 A 
ATOM     19  F   UNL d   1      -2.273  -6.917   3.474  0.00  0.00    -0.206 F 
ATOM     20  C   UNL d   1      -0.608  -5.419   0.618  0.00  0.00     0.032 A 
ENDBRANCH  12  14
ENDBRANCH   1  12
TORSDOF 2
