REMARK  3 active torsions:
REMARK  status: ('A' for Active; 'I' for Inactive)
REMARK       I    between atoms: N_2  and  C_1 
REMARK    1  A    between atoms: C_5  and  C_1 
REMARK       I    between atoms: C_3  and  N_4 
REMARK    2  A    between atoms: C_10  and  C_3 
REMARK    3  A    between atoms: N_4  and  C_11 
ROOT
ATOM      1  C   UNL d   1       1.114  -0.186   0.122  0.00  0.00     0.253 C 
ATOM      2  N   UNL d   1       0.332  -1.324  -0.106  0.00  0.00    -0.348 N 
ATOM      3  C   UNL d   1      -0.560  -1.331  -1.262  0.00  0.00     0.128 C 
ATOM      4  C   UNL d   1       0.475  -2.631   0.542  0.00  0.00     0.128 C 
ATOM      5  O   UNL d   1       1.136   0.768  -0.655  0.00  0.00    -0.267 OA
ATOM      6  C   UNL d   1      -1.902  -3.164  -0.117  0.00  0.00     0.087 C 
ATOM      7  C   UNL d   1      -1.948  -1.827  -0.866  0.00  0.00     0.045 C 
ATOM      8  C   UNL d   1      -0.885  -3.122   1.032  0.00  0.00     0.045 C 
ENDROOT
BRANCH   6   9
ATOM      9  N   UNL d   1      -1.622  -4.273  -1.026  0.00  0.00    -0.352 N 
ATOM     10  C   UNL d   1      -2.103  -5.544  -0.786  0.00  0.00     0.252 C 
ATOM     11  O   UNL d   1      -2.830  -5.814   0.168  0.00  0.00    -0.268 OA
ATOM     12  H   UNL d   1      -1.049  -4.105  -1.843  0.00  0.00     0.163 HD
BRANCH  10  13
ATOM     13  C   UNL d   1      -1.727  -6.606  -1.757  0.00  0.00     0.032 A 
ATOM     14  C   UNL d   1      -0.533  -6.572  -2.490  0.00  0.00     0.017 A 
ATOM     15  C   UNL d   1      -0.222  -7.616  -3.367  0.00  0.00     0.001 A 
ATOM     16  C   UNL d   1      -1.094  -8.695  -3.510  0.00  0.00     0.000 A 
ATOM     17  C   UNL d   1      -2.280  -8.737  -2.780  0.00  0.00     0.001 A 
ATOM     18  C   UNL d   1      -2.596  -7.697  -1.905  0.00  0.00     0.017 A 
ENDBRANCH  10  13
ENDBRANCH   6   9
BRANCH   1  19
ATOM     19  C   UNL d   1       1.964  -0.090   1.340  0.00  0.00     0.032 A 
ATOM     20  C   UNL d   1       3.217   0.527   1.235  0.00  0.00     0.018 A 
ATOM     21  C   UNL d   1       4.064   0.597   2.345  0.00  0.00     0.025 A 
ATOM     22  C   UNL d   1       3.660   0.041   3.558  0.00  0.00     0.034 A 
ATOM     23  C   UNL d   1       2.396  -0.530   3.686  0.00  0.00     0.025 A 
ATOM     24 CL   UNL d   1       4.721   0.069   4.911  0.00  0.00    -0.084 Cl
ATOM     25  C   UNL d   1       1.532  -0.553   2.589  0.00  0.00     0.018 A 
ENDBRANCH   1  19
TORSDOF 3
