REMARK  2 active torsions:
REMARK  status: ('A' for Active; 'I' for Inactive)
REMARK    1  A    between atoms: C_5  and  C_3 
REMARK    2  A    between atoms: C_10  and  C_4 
ROOT
ATOM      1  N   UNL d   1       1.292   0.160   0.020  0.00  0.00    -0.318 N 
ATOM      2  HN  UNL d   1       2.303   0.290   0.020  1.00  0.00     0.169 HD
ATOM      3  C   UNL d   1       0.610  -0.958   0.011  0.00  0.00     0.183 A 
ATOM      4  C   UNL d   1       0.300   1.115   0.030  0.00  0.00     0.138 A 
ATOM      5  N   UNL d   1      -0.945   0.610   0.059  0.00  0.00    -0.242 N 
ATOM      6  HN  UNL d   1      -1.831   1.114   0.077  1.00  0.00     0.196 HD
ATOM      7  O   UNL d   1      -0.739  -0.762   0.061  0.00  0.00    -0.217 OA
ENDROOT
BRANCH   3   8
ATOM      8  C   UNL d   1       1.093  -2.328  -0.007  0.00  0.00     0.039 A 
ATOM      9  C   UNL d   1       0.396  -3.392  -0.607  0.00  0.00     0.051 A 
ATOM     10  C   UNL d   1       0.952  -4.673  -0.645  0.00  0.00     0.067 A 
ATOM     11 CL   UNL d   1      -1.142  -3.205  -1.382  0.00  0.00    -0.083 Cl
ATOM     12  C   UNL d   1       2.201  -4.899  -0.083  0.00  0.00     0.118 A 
ATOM     13  C   UNL d   1       2.907  -3.874   0.529  0.00  0.00     0.043 A 
ATOM     14  F   UNL d   1       2.737  -6.124  -0.146  0.00  0.00    -0.206 F 
ATOM     15  C   UNL d   1       2.357  -2.591   0.565  0.00  0.00     0.020 A 
ENDBRANCH   3   8
BRANCH   4  16
ATOM     16  C   UNL d   1       0.596   2.535   0.011  0.00  0.00     0.010 A 
ATOM     17  C   UNL d   1       1.930   2.972  -0.037  0.00  0.00     0.022 A 
ATOM     18  C   UNL d   1       2.238   4.335  -0.052  0.00  0.00    -0.061 A 
ATOM     19  C   UNL d   1       3.663   4.804  -0.106  0.00  0.00     0.048 C 
ATOM     20  C   UNL d   1       1.196   5.268  -0.009  0.00  0.00     0.007 A 
ATOM     21  C   UNL d   1      -0.132   4.845   0.039  0.00  0.00     0.002 A 
ATOM     22  C   UNL d   1      -0.432   3.486   0.046  0.00  0.00     0.015 A 
ENDBRANCH   4  16
TORSDOF 2
