REMARK  3 active torsions:
REMARK  status: ('A' for Active; 'I' for Inactive)
REMARK    1  A    between atoms: N_3  and  N_1 
REMARK    2  A    between atoms: C_7  and  C_5 
REMARK    3  A    between atoms: C_8  and  C_6 
ROOT
ATOM      1  N   UNL d   1       1.050   2.017  -1.320  0.00  0.00    -0.304 N 
ATOM      2  HN  UNL d   1       0.559   2.737  -1.850  1.00  0.00     0.186 HD
ATOM      3  C   UNL d   1       2.350   1.975  -1.219  0.00  0.00     0.032 C 
ATOM      4  C   UNL d   1       3.103   0.876  -0.488  0.00  0.00     0.070 C 
ENDROOT
BRANCH   1   5
ATOM      5  N   UNL d   1       0.392   1.000  -0.648  0.00  0.00    -0.304 N 
ATOM      6  C   UNL d   1      -0.908   1.078  -0.647  0.00  0.00     0.032 C 
ATOM      7  C   UNL d   1      -1.693   2.151  -1.377  0.00  0.00     0.070 C 
ATOM      8  HN  UNL d   1       0.892   0.241  -0.185  1.00  0.00     0.186 HD
BRANCH   6   9
ATOM      9  C   UNL d   1      -1.683   0.051   0.135  0.00  0.00    -0.013 A 
ATOM     10  C   UNL d   1      -0.985  -0.916   0.874  0.00  0.00     0.013 A 
ATOM     11  C   UNL d   1      -1.672  -1.849   1.656  0.00  0.00     0.001 A 
ATOM     12  C   UNL d   1      -3.063  -1.825   1.706  0.00  0.00     0.000 A 
ATOM     13  C   UNL d   1      -3.769  -0.879   0.965  0.00  0.00     0.001 A 
ATOM     14  C   UNL d   1      -3.083   0.054   0.180  0.00  0.00     0.013 A 
ENDBRANCH   6   9
ENDBRANCH   1   5
BRANCH   3  15
ATOM     15  C   UNL d   1       3.163   3.075  -1.846  0.00  0.00    -0.013 A 
ATOM     16  C   UNL d   1       2.510   4.142  -2.481  0.00  0.00     0.013 A 
ATOM     17  C   UNL d   1       3.240   5.205  -3.017  0.00  0.00     0.001 A 
ATOM     18  C   UNL d   1       4.631   5.214  -2.926  0.00  0.00     0.000 A 
ATOM     19  C   UNL d   1       5.292   4.153  -2.313  0.00  0.00     0.001 A 
ATOM     20  C   UNL d   1       4.564   3.086  -1.779  0.00  0.00     0.013 A 
ENDBRANCH   3  15
TORSDOF 3
