REMARK  3 active torsions:
REMARK  status: ('A' for Active; 'I' for Inactive)
REMARK    1  A    between atoms: N_2  and  C_1 
REMARK    2  A    between atoms: C_12  and  C_5 
REMARK    3  A    between atoms: C_13  and  N_6 
ROOT
ATOM      1  N   UNL d   1       0.918  -3.580  -0.037  0.00  0.00    -0.393 N 
ATOM      2  HN  UNL d   1       1.911  -3.354   0.023  1.00  0.00     0.159 HD
ATOM      3  C   UNL d   1      -0.011  -2.685  -0.082  0.00  0.00     0.102 C 
ENDROOT
BRANCH   1   4
ATOM      4  C   UNL d   1       0.405  -4.959  -0.081  0.00  0.00     0.082 C 
ATOM      5  C   UNL d   1       0.126  -5.448   1.347  0.00  0.00     0.034 C 
ATOM      6  C   UNL d   1      -0.359  -6.915   1.386  0.00  0.00    -0.045 C 
ATOM      7  C   UNL d   1      -0.455  -7.380   2.851  0.00  0.00     0.015 C 
ATOM      8  C   UNL d   1      -1.765  -7.037   0.764  0.00  0.00     0.015 C 
ATOM      9  C   UNL d   1       0.653  -7.815   0.635  0.00  0.00     0.013 C 
ATOM     10  C   UNL d   1       0.978  -7.318  -0.784  0.00  0.00    -0.016 C 
ATOM     11  C   UNL d   1       1.448  -5.856  -0.756  0.00  0.00     0.029 C 
ATOM     12  C   UNL d   1       2.019  -8.220  -1.444  0.00  0.00     0.010 C 
ENDBRANCH   1   4
BRANCH   3  13
ATOM     13  C   UNL d   1       0.315  -1.281  -0.073  0.00  0.00     0.022 A 
ATOM     14  S   UNL d   1      -0.947  -0.127  -0.145  0.00  0.00    -0.065 SA
ATOM     15  C   UNL d   1       0.156   1.167  -0.107  0.00  0.00     0.144 A 
ATOM     16  C   UNL d   1       1.466   0.747  -0.037  0.00  0.00     0.045 A 
ATOM     17  C   UNL d   1       1.556  -0.678  -0.017  0.00  0.00     0.023 A 
BRANCH  15  18
ATOM     18  N   UNL d   1      -0.310   2.529  -0.148  0.00  0.00    -0.108 N 
ATOM     19  O   UNL d   1       0.563   3.408  -0.115  0.00  0.00    -0.531 OA
ATOM     20  O   UNL d   1      -1.529   2.733  -0.213  0.00  0.00    -0.531 OA
ENDBRANCH  15  18
ENDBRANCH   3  13
TORSDOF 3
