REMARK  6 active torsions:
REMARK  status: ('A' for Active; 'I' for Inactive)
REMARK    1  A    between atoms: C_7  and  C_1 
REMARK    2  A    between atoms: C_4  and  C_19 
REMARK    3  A    between atoms: C_5  and  C_9 
REMARK    4  A    between atoms: O_18  and  C_5 
REMARK    5  A    between atoms: C_20  and  O_18 
REMARK    6  A    between atoms: C_19  and  C_20 
ROOT
ATOM      1  C   UNL d   1      -1.783   2.299   5.105  0.00  0.00     0.293 C 
ATOM      2  O   UNL d   1      -1.978   3.481   4.881  0.00  0.00    -0.259 OA
ENDROOT
BRANCH   1   3
ATOM      3  C   UNL d   1      -2.443   1.184   4.385  0.00  0.00     0.039 A 
ATOM      4  C   UNL d   1      -3.655   1.453   3.743  0.00  0.00     0.018 A 
ATOM      5  C   UNL d   1      -4.404   0.408   3.204  0.00  0.00     0.017 A 
ATOM      6  C   UNL d   1      -3.946  -0.917   3.287  0.00  0.00     0.048 A 
ATOM      7  C   UNL d   1      -2.703  -1.173   3.893  0.00  0.00     0.017 A 
ATOM      8  C   UNL d   1      -1.954  -0.128   4.437  0.00  0.00     0.018 A 
BRANCH   6   9
ATOM      9  C   UNL d   1      -4.807  -2.042   2.769  0.00  0.00     0.417 C 
ATOM     10  F   UNL d   1      -4.216  -3.266   2.853  0.00  0.00    -0.166 F 
ATOM     11  F   UNL d   1      -5.153  -1.878   1.463  0.00  0.00    -0.166 F 
ATOM     12  F   UNL d   1      -5.980  -2.148   3.457  0.00  0.00    -0.166 F 
ENDBRANCH   6   9
ENDBRANCH   1   3
BRANCH   1  13
ATOM     13  O   UNL d   1      -1.131   1.771   6.163  0.00  0.00    -0.317 OA
BRANCH  13  14
ATOM     14  C   UNL d   1      -0.955   2.630   7.297  0.00  0.00     0.183 C 
BRANCH  14  15
ATOM     15  C   UNL d   1      -1.323   1.816   8.541  0.00  0.00     0.067 C 
BRANCH  15  16
ATOM     16  C   UNL d   1      -0.316   0.734   8.848  0.00  0.00    -0.038 A 
ATOM     17  C   UNL d   1       0.952   1.003   9.322  0.00  0.00     0.058 A 
ATOM     18  S   UNL d   1       1.885  -0.395   9.566  0.00  0.00    -0.101 SA
ATOM     19  C   UNL d   1       0.605  -1.425   9.058  0.00  0.00     0.015 A 
ATOM     20  C   UNL d   1      -0.531  -0.694   8.692  0.00  0.00    -0.012 A 
ATOM     21  C   UNL d   1       0.638  -2.833   8.997  0.00  0.00     0.019 A 
ATOM     22  C   UNL d   1      -1.663  -1.429   8.250  0.00  0.00     0.013 A 
ATOM     23  C   UNL d   1      -1.636  -2.828   8.194  0.00  0.00     0.001 A 
ATOM     24  C   UNL d   1      -0.495  -3.522   8.565  0.00  0.00     0.001 A 
ENDBRANCH  15  16
ENDBRANCH  14  15
ENDBRANCH  13  14
ENDBRANCH   1  13
TORSDOF 6
