REMARK  7 active torsions:
REMARK  status: ('A' for Active; 'I' for Inactive)
REMARK    1  A    between atoms: C_2  and  S_1 
REMARK    2  A    between atoms: N_11  and  S_1 
REMARK    3  A    between atoms: O_19  and  C_10 
REMARK    4  A    between atoms: C_20  and  N_11 
REMARK    5  A    between atoms: O_21  and  C_12 
REMARK    6  A    between atoms: C_17  and  C_23 
REMARK    7  A    between atoms: C_23  and  C_20 
ROOT
ATOM      1  N   UNL d   1       2.582   1.153   1.968  0.00  0.00    -0.315 N 
ATOM      2  H   UNL d   1       3.034   0.506   2.615  0.00  0.00     0.172 HD
ENDROOT
BRANCH   1   3
ATOM      3  S   UNL d   1       0.916   1.195   2.161  0.00  0.00     0.260 S 
ATOM      4  O   UNL d   1       0.620   1.212   3.571  0.00  0.00    -0.200 OA
ATOM      5  O   UNL d   1       0.401   2.209   1.263  0.00  0.00    -0.200 OA
BRANCH   3   6
ATOM      6  C   UNL d   1       0.413  -0.388   1.533  0.00  0.00     0.101 A 
ATOM      7  C   UNL d   1       0.872  -1.575   2.102  0.00  0.00     0.059 A 
ATOM      8  C   UNL d   1       0.437  -2.796   1.579  0.00  0.00     0.050 A 
ATOM      9 CL   UNL d   1       1.998  -1.651   3.410  0.00  0.00    -0.083 Cl
ATOM     10  C   UNL d   1      -0.450  -2.835   0.497  0.00  0.00     0.041 A 
ATOM     11  C   UNL d   1      -0.916  -1.648  -0.083  0.00  0.00    -0.039 A 
ATOM     12 CL   UNL d   1      -0.924  -4.392  -0.079  0.00  0.00    -0.084 Cl
ATOM     13  C   UNL d   1      -0.473  -0.424   0.447  0.00  0.00     0.035 A 
ATOM     14  C   UNL d   1      -1.871  -1.596  -1.244  0.00  0.00     0.050 C 
ENDBRANCH   3   6
ENDBRANCH   1   3
BRANCH   1  15
ATOM     15  C   UNL d   1       3.127   1.252   0.606  0.00  0.00     0.137 C 
BRANCH  15  16
ATOM     16  C   UNL d   1       4.657   1.266   0.625  0.00  0.00     0.059 C 
BRANCH  16  17
ATOM     17  C   UNL d   1       5.246   2.454   1.348  0.00  0.00    -0.054 A 
ATOM     18  C   UNL d   1       5.435   3.678   0.685  0.00  0.00     0.046 A 
ATOM     19  C   UNL d   1       6.023   4.778   1.333  0.00  0.00     0.102 A 
ATOM     20  C   UNL d   1       6.394   4.648   2.684  0.00  0.00     0.101 A 
ATOM     21  C   UNL d   1       6.183   3.433   3.347  0.00  0.00     0.040 A 
ATOM     22  C   UNL d   1       5.612   2.346   2.690  0.00  0.00     0.010 A 
BRANCH  19  23
ATOM     23  O   UNL d   1       6.296   5.964   0.704  0.00  0.00    -0.353 OA
ATOM     24  C   UNL d   1       5.934   6.100  -0.664  0.00  0.00     0.210 C 
ENDBRANCH  19  23
BRANCH  20  25
ATOM     25  O   UNL d   1       7.025   5.574   3.474  0.00  0.00    -0.353 OA
ATOM     26  C   UNL d   1       6.758   6.944   3.213  0.00  0.00     0.210 C 
ENDBRANCH  20  25
ENDBRANCH  16  17
ENDBRANCH  15  16
ENDBRANCH   1  15
TORSDOF 7
