REMARK  6 active torsions:
REMARK  status: ('A' for Active; 'I' for Inactive)
REMARK    1  A    between atoms: C_12  and  C_1 
REMARK       I    between atoms: C_2  and  N_4 
REMARK    2  A    between atoms: C_5  and  C_2 
REMARK    3  A    between atoms: C_3  and  C_9 
REMARK       I    between atoms: N_6  and  C_3 
REMARK    4  A    between atoms: N_4  and  N_6 
REMARK    5  A    between atoms: C_9  and  O_16 
REMARK    6  A    between atoms: O_16  and  N_10 
ROOT
ATOM      1  C   UNL d   1      -1.973   6.448  -0.040  0.00  0.00     0.262 C 
ATOM      2  N   UNL d   1      -0.681   6.913  -0.045  0.00  0.00    -0.265 N 
ATOM      3  O   UNL d   1      -2.914   7.240   0.041  0.00  0.00    -0.269 OA
ATOM      4  H   UNL d   1      -0.509   7.913   0.029  0.00  0.00     0.190 HD
ENDROOT
BRANCH   1   5
ATOM      5  C   UNL d   1      -2.213   4.927  -0.045  0.00  0.00     0.305 C 
BRANCH   5   6
ATOM      6  O   UNL d   1      -1.298   4.073  -0.720  0.00  0.00    -0.272 OA
BRANCH   6   7
ATOM      7  N   UNL d   1      -1.216   4.464  -2.062  0.00  0.00    -0.277 N 
ATOM      8  C   UNL d   1      -0.738   3.497  -2.776  0.00  0.00     0.128 C 
ATOM      9  HN  UNL d   1      -1.491   5.377  -2.423  1.00  0.00     0.193 HD
BRANCH   8  10
ATOM     10  C   UNL d   1      -0.558   3.612  -4.238  0.00  0.00     0.025 A 
ATOM     11  C   UNL d   1      -0.216   4.823  -4.864  0.00  0.00     0.047 A 
ATOM     12 CL   UNL d   1       0.121   6.289  -4.009  0.00  0.00    -0.083 Cl
ATOM     13  C   UNL d   1      -0.070   4.876  -6.257  0.00  0.00     0.025 A 
ATOM     14  C   UNL d   1      -0.251   3.734  -7.033  0.00  0.00     0.003 A 
ATOM     15  C   UNL d   1      -0.581   2.529  -6.418  0.00  0.00     0.025 A 
ATOM     16  C   UNL d   1      -0.735   2.464  -5.028  0.00  0.00     0.047 A 
ATOM     17 CL   UNL d   1      -1.182   0.928  -4.368  0.00  0.00    -0.083 Cl
ENDBRANCH   8  10
ENDBRANCH   6   7
ENDBRANCH   5   6
ENDBRANCH   1   5
BRANCH   2  18
ATOM     18  N   UNL d   1       0.422   6.070  -0.116  0.00  0.00    -0.263 N 
ATOM     19  C   UNL d   1       1.625   6.501   0.400  0.00  0.00     0.270 C 
ATOM     20  O   UNL d   1       1.791   7.607   0.907  0.00  0.00    -0.266 OA
ATOM     21  H   UNL d   1       0.351   5.302  -0.786  0.00  0.00     0.190 HD
BRANCH  19  22
ATOM     22  C   UNL d   1       2.755   5.541   0.304  0.00  0.00     0.035 A 
ATOM     23  C   UNL d   1       2.544   4.157   0.358  0.00  0.00     0.041 A 
ATOM     24  C   UNL d   1       3.640   3.295   0.337  0.00  0.00     0.035 A 
ATOM     25 CL   UNL d   1       3.386   1.595   0.430  0.00  0.00    -0.084 Cl
ATOM     26  C   UNL d   1       4.940   3.795   0.257  0.00  0.00     0.024 A 
ATOM     27  C   UNL d   1       5.151   5.173   0.202  0.00  0.00     0.003 A 
ATOM     28  C   UNL d   1       4.061   6.045   0.232  0.00  0.00     0.017 A 
ENDBRANCH  19  22
ENDBRANCH   2  18
TORSDOF 6
