REMARK  1 active torsions:
REMARK  status: ('A' for Active; 'I' for Inactive)
REMARK    1  A    between atoms: C_2  and  N_1 
ROOT
ATOM      1  C   UNL d   1       0.011   2.290  -0.161  0.00  0.00     0.048 A 
ATOM      2  C   UNL d   1      -1.032   3.060   0.382  0.00  0.00     0.054 A 
ATOM      3  C   UNL d   1       1.058   2.982  -0.794  0.00  0.00     0.054 A 
ATOM      4  C   UNL d   1      -1.021   4.456   0.297  0.00  0.00     0.037 A 
ATOM      5  C   UNL d   1       1.052   4.378  -0.885  0.00  0.00     0.037 A 
ATOM      6  C   UNL d   1       0.017   5.123  -0.339  0.00  0.00     0.048 A 
ATOM      7 CL   UNL d   1      -2.305   5.363   1.000  0.00  0.00    -0.084 Cl
ATOM      8 CL   UNL d   1       2.338   5.183  -1.701  0.00  0.00    -0.084 Cl
ENDROOT
BRANCH   1   9
ATOM      9  N   UNL d   1       0.005   0.861  -0.083  0.00  0.00    -0.252 N 
ATOM     10  C   UNL d   1       1.126   0.071  -0.211  0.00  0.00     0.231 A 
ATOM     11  C   UNL d   1       0.743  -1.371  -0.069  0.00  0.00     0.113 A 
ATOM     12  O   UNL d   1       2.294   0.408  -0.359  0.00  0.00    -0.273 OA
ATOM     13  C   UNL d   1      -0.755  -1.356   0.084  0.00  0.00     0.113 A 
ATOM     14  C   UNL d   1      -1.122   0.096   0.129  0.00  0.00     0.231 A 
ATOM     15  O   UNL d   1      -2.281   0.457   0.279  0.00  0.00    -0.273 OA
ENDBRANCH   1   9
TORSDOF 1
