REMARK  5 active torsions:
REMARK  status: ('A' for Active; 'I' for Inactive)
REMARK    1  A    between atoms: N_2  and  C_1 
REMARK    2  A    between atoms: C_3  and  C_1 
REMARK    3  A    between atoms: C_6  and  C_1 
REMARK    4  A    between atoms: O_9  and  C_1 
REMARK       I    between atoms: C_4  and  N_2 
REMARK       I    between atoms: N_5  and  C_4 
REMARK       I    between atoms: C_7  and  N_5 
REMARK    5  A    between atoms: O_15  and  C_6 
ROOT
ATOM      1  C   UNL d   1       0.908  -0.100   0.199  0.00  0.00     0.326 C 
ENDROOT
BRANCH   1   2
ATOM      2  N   UNL d   1       0.681   0.573  -1.082  0.00  0.00    -0.295 N 
ATOM      3  C   UNL d   1       0.869  -0.068  -2.259  0.00  0.00     0.325 C 
ATOM      4  N   UNL d   1       0.453   0.574  -3.390  0.00  0.00    -0.280 N 
ATOM      5  O   UNL d   1       1.422  -1.163  -2.315  0.00  0.00    -0.247 OA
ATOM      6  C   UNL d   1      -0.115   1.828  -3.505  0.00  0.00     0.221 C 
ATOM      7  H   UNL d   1       0.655   0.052  -4.237  0.00  0.00     0.173 HD
ATOM      8  O   UNL d   1      -0.473   2.509  -2.547  0.00  0.00    -0.274 OA
ATOM      9  C   UNL d   1      -0.342   2.259  -4.926  0.00  0.00     0.117 C 
ATOM     10  H   UNL d   1       0.056   1.385  -1.082  0.00  0.00     0.168 HD
ENDBRANCH   1   2
BRANCH   1  11
ATOM     11  C   UNL d   1       0.054  -1.386   0.440  0.00  0.00     0.448 C 
ATOM     12  F   UNL d   1      -0.904  -1.541  -0.511  0.00  0.00    -0.166 F 
ATOM     13  F   UNL d   1       0.822  -2.506   0.403  0.00  0.00    -0.166 F 
ATOM     14  F   UNL d   1      -0.588  -1.400   1.631  0.00  0.00    -0.166 F 
ENDBRANCH   1  11
BRANCH   1  15
ATOM     15  C   UNL d   1       0.463   0.864   1.315  0.00  0.00     0.324 C 
ATOM     16  O   UNL d   1      -0.446   1.683   1.190  0.00  0.00    -0.259 OA
BRANCH  15  17
ATOM     17  O   UNL d   1       1.182   0.674   2.459  0.00  0.00    -0.322 OA
ATOM     18  C   UNL d   1       0.829   1.524   3.550  0.00  0.00     0.213 C 
ENDBRANCH  15  17
ENDBRANCH   1  15
BRANCH   1  19
ATOM     19  O   UNL d   1       2.321  -0.330   0.247  0.00  0.00    -0.356 OA
ATOM     20  H   UNL d   1       2.513  -0.841  -0.564  0.00  0.00     0.213 HD
ENDBRANCH   1  19
TORSDOF 5
