REMARK  2 active torsions:
REMARK  status: ('A' for Active; 'I' for Inactive)
REMARK    1  A    between atoms: C_6  and  C_3 
REMARK    2  A    between atoms: C_10  and  C_4 
ROOT
ATOM      1  N   UNL d   1      -0.474   1.612  -0.748  0.00  0.00    -0.358 N 
ATOM      2  HN  UNL d   1      -0.282   2.180  -1.573  1.00  0.00     0.166 HD
ATOM      3  C   UNL d   1      -2.388  -0.589   0.584  0.00  0.00     0.094 C 
ATOM      4  C   UNL d   1      -1.637   1.710  -0.179  0.00  0.00     0.021 C 
ATOM      5  S   UNL d   1      -1.080  -1.597  -0.220  0.00  0.00    -0.118 SA
ATOM      6  C   UNL d   1      -2.059   0.852   0.993  0.00  0.00     0.078 C 
ATOM      7  C   UNL d   1       0.533   0.750  -0.266  0.00  0.00     0.049 A 
ATOM      8  C   UNL d   1       0.401  -0.629  -0.003  0.00  0.00     0.028 A 
ATOM      9  C   UNL d   1       1.804   1.331  -0.122  0.00  0.00     0.031 A 
ATOM     10  C   UNL d   1       1.529  -1.375   0.382  0.00  0.00     0.021 A 
ATOM     11  C   UNL d   1       2.915   0.583   0.272  0.00  0.00     0.002 A 
ATOM     12  C   UNL d   1       2.780  -0.773   0.524  0.00  0.00     0.002 A 
ENDROOT
BRANCH   3  13
ATOM     13  C   UNL d   1      -3.769  -0.786  -0.060  0.00  0.00    -0.000 A 
ATOM     14  C   UNL d   1      -4.018  -0.767  -1.453  0.00  0.00     0.043 A 
ATOM     15 CL   UNL d   1      -2.836  -0.398  -2.661  0.00  0.00    -0.084 Cl
ATOM     16  C   UNL d   1      -5.287  -1.068  -1.977  0.00  0.00     0.024 A 
ATOM     17  C   UNL d   1      -6.346  -1.386  -1.139  0.00  0.00     0.003 A 
ATOM     18  C   UNL d   1      -6.150  -1.360   0.233  0.00  0.00     0.024 A 
ATOM     19  C   UNL d   1      -4.891  -1.047   0.767  0.00  0.00     0.043 A 
ATOM     20 CL   UNL d   1      -4.811  -0.991   2.500  0.00  0.00    -0.084 Cl
ENDBRANCH   3  13
BRANCH   4  21
ATOM     21  C   UNL d   1      -2.624   2.698  -0.725  0.00  0.00    -0.013 A 
ATOM     22  C   UNL d   1      -3.529   3.381   0.101  0.00  0.00     0.022 A 
ATOM     23  C   UNL d   1      -4.520   4.217  -0.448  0.00  0.00    -0.039 A 
ATOM     24  C   UNL d   1      -5.478   4.929   0.467  0.00  0.00     0.050 C 
ATOM     25  C   UNL d   1      -4.598   4.343  -1.843  0.00  0.00     0.040 A 
ATOM     26  C   UNL d   1      -3.660   3.715  -2.664  0.00  0.00     0.025 A 
ATOM     27 CL   UNL d   1      -5.848   5.262  -2.600  0.00  0.00    -0.084 Cl
ATOM     28  C   UNL d   1      -2.660   2.918  -2.104  0.00  0.00     0.015 A 
ENDBRANCH   4  21
TORSDOF 2
