REMARK  4 active torsions:
REMARK  status: ('A' for Active; 'I' for Inactive)
REMARK    1  A    between atoms: N_11  and  C_1 
REMARK    2  A    between atoms: C_10  and  N_2 
REMARK    3  A    between atoms: C_12  and  C_17 
REMARK    4  A    between atoms: C_13  and  C_18 
ROOT
ATOM      1  C   UNL d   1      -0.927   0.379   0.487  0.00  0.00     0.263 C 
ATOM      2  N   UNL d   1       0.312   0.997   1.091  0.00  0.00    -0.141 NA
ATOM      3  C   UNL d   1      -0.931   1.184  -0.854  0.00  0.00     0.161 C 
ATOM      4  N   UNL d   1       0.870   1.956   0.255  0.00  0.00    -0.259 N 
ATOM      5  HN  UNL d   1       1.655   2.555   0.509  1.00  0.00     0.202 HD
ATOM      6  N   UNL d   1       0.285   1.987  -0.847  0.00  0.00    -0.317 N 
ATOM      7  HN  UNL d   1       0.621   2.515  -1.652  1.00  0.00     0.181 HD
ATOM      8  C   UNL d   1      -2.277   0.991   1.112  0.00  0.00     0.049 C 
ATOM      9  C   UNL d   1      -2.161   2.134  -0.800  0.00  0.00     0.019 C 
ATOM     10  C   UNL d   1      -2.119   2.457   1.597  0.00  0.00    -0.002 C 
ATOM     11  C   UNL d   1      -2.007   3.245   0.270  0.00  0.00    -0.004 C 
ATOM     12  C   UNL d   1      -3.174   1.220  -0.134  0.00  0.00     0.016 C 
ATOM     13  C   UNL d   1      -3.349   3.029   2.316  0.00  0.00     0.005 C 
ATOM     14  C   UNL d   1      -3.140   4.278   0.282  0.00  0.00     0.005 C 
ATOM     15  C   UNL d   1      -3.501   4.433   1.751  0.00  0.00     0.001 C 
ENDROOT
BRANCH   2  16
ATOM     16  C   UNL d   1       1.390   0.198   1.539  0.00  0.00     0.036 A 
ATOM     17  C   UNL d   1       1.947  -0.825   0.756  0.00  0.00     0.041 A 
ATOM     18  C   UNL d   1       3.102  -1.519   1.153  0.00  0.00     0.050 A 
ATOM     19  C   UNL d   1       3.729  -1.155   2.352  0.00  0.00     0.032 A 
ATOM     20  C   UNL d   1       3.229  -0.100   3.133  0.00  0.00     0.050 A 
ATOM     21  C   UNL d   1       2.054   0.555   2.722  0.00  0.00     0.041 A 
BRANCH  18  22
ATOM     22  C   UNL d   1       3.647  -2.643   0.306  0.00  0.00     0.417 C 
ATOM     23  F   UNL d   1       3.258  -2.579  -0.998  0.00  0.00    -0.166 F 
ATOM     24  F   UNL d   1       5.008  -2.679   0.287  0.00  0.00    -0.166 F 
ATOM     25  F   UNL d   1       3.245  -3.863   0.756  0.00  0.00    -0.166 F 
ENDBRANCH  18  22
BRANCH  20  26
ATOM     26  C   UNL d   1       3.959   0.321   4.386  0.00  0.00     0.417 C 
ATOM     27  F   UNL d   1       3.610   1.558   4.834  0.00  0.00    -0.166 F 
ATOM     28  F   UNL d   1       3.736  -0.532   5.423  0.00  0.00    -0.166 F 
ATOM     29  F   UNL d   1       5.312   0.355   4.218  0.00  0.00    -0.166 F 
ENDBRANCH  20  26
ENDBRANCH   2  16
BRANCH   1  30
ATOM     30  N   UNL d   1      -1.041  -1.117   0.341  0.00  0.00     0.121 N 
ATOM     31  C   UNL d   1      -1.091  -1.829   1.645  0.00  0.00     0.301 C 
ATOM     32  C   UNL d   1      -0.920  -3.344   1.435  0.00  0.00     0.198 C 
ATOM     33  O   UNL d   1      -1.982  -3.862   0.625  0.00  0.00    -0.388 OA
ATOM     34  C   UNL d   1      -1.990  -3.211  -0.650  0.00  0.00     0.198 C 
ATOM     35  C   UNL d   1      -2.112  -1.682  -0.497  0.00  0.00     0.301 C 
ENDBRANCH   1  30
TORSDOF 4
