REMARK  1 active torsions:
REMARK  status: ('A' for Active; 'I' for Inactive)
REMARK    1  A    between atoms: C_8  and  N_1 
ROOT
ATOM      1  N   UNL d   1       0.798  -0.735   0.006  0.00  0.00    -0.212 N 
ATOM      2  C   UNL d   1      -0.535  -1.048  -0.209  0.00  0.00     0.215 A 
ATOM      3  N   UNL d   1       0.899   0.624   0.214  0.00  0.00    -0.219 N 
ATOM      4  HN  UNL d   1       1.766   1.129   0.401  1.00  0.00     0.210 HD
ATOM      5  N   UNL d   1      -0.255   1.150   0.137  0.00  0.00    -0.225 N 
ATOM      6  HN  UNL d   1      -0.466   2.139   0.269  1.00  0.00     0.210 HD
ATOM      7  N   UNL d   1      -1.162   0.183  -0.149  0.00  0.00    -0.259 N 
ATOM      8  S   UNL d   1      -1.356  -2.475  -0.388  0.00  0.00    -0.037 SA
ATOM      9  H   UNL d   1      -2.150   0.371  -0.196  0.00  0.00     0.191 HD
ENDROOT
BRANCH   1  10
ATOM     10  C   UNL d   1       1.978  -1.516  -0.002  0.00  0.00     0.072 A 
ATOM     11  C   UNL d   1       2.268  -2.397  -1.075  0.00  0.00    -0.032 A 
ATOM     12  C   UNL d   1       3.428  -3.199  -1.027  0.00  0.00     0.015 A 
ATOM     13  C   UNL d   1       1.465  -2.498  -2.345  0.00  0.00     0.050 C 
ATOM     14  C   UNL d   1       4.343  -3.103   0.019  0.00  0.00    -0.061 A 
ATOM     15  C   UNL d   1       4.090  -2.191   1.039  0.00  0.00     0.015 A 
ATOM     16  C   UNL d   1       5.573  -3.958   0.024  0.00  0.00     0.048 C 
ATOM     17  C   UNL d   1       2.922  -1.399   1.051  0.00  0.00    -0.032 A 
ATOM     18  C   UNL d   1       2.765  -0.518   2.267  0.00  0.00     0.050 C 
ENDBRANCH   1  10
TORSDOF 1
