REMARK  4 active torsions:
REMARK  status: ('A' for Active; 'I' for Inactive)
REMARK    1  A    between atoms: C_6  and  N_1 
REMARK    2  A    between atoms: C_2  and  C_3 
REMARK    3  A    between atoms: N_7  and  C_6 
REMARK    4  A    between atoms: C_8  and  N_7 
ROOT
ATOM      1  C   UNL d   1      -2.787   4.773  -0.209  0.00  0.00     0.069 A 
ATOM      2  C   UNL d   1      -1.506   4.188  -0.321  0.00  0.00     0.024 A 
ATOM      3  C   UNL d   1      -2.922   6.181  -0.251  0.00  0.00     0.018 A 
ATOM      4  C   UNL d   1      -0.418   5.054  -0.550  0.00  0.00     0.024 A 
ATOM      5  C   UNL d   1      -1.820   7.010  -0.427  0.00  0.00     0.001 A 
ATOM      6  C   UNL d   1      -0.566   6.443  -0.585  0.00  0.00     0.002 A 
ENDROOT
BRANCH   2   7
ATOM      7  N   UNL d   1      -1.336   2.791  -0.359  0.00  0.00    -0.275 NA
ATOM      8  H   UNL d   1      -2.119   2.296   0.081  0.00  0.00     0.129 HD
BRANCH   7   9
ATOM      9  C   UNL d   1      -0.080   2.240   0.134  0.00  0.00     0.229 C 
BRANCH   9  10
ATOM     10  N   UNL d   1      -0.133   0.806   0.040  0.00  0.00    -0.275 N 
ATOM     11  C   UNL d   1      -1.002   0.040   0.753  0.00  0.00     0.227 C 
ATOM     12  C   UNL d   1      -0.684  -1.408   0.525  0.00  0.00     0.112 C 
ATOM     13  O   UNL d   1      -1.891   0.442   1.488  0.00  0.00    -0.273 OA
ATOM     14  C   UNL d   1       0.598  -1.385  -0.285  0.00  0.00     0.112 C 
ATOM     15  C   UNL d   1       0.901   0.073  -0.460  0.00  0.00     0.227 C 
ATOM     16  O   UNL d   1       1.948   0.499  -0.927  0.00  0.00    -0.273 OA
ENDBRANCH   9  10
ENDBRANCH   7   9
ENDBRANCH   2   7
BRANCH   1  17
ATOM     17  C   UNL d   1      -4.060   3.983  -0.018  0.00  0.00     0.419 C 
ATOM     18  F   UNL d   1      -3.901   2.630   0.020  0.00  0.00    -0.166 F 
ATOM     19  F   UNL d   1      -4.691   4.307   1.149  0.00  0.00    -0.166 F 
ATOM     20  F   UNL d   1      -4.976   4.221  -1.001  0.00  0.00    -0.166 F 
ENDBRANCH   1  17
TORSDOF 4
