REMARK  6 active torsions:
REMARK  status: ('A' for Active; 'I' for Inactive)
REMARK    1  A    between atoms: C_7  and  C_17 
REMARK    2  A    between atoms: C_24  and  C_17 
REMARK    3  A    between atoms: C_20  and  O_22 
REMARK    4  A    between atoms: C_23  and  C_24 
REMARK    5  A    between atoms: C_26  and  C_23 
REMARK    6  A    between atoms: C_27  and  C_26 
ROOT
ATOM      1  C   UNL d   1      -0.740  -0.962  -0.856  0.00  0.00    -0.001 C 
ATOM      2  C   UNL d   1       0.725  -1.289  -0.541  0.00  0.00    -0.009 C 
ATOM      3  C   UNL d   1      -1.660  -1.926  -1.090  0.00  0.00    -0.064 C 
ATOM      4  C   UNL d   1      -1.025   0.437  -0.470  0.00  0.00     0.157 C 
ATOM      5  C   UNL d   1      -1.871  -4.299  -2.111  0.00  0.00    -0.033 C 
ATOM      6  C   UNL d   1      -1.100  -3.322  -1.186  0.00  0.00     0.024 C 
ATOM      7  C   UNL d   1       1.333   0.083   0.053  0.00  0.00     0.009 C 
ATOM      8  C   UNL d   1       0.213   1.142  -0.034  0.00  0.00     0.089 C 
ATOM      9  C   UNL d   1      -3.402  -4.191  -1.935  0.00  0.00    -0.003 C 
ATOM     10  C   UNL d   1       0.579  -2.435   0.547  0.00  0.00     0.015 C 
ATOM     11  C   UNL d   1      -3.162  -1.804  -1.052  0.00  0.00     0.036 C 
ATOM     12  C   UNL d   1      -0.385  -3.635   0.139  0.00  0.00     0.011 C 
ATOM     13  C   UNL d   1      -1.454  -5.763  -1.882  0.00  0.00     0.012 C 
ATOM     14  O   UNL d   1      -2.126   0.963  -0.489  0.00  0.00    -0.293 OA
ATOM     15  C   UNL d   1      -3.884  -2.733  -2.034  0.00  0.00     0.010 C 
ATOM     16  C   UNL d   1      -4.131  -5.077  -2.964  0.00  0.00     0.037 C 
ATOM     17  C   UNL d   1       1.583  -1.782  -1.747  0.00  0.00     0.021 C 
ATOM     18  C   UNL d   1      -2.092  -6.694  -2.909  0.00  0.00     0.032 C 
ATOM     19  C   UNL d   1      -3.611  -6.521  -3.019  0.00  0.00     0.118 C 
ATOM     20  C   UNL d   1      -1.466  -3.880  -3.580  0.00  0.00     0.016 C 
ENDROOT
BRANCH   7  21
ATOM     21  C   UNL d   1       2.649   0.611  -0.643  0.00  0.00    -0.013 C 
ATOM     22  C   UNL d   1       3.864  -0.279  -0.302  0.00  0.00     0.010 C 
BRANCH  21  23
ATOM     23  C   UNL d   1       3.066   2.095  -0.428  0.00  0.00     0.005 C 
BRANCH  23  24
ATOM     24  C   UNL d   1       4.066   2.502  -1.534  0.00  0.00     0.001 C 
BRANCH  24  25
ATOM     25  C   UNL d   1       4.681   3.887  -1.345  0.00  0.00     0.004 C 
BRANCH  25  26
ATOM     26  C   UNL d   1       5.830   4.145  -2.344  0.00  0.00    -0.023 C 
ATOM     27  C   UNL d   1       5.362   4.147  -3.802  0.00  0.00     0.009 C 
ATOM     28  C   UNL d   1       6.523   5.469  -2.021  0.00  0.00     0.009 C 
ENDBRANCH  25  26
ENDBRANCH  24  25
ENDBRANCH  23  24
ENDBRANCH  21  23
ENDBRANCH   7  21
BRANCH  19  29
ATOM     29  O   UNL d   1      -4.046  -7.120  -4.241  0.00  0.00    -0.396 OA
ATOM     30  H   UNL d   1      -3.642  -6.628  -4.971  0.00  0.00     0.210 HD
ENDBRANCH  19  29
TORSDOF 6
