REMARK  3 active torsions:
REMARK  status: ('A' for Active; 'I' for Inactive)
REMARK    1  A    between atoms: C_2  and  C_1 
REMARK       I    between atoms: N_3  and  C_2 
REMARK    2  A    between atoms: C_8  and  N_3 
REMARK    3  A    between atoms: N_9  and  C_4 
ROOT
ATOM      1  C   UNL d   1       1.368   2.404   0.239  0.00  0.00     0.258 C 
ATOM      2  N   UNL d   1       2.692   2.369  -0.160  0.00  0.00    -0.323 N 
ATOM      3  O   UNL d   1       0.755   3.397   0.622  0.00  0.00    -0.267 OA
ATOM      4  H   UNL d   1       3.007   1.502  -0.589  0.00  0.00     0.169 HD
ENDROOT
BRANCH   1   5
ATOM      5  C   UNL d   1       0.627   1.112   0.172  0.00  0.00     0.053 C 
ATOM      6  C   UNL d   1       1.219  -0.139   0.433  0.00  0.00     0.021 C 
ATOM      7  C   UNL d   1       0.429  -1.288   0.277  0.00  0.00     0.025 C 
ATOM      8  C   UNL d   1      -0.945  -1.194   0.033  0.00  0.00     0.008 C 
ATOM      9  C   UNL d   1      -1.555   0.053  -0.113  0.00  0.00    -0.061 C 
ATOM     10  C   UNL d   1      -0.756   1.199  -0.072  0.00  0.00     0.025 C 
ATOM     11  C   UNL d   1      -3.041   0.160  -0.288  0.00  0.00     0.048 C 
BRANCH   6  12
ATOM     12  N   UNL d   1       2.602  -0.302   0.676  0.00  0.00    -0.302 NA
ATOM     13  H   UNL d   1       2.975   0.464   1.241  0.00  0.00     0.124 HD
ATOM     14  H   UNL d   1       2.810  -1.193   1.125  0.00  0.00     0.124 HD
ENDBRANCH   6  12
ENDBRANCH   1   5
BRANCH   2  15
ATOM     15  C   UNL d   1       3.640   3.406  -0.018  0.00  0.00     0.035 A 
ATOM     16  C   UNL d   1       3.383   4.586   0.687  0.00  0.00     0.031 A 
ATOM     17  C   UNL d   1       4.381   5.550   0.863  0.00  0.00     0.021 A 
ATOM     18  C   UNL d   1       5.644   5.340   0.324  0.00  0.00     0.011 A 
ATOM     19  C   UNL d   1       5.913   4.183  -0.401  0.00  0.00     0.021 A 
ATOM     20 BR   UNL d   1       7.002   6.625   0.599  0.00  0.00    -0.051 Br
ATOM     21  C   UNL d   1       4.913   3.216  -0.569  0.00  0.00     0.031 A 
ENDBRANCH   2  15
TORSDOF 3
