REMARK  4 active torsions:
REMARK  status: ('A' for Active; 'I' for Inactive)
REMARK    1  A    between atoms: C_9  and  N_6 
REMARK    2  A    between atoms: C_11  and  C_9 
REMARK       I    between atoms: C_10  and  N_12 
REMARK       I    between atoms: N_14  and  C_10 
REMARK       I    between atoms: N_13  and  C_11 
REMARK    3  A    between atoms: N_12  and  N_13 
REMARK    4  A    between atoms: C_19  and  N_14 
ROOT
ATOM      1  C   UNL d   1       1.649   1.382   0.102  0.00  0.00     0.272 C 
ENDROOT
BRANCH   1   2
ATOM      2  N   UNL d   1       0.496   0.511   0.073  0.00  0.00    -0.194 N 
ATOM      3  N   UNL d   1       0.546  -0.835  -0.017  0.00  0.00    -0.115 N 
ATOM      4  C   UNL d   1      -0.748  -1.099  -0.266  0.00  0.00     0.709 A 
ATOM      5  HN  UNL d   1       1.339  -1.470   0.076  1.00  0.00     0.207 HD
ATOM      6  N   UNL d   1      -1.532   0.028  -0.225  0.00  0.00    -0.113 N 
ATOM      7  N   UNL d   1      -1.294  -2.294  -0.540  0.00  0.00    -0.215 N 
ATOM      8  N   UNL d   1      -0.732   1.049   0.028  0.00  0.00     0.011 NA
ATOM      9  HN  UNL d   1      -2.542   0.068  -0.363  1.00  0.00     0.203 HD
ATOM     10  C   UNL d   1      -2.668  -2.457  -0.978  0.00  0.00     0.141 C 
ATOM     11  C   UNL d   1      -0.623  -3.557  -0.313  0.00  0.00     0.141 C 
ATOM     12  C   UNL d   1      -2.973  -3.918  -0.667  0.00  0.00     0.022 C 
ATOM     13  C   UNL d   1      -1.621  -4.602  -0.811  0.00  0.00     0.022 C 
ENDBRANCH   1   2
BRANCH   1  14
ATOM     14  C   UNL d   1       2.996   0.755  -0.132  0.00  0.00     0.257 C 
ATOM     15  N   UNL d   1       3.256  -0.481   0.438  0.00  0.00    -0.265 N 
ATOM     16  H   UNL d   1       2.472  -1.142   0.434  0.00  0.00     0.190 HD
ATOM     17  O   UNL d   1       3.880   1.384  -0.727  0.00  0.00    -0.270 OA
BRANCH  15  18
ATOM     18  N   UNL d   1       4.514  -1.025   0.091  0.00  0.00    -0.249 N 
ATOM     19  C   UNL d   1       5.223  -1.898   0.870  0.00  0.00     0.335 C 
ATOM     20  N   UNL d   1       4.546  -2.436   1.927  0.00  0.00    -0.338 N 
ATOM     21  O   UNL d   1       6.393  -2.166   0.598  0.00  0.00    -0.246 OA
ATOM     22  H   UNL d   1       3.555  -2.256   1.966  0.00  0.00     0.164 HD
ATOM     23  H   UNL d   1       5.074  -0.475  -0.564  0.00  0.00     0.192 HD
BRANCH  20  24
ATOM     24  C   UNL d   1       5.108  -3.532   2.700  0.00  0.00     0.078 C 
ATOM     25  C   UNL d   1       4.651  -3.461   4.153  0.00  0.00     0.032 C 
ATOM     26  C   UNL d   1       4.721  -4.869   2.070  0.00  0.00     0.032 C 
ENDBRANCH  20  24
ENDBRANCH  15  18
ENDBRANCH   1  14
TORSDOF 4
