REMARK  5 active torsions:
REMARK  status: ('A' for Active; 'I' for Inactive)
REMARK    1  A    between atoms: C_2  and  C_1 
REMARK       I    between atoms: N_5  and  C_1 
REMARK    2  A    between atoms: C_3  and  C_4 
REMARK    3  A    between atoms: O_11  and  C_3 
REMARK    4  A    between atoms: C_8  and  N_5 
REMARK    5  A    between atoms: C_10  and  C_8 
ROOT
ATOM      1  C   UNL d   1       0.976   0.608   0.742  0.00  0.00     0.241 C 
ATOM      2  N   UNL d   1       0.233   1.130  -0.282  0.00  0.00    -0.353 N 
ATOM      3  O   UNL d   1       0.522   0.214   1.808  0.00  0.00    -0.269 OA
ATOM      4  H   UNL d   1       0.677   1.434  -1.137  0.00  0.00     0.163 HD
ENDROOT
BRANCH   2   5
ATOM      5  C   UNL d   1      -1.210   1.220  -0.216  0.00  0.00     0.161 C 
BRANCH   5   6
ATOM      6  C   UNL d   1      -1.687   2.630  -0.464  0.00  0.00    -0.040 A 
ATOM      7  C   UNL d   1      -2.484   2.934  -1.580  0.00  0.00     0.012 A 
ATOM      8  C   UNL d   1      -2.946   4.236  -1.784  0.00  0.00     0.043 A 
ATOM      9  C   UNL d   1      -2.613   5.234  -0.877  0.00  0.00     0.116 A 
ATOM     10  C   UNL d   1      -1.825   4.956   0.233  0.00  0.00     0.043 A 
ATOM     11  F   UNL d   1      -3.061   6.481  -1.073  0.00  0.00    -0.206 F 
ATOM     12  C   UNL d   1      -1.363   3.655   0.441  0.00  0.00     0.012 A 
ENDBRANCH   5   6
ENDBRANCH   2   5
BRANCH   1  13
ATOM     13  C   UNL d   1       2.425   0.557   0.443  0.00  0.00     0.080 C 
ATOM     14  C   UNL d   1       3.271   0.091   1.373  0.00  0.00     0.086 C 
BRANCH  14  15
ATOM     15  C   UNL d   1       4.706   0.039   1.057  0.00  0.00     0.165 C 
ATOM     16  O   UNL d   1       5.186   0.375  -0.012  0.00  0.00    -0.647 OA
BRANCH  15  17
ATOM     17  O   UNL d   1       5.441  -0.424   2.086  0.00  0.00    -0.773 OA
ATOM     18  H   UNL d   1       4.943  -0.657   2.891  0.00  0.00     0.167 HD
ENDBRANCH  15  17
ENDBRANCH  14  15
ENDBRANCH   1  13
TORSDOF 5
