REMARK  8 active torsions:
REMARK  status: ('A' for Active; 'I' for Inactive)
REMARK    1  A    between atoms: C_8  and  C_1 
REMARK    2  A    between atoms: C_4  and  C_2 
REMARK    3  A    between atoms: N_3  and  C_14 
REMARK    4  A    between atoms: N_15  and  C_7 
REMARK    5  A    between atoms: O_28  and  C_8 
REMARK       I    between atoms: C_11  and  N_13 
REMARK    6  A    between atoms: C_18  and  C_11 
REMARK    7  A    between atoms: N_13  and  N_15 
REMARK    8  A    between atoms: C_29  and  O_28 
ROOT
ATOM      1  C   UNL d   1      -0.036  -1.458   0.018  0.00  0.00     0.086 A 
ATOM      2  C   UNL d   1       1.164  -0.776   0.059  0.00  0.00     0.136 A 
ATOM      3  N   UNL d   1       1.189   0.593   0.184  0.00  0.00    -0.327 N 
ATOM      4  HN  UNL d   1       2.080   1.086   0.235  1.00  0.00     0.168 HD
ATOM      5  C   UNL d   1       0.037   1.275   0.238  0.00  0.00     0.176 A 
ATOM      6  N   UNL d   1      -1.163   0.683   0.149  0.00  0.00    -0.340 N 
ATOM      7  HN  UNL d   1      -2.028   1.223   0.163  1.00  0.00     0.167 HD
ATOM      8  C   UNL d   1      -1.170  -0.665   0.040  0.00  0.00     0.110 A 
ENDROOT
BRANCH   5   9
ATOM      9  N   UNL d   1       0.128   2.658   0.440  0.00  0.00    -0.172 NA
ATOM     10  H   UNL d   1       1.061   2.970   0.162  0.00  0.00     0.156 HD
BRANCH   9  11
ATOM     11  N   UNL d   1      -0.907   3.404  -0.159  0.00  0.00    -0.280 N 
ATOM     12  C   UNL d   1      -0.578   4.680  -0.581  0.00  0.00     0.266 C 
ATOM     13  O   UNL d   1       0.571   5.107  -0.590  0.00  0.00    -0.266 OA
ATOM     14  H   UNL d   1      -1.850   3.109   0.083  0.00  0.00     0.184 HD
BRANCH  12  15
ATOM     15  C   UNL d   1      -1.702   5.550  -1.020  0.00  0.00     0.033 A 
ATOM     16  C   UNL d   1      -1.562   6.941  -0.884  0.00  0.00     0.019 A 
ATOM     17  C   UNL d   1      -2.568   7.804  -1.325  0.00  0.00     0.037 A 
ATOM     18  C   UNL d   1      -3.721   7.271  -1.918  0.00  0.00     0.102 A 
ATOM     19  C   UNL d   1      -3.869   5.884  -2.064  0.00  0.00     0.037 A 
ATOM     20  C   UNL d   1      -2.858   5.025  -1.613  0.00  0.00     0.019 A 
BRANCH  18  21
ATOM     21  N   UNL d   1      -4.772   8.173  -2.407  0.00  0.00    -0.116 N 
ATOM     22  O   UNL d   1      -4.612   9.390  -2.245  0.00  0.00    -0.532 OA
ATOM     23  O   UNL d   1      -5.759   7.660  -2.957  0.00  0.00    -0.532 OA
ENDBRANCH  18  21
ENDBRANCH  12  15
ENDBRANCH   9  11
ENDBRANCH   5   9
BRANCH   2  24
ATOM     24  C   UNL d   1       2.524  -1.434  -0.078  0.00  0.00     0.433 C 
ATOM     25  F   UNL d   1       2.529  -2.757  -0.386  0.00  0.00    -0.165 F 
ATOM     26  F   UNL d   1       3.265  -0.858  -1.073  0.00  0.00    -0.165 F 
ATOM     27  F   UNL d   1       3.276  -1.312   1.054  0.00  0.00    -0.165 F 
ENDBRANCH   2  24
BRANCH   1  28
ATOM     28  C   UNL d   1      -0.255  -2.907  -0.078  0.00  0.00     0.296 C 
ATOM     29  O   UNL d   1      -1.165  -3.383  -0.736  0.00  0.00    -0.259 OA
BRANCH  28  30
ATOM     30  O   UNL d   1       0.590  -3.578   0.733  0.00  0.00    -0.318 OA
BRANCH  30  31
ATOM     31  C   UNL d   1       0.450  -5.013   0.733  0.00  0.00     0.174 C 
ATOM     32  C   UNL d   1       0.994  -5.637  -0.543  0.00  0.00     0.034 C 
ENDBRANCH  30  31
ENDBRANCH  28  30
ENDBRANCH   1  28
TORSDOF 8
