REMARK  1 active torsions:
REMARK  status: ('A' for Active; 'I' for Inactive)
REMARK    1  A    between atoms: C_7  and  C_3 
ROOT
ATOM      1  N   UNL d   1       0.628  -0.738  -1.170  0.00  0.00    -0.353 N 
ATOM      2  HN  UNL d   1       0.819  -1.103  -2.103  1.00  0.00     0.166 HD
ATOM      3  C   UNL d   1       1.140  -1.262   0.009  0.00  0.00     0.049 A 
ATOM      4  C   UNL d   1      -0.140   0.299  -0.909  0.00  0.00     0.047 A 
ATOM      5  S   UNL d   1      -0.318   0.689   0.754  0.00  0.00    -0.087 SA
ATOM      6  C   UNL d   1       0.714  -0.619   1.156  0.00  0.00     0.081 A 
ATOM      7  C   UNL d   1      -0.833   1.115  -1.941  0.00  0.00     0.076 C 
ENDROOT
BRANCH   3   8
ATOM      8  C   UNL d   1       2.029  -2.420   0.002  0.00  0.00    -0.009 A 
ATOM      9  C   UNL d   1       2.967  -2.639   1.020  0.00  0.00     0.014 A 
ATOM     10  C   UNL d   1       3.801  -3.761   0.992  0.00  0.00     0.007 A 
ATOM     11  C   UNL d   1       3.716  -4.685  -0.056  0.00  0.00    -0.062 A 
ATOM     12  C   UNL d   1       2.789  -4.465  -1.079  0.00  0.00     0.007 A 
ATOM     13  C   UNL d   1       4.612  -5.888  -0.067  0.00  0.00     0.048 C 
ATOM     14  C   UNL d   1       1.957  -3.340  -1.052  0.00  0.00     0.014 A 
ENDBRANCH   3   8
TORSDOF 1
