REMARK  1 active torsions:
REMARK  status: ('A' for Active; 'I' for Inactive)
REMARK    1  A    between atoms: N_6  and  C_3 
ROOT
ATOM      1  C   UNL d   1      -3.820  -0.362   1.170  0.00  0.00     0.154 C 
ATOM      2  N   UNL d   1      -4.595  -0.051   2.403  0.00  0.00    -0.352 N 
ATOM      3  C   UNL d   1      -2.391  -3.630   0.074  0.00  0.00     0.138 C 
ATOM      4  O   UNL d   1      -2.973  -1.550   1.229  0.00  0.00    -0.316 OA
ATOM      5  C   UNL d   1      -2.905   0.956   1.085  0.00  0.00     0.033 C 
ATOM      6  C   UNL d   1      -3.314  -2.633   0.431  0.00  0.00     0.111 C 
ATOM      7  C   UNL d   1      -4.954   1.299   2.205  0.00  0.00     0.039 A 
ATOM      8  C   UNL d   1      -4.859  -0.518   0.027  0.00  0.00     0.067 C 
ATOM      9  C   UNL d   1      -3.985   1.964   1.418  0.00  0.00    -0.019 A 
ATOM     10  C   UNL d   1      -4.636  -2.794  -0.035  0.00  0.00    -0.021 C 
ATOM     11  C   UNL d   1      -5.569  -1.662   0.019  0.00  0.00     0.046 C 
ATOM     12  C   UNL d   1      -2.815  -4.806  -0.587  0.00  0.00     0.058 C 
ATOM     13  C   UNL d   1      -5.073  -3.982  -0.633  0.00  0.00     0.029 C 
ATOM     14  C   UNL d   1      -4.160  -4.990  -0.887  0.00  0.00     0.014 C 
ATOM     15  C   UNL d   1      -5.433  -0.948   3.147  0.00  0.00     0.153 C 
ATOM     16  C   UNL d   1      -1.843   1.011   2.219  0.00  0.00     0.025 C 
ATOM     17  C   UNL d   1      -2.177   1.174  -0.240  0.00  0.00     0.025 C 
ATOM     18 BR   UNL d   1      -4.741  -6.589  -1.712  0.00  0.00    -0.051 Br
ATOM     19  C   UNL d   1      -6.111   1.957   2.578  0.00  0.00     0.030 A 
ATOM     20  C   UNL d   1      -4.144   3.282   1.022  0.00  0.00     0.010 A 
ATOM     21  C   UNL d   1      -5.323   3.933   1.381  0.00  0.00     0.001 A 
ATOM     22  C   UNL d   1      -6.303   3.273   2.141  0.00  0.00     0.002 A 
ENDROOT
BRANCH   3  23
ATOM     23  N   UNL d   1      -0.946  -3.442   0.225  0.00  0.00    -0.113 N 
ATOM     24  O   UNL d   1      -0.516  -2.287   0.377  0.00  0.00    -0.532 OA
ATOM     25  O   UNL d   1      -0.223  -4.440   0.116  0.00  0.00    -0.532 OA
ENDBRANCH   3  23
TORSDOF 1
