REMARK  3 active torsions:
REMARK  status: ('A' for Active; 'I' for Inactive)
REMARK    1  A    between atoms: C_6  and  N_1 
REMARK    2  A    between atoms: N_11  and  C_6 
REMARK    3  A    between atoms: C_13  and  N_11 
ROOT
ATOM      1  C   UNL d   1       8.555  -0.261  -0.396  0.00  0.00    -0.078 C 
ATOM      2  C   UNL d   1       9.312  -1.190  -0.407  0.00  0.00     0.018 C 
ATOM      3  C   UNL d   1       7.617   0.818  -0.347  0.00  0.00     0.019 A 
ATOM      4  C   UNL d   1       5.293   1.560  -0.217  0.00  0.00     0.030 A 
ATOM      5  C   UNL d   1       6.245   0.538  -0.308  0.00  0.00     0.049 A 
ATOM      6  C   UNL d   1       7.134   3.169  -0.220  0.00  0.00     0.004 A 
ATOM      7  C   UNL d   1       8.063   2.136  -0.312  0.00  0.00     0.021 A 
ATOM      8  C   UNL d   1       5.765   2.879  -0.166  0.00  0.00     0.029 A 
ENDROOT
BRANCH   4   9
ATOM      9  N   UNL d   1       3.934   1.317  -0.117  0.00  0.00    -0.373 N 
ATOM     10  H   UNL d   1       3.295   2.097  -0.151  0.00  0.00     0.161 HD
BRANCH   9  11
ATOM     11  C   UNL d   1       3.362  -0.011  -0.143  0.00  0.00     0.258 C 
BRANCH  11  12
ATOM     12  N   UNL d   1       1.932   0.103  -0.078  0.00  0.00    -0.263 N 
ATOM     13  C   UNL d   1       1.214   0.059   1.084  0.00  0.00     0.263 A 
ATOM     14  C   UNL d   1      -0.195   0.143   0.703  0.00  0.00     0.048 A 
ATOM     15  O   UNL d   1       1.597  -0.065   2.231  0.00  0.00    -0.267 OA
ATOM     16  C   UNL d   1      -1.334   0.210   1.482  0.00  0.00     0.018 A 
ATOM     17  C   UNL d   1      -0.253   0.151  -0.678  0.00  0.00     0.048 A 
ATOM     18  C   UNL d   1      -2.561   0.291   0.816  0.00  0.00     0.001 A 
ATOM     19  C   UNL d   1      -2.620   0.289  -0.593  0.00  0.00     0.001 A 
ATOM     20  C   UNL d   1      -1.453   0.213  -1.360  0.00  0.00     0.018 A 
ATOM     21  C   UNL d   1       1.120   0.091  -1.177  0.00  0.00     0.263 A 
ATOM     22  O   UNL d   1       1.408   0.018  -2.356  0.00  0.00    -0.267 OA
ENDBRANCH  11  12
ENDBRANCH   9  11
ENDBRANCH   4   9
TORSDOF 3
