REMARK  6 active torsions:
REMARK  status: ('A' for Active; 'I' for Inactive)
REMARK    1  A    between atoms: N_5  and  N_1 
REMARK    2  A    between atoms: C_9  and  C_3 
REMARK    3  A    between atoms: C_10  and  C_3 
REMARK       I    between atoms: C_4  and  N_5 
REMARK    4  A    between atoms: C_6  and  C_4 
REMARK    5  A    between atoms: C_7  and  C_8 
REMARK    6  A    between atoms: O_13  and  C_7 
ROOT
ATOM      1  N   UNL d   1       1.050  -0.060   0.044  0.00  0.00    -0.296 N 
ATOM      2  HN  UNL d   1       0.460  -0.660   0.621  1.00  0.00     0.187 HD
ATOM      3  C   UNL d   1       0.510   0.665  -0.903  0.00  0.00     0.068 C 
ENDROOT
BRANCH   3   4
ATOM      4  C   UNL d   1       1.259   1.433  -1.966  0.00  0.00    -0.007 A 
ATOM      5  C   UNL d   1       2.466   0.944  -2.490  0.00  0.00     0.014 A 
ATOM      6  C   UNL d   1       3.175   1.668  -3.451  0.00  0.00     0.001 A 
ATOM      7  C   UNL d   1       2.649   2.852  -3.959  0.00  0.00     0.000 A 
ATOM      8  C   UNL d   1       1.426   3.326  -3.489  0.00  0.00     0.001 A 
ATOM      9  C   UNL d   1       0.749   2.637  -2.478  0.00  0.00     0.014 A 
ENDBRANCH   3   4
BRANCH   3  10
ATOM     10  C   UNL d   1      -0.997   0.700  -0.912  0.00  0.00    -0.007 A 
ATOM     11  C   UNL d   1      -1.678   0.691   0.313  0.00  0.00     0.014 A 
ATOM     12  C   UNL d   1      -3.072   0.776   0.347  0.00  0.00     0.001 A 
ATOM     13  C   UNL d   1      -3.793   0.871  -0.840  0.00  0.00     0.000 A 
ATOM     14  C   UNL d   1      -3.126   0.856  -2.065  0.00  0.00     0.001 A 
ATOM     15  C   UNL d   1      -1.732   0.753  -2.104  0.00  0.00     0.014 A 
ENDBRANCH   3  10
BRANCH   1  16
ATOM     16  N   UNL d   1       2.387  -0.021   0.266  0.00  0.00    -0.266 N 
ATOM     17  C   UNL d   1       3.092  -1.030   0.879  0.00  0.00     0.259 C 
ATOM     18  O   UNL d   1       4.311  -0.966   1.020  0.00  0.00    -0.267 OA
ATOM     19  H   UNL d   1       2.923   0.791  -0.028  0.00  0.00     0.190 HD
BRANCH  17  20
ATOM     20  C   UNL d   1       2.317  -2.215   1.322  0.00  0.00     0.082 C 
ATOM     21  C   UNL d   1       2.965  -3.262   1.849  0.00  0.00     0.086 C 
BRANCH  21  22
ATOM     22  C   UNL d   1       2.187  -4.436   2.287  0.00  0.00     0.165 C 
ATOM     23  O   UNL d   1       0.974  -4.536   2.199  0.00  0.00    -0.647 OA
BRANCH  22  24
ATOM     24  O   UNL d   1       2.971  -5.397   2.811  0.00  0.00    -0.773 OA
ATOM     25  H   UNL d   1       3.924  -5.197   2.833  0.00  0.00     0.167 HD
ENDBRANCH  22  24
ENDBRANCH  21  22
ENDBRANCH  17  20
ENDBRANCH   1  16
TORSDOF 6
