REMARK  4 active torsions:
REMARK  status: ('A' for Active; 'I' for Inactive)
REMARK    1  A    between atoms: C_3  and  S_1 
REMARK    2  A    between atoms: C_4  and  S_1 
REMARK    3  A    between atoms: S_2  and  C_3 
REMARK    4  A    between atoms: C_5  and  S_2 
ROOT
ATOM      1  C   UNL d   1       0.400   0.357   1.513  0.00  0.00     0.291 C 
ENDROOT
BRANCH   1   2
ATOM      2  S   UNL d   1       0.859  -0.709   2.819  0.00  0.00     0.189 S 
ATOM      3  O   UNL d   1       0.387  -0.094   4.048  0.00  0.00    -0.222 OA
ATOM      4  O   UNL d   1       0.440  -2.058   2.500  0.00  0.00    -0.222 OA
BRANCH   2   5
ATOM      5  C   UNL d   1       2.628  -0.692   2.924  0.00  0.00     0.060 A 
ATOM      6  C   UNL d   1       3.275   0.506   3.246  0.00  0.00     0.025 A 
ATOM      7  C   UNL d   1       4.667   0.532   3.330  0.00  0.00     0.025 A 
ATOM      8  C   UNL d   1       5.399  -0.635   3.108  0.00  0.00     0.034 A 
ATOM      9  C   UNL d   1       4.750  -1.835   2.812  0.00  0.00     0.025 A 
ATOM     10 CL   UNL d   1       7.115  -0.597   3.215  0.00  0.00    -0.084 Cl
ATOM     11  C   UNL d   1       3.357  -1.869   2.724  0.00  0.00     0.025 A 
ENDBRANCH   2   5
ENDBRANCH   1   2
BRANCH   1  12
ATOM     12  S   UNL d   1       0.995  -0.080  -0.068  0.00  0.00     0.189 S 
ATOM     13  O   UNL d   1       2.442  -0.134  -0.017  0.00  0.00    -0.222 OA
ATOM     14  O   UNL d   1       0.345   0.796  -1.028  0.00  0.00    -0.222 OA
BRANCH  12  15
ATOM     15  C   UNL d   1       0.391  -1.709  -0.406  0.00  0.00     0.060 A 
ATOM     16  C   UNL d   1      -0.991  -1.913  -0.493  0.00  0.00     0.025 A 
ATOM     17  C   UNL d   1      -1.480  -3.211  -0.626  0.00  0.00     0.025 A 
ATOM     18  C   UNL d   1      -0.591  -4.285  -0.689  0.00  0.00     0.034 A 
ATOM     19  C   UNL d   1       0.788  -4.072  -0.650  0.00  0.00     0.025 A 
ATOM     20 CL   UNL d   1      -1.201  -5.889  -0.807  0.00  0.00    -0.084 Cl
ATOM     21  C   UNL d   1       1.287  -2.776  -0.517  0.00  0.00     0.025 A 
ENDBRANCH  12  15
ENDBRANCH   1  12
TORSDOF 4
