REMARK  5 active torsions:
REMARK  status: ('A' for Active; 'I' for Inactive)
REMARK    1  A    between atoms: N_7  and  C_1 
REMARK    2  A    between atoms: N_10  and  C_1 
REMARK    3  A    between atoms: C_2  and  N_8 
REMARK    4  A    between atoms: C_3  and  C_4 
REMARK    5  A    between atoms: C_19  and  N_10 
ROOT
ATOM      1  N   UNL d   1      -0.054  -0.867  -0.297  0.00  0.00    -0.356 N 
ATOM      2  N   UNL d   1      -2.072  -2.733  -1.316  0.00  0.00    -0.364 N 
ATOM      3  C   UNL d   1      -0.913  -0.544  -1.449  0.00  0.00     0.145 C 
ATOM      4  C   UNL d   1      -2.268  -1.275  -1.434  0.00  0.00     0.144 C 
ATOM      5  C   UNL d   1      -0.450  -3.208   0.495  0.00  0.00     0.040 C 
ATOM      6  C   UNL d   1       0.452  -2.245  -0.265  0.00  0.00     0.127 C 
ATOM      7  C   UNL d   1      -1.914  -3.216   0.061  0.00  0.00     0.126 C 
ENDROOT
BRANCH   2   8
ATOM      8  C   UNL d   1      -2.872  -3.522  -2.147  0.00  0.00     0.125 A 
ATOM      9  N   UNL d   1      -4.055  -3.008  -2.569  0.00  0.00    -0.350 N 
ATOM     10  C   UNL d   1      -4.780  -3.699  -3.480  0.00  0.00     0.106 A 
ATOM     11  HN  UNL d   1      -4.392  -2.117  -2.206  1.00  0.00     0.166 HD
ATOM     12  C   UNL d   1      -4.394  -4.914  -4.018  0.00  0.00     0.065 A 
ATOM     13  C   UNL d   1      -3.200  -5.465  -3.556  0.00  0.00     0.045 A 
ATOM     14  C   UNL d   1      -2.431  -4.773  -2.620  0.00  0.00     0.078 A 
ATOM     15 CL   UNL d   1      -0.909  -5.470  -2.184  0.00  0.00    -0.080 Cl
BRANCH  12  16
ATOM     16  C   UNL d   1      -5.226  -5.561  -5.078  0.00  0.00     0.418 C 
ATOM     17  F   UNL d   1      -4.700  -6.729  -5.540  0.00  0.00    -0.166 F 
ATOM     18  F   UNL d   1      -6.481  -5.857  -4.647  0.00  0.00    -0.166 F 
ATOM     19  F   UNL d   1      -5.381  -4.765  -6.171  0.00  0.00    -0.166 F 
ENDBRANCH  12  16
ENDBRANCH   2   8
BRANCH   1  20
ATOM     20  C   UNL d   1       0.838   0.093   0.210  0.00  0.00     0.174 C 
ATOM     21  S   UNL d   1       1.852   1.029  -0.738  0.00  0.00    -0.041 SA
BRANCH  20  22
ATOM     22  N   UNL d   1       0.698   0.152   1.588  0.00  0.00    -0.333 N 
ATOM     23  H   UNL d   1      -0.263   0.023   1.888  0.00  0.00     0.168 HD
BRANCH  22  24
ATOM     24  C   UNL d   1       1.619   0.546   2.564  0.00  0.00     0.034 A 
ATOM     25  C   UNL d   1       1.120   1.086   3.753  0.00  0.00     0.031 A 
ATOM     26  C   UNL d   1       1.988   1.399   4.801  0.00  0.00     0.026 A 
ATOM     27  C   UNL d   1       3.349   1.134   4.673  0.00  0.00     0.034 A 
ATOM     28  C   UNL d   1       3.853   0.583   3.496  0.00  0.00     0.026 A 
ATOM     29 CL   UNL d   1       4.409   1.460   5.988  0.00  0.00    -0.084 Cl
ATOM     30  C   UNL d   1       2.988   0.299   2.437  0.00  0.00     0.031 A 
ENDBRANCH  22  24
ENDBRANCH  20  22
ENDBRANCH   1  20
TORSDOF 5
