REMARK  6 active torsions:
REMARK  status: ('A' for Active; 'I' for Inactive)
REMARK    1  A    between atoms: C_2  and  S_1 
REMARK    2  A    between atoms: N_9  and  S_1 
REMARK    3  A    between atoms: C_10  and  C_3 
REMARK    4  A    between atoms: C_5  and  C_11 
REMARK    5  A    between atoms: C_22  and  C_15 
REMARK    6  A    between atoms: O_28  and  C_15 
ROOT
ATOM      1  S   UNL d   1       1.081   0.099  -0.140  0.00  0.00     0.250 S 
ATOM      2  O   UNL d   1       0.357   0.962  -1.046  0.00  0.00    -0.205 OA
ATOM      3  O   UNL d   1       2.524   0.023  -0.164  0.00  0.00    -0.205 OA
ENDROOT
BRANCH   1   4
ATOM      4  C   UNL d   1       0.532  -1.546  -0.527  0.00  0.00     0.116 A 
ATOM      5  S   UNL d   1      -1.149  -1.841  -0.422  0.00  0.00    -0.075 SA
ATOM      6  C   UNL d   1      -0.965  -3.473  -0.897  0.00  0.00     0.035 A 
ATOM      7  C   UNL d   1       0.356  -3.785  -1.147  0.00  0.00     0.023 A 
ATOM      8  C   UNL d   1       1.220  -2.672  -0.935  0.00  0.00     0.034 A 
BRANCH   6   9
ATOM      9  C   UNL d   1      -2.091  -4.456  -1.011  0.00  0.00     0.074 A 
ATOM     10  C   UNL d   1      -3.466  -4.199  -0.813  0.00  0.00     0.077 A 
ATOM     11  C   UNL d   1      -4.070  -5.426  -0.966  0.00  0.00     0.184 A 
ATOM     12  O   UNL d   1      -3.123  -6.353  -1.268  0.00  0.00    -0.233 OA
ATOM     13  N   UNL d   1      -1.881  -5.746  -1.305  0.00  0.00    -0.260 N 
ATOM     14  HN  UNL d   1      -0.987  -6.190  -1.514  1.00  0.00     0.195 HD
BRANCH  11  15
ATOM     15  C   UNL d   1      -5.454  -5.914  -0.859  0.00  0.00     0.441 C 
ATOM     16  F   UNL d   1      -6.326  -4.899  -0.618  0.00  0.00    -0.164 F 
ATOM     17  F   UNL d   1      -5.877  -6.529  -1.992  0.00  0.00    -0.164 F 
ATOM     18  F   UNL d   1      -5.605  -6.802   0.157  0.00  0.00    -0.164 F 
ENDBRANCH  11  15
ENDBRANCH   6   9
ENDBRANCH   1   4
BRANCH   1  19
ATOM     19  N   UNL d   1       0.608   0.494   1.468  0.00  0.00    -0.206 NA
ATOM     20  C   UNL d   1       1.262  -0.339   2.522  0.00  0.00     0.111 C 
ATOM     21  C   UNL d   1       0.631  -0.044   3.886  0.00  0.00     0.058 C 
ATOM     22  C   UNL d   1       0.709   1.450   4.242  0.00  0.00     0.087 C 
ATOM     23  C   UNL d   1       0.151   2.295   3.082  0.00  0.00     0.058 C 
ATOM     24  C   UNL d   1       0.809   1.944   1.753  0.00  0.00     0.111 C 
BRANCH  22  25
ATOM     25  C   UNL d   1       0.016   1.727   5.585  0.00  0.00    -0.024 A 
ATOM     26  C   UNL d   1      -1.335   2.112   5.662  0.00  0.00     0.012 A 
ATOM     27  C   UNL d   1      -1.943   2.390   6.891  0.00  0.00     0.024 A 
ATOM     28  C   UNL d   1      -1.215   2.272   8.069  0.00  0.00     0.034 A 
ATOM     29  C   UNL d   1       0.113   1.863   8.028  0.00  0.00     0.024 A 
ATOM     30 CL   UNL d   1      -1.963   2.628   9.575  0.00  0.00    -0.084 Cl
ATOM     31  C   UNL d   1       0.720   1.584   6.798  0.00  0.00     0.012 A 
ENDBRANCH  22  25
BRANCH  22  32
ATOM     32  O   UNL d   1       2.098   1.800   4.371  0.00  0.00    -0.385 OA
ATOM     33  H   UNL d   1       2.138   2.675   4.797  0.00  0.00     0.211 HD
ENDBRANCH  22  32
ENDBRANCH   1  19
TORSDOF 6
