REMARK  5 active torsions:
REMARK  status: ('A' for Active; 'I' for Inactive)
REMARK    1  A    between atoms: C_8  and  S_1 
REMARK    2  A    between atoms: N_9  and  S_1 
REMARK    3  A    between atoms: S_2  and  C_12 
REMARK    4  A    between atoms: N_10  and  S_2 
REMARK    5  A    between atoms: C_18  and  C_3 
ROOT
ATOM      1  C   UNL d   1      -2.308  -5.266  -0.110  0.00  0.00     0.109 A 
ATOM      2  C   UNL d   1      -0.966  -5.585  -0.039  0.00  0.00     0.081 A 
ATOM      3  O   UNL d   1      -2.449  -3.899  -0.177  0.00  0.00    -0.307 OA
ATOM      4  C   UNL d   1      -1.199  -3.351  -0.117  0.00  0.00     0.089 A 
ATOM      5  C   UNL d   1      -0.247  -4.360  -0.020  0.00  0.00     0.022 A 
ATOM      6  C   UNL d   1       0.470  -1.660  -0.080  0.00  0.00     0.077 A 
ATOM      7  C   UNL d   1      -0.894  -1.986  -0.159  0.00  0.00     0.063 A 
ATOM      8  C   UNL d   1       1.111  -4.003   0.059  0.00  0.00     0.017 A 
ATOM      9  C   UNL d   1       1.456  -2.646   0.051  0.00  0.00     0.026 A 
ATOM     10 CL   UNL d   1      -0.252  -7.127   0.019  0.00  0.00    -0.080 Cl
ENDROOT
BRANCH   1  11
ATOM     11  C   UNL d   1      -3.548  -6.032  -0.056  0.00  0.00    -0.000 C 
ATOM     12  C   UNL d   1      -4.681  -5.591  -0.751  0.00  0.00     0.016 C 
ATOM     13  C   UNL d   1      -5.922  -6.195  -0.542  0.00  0.00     0.026 C 
ATOM     14  C   UNL d   1      -6.039  -7.229   0.392  0.00  0.00     0.079 C 
ATOM     15  C   UNL d   1      -4.902  -7.774   0.986  0.00  0.00     0.026 C 
ATOM     16  C   UNL d   1      -3.658  -7.175   0.755  0.00  0.00     0.016 C 
BRANCH  14  17
ATOM     17  S   UNL d   1      -7.662  -7.843   0.817  0.00  0.00     0.260 S 
ATOM     18  O   UNL d   1      -8.532  -7.553  -0.305  0.00  0.00    -0.200 OA
ATOM     19  O   UNL d   1      -7.497  -9.188   1.304  0.00  0.00    -0.200 OA
BRANCH  17  20
ATOM     20  N   UNL d   1      -8.144  -6.846   2.134  0.00  0.00    -0.307 N 
ATOM     21  C   UNL d   1      -7.416  -7.062   3.412  0.00  0.00     0.135 C 
ATOM     22  C   UNL d   1      -8.132  -6.359   4.566  0.00  0.00     0.021 C 
ATOM     23  C   UNL d   1      -8.354  -4.881   4.273  0.00  0.00     0.003 C 
ATOM     24  C   UNL d   1      -9.116  -4.721   2.963  0.00  0.00     0.021 C 
ATOM     25  C   UNL d   1      -8.377  -5.412   1.818  0.00  0.00     0.135 C 
ENDBRANCH  17  20
ENDBRANCH  14  17
ENDBRANCH   1  11
BRANCH   6  26
ATOM     26  S   UNL d   1       0.962   0.053  -0.093  0.00  0.00     0.243 S 
ATOM     27  O   UNL d   1       2.416   0.111  -0.023  0.00  0.00    -0.206 OA
ATOM     28  O   UNL d   1       0.149   0.732   0.897  0.00  0.00    -0.206 OA
BRANCH  26  29
ATOM     29  N   UNL d   1       0.508   0.636  -1.655  0.00  0.00    -0.206 NA
ATOM     30  C   UNL d   1       1.297   0.055  -2.787  0.00  0.00     0.107 C 
ATOM     31  C   UNL d   1       0.783   0.589  -4.127  0.00  0.00     0.015 C 
ATOM     32  C   UNL d   1       0.818   2.111  -4.175  0.00  0.00     0.002 C 
ATOM     33  C   UNL d   1       0.044   2.688  -2.999  0.00  0.00     0.015 C 
ATOM     34  C   UNL d   1       0.557   2.135  -1.676  0.00  0.00     0.107 C 
ENDBRANCH  26  29
ENDBRANCH   6  26
TORSDOF 5
