REMARK  3 active torsions:
REMARK  status: ('A' for Active; 'I' for Inactive)
REMARK    1  A    between atoms: N_2  and  S_1 
REMARK    2  A    between atoms: C_5  and  S_1 
REMARK    3  A    between atoms: C_3  and  N_2 
ROOT
ATOM      1  S   UNL d   1       1.074  -0.023  -0.043  0.00  0.00     0.247 S 
ATOM      2  O   UNL d   1       0.331   1.122   0.453  0.00  0.00    -0.205 OA
ATOM      3  O   UNL d   1       2.512  -0.091   0.068  0.00  0.00    -0.205 OA
ENDROOT
BRANCH   1   4
ATOM      4  N   UNL d   1       0.591  -0.200  -1.689  0.00  0.00    -0.165 NA
ATOM      5  H   UNL d   1      -0.307   0.296  -1.722  0.00  0.00     0.147 HD
BRANCH   4   6
ATOM      6  C   UNL d   1       1.513   0.436  -2.592  0.00  0.00     0.111 A 
ATOM      7  N   UNL d   1       2.608  -0.110  -3.209  0.00  0.00    -0.285 N 
ATOM      8  N   UNL d   1       3.253   0.769  -4.006  0.00  0.00    -0.309 N 
ATOM      9  C   UNL d   1       3.041  -1.484  -3.176  0.00  0.00     0.179 C 
ATOM     10  C   UNL d   1       2.540   1.892  -3.879  0.00  0.00     0.110 A 
ATOM     11  HN  UNL d   1       4.087   0.613  -4.572  1.00  0.00     0.186 HD
ATOM     12  C   UNL d   1       1.427   1.734  -3.032  0.00  0.00     0.063 A 
ENDBRANCH   4   6
ENDBRANCH   1   4
BRANCH   1  13
ATOM     13  C   UNL d   1       0.324  -1.496   0.653  0.00  0.00     0.081 A 
ATOM     14  C   UNL d   1       0.981  -2.730   0.818  0.00  0.00    -0.038 A 
ATOM     15  C   UNL d   1       0.224  -3.822   1.303  0.00  0.00     0.027 A 
ATOM     16  C   UNL d   1       2.414  -3.043   0.488  0.00  0.00     0.050 C 
ATOM     17  C   UNL d   1      -1.124  -3.685   1.634  0.00  0.00     0.011 A 
ATOM     18  C   UNL d   1      -1.753  -2.455   1.512  0.00  0.00     0.020 A 
ATOM     19 BR   UNL d   1      -2.102  -5.186   2.236  0.00  0.00    -0.051 Br
ATOM     20  C   UNL d   1      -1.031  -1.364   1.028  0.00  0.00     0.027 A 
ENDBRANCH   1  13
TORSDOF 3
