REMARK  4 active torsions:
REMARK  status: ('A' for Active; 'I' for Inactive)
REMARK    1  A    between atoms: N_2  and  C_1 
REMARK    2  A    between atoms: N_4  and  C_1 
REMARK    3  A    between atoms: C_5  and  N_2 
REMARK    4  A    between atoms: C_7  and  C_5 
ROOT
ATOM      1  C   UNL d   1       1.021  -2.429  -1.342  0.00  0.00     0.160 C 
ENDROOT
BRANCH   1   2
ATOM      2  N   UNL d   1       0.579  -1.241  -0.649  0.00  0.00    -0.363 N 
ATOM      3  H   UNL d   1      -0.430  -1.157  -0.578  0.00  0.00     0.162 HD
BRANCH   2   4
ATOM      4  C   UNL d   1       1.185  -0.190  -0.056  0.00  0.00     0.169 C 
ATOM      5  S   UNL d   1       0.058   0.890   0.591  0.00  0.00    -0.041 SA
BRANCH   4   6
ATOM      6  N   UNL d   1       2.555  -0.035   0.002  0.00  0.00    -0.367 N 
ATOM      7  C   UNL d   1       3.586  -0.927  -0.520  0.00  0.00     0.151 C 
ATOM      8  C   UNL d   1       3.167   1.131   0.658  0.00  0.00     0.151 C 
ENDBRANCH   4   6
ENDBRANCH   2   4
ENDBRANCH   1   2
BRANCH   1   9
ATOM      9  C   UNL d   1      -0.141  -3.257  -1.835  0.00  0.00    -0.040 A 
ATOM     10  C   UNL d   1      -0.640  -3.072  -3.134  0.00  0.00     0.012 A 
ATOM     11  C   UNL d   1      -1.693  -3.858  -3.603  0.00  0.00     0.043 A 
ATOM     12  C   UNL d   1      -2.255  -4.819  -2.772  0.00  0.00     0.116 A 
ATOM     13  C   UNL d   1      -1.793  -4.999  -1.473  0.00  0.00     0.043 A 
ATOM     14  F   UNL d   1      -3.256  -5.582  -3.228  0.00  0.00    -0.206 F 
ATOM     15  C   UNL d   1      -0.740  -4.215  -1.001  0.00  0.00     0.012 A 
ENDBRANCH   1   9
TORSDOF 4
