REMARK  7 active torsions:
REMARK  status: ('A' for Active; 'I' for Inactive)
REMARK    1  A    between atoms: N_4  and  C_1 
REMARK    2  A    between atoms: N_10  and  C_1 
REMARK    3  A    between atoms: C_7  and  N_4 
REMARK    4  A    between atoms: C_5  and  C_9 
REMARK    5  A    between atoms: O_17  and  C_5 
REMARK    6  A    between atoms: C_9  and  C_14 
REMARK    7  A    between atoms: C_14  and  N_10 
ROOT
ATOM      1  C   UNL d   1       1.069  -0.027   0.003  0.00  0.00     0.172 C 
ATOM      2  S   UNL d   1       0.352   1.311  -0.700  0.00  0.00    -0.041 SA
ENDROOT
BRANCH   1   3
ATOM      3  N   UNL d   1       0.446  -1.069   0.646  0.00  0.00    -0.333 N 
ATOM      4  H   UNL d   1       0.893  -1.331   1.528  0.00  0.00     0.168 HD
BRANCH   3   5
ATOM      5  C   UNL d   1      -0.876  -1.522   0.448  0.00  0.00     0.036 A 
ATOM      6  C   UNL d   1      -1.587  -2.030   1.540  0.00  0.00     0.056 A 
ATOM      7  C   UNL d   1      -2.902  -2.474   1.366  0.00  0.00     0.074 A 
ATOM      8 CL   UNL d   1      -3.796  -3.031   2.730  0.00  0.00    -0.081 Cl
ATOM      9  C   UNL d   1      -3.485  -2.457   0.101  0.00  0.00     0.138 A 
ATOM     10  C   UNL d   1      -2.767  -2.004  -0.999  0.00  0.00     0.046 A 
ATOM     11  F   UNL d   1      -4.744  -2.885  -0.084  0.00  0.00    -0.204 F 
ATOM     12  C   UNL d   1      -1.464  -1.538  -0.824  0.00  0.00     0.032 A 
ENDBRANCH   3   5
ENDBRANCH   1   3
BRANCH   1  13
ATOM     13  N   UNL d   1       2.436  -0.073  -0.019  0.00  0.00    -0.366 N 
ATOM     14  H   UNL d   1       2.845   0.720  -0.503  0.00  0.00     0.161 HD
BRANCH  13  15
ATOM     15  C   UNL d   1       3.275  -1.248   0.170  0.00  0.00     0.132 C 
BRANCH  15  16
ATOM     16  C   UNL d   1       4.232  -1.083   1.340  0.00  0.00     0.129 C 
BRANCH  16  17
ATOM     17  C   UNL d   1       3.511  -1.184   2.656  0.00  0.00     0.140 C 
ATOM     18  O   UNL d   1       2.373  -1.611   2.803  0.00  0.00    -0.650 OA
BRANCH  17  19
ATOM     19  O   UNL d   1       4.271  -0.781   3.700  0.00  0.00    -0.776 OA
ATOM     20  H   UNL d   1       5.157  -0.456   3.452  0.00  0.00     0.167 HD
ENDBRANCH  17  19
ENDBRANCH  16  17
ENDBRANCH  15  16
ENDBRANCH  13  15
ENDBRANCH   1  13
TORSDOF 7
