REMARK  6 active torsions:
REMARK  status: ('A' for Active; 'I' for Inactive)
REMARK    1  A    between atoms: C_6  and  C_1 
REMARK    2  A    between atoms: C_4  and  C_13 
REMARK    3  A    between atoms: O_12  and  C_6 
REMARK    4  A    between atoms: N_9  and  O_12 
REMARK    5  A    between atoms: C_14  and  C_11 
REMARK    6  A    between atoms: N_23  and  C_11 
ROOT
ATOM      1  N   UNL d   1      -2.420   2.555  -0.218  0.00  0.00    -0.246 N 
ATOM      2  HN  UNL d   1      -1.591   3.092  -0.474  1.00  0.00     0.196 HD
ATOM      3  C   UNL d   1      -3.585   3.081   0.024  0.00  0.00     0.109 C 
ENDROOT
BRANCH   3   4
ATOM      4  C   UNL d   1      -3.727   4.574  -0.063  0.00  0.00     0.004 A 
ATOM      5  C   UNL d   1      -2.851   5.319  -0.860  0.00  0.00     0.015 A 
ATOM      6  C   UNL d   1      -3.016   6.703  -0.988  0.00  0.00     0.017 A 
ATOM      7  C   UNL d   1      -4.053   7.366  -0.312  0.00  0.00     0.048 A 
ATOM      8  C   UNL d   1      -4.911   6.616   0.509  0.00  0.00     0.017 A 
ATOM      9  C   UNL d   1      -4.749   5.232   0.633  0.00  0.00     0.015 A 
BRANCH   7  10
ATOM     10  C   UNL d   1      -4.262   8.855  -0.458  0.00  0.00     0.417 C 
ATOM     11  F   UNL d   1      -3.361   9.458  -1.282  0.00  0.00    -0.166 F 
ATOM     12  F   UNL d   1      -5.490   9.156  -0.967  0.00  0.00    -0.166 F 
ATOM     13  F   UNL d   1      -4.181   9.513   0.731  0.00  0.00    -0.166 F 
ENDBRANCH   7  10
ENDBRANCH   3   4
BRANCH   3  14
ATOM     14  N   UNL d   1      -4.706   2.338   0.327  0.00  0.00    -0.286 NA
ATOM     15  H   UNL d   1      -4.600   1.362   0.076  0.00  0.00     0.125 HD
ATOM     16  H   UNL d   1      -5.584   2.720  -0.007  0.00  0.00     0.125 HD
ENDBRANCH   3  14
BRANCH   1  17
ATOM     17  O   UNL d   1      -2.445   1.145  -0.083  0.00  0.00    -0.193 OA
BRANCH  17  18
ATOM     18  C   UNL d   1      -1.201   0.609  -0.350  0.00  0.00     0.319 C 
ATOM     19  O   UNL d   1      -0.214   1.242  -0.708  0.00  0.00    -0.257 OA
BRANCH  18  20
ATOM     20  C   UNL d   1      -1.164  -0.835  -0.179  0.00  0.00     0.096 A 
ATOM     21  C   UNL d   1      -2.172  -1.687   0.230  0.00  0.00     0.090 A 
ATOM     22  O   UNL d   1      -1.708  -2.964   0.250  0.00  0.00    -0.242 OA
ATOM     23  C   UNL d   1      -3.581  -1.527   0.637  0.00  0.00     0.080 C 
ATOM     24  N   UNL d   1      -0.389  -2.986  -0.142  0.00  0.00    -0.265 N 
ATOM     25  C   UNL d   1      -0.061  -1.714  -0.396  0.00  0.00     0.047 A 
ATOM     26  HN  UNL d   1       0.214  -3.805  -0.223  1.00  0.00     0.194 HD
ATOM     27  C   UNL d   1       1.315  -1.392  -0.846  0.00  0.00     0.071 C 
ENDBRANCH  18  20
ENDBRANCH  17  18
ENDBRANCH   1  17
TORSDOF 6
