REMARK  4 active torsions:
REMARK  status: ('A' for Active; 'I' for Inactive)
REMARK    1  A    between atoms: C_2  and  C_1 
REMARK    2  A    between atoms: C_4  and  C_1 
REMARK       I    between atoms: N_3  and  C_2 
REMARK    3  A    between atoms: C_9  and  N_3 
REMARK    4  A    between atoms: O_10  and  N_5 
ROOT
ATOM      1  C   UNL d   1       0.138   0.436  -1.189  0.00  0.00     0.278 C 
ATOM      2  N   UNL d   1      -1.200   0.115  -1.256  0.00  0.00    -0.322 N 
ATOM      3  O   UNL d   1       0.742   0.993  -0.282  0.00  0.00    -0.265 OA
ATOM      4  H   UNL d   1      -1.487  -0.384  -2.096  0.00  0.00     0.169 HD
ENDROOT
BRANCH   1   5
ATOM      5  C   UNL d   1       0.940   0.013  -2.405  0.00  0.00     0.167 C 
ATOM      6  N   UNL d   1       0.395  -0.870  -3.206  0.00  0.00    -0.261 N 
ATOM      7  HN  UNL d   1      -0.532  -1.273  -3.071  1.00  0.00     0.194 HD
BRANCH   5   8
ATOM      8  C   UNL d   1       2.303   0.629  -2.645  0.00  0.00     0.179 C 
ATOM      9  O   UNL d   1       2.479   1.335  -3.634  0.00  0.00    -0.291 OA
ATOM     10  C   UNL d   1       3.370   0.350  -1.628  0.00  0.00     0.099 C 
ENDBRANCH   5   8
BRANCH   6  11
ATOM     11  O   UNL d   1       1.247  -1.191  -4.270  0.00  0.00    -0.289 OA
ATOM     12  H   UNL d   1       0.661  -1.659  -4.896  0.00  0.00     0.244 HD
ENDBRANCH   6  11
ENDBRANCH   1   5
BRANCH   2  13
ATOM     13  C   UNL d   1      -2.172   0.338  -0.262  0.00  0.00     0.035 A 
ATOM     14  C   UNL d   1      -1.905   1.002   0.938  0.00  0.00     0.029 A 
ATOM     15  C   UNL d   1      -2.903   1.160   1.903  0.00  0.00     0.002 A 
ATOM     16  C   UNL d   1      -4.181   0.660   1.674  0.00  0.00     0.000 A 
ATOM     17  C   UNL d   1      -4.464   0.012   0.474  0.00  0.00     0.002 A 
ATOM     18  C   UNL d   1      -3.465  -0.146  -0.492  0.00  0.00     0.029 A 
ENDBRANCH   2  13
TORSDOF 4
