REMARK  8 active torsions:
REMARK  status: ('A' for Active; 'I' for Inactive)
REMARK    1  A    between atoms: C_4  and  C_1 
REMARK    2  A    between atoms: S_3  and  C_2 
REMARK    3  A    between atoms: C_7  and  S_3 
REMARK    4  A    between atoms: O_16  and  C_4 
REMARK    5  A    between atoms: C_5  and  C_7 
REMARK    6  A    between atoms: C_6  and  C_5 
REMARK    7  A    between atoms: C_8  and  C_6 
REMARK    8  A    between atoms: C_9  and  C_7 
ROOT
ATOM      1  C   UNL d   1       2.563  -3.362   1.051  0.00  0.00     0.092 C 
ENDROOT
BRANCH   1   2
ATOM      2  C   UNL d   1       3.161  -2.493   2.181  0.00  0.00     0.104 C 
BRANCH   2   3
ATOM      3  C   UNL d   1       2.316  -2.031   3.355  0.00  0.00     0.162 C 
ATOM      4  O   UNL d   1       1.915  -0.872   3.430  0.00  0.00    -0.292 OA
BRANCH   3   5
ATOM      5  C   UNL d   1       2.098  -2.923   4.514  0.00  0.00     0.025 A 
ATOM      6  C   UNL d   1       1.973  -2.339   5.772  0.00  0.00     0.102 A 
ATOM      7  N   UNL d   1       1.773  -3.037   6.917  0.00  0.00    -0.374 N 
ATOM      8  C   UNL d   1       1.673  -4.377   6.796  0.00  0.00     0.087 A 
ATOM      9  HN  UNL d   1       1.703  -2.573   7.823  1.00  0.00     0.164 HD
ATOM     10  C   UNL d   1       1.775  -5.048   5.588  0.00  0.00     0.018 A 
ATOM     11  C   UNL d   1       2.001  -4.309   4.427  0.00  0.00     0.018 A 
ENDBRANCH   3   5
ENDBRANCH   2   3
ENDBRANCH   1   2
BRANCH   1  12
ATOM     12  S   UNL d   1       0.720  -3.425   1.015  0.00  0.00    -0.119 SA
BRANCH  12  13
ATOM     13  C   UNL d   1       0.431  -1.862   0.182  0.00  0.00     0.017 A 
ATOM     14  C   UNL d   1       0.758  -1.599  -1.160  0.00  0.00     0.056 A 
ATOM     15  C   UNL d   1       0.819  -0.268  -1.606  0.00  0.00     0.019 A 
ATOM     16  C   UNL d   1       0.506   0.785  -0.745  0.00  0.00     0.001 A 
ATOM     17  C   UNL d   1       0.087   0.516   0.553  0.00  0.00     0.001 A 
ATOM     18  C   UNL d   1       0.033  -0.801   1.008  0.00  0.00     0.019 A 
BRANCH  14  19
ATOM     19  C   UNL d   1       1.120  -2.635  -2.159  0.00  0.00     0.294 C 
ATOM     20  O   UNL d   1       1.954  -2.451  -3.033  0.00  0.00    -0.259 OA
BRANCH  19  21
ATOM     21  O   UNL d   1       0.337  -3.733  -2.024  0.00  0.00    -0.322 OA
ATOM     22  C   UNL d   1       0.561  -4.759  -2.995  0.00  0.00     0.213 C 
ENDBRANCH  19  21
ENDBRANCH  14  19
ENDBRANCH  12  13
ENDBRANCH   1  12
BRANCH   1  23
ATOM     23  C   UNL d   1       3.279  -4.707   0.845  0.00  0.00    -0.043 A 
ATOM     24  C   UNL d   1       2.619  -5.925   0.601  0.00  0.00     0.011 A 
ATOM     25  C   UNL d   1       3.336  -7.082   0.275  0.00  0.00     0.043 A 
ATOM     26  C   UNL d   1       4.722  -7.038   0.193  0.00  0.00     0.116 A 
ATOM     27  C   UNL d   1       5.405  -5.859   0.434  0.00  0.00     0.043 A 
ATOM     28  F   UNL d   1       5.402  -8.141  -0.148  0.00  0.00    -0.206 F 
ATOM     29  C   UNL d   1       4.689  -4.702   0.748  0.00  0.00     0.011 A 
ENDBRANCH   1  23
TORSDOF 8
