REMARK  5 active torsions:
REMARK  status: ('A' for Active; 'I' for Inactive)
REMARK    1  A    between atoms: N_6  and  C_1 
REMARK       I    between atoms: C_8  and  N_6 
REMARK    2  A    between atoms: C_7  and  C_8 
REMARK    3  A    between atoms: C_17  and  C_12 
REMARK    4  A    between atoms: S_16  and  C_17 
REMARK    5  A    between atoms: C_18  and  S_16 
ROOT
ATOM      1  N   UNL d   1       1.478   4.348  -1.075  0.00  0.00    -0.305 N 
ATOM      2  C   UNL d   1       1.102   3.658   0.063  0.00  0.00     0.281 C 
ATOM      3  O   UNL d   1       1.865   3.134   0.870  0.00  0.00    -0.265 OA
ATOM      4  H   UNL d   1       0.749   4.772  -1.634  0.00  0.00     0.170 HD
ENDROOT
BRANCH   2   5
ATOM      5  C   UNL d   1      -0.341   3.564   0.247  0.00  0.00     0.143 A 
ATOM      6  O   UNL d   1      -1.215   4.071  -0.684  0.00  0.00    -0.309 OA
ATOM      7  C   UNL d   1      -2.486   3.764  -0.259  0.00  0.00     0.063 A 
ATOM      8  C   UNL d   1      -2.423   3.080   0.939  0.00  0.00     0.036 A 
ATOM      9  C   UNL d   1      -1.055   2.956   1.262  0.00  0.00     0.045 A 
BRANCH   7  10
ATOM     10  C   UNL d   1      -3.603   4.157  -1.169  0.00  0.00     0.144 C 
BRANCH  10  11
ATOM     11  S   UNL d   1      -5.174   4.436  -0.275  0.00  0.00    -0.123 SA
BRANCH  11  12
ATOM     12  C   UNL d   1      -6.289   4.670  -1.649  0.00  0.00     0.001 A 
ATOM     13  C   UNL d   1      -7.371   3.800  -1.810  0.00  0.00     0.020 A 
ATOM     14  C   UNL d   1      -8.283   3.982  -2.858  0.00  0.00     0.025 A 
ATOM     15  C   UNL d   1      -8.110   5.050  -3.741  0.00  0.00     0.034 A 
ATOM     16  C   UNL d   1      -7.044   5.931  -3.581  0.00  0.00     0.025 A 
ATOM     17 CL   UNL d   1      -9.230   5.285  -5.026  0.00  0.00    -0.084 Cl
ATOM     18  C   UNL d   1      -6.136   5.741  -2.533  0.00  0.00     0.020 A 
ENDBRANCH  11  12
ENDBRANCH  10  11
ENDBRANCH   7  10
ENDBRANCH   2   5
BRANCH   1  19
ATOM     19  C   UNL d   1       2.758   4.347  -1.603  0.00  0.00     0.138 C 
ATOM     20  N   UNL d   1       3.805   3.734  -1.048  0.00  0.00    -0.282 N 
ATOM     21  N   UNL d   1       4.804   3.884  -1.928  0.00  0.00    -0.294 N 
ATOM     22  HN  UNL d   1       3.838   3.255  -0.148  1.00  0.00     0.189 HD
ATOM     23  C   UNL d   1       6.140   3.473  -1.568  0.00  0.00     0.178 C 
ATOM     24  C   UNL d   1       4.428   4.502  -3.091  0.00  0.00     0.067 A 
ATOM     25  C   UNL d   1       3.124   4.934  -2.850  0.00  0.00     0.076 A 
ATOM     26  C   UNL d   1       5.099   4.737  -4.300  0.00  0.00     0.032 A 
ATOM     27  C   UNL d   1       2.503   5.732  -3.822  0.00  0.00     0.132 A 
ATOM     28  F   UNL d   1       1.277   6.232  -3.610  0.00  0.00    -0.205 F 
ATOM     29  C   UNL d   1       3.163   6.018  -5.021  0.00  0.00     0.043 A 
ATOM     30  C   UNL d   1       4.431   5.494  -5.269  0.00  0.00     0.005 A 
ENDBRANCH   1  19
TORSDOF 5
