REMARK  8 active torsions:
REMARK  status: ('A' for Active; 'I' for Inactive)
REMARK    1  A    between atoms: O_6  and  N_1 
REMARK    2  A    between atoms: C_5  and  C_3 
REMARK    3  A    between atoms: N_15  and  C_3 
REMARK    4  A    between atoms: C_4  and  O_6 
REMARK    5  A    between atoms: C_9  and  C_4 
REMARK    6  A    between atoms: O_11  and  C_10 
REMARK    7  A    between atoms: C_17  and  O_11 
REMARK    8  A    between atoms: C_19  and  C_17 
ROOT
ATOM      1  C   UNL d   1       0.977   2.325   0.631  0.00  0.00     0.005 A 
ATOM      2  C   UNL d   1       2.823   3.861   0.300  0.00  0.00     0.068 A 
ATOM      3  C   UNL d   1       2.101   2.728  -0.101  0.00  0.00     0.041 A 
ATOM      4  C   UNL d   1       2.442   4.593   1.438  0.00  0.00     0.090 A 
ATOM      5  C   UNL d   1       0.569   3.079   1.735  0.00  0.00     0.017 A 
ATOM      6  C   UNL d   1       1.292   4.207   2.132  0.00  0.00     0.039 A 
ATOM      7 CL   UNL d   1       4.208   4.313  -0.634  0.00  0.00    -0.081 Cl
ENDROOT
BRANCH   1   8
ATOM      8  C   UNL d   1       0.214   1.090   0.258  0.00  0.00     0.109 C 
ATOM      9  N   UNL d   1      -1.056   1.065   0.548  0.00  0.00    -0.246 N 
ATOM     10  HN  UNL d   1      -1.547   1.837   0.999  1.00  0.00     0.196 HD
BRANCH   9  11
ATOM     11  O   UNL d   1      -1.681  -0.145   0.170  0.00  0.00    -0.198 OA
BRANCH  11  12
ATOM     12  C   UNL d   1      -3.037  -0.068   0.421  0.00  0.00     0.288 C 
ATOM     13  O   UNL d   1      -3.625   0.904   0.887  0.00  0.00    -0.262 OA
BRANCH  12  14
ATOM     14  C   UNL d   1      -3.765  -1.387   0.096  0.00  0.00     0.039 C 
ATOM     15  C   UNL d   1      -2.876  -2.415  -0.616  0.00  0.00     0.025 C 
ATOM     16  C   UNL d   1      -4.275  -1.982   1.418  0.00  0.00     0.025 C 
ATOM     17  C   UNL d   1      -4.973  -1.083  -0.806  0.00  0.00     0.025 C 
ENDBRANCH  12  14
ENDBRANCH  11  12
ENDBRANCH   9  11
BRANCH   8  18
ATOM     18  N   UNL d   1       0.894   0.053  -0.332  0.00  0.00    -0.286 NA
ATOM     19  H   UNL d   1       0.386  -0.823  -0.288  0.00  0.00     0.125 HD
ATOM     20  H   UNL d   1       1.865  -0.049  -0.053  0.00  0.00     0.125 HD
ENDBRANCH   8  18
ENDBRANCH   1   8
BRANCH   4  21
ATOM     21  O   UNL d   1       3.222   5.663   1.805  0.00  0.00    -0.345 OA
BRANCH  21  22
ATOM     22  C   UNL d   1       3.140   6.049   3.182  0.00  0.00     0.214 C 
BRANCH  22  23
ATOM     23  C   UNL d   1       4.336   6.877   3.599  0.00  0.00    -0.034 A 
ATOM     24  C   UNL d   1       4.227   7.743   4.701  0.00  0.00     0.011 A 
ATOM     25  C   UNL d   1       5.332   8.477   5.140  0.00  0.00     0.024 A 
ATOM     26  C   UNL d   1       6.554   8.343   4.488  0.00  0.00     0.034 A 
ATOM     27  C   UNL d   1       6.684   7.475   3.406  0.00  0.00     0.024 A 
ATOM     28 CL   UNL d   1       7.915   9.249   5.026  0.00  0.00    -0.084 Cl
ATOM     29  C   UNL d   1       5.580   6.740   2.968  0.00  0.00     0.011 A 
ENDBRANCH  22  23
ENDBRANCH  21  22
ENDBRANCH   4  21
TORSDOF 8
