REMARK  7 active torsions:
REMARK  status: ('A' for Active; 'I' for Inactive)
REMARK    1  A    between atoms: N_2  and  C_1 
REMARK    2  A    between atoms: C_4  and  N_15 
REMARK    3  A    between atoms: N_10  and  C_4 
REMARK    4  A    between atoms: C_14  and  C_6 
REMARK    5  A    between atoms: N_15  and  N_7 
REMARK    6  A    between atoms: N_16  and  N_10 
REMARK    7  A    between atoms: C_17  and  N_16 
ROOT
ATOM      1  N   UNL d   1       0.815  -4.803   0.169  0.00  0.00    -0.275 N 
ATOM      2  H   UNL d   1       0.936  -3.995  -0.439  0.00  0.00     0.189 HD
ENDROOT
BRANCH   1   3
ATOM      3  C   UNL d   1       1.690  -5.835  -0.158  0.00  0.00     0.205 C 
ATOM      4  S   UNL d   1       1.345  -7.463  -0.317  0.00  0.00    -0.038 SA
BRANCH   3   5
ATOM      5  N   UNL d   1       2.994  -5.408  -0.347  0.00  0.00    -0.275 N 
ATOM      6  H   UNL d   1       3.676  -6.162  -0.412  0.00  0.00     0.189 HD
BRANCH   5   7
ATOM      7  N   UNL d   1       3.444  -4.310   0.408  0.00  0.00    -0.299 N 
ATOM      8  H   UNL d   1       2.715  -3.775   0.881  0.00  0.00     0.187 HD
BRANCH   7   9
ATOM      9  C   UNL d   1       4.458  -3.517  -0.169  0.00  0.00     0.048 A 
ATOM     10  C   UNL d   1       5.224  -3.919  -1.271  0.00  0.00     0.031 A 
ATOM     11  C   UNL d   1       6.304  -3.151  -1.718  0.00  0.00     0.002 A 
ATOM     12  C   UNL d   1       6.650  -1.977  -1.055  0.00  0.00     0.000 A 
ATOM     13  C   UNL d   1       5.914  -1.569   0.053  0.00  0.00     0.002 A 
ATOM     14  C   UNL d   1       4.832  -2.337   0.494  0.00  0.00     0.031 A 
ENDBRANCH   7   9
ENDBRANCH   5   7
ENDBRANCH   3   5
ENDBRANCH   1   3
BRANCH   1  15
ATOM     15  N   UNL d   1      -0.476  -4.955   0.613  0.00  0.00    -0.308 N 
ATOM     16  C   UNL d   1      -0.621  -5.689   1.675  0.00  0.00     0.126 C 
ATOM     17  HN  UNL d   1      -1.268  -4.521   0.140  1.00  0.00     0.186 HD
BRANCH  16  18
ATOM     18  C   UNL d   1      -1.920  -5.892   2.265  0.00  0.00     0.024 A 
ATOM     19  S   UNL d   1      -2.056  -6.907   3.638  0.00  0.00    -0.065 SA
ATOM     20  C   UNL d   1      -3.726  -6.616   3.761  0.00  0.00     0.144 A 
ATOM     21  C   UNL d   1      -4.192  -5.769   2.777  0.00  0.00     0.045 A 
ATOM     22  C   UNL d   1      -3.141  -5.357   1.902  0.00  0.00     0.023 A 
BRANCH  20  23
ATOM     23  N   UNL d   1      -4.499  -7.217   4.816  0.00  0.00    -0.108 N 
ATOM     24  O   UNL d   1      -5.699  -6.916   4.856  0.00  0.00    -0.531 OA
ATOM     25  O   UNL d   1      -3.925  -7.980   5.604  0.00  0.00    -0.531 OA
ENDBRANCH  20  23
ENDBRANCH  16  18
ENDBRANCH   1  15
TORSDOF 7
