REMARK  3 active torsions:
REMARK  status: ('A' for Active; 'I' for Inactive)
REMARK    1  A    between atoms: C_11  and  C_3 
REMARK    2  A    between atoms: C_12  and  C_6 
REMARK    3  A    between atoms: C_8  and  C_13 
ROOT
ATOM      1  N   UNL d   1       0.333   0.613  -0.031  0.00  0.00    -0.239 N 
ATOM      2  C   UNL d   1       0.205  -0.788  -0.027  0.00  0.00     0.142 A 
ATOM      3  C   UNL d   1       1.494  -1.310  -0.036  0.00  0.00     0.064 A 
ATOM      4  N   UNL d   1       1.636   0.988  -0.033  0.00  0.00    -0.302 N 
ATOM      5  HN  UNL d   1       2.012   1.936  -0.033  1.00  0.00     0.186 HD
ATOM      6  C   UNL d   1      -0.805   1.438  -0.032  0.00  0.00     0.070 A 
ATOM      7  C   UNL d   1       2.314  -0.157  -0.033  0.00  0.00     0.126 A 
ATOM      8  N   UNL d   1      -1.025  -1.401  -0.017  0.00  0.00    -0.350 N 
ATOM      9  HN  UNL d   1      -1.124  -2.416  -0.012  1.00  0.00     0.166 HD
ATOM     10  C   UNL d   1      -2.027   0.876  -0.026  0.00  0.00     0.049 A 
ATOM     11  C   UNL d   1      -2.056  -0.608  -0.014  0.00  0.00     0.092 A 
ENDROOT
BRANCH   6  12
ATOM     12  C   UNL d   1      -0.701   2.906  -0.037  0.00  0.00    -0.006 A 
ATOM     13  C   UNL d   1      -0.643   3.610  -1.248  0.00  0.00     0.030 A 
ATOM     14  C   UNL d   1      -0.595   5.015  -1.263  0.00  0.00     0.048 A 
ATOM     15  C   UNL d   1      -0.598   5.708  -0.042  0.00  0.00     0.016 A 
ATOM     16  C   UNL d   1      -0.647   5.013   1.166  0.00  0.00     0.002 A 
ATOM     17  C   UNL d   1      -0.701   3.618   1.169  0.00  0.00     0.014 A 
BRANCH  14  18
ATOM     18  C   UNL d   1      -0.565   5.781  -2.563  0.00  0.00     0.417 C 
ATOM     19  F   UNL d   1      -0.587   4.983  -3.667  0.00  0.00    -0.166 F 
ATOM     20  F   UNL d   1      -1.633   6.617  -2.691  0.00  0.00    -0.166 F 
ATOM     21  F   UNL d   1       0.540   6.566  -2.689  0.00  0.00    -0.166 F 
ENDBRANCH  14  18
ENDBRANCH   6  12
BRANCH   3  22
ATOM     22  C   UNL d   1       1.861  -2.713  -0.043  0.00  0.00     0.109 C 
ATOM     23  S   UNL d   1       3.456  -3.180  -0.049  0.00  0.00    -0.060 SA
ATOM     24  N   UNL d   1       0.862  -3.638  -0.049  0.00  0.00    -0.389 N 
ATOM     25  H   UNL d   1      -0.112  -3.344  -0.046  0.00  0.00     0.157 HD
ATOM     26  H   UNL d   1       1.080  -4.625  -0.059  0.00  0.00     0.157 HD
ENDBRANCH   3  22
TORSDOF 3
