REMARK  3 active torsions:
REMARK  status: ('A' for Active; 'I' for Inactive)
REMARK    1  A    between atoms: N_12  and  C_5 
REMARK    2  A    between atoms: C_15  and  N_12 
REMARK    3  A    between atoms: C_16  and  N_12 
ROOT
ATOM      1  C   UNL d   1       0.549  -0.761  -0.109  0.00  0.00     0.049 A 
ATOM      2  C   UNL d   1       1.114   0.516  -0.055  0.00  0.00     0.089 A 
ATOM      3  S   UNL d   1      -0.007   1.794  -0.066  0.00  0.00    -0.075 SA
ATOM      4  C   UNL d   1      -0.923  -0.613  -0.098  0.00  0.00    -0.028 A 
ATOM      5  C   UNL d   1       1.506  -1.837  -0.096  0.00  0.00     0.117 A 
ATOM      6  C   UNL d   1      -1.310   0.721  -0.043  0.00  0.00    -0.008 A 
ATOM      7  N   UNL d   1       2.411   0.849   0.014  0.00  0.00    -0.346 N 
ATOM      8  HN  UNL d   1       2.751   1.810   0.025  1.00  0.00     0.167 HD
ATOM      9  N   UNL d   1       2.822  -1.489   0.030  0.00  0.00    -0.338 N 
ATOM     10  HN  UNL d   1       3.528  -2.221   0.099  1.00  0.00     0.168 HD
ATOM     11  C   UNL d   1       3.200  -0.212   0.065  0.00  0.00     0.182 A 
ATOM     12  C   UNL d   1      -1.987  -1.677  -0.049  0.00  0.00     0.041 C 
ATOM     13  C   UNL d   1      -2.715   1.244   0.023  0.00  0.00     0.047 C 
ATOM     14  C   UNL d   1      -3.420  -1.148  -0.238  0.00  0.00     0.005 C 
ATOM     15  C   UNL d   1      -3.668   0.155   0.515  0.00  0.00     0.005 C 
ENDROOT
BRANCH   5  16
ATOM     16  N   UNL d   1       1.296  -3.213  -0.183  0.00  0.00    -0.367 N 
BRANCH  16  17
ATOM     17  C   UNL d   1       2.161  -4.062   0.646  0.00  0.00     0.120 C 
ATOM     18  C   UNL d   1       3.374  -4.590  -0.114  0.00  0.00     0.026 C 
ENDBRANCH  16  17
BRANCH  16  19
ATOM     19  C   UNL d   1       0.189  -3.785  -0.927  0.00  0.00     0.120 C 
ATOM     20  C   UNL d   1       0.495  -5.104  -1.620  0.00  0.00     0.026 C 
ENDBRANCH  16  19
ENDBRANCH   5  16
TORSDOF 3
