REMARK  4 active torsions:
REMARK  status: ('A' for Active; 'I' for Inactive)
REMARK    1  A    between atoms: C_14  and  N_1 
REMARK    2  A    between atoms: C_9  and  C_7 
REMARK    3  A    between atoms: O_16  and  C_9 
REMARK    4  A    between atoms: C_19  and  O_16 
ROOT
ATOM      1  N   UNL d   1       0.054  -1.664  -0.074  0.00  0.00    -0.343 N 
ATOM      2  C   UNL d   1      -1.087  -0.886  -0.024  0.00  0.00     0.088 A 
ATOM      3  C   UNL d   1      -0.691   0.436  -0.002  0.00  0.00    -0.015 A 
ATOM      4  C   UNL d   1       0.724   0.472   0.018  0.00  0.00     0.000 A 
ATOM      5  C   UNL d   1       1.178  -0.849  -0.035  0.00  0.00     0.045 A 
ATOM      6  C   UNL d   1       1.651   1.525   0.083  0.00  0.00     0.032 A 
ATOM      7  C   UNL d   1       3.022   1.245   0.089  0.00  0.00     0.040 A 
ATOM      8  C   UNL d   1      -2.474  -1.300   0.014  0.00  0.00     0.176 C 
ATOM      9  C   UNL d   1       2.551  -1.147  -0.031  0.00  0.00     0.031 A 
ATOM     10  C   UNL d   1       3.463  -0.080   0.034  0.00  0.00     0.020 A 
ATOM     11  O   UNL d   1      -2.858  -2.460  -0.113  0.00  0.00    -0.291 OA
ATOM     12  C   UNL d   1      -1.644   1.583   0.043  0.00  0.00     0.042 C 
ATOM     13  C   UNL d   1      -3.454  -0.171   0.326  0.00  0.00     0.086 C 
ATOM     14  C   UNL d   1      -3.050   1.132  -0.372  0.00  0.00     0.012 C 
ENDROOT
BRANCH   7  15
ATOM     15  C   UNL d   1       3.938   2.411   0.075  0.00  0.00     0.293 C 
ATOM     16  O   UNL d   1       3.552   3.571   0.064  0.00  0.00    -0.259 OA
BRANCH  15  17
ATOM     17  O   UNL d   1       5.226   2.002  -0.046  0.00  0.00    -0.318 OA
BRANCH  17  18
ATOM     18  C   UNL d   1       6.124   2.998  -0.555  0.00  0.00     0.174 C 
ATOM     19  C   UNL d   1       6.092   2.914  -2.071  0.00  0.00     0.034 C 
ENDBRANCH  17  18
ENDBRANCH  15  17
ENDBRANCH   7  15
BRANCH   1  20
ATOM     20  C   UNL d   1       0.079  -3.121  -0.061  0.00  0.00     0.125 C 
ATOM     21  C   UNL d   1      -0.008  -3.733  -1.450  0.00  0.00     0.027 C 
ENDBRANCH   1  20
TORSDOF 4
