REMARK  3 active torsions:
REMARK  status: ('A' for Active; 'I' for Inactive)
REMARK    1  A    between atoms: C_2  and  N_1 
REMARK    2  A    between atoms: S_4  and  C_3 
REMARK    3  A    between atoms: C_7  and  S_4 
ROOT
ATOM      1  C   UNL d   1       0.386   0.646  -1.038  0.00  0.00     0.136 A 
ATOM      2  C   UNL d   1      -0.540   1.524  -0.484  0.00  0.00     0.109 A 
ATOM      3  N   UNL d   1      -1.235   2.386  -1.280  0.00  0.00    -0.358 N 
ATOM      4  HN  UNL d   1      -1.926   3.022  -0.881  1.00  0.00     0.166 HD
ATOM      5  C   UNL d   1       0.630   0.652  -2.419  0.00  0.00     0.040 A 
ATOM      6  C   UNL d   1      -0.989   2.380  -2.611  0.00  0.00     0.089 A 
ATOM      7  C   UNL d   1      -0.075   1.540  -3.222  0.00  0.00     0.020 A 
ENDROOT
BRANCH   2   8
ATOM      8  S   UNL d   1      -1.012   1.615   1.228  0.00  0.00    -0.052 SA
BRANCH   8   9
ATOM      9  C   UNL d   1       0.431   2.307   2.010  0.00  0.00     0.075 A 
ATOM     10  N   UNL d   1       1.583   2.392   1.306  0.00  0.00    -0.360 N 
ATOM     11  C   UNL d   1       2.664   2.894   1.948  0.00  0.00     0.089 A 
ATOM     12  HN  UNL d   1       1.635   2.090   0.333  1.00  0.00     0.166 HD
ATOM     13  C   UNL d   1       2.653   3.318   3.267  0.00  0.00     0.017 A 
ATOM     14  C   UNL d   1       1.463   3.223   3.974  0.00  0.00     0.004 A 
ATOM     15  C   UNL d   1       0.335   2.708   3.340  0.00  0.00     0.037 A 
ENDBRANCH   8   9
ENDBRANCH   2   8
BRANCH   1  16
ATOM     16  N   UNL d   1       1.086  -0.330  -0.237  0.00  0.00    -0.113 N 
ATOM     17  O   UNL d   1       0.405  -1.109   0.445  0.00  0.00    -0.532 OA
ATOM     18  O   UNL d   1       2.317  -0.394  -0.372  0.00  0.00    -0.532 OA
ENDBRANCH   1  16
TORSDOF 3
