REMARK  7 active torsions:
REMARK  status: ('A' for Active; 'I' for Inactive)
REMARK    1  A    between atoms: C_11  and  C_1 
REMARK    2  A    between atoms: N_6  and  C_2 
REMARK    3  A    between atoms: C_12  and  C_8 
REMARK    4  A    between atoms: C_17  and  C_8 
REMARK    5  A    between atoms: N_9  and  O_13 
REMARK    6  A    between atoms: O_13  and  C_11 
REMARK    7  A    between atoms: N_21  and  C_16 
ROOT
ATOM      1  C   UNL d   1       5.085   1.152  -0.295  0.00  0.00     0.077 C 
ATOM      2  N   UNL d   1       3.951   0.504  -0.341  0.00  0.00    -0.256 N 
ATOM      3  HN  UNL d   1       3.909  -0.514  -0.302  1.00  0.00     0.195 HD
ENDROOT
BRANCH   2   4
ATOM      4  O   UNL d   1       2.786   1.298  -0.449  0.00  0.00    -0.194 OA
BRANCH   4   5
ATOM      5  C   UNL d   1       1.670   0.486  -0.377  0.00  0.00     0.320 C 
ATOM      6  O   UNL d   1       1.704  -0.744  -0.352  0.00  0.00    -0.257 OA
BRANCH   5   7
ATOM      7  C   UNL d   1       0.421   1.230  -0.336  0.00  0.00     0.104 A 
ATOM      8  C   UNL d   1      -0.805   0.848   0.210  0.00  0.00     0.145 A 
ATOM      9  N   UNL d   1      -1.712   1.821  -0.143  0.00  0.00    -0.280 N 
ATOM     10  C   UNL d   1      -3.103   1.988   0.221  0.00  0.00     0.179 C 
ATOM     11  N   UNL d   1      -1.139   2.835  -0.829  0.00  0.00    -0.307 N 
ATOM     12  C   UNL d   1       0.139   2.473  -0.944  0.00  0.00     0.129 A 
ATOM     13  HN  UNL d   1      -1.584   3.684  -1.179  1.00  0.00     0.186 HD
BRANCH   8  14
ATOM     14  N   UNL d   1      -1.087  -0.270   1.000  0.00  0.00    -0.317 N 
ATOM     15  C   UNL d   1      -0.231  -0.847   1.919  0.00  0.00     0.098 A 
ATOM     16  C   UNL d   1      -0.864  -1.897   2.546  0.00  0.00     0.019 A 
ATOM     17  C   UNL d   1      -2.154  -1.992   1.990  0.00  0.00     0.019 A 
ATOM     18  C   UNL d   1      -2.263  -0.994   1.045  0.00  0.00     0.098 A 
ENDBRANCH   8  14
ENDBRANCH   5   7
ENDBRANCH   4   5
ENDBRANCH   2   4
BRANCH   1  19
ATOM     19  C   UNL d   1       6.347   0.299  -0.280  0.00  0.00     0.014 A 
ATOM     20  C   UNL d   1       6.387  -0.946  -0.954  0.00  0.00     0.018 A 
ATOM     21  C   UNL d   1       7.596  -1.658  -0.995  0.00  0.00     0.024 A 
ATOM     22  C   UNL d   1       8.728  -1.201  -0.320  0.00  0.00     0.002 A 
ATOM     23  C   UNL d   1       8.672  -0.011   0.396  0.00  0.00     0.001 A 
ATOM     24  C   UNL d   1       7.486   0.728   0.430  0.00  0.00     0.015 A 
BRANCH  20  25
ATOM     25  N   UNL d   1       5.336  -1.385  -1.788  0.00  0.00    -0.302 NA
ATOM     26  H   UNL d   1       4.439  -1.006  -1.462  0.00  0.00     0.124 HD
ATOM     27  H   UNL d   1       5.285  -2.397  -1.870  0.00  0.00     0.124 HD
ENDBRANCH  20  25
ENDBRANCH   1  19
BRANCH   1  28
ATOM     28  C   UNL d   1       5.230   2.648  -0.265  0.00  0.00    -0.007 A 
ATOM     29  C   UNL d   1       4.336   3.442   0.465  0.00  0.00     0.014 A 
ATOM     30  C   UNL d   1       4.472   4.833   0.480  0.00  0.00     0.001 A 
ATOM     31  C   UNL d   1       5.534   5.438  -0.186  0.00  0.00     0.000 A 
ATOM     32  C   UNL d   1       6.450   4.658  -0.887  0.00  0.00     0.001 A 
ATOM     33  C   UNL d   1       6.285   3.272  -0.949  0.00  0.00     0.014 A 
ENDBRANCH   1  28
TORSDOF 7
