REMARK  2 active torsions:
REMARK  status: ('A' for Active; 'I' for Inactive)
REMARK    1  A    between atoms: C_7  and  N_1 
REMARK    2  A    between atoms: N_11  and  C_4 
ROOT
ATOM      1  N   UNL d   1      -1.624   0.845   0.347  0.00  0.00    -0.201 N 
ATOM      2  C   UNL d   1      -2.089  -0.472   0.417  0.00  0.00     0.292 C 
ATOM      3  C   UNL d   1      -1.029  -1.530   0.279  0.00  0.00     0.131 C 
ATOM      4  C   UNL d   1       0.278  -1.257   0.097  0.00  0.00     0.075 C 
ATOM      5  N   UNL d   1      -0.285   1.164   0.322  0.00  0.00    -0.298 N 
ATOM      6  HN  UNL d   1       0.027   2.133   0.386  1.00  0.00     0.186 HD
ATOM      7  C   UNL d   1       0.561   0.196   0.214  0.00  0.00     0.139 C 
ATOM      8  O   UNL d   1      -3.261  -0.813   0.566  0.00  0.00    -0.264 OA
ATOM      9 CL   UNL d   1      -1.609  -3.170   0.397  0.00  0.00    -0.076 Cl
ENDROOT
BRANCH   1  10
ATOM     10  C   UNL d   1      -2.507   1.960   0.176  0.00  0.00     0.146 A 
ATOM     11  N   UNL d   1      -3.810   1.772  -0.136  0.00  0.00    -0.338 N 
ATOM     12  C   UNL d   1      -4.544   2.849  -0.487  0.00  0.00     0.060 A 
ATOM     13  HN  UNL d   1      -4.226   0.842  -0.107  1.00  0.00     0.167 HD
ATOM     14  C   UNL d   1      -5.854   2.683  -0.924  0.00  0.00     0.032 A 
ATOM     15  C   UNL d   1      -3.993   4.153  -0.480  0.00  0.00     0.059 A 
ATOM     16  C   UNL d   1      -6.606   3.759  -1.402  0.00  0.00     0.002 A 
ATOM     17  C   UNL d   1      -6.055   5.034  -1.405  0.00  0.00     0.002 A 
ATOM     18  C   UNL d   1      -4.760   5.222  -0.924  0.00  0.00     0.032 A 
ATOM     19  N   UNL d   1      -2.725   4.368  -0.098  0.00  0.00    -0.360 N 
ATOM     20  C   UNL d   1      -2.003   3.260   0.206  0.00  0.00     0.139 A 
ATOM     21  HN  UNL d   1      -2.329   5.306  -0.038  1.00  0.00     0.165 HD
ENDBRANCH   1  10
BRANCH   4  22
ATOM     22  N   UNL d   1       1.343  -2.138  -0.164  0.00  0.00    -0.374 N 
ATOM     23  C   UNL d   1       2.755  -1.911   0.228  0.00  0.00     0.149 C 
ATOM     24  C   UNL d   1       3.626  -1.650  -1.012  0.00  0.00     0.187 C 
ATOM     25  O   UNL d   1       3.531  -2.732  -1.951  0.00  0.00    -0.388 OA
ATOM     26  C   UNL d   1       2.171  -2.917  -2.370  0.00  0.00     0.187 C 
ATOM     27  C   UNL d   1       1.246  -3.219  -1.179  0.00  0.00     0.149 C 
ENDBRANCH   4  22
TORSDOF 2
