REMARK  4 active torsions:
REMARK  status: ('A' for Active; 'I' for Inactive)
REMARK    1  A    between atoms: C_5  and  C_2 
REMARK    2  A    between atoms: C_4  and  C_6 
REMARK    3  A    between atoms: C_12  and  C_7 
REMARK    4  A    between atoms: C_14  and  C_13 
ROOT
ATOM      1  N   UNL d   1       5.080  -0.305   2.265  0.00  0.00    -0.191 NA
ATOM      2  C   UNL d   1       3.875   0.053  -0.003  0.00  0.00     0.054 C 
ATOM      3  C   UNL d   1       4.523  -0.148   1.262  0.00  0.00     0.100 C 
ATOM      4  C   UNL d   1       4.565   0.229  -1.151  0.00  0.00     0.023 C 
ENDROOT
BRANCH   2   5
ATOM      5  C   UNL d   1       2.401   0.087  -0.039  0.00  0.00    -0.015 A 
ATOM      6  C   UNL d   1       1.658  -1.075  -0.286  0.00  0.00     0.013 A 
ATOM      7  C   UNL d   1       0.257  -1.037  -0.286  0.00  0.00     0.008 A 
ATOM      8  C   UNL d   1      -0.424   0.161  -0.036  0.00  0.00    -0.059 A 
ATOM      9  C   UNL d   1       0.321   1.326   0.182  0.00  0.00     0.008 A 
ATOM     10  C   UNL d   1       1.720   1.291   0.183  0.00  0.00     0.013 A 
BRANCH   8  11
ATOM     11  C   UNL d   1      -1.933   0.200   0.006  0.00  0.00     0.034 C 
ATOM     12  C   UNL d   1      -2.555   0.504  -1.348  0.00  0.00     0.010 C 
ENDBRANCH   8  11
ENDBRANCH   2   5
BRANCH   4  13
ATOM     13  C   UNL d   1       6.014   0.227  -1.254  0.00  0.00     0.002 C 
ATOM     14  C   UNL d   1       6.710   0.384  -2.392  0.00  0.00     0.011 C 
BRANCH  14  15
ATOM     15  C   UNL d   1       8.185   0.330  -2.432  0.00  0.00    -0.036 A 
ATOM     16  C   UNL d   1       8.924  -0.486  -1.559  0.00  0.00     0.011 A 
ATOM     17  C   UNL d   1      10.318  -0.538  -1.628  0.00  0.00     0.001 A 
ATOM     18  C   UNL d   1      10.995   0.212  -2.583  0.00  0.00     0.000 A 
ATOM     19  C   UNL d   1      10.277   1.013  -3.470  0.00  0.00     0.001 A 
ATOM     20  C   UNL d   1       8.880   1.069  -3.397  0.00  0.00     0.011 A 
ENDBRANCH  14  15
ENDBRANCH   4  13
TORSDOF 4
