REMARK  12 active torsions:
REMARK  status: ('A' for Active; 'I' for Inactive)
REMARK    1  A    between atoms: C_6  and  C_1 
REMARK    2  A    between atoms: C_2  and  C_7 
REMARK    3  A    between atoms: N_17  and  C_5 
REMARK    4  A    between atoms: C_29  and  N_17 
REMARK    5  A    between atoms: O_18  and  C_23 
REMARK    6  A    between atoms: C_20  and  O_18 
REMARK    7  A    between atoms: C_22  and  C_28 
REMARK    8  A    between atoms: C_23  and  C_22 
REMARK    9  A    between atoms: O_25  and  C_22 
REMARK   10  A    between atoms: N_24  and  C_31 
REMARK   11  A    between atoms: C_28  and  N_24 
REMARK   12  A    between atoms: C_31  and  C_29 
ROOT
ATOM      1  N   UNL d   1      -1.055   4.587  -6.973  0.00  0.00     0.087 N 
ATOM      2  H   UNL d   1      -1.932   4.071  -6.997  0.00  0.00     0.316 HD
ENDROOT
BRANCH   1   3
ATOM      3  C   UNL d   1      -0.509   4.516  -5.607  0.00  0.00     0.284 C 
BRANCH   3   4
ATOM      4  C   UNL d   1      -1.436   5.086  -4.512  0.00  0.00     0.125 C 
BRANCH   4   5
ATOM      5  N   UNL d   1      -0.840   4.913  -3.203  0.00  0.00    -0.262 NA
ATOM      6  H   UNL d   1      -0.580   3.969  -2.941  0.00  0.00     0.130 HD
BRANCH   5   7
ATOM      7  C   UNL d   1      -1.586   5.429  -2.158  0.00  0.00     0.157 A 
ATOM      8  N   UNL d   1      -1.431   4.809  -0.986  0.00  0.00    -0.329 N 
ATOM      9  C   UNL d   1      -2.111   5.294   0.084  0.00  0.00     0.120 A 
ATOM     10  HN  UNL d   1      -0.821   3.996  -0.897  1.00  0.00     0.168 HD
ATOM     11  C   UNL d   1      -2.955   6.386  -0.020  0.00  0.00     0.051 A 
ATOM     12  C   UNL d   1      -3.062   6.941  -1.270  0.00  0.00     0.093 A 
ATOM     13  N   UNL d   1      -2.394   6.481  -2.340  0.00  0.00    -0.343 N 
ATOM     14  HN  UNL d   1      -2.498   6.915  -3.257  1.00  0.00     0.167 HD
BRANCH   9  15
ATOM     15  C   UNL d   1      -1.930   4.631   1.437  0.00  0.00     0.432 C 
ATOM     16  F   UNL d   1      -1.120   3.535   1.421  0.00  0.00    -0.165 F 
ATOM     17  F   UNL d   1      -3.115   4.208   1.968  0.00  0.00    -0.165 F 
ATOM     18  F   UNL d   1      -1.397   5.478   2.364  0.00  0.00    -0.165 F 
ENDBRANCH   9  15
ENDBRANCH   5   7
ENDBRANCH   4   5
ENDBRANCH   3   4
ENDBRANCH   1   3
BRANCH   1  19
ATOM     19  C   UNL d   1      -1.243   5.972  -7.422  0.00  0.00     0.303 C 
BRANCH  19  20
ATOM     20  C   UNL d   1      -1.808   6.122  -8.851  0.00  0.00     0.170 C 
BRANCH  20  21
ATOM     21  C   UNL d   1      -3.180   5.443  -8.975  0.00  0.00     0.209 C 
BRANCH  21  22
ATOM     22  O   UNL d   1      -3.708   5.594 -10.294  0.00  0.00    -0.349 OA
BRANCH  22  23
ATOM     23  C   UNL d   1      -4.926   5.007 -10.518  0.00  0.00     0.069 A 
ATOM     24  C   UNL d   1      -5.660   4.272  -9.582  0.00  0.00     0.052 A 
ATOM     25  C   UNL d   1      -6.903   3.711  -9.918  0.00  0.00     0.050 A 
ATOM     26  C   UNL d   1      -7.406   3.902 -11.213  0.00  0.00     0.016 A 
ATOM     27  C   UNL d   1      -6.677   4.634 -12.150  0.00  0.00     0.004 A 
ATOM     28  C   UNL d   1      -5.442   5.182 -11.800  0.00  0.00     0.037 A 
BRANCH  25  29
ATOM     29  C   UNL d   1      -7.685   2.917  -8.902  0.00  0.00     0.417 C 
ATOM     30  F   UNL d   1      -7.053   2.806  -7.699  0.00  0.00    -0.166 F 
ATOM     31  F   UNL d   1      -8.901   3.466  -8.632  0.00  0.00    -0.166 F 
ATOM     32  F   UNL d   1      -7.930   1.641  -9.310  0.00  0.00    -0.166 F 
ENDBRANCH  25  29
ENDBRANCH  22  23
ENDBRANCH  21  22
ENDBRANCH  20  21
BRANCH  20  33
ATOM     33  O   UNL d   1      -1.914   7.526  -9.139  0.00  0.00    -0.392 OA
ATOM     34  H   UNL d   1      -2.633   7.896  -8.599  0.00  0.00     0.210 HD
ENDBRANCH  20  33
ENDBRANCH  19  20
ENDBRANCH   1  19
TORSDOF 12
