REMARK  5 active torsions:
REMARK  status: ('A' for Active; 'I' for Inactive)
REMARK    1  A    between atoms: C_9  and  C_1 
REMARK    2  A    between atoms: C_6  and  O_10 
REMARK       I    between atoms: N_7  and  C_6 
REMARK    3  A    between atoms: C_8  and  C_14 
REMARK    4  A    between atoms: O_18  and  C_8 
REMARK    5  A    between atoms: O_10  and  C_9 
ROOT
ATOM      1  C   UNL d   1       0.065   2.816   1.147  0.00  0.00     0.194 C 
ENDROOT
BRANCH   1   2
ATOM      2  C   UNL d   1      -0.056   1.859  -0.052  0.00  0.00     0.078 A 
ATOM      3  C   UNL d   1       0.385   2.486  -1.369  0.00  0.00    -0.036 A 
ATOM      4  C   UNL d   1      -0.694   2.522  -2.277  0.00  0.00    -0.018 A 
ATOM      5  C   UNL d   1       1.626   3.013  -1.698  0.00  0.00     0.009 A 
ATOM      6  C   UNL d   1      -0.536   3.095  -3.528  0.00  0.00     0.013 A 
ATOM      7  C   UNL d   1      -1.855   1.922  -1.652  0.00  0.00    -0.018 A 
ATOM      8  C   UNL d   1       0.712   3.631  -3.865  0.00  0.00     0.001 A 
ATOM      9  C   UNL d   1       1.782   3.594  -2.957  0.00  0.00     0.001 A 
ATOM     10  C   UNL d   1      -1.508   1.497  -0.350  0.00  0.00    -0.036 A 
ATOM     11  C   UNL d   1      -3.147   1.756  -2.120  0.00  0.00     0.013 A 
ATOM     12  C   UNL d   1      -2.435   0.894   0.487  0.00  0.00     0.009 A 
ATOM     13  C   UNL d   1      -3.736   0.729   0.012  0.00  0.00     0.001 A 
ATOM     14  C   UNL d   1      -4.089   1.157  -1.278  0.00  0.00     0.001 A 
ENDBRANCH   1   2
BRANCH   1  15
ATOM     15  O   UNL d   1      -0.832   3.941   0.988  0.00  0.00    -0.303 OA
BRANCH  15  16
ATOM     16  C   UNL d   1      -0.307   5.023   0.359  0.00  0.00     0.362 C 
ATOM     17  N   UNL d   1      -1.263   5.836  -0.221  0.00  0.00    -0.328 N 
ATOM     18  C   UNL d   1      -0.836   6.924  -1.086  0.00  0.00     0.129 C 
ATOM     19  C   UNL d   1      -2.704   5.620  -0.116  0.00  0.00     0.129 C 
ATOM     20  C   UNL d   1      -1.463   8.232  -0.619  0.00  0.00     0.035 C 
ATOM     21  C   UNL d   1      -2.992   8.125  -0.533  0.00  0.00     0.087 C 
ATOM     22  C   UNL d   1      -3.385   6.915   0.336  0.00  0.00     0.035 C 
ATOM     23  O   UNL d   1       0.900   5.244   0.295  0.00  0.00    -0.238 OA
BRANCH  21  24
ATOM     24  C   UNL d   1      -3.649   8.057  -1.904  0.00  0.00     0.143 C 
ATOM     25  O   UNL d   1      -4.384   7.157  -2.286  0.00  0.00    -0.650 OA
BRANCH  24  26
ATOM     26  O   UNL d   1      -3.387   9.129  -2.686  0.00  0.00    -0.776 OA
ATOM     27  H   UNL d   1      -2.853   9.824  -2.260  0.00  0.00     0.167 HD
ENDBRANCH  24  26
ENDBRANCH  21  24
ENDBRANCH  15  16
ENDBRANCH   1  15
TORSDOF 5
