REMARK  2 active torsions:
REMARK  status: ('A' for Active; 'I' for Inactive)
REMARK    1  A    between atoms: C_7  and  N_1 
REMARK    2  A    between atoms: C_12  and  C_7 
ROOT
ATOM      1  N   UNL d   1       2.223  -0.149   0.246  0.00  0.00    -0.277 N 
ATOM      2  C   UNL d   1       1.489  -1.336   0.242  0.00  0.00     0.261 A 
ATOM      3  C   UNL d   1       1.663   1.125   0.156  0.00  0.00     0.261 A 
ATOM      4  C   UNL d   1       0.015  -1.220   0.166  0.00  0.00     0.044 A 
ATOM      5  C   UNL d   1       0.185   1.213   0.083  0.00  0.00     0.044 A 
ATOM      6  C   UNL d   1      -0.583   0.044   0.096  0.00  0.00     0.005 A 
ATOM      7  O   UNL d   1       1.990  -2.459   0.262  0.00  0.00    -0.267 OA
ATOM      8  O   UNL d   1       2.331   2.157   0.123  0.00  0.00    -0.267 OA
ATOM      9  C   UNL d   1      -1.994   0.139   0.023  0.00  0.00    -0.024 A 
ATOM     10  C   UNL d   1      -0.433   2.467  -0.006  0.00  0.00     0.018 A 
ATOM     11  C   UNL d   1      -0.772  -2.380   0.147  0.00  0.00     0.018 A 
ATOM     12  C   UNL d   1      -2.160  -2.286   0.074  0.00  0.00     0.002 A 
ATOM     13  C   UNL d   1      -1.823   2.562  -0.068  0.00  0.00     0.002 A 
ATOM     14  C   UNL d   1      -2.768  -1.032   0.018  0.00  0.00     0.012 A 
ATOM     15  C   UNL d   1      -2.599   1.403  -0.050  0.00  0.00     0.012 A 
ENDROOT
BRANCH   1  16
ATOM     16  C   UNL d   1       3.686  -0.246   0.291  0.00  0.00     0.167 C 
BRANCH  16  17
ATOM     17  C   UNL d   1       4.281  -0.018   1.693  0.00  0.00     0.140 C 
ATOM     18  O   UNL d   1       3.921  -1.083   2.592  0.00  0.00    -0.384 OA
ATOM     19  C   UNL d   1       5.066  -1.451   3.372  0.00  0.00     0.168 C 
ATOM     20  C   UNL d   1       6.182  -0.487   3.037  0.00  0.00     0.029 C 
ATOM     21  C   UNL d   1       5.805   0.008   1.665  0.00  0.00     0.035 C 
ENDBRANCH  16  17
ENDBRANCH   1  16
TORSDOF 2
