REMARK  13 active torsions:
REMARK  status: ('A' for Active; 'I' for Inactive)
REMARK    1  A    between atoms: C_2  and  C_1 
REMARK    2  A    between atoms: C_8  and  N_3 
REMARK    3  A    between atoms: O_6  and  C_5 
REMARK    4  A    between atoms: C_11  and  C_8 
REMARK    5  A    between atoms: C_19  and  C_11 
REMARK    6  A    between atoms: C_12  and  C_13 
REMARK    7  A    between atoms: C_13  and  C_18 
REMARK    8  A    between atoms: C_14  and  C_20 
REMARK    9  A    between atoms: C_15  and  C_14 
REMARK   10  A    between atoms: C_16  and  C_15 
REMARK   11  A    between atoms: C_17  and  C_16 
REMARK   12  A    between atoms: C_18  and  C_17 
REMARK   13  A    between atoms: C_20  and  C_19 
ROOT
ATOM      1  C   UNL d   1       0.992   2.449   0.066  0.00  0.00     0.014 C 
ATOM      2  N   UNL d   1       0.471   3.636   0.133  0.00  0.00    -0.393 N 
ATOM      3  HN  UNL d   1       1.044   4.477   0.206  1.00  0.00     0.159 HD
ATOM      4  C   UNL d   1       0.155   1.175   0.037  0.00  0.00     0.068 C 
ENDROOT
BRANCH   2   5
ATOM      5  C   UNL d   1      -0.996   3.694   0.098  0.00  0.00     0.119 C 
BRANCH   5   6
ATOM      6  C   UNL d   1      -1.470   5.140   0.103  0.00  0.00     0.020 C 
BRANCH   6   7
ATOM      7  C   UNL d   1      -2.998   5.174   0.071  0.00  0.00     0.002 C 
BRANCH   7   8
ATOM      8  C   UNL d   1      -3.522   6.603   0.091  0.00  0.00     0.000 C 
BRANCH   8   9
ATOM      9  C   UNL d   1      -5.048   6.625   0.068  0.00  0.00     0.000 C 
BRANCH   9  10
ATOM     10  C   UNL d   1      -5.557   8.061   0.090  0.00  0.00     0.000 C 
BRANCH  10  11
ATOM     11  C   UNL d   1      -7.080   8.104   0.073  0.00  0.00     0.000 C 
BRANCH  11  12
ATOM     12  C   UNL d   1      -7.575   9.546   0.093  0.00  0.00     0.000 C 
BRANCH  12  13
ATOM     13  C   UNL d   1      -9.099   9.600   0.077  0.00  0.00     0.000 C 
BRANCH  13  14
ATOM     14  C   UNL d   1      -9.589  11.045   0.098  0.00  0.00    -0.000 C 
BRANCH  14  15
ATOM     15  C   UNL d   1     -11.113  11.109   0.081  0.00  0.00    -0.005 C 
ATOM     16  C   UNL d   1     -11.598  12.549   0.102  0.00  0.00     0.005 C 
ENDBRANCH  14  15
ENDBRANCH  13  14
ENDBRANCH  12  13
ENDBRANCH  11  12
ENDBRANCH  10  11
ENDBRANCH   9  10
ENDBRANCH   8   9
ENDBRANCH   7   8
ENDBRANCH   6   7
ENDBRANCH   5   6
ENDBRANCH   2   5
BRANCH   1  17
ATOM     17  C   UNL d   1       2.484   2.309   0.044  0.00  0.00     0.019 A 
ATOM     18  C   UNL d   1       3.307   3.280   0.636  0.00  0.00     0.077 A 
ATOM     19  C   UNL d   1       4.694   3.118   0.666  0.00  0.00     0.037 A 
ATOM     20  C   UNL d   1       5.275   1.994   0.082  0.00  0.00     0.003 A 
ATOM     21  C   UNL d   1       4.474   1.042  -0.545  0.00  0.00     0.001 A 
ATOM     22  C   UNL d   1       3.085   1.202  -0.570  0.00  0.00     0.016 A 
BRANCH  18  23
ATOM     23  O   UNL d   1       2.811   4.421   1.206  0.00  0.00    -0.360 OA
ATOM     24  H   UNL d   1       1.864   4.477   0.942  0.00  0.00     0.217 HD
ENDBRANCH  18  23
ENDBRANCH   1  17
TORSDOF 13
