REMARK  4 active torsions:
REMARK  status: ('A' for Active; 'I' for Inactive)
REMARK    1  A    between atoms: N_3  and  C_1 
REMARK    2  A    between atoms: C_5  and  C_2 
REMARK       I    between atoms: C_6  and  N_3 
REMARK    3  A    between atoms: C_14  and  C_5 
REMARK    4  A    between atoms: C_8  and  C_6 
ROOT
ATOM      1  C   UNL d   1       0.238  -1.230  -0.079  0.00  0.00     0.091 A 
ATOM      2  C   UNL d   1       1.206  -0.255  -0.281  0.00  0.00     0.055 A 
ATOM      3  S   UNL d   1      -1.334  -0.584  -0.123  0.00  0.00    -0.083 SA
ATOM      4  C   UNL d   1       0.616   1.073  -0.320  0.00  0.00    -0.038 A 
ATOM      5  C   UNL d   1      -0.761   1.008  -0.262  0.00  0.00     0.059 A 
ATOM      6  C   UNL d   1       1.365   2.364  -0.416  0.00  0.00     0.050 C 
ENDROOT
BRANCH   1   7
ATOM      7  N   UNL d   1       0.436  -2.575   0.202  0.00  0.00    -0.315 N 
ATOM      8  C   UNL d   1      -0.535  -3.565   0.254  0.00  0.00     0.280 C 
ATOM      9  O   UNL d   1      -1.686  -3.470  -0.158  0.00  0.00    -0.265 OA
ATOM     10  H   UNL d   1       1.373  -2.870   0.456  0.00  0.00     0.170 HD
BRANCH   8  11
ATOM     11  C   UNL d   1      -0.047  -4.798   0.844  0.00  0.00     0.142 A 
ATOM     12  O   UNL d   1       1.266  -4.899   1.228  0.00  0.00    -0.317 OA
ATOM     13  C   UNL d   1       1.425  -6.133   1.775  0.00  0.00     0.143 A 
ATOM     14  C   UNL d   1       0.242  -6.831   1.750  0.00  0.00     0.027 A 
ATOM     15  C   UNL d   1      -0.707  -5.977   1.141  0.00  0.00     0.045 A 
ENDBRANCH   8  11
ENDBRANCH   1   7
BRANCH   2  16
ATOM     16  C   UNL d   1       2.645  -0.509  -0.351  0.00  0.00     0.195 C 
ATOM     17  O   UNL d   1       3.401  -0.052   0.504  0.00  0.00    -0.287 OA
BRANCH  16  18
ATOM     18  C   UNL d   1       3.228  -1.270  -1.505  0.00  0.00     0.015 A 
ATOM     19  C   UNL d   1       4.625  -1.243  -1.660  0.00  0.00     0.015 A 
ATOM     20  C   UNL d   1       5.244  -1.935  -2.704  0.00  0.00     0.001 A 
ATOM     21  C   UNL d   1       4.476  -2.673  -3.599  0.00  0.00     0.000 A 
ATOM     22  C   UNL d   1       3.089  -2.701  -3.463  0.00  0.00     0.001 A 
ATOM     23  C   UNL d   1       2.464  -1.991  -2.432  0.00  0.00     0.015 A 
ENDBRANCH  16  18
ENDBRANCH   2  16
TORSDOF 4
