REMARK  5 active torsions:
REMARK  status: ('A' for Active; 'I' for Inactive)
REMARK    1  A    between atoms: C_2  and  S_1 
REMARK    2  A    between atoms: C_5  and  S_1 
REMARK    3  A    between atoms: C_3  and  C_2 
REMARK    4  A    between atoms: N_4  and  C_3 
REMARK    5  A    between atoms: C_8  and  C_3 
ROOT
ATOM      1  C   UNL d   1       0.953  -2.701  -0.429  0.00  0.00     0.270 C 
ENDROOT
BRANCH   1   2
ATOM      2  C   UNL d   1       0.504  -1.571   0.529  0.00  0.00     0.186 C 
BRANCH   2   3
ATOM      3  S   UNL d   1       0.957   0.045  -0.073  0.00  0.00     0.177 S 
ATOM      4  O   UNL d   1       0.239   0.299  -1.310  0.00  0.00    -0.223 OA
ATOM      5  O   UNL d   1       2.394   0.220   0.011  0.00  0.00    -0.223 OA
BRANCH   3   6
ATOM      6  C   UNL d   1       0.268   1.186   1.125  0.00  0.00     0.059 A 
ATOM      7  C   UNL d   1       1.127   1.959   1.922  0.00  0.00     0.025 A 
ATOM      8  C   UNL d   1       0.598   2.954   2.747  0.00  0.00     0.025 A 
ATOM      9  C   UNL d   1      -0.779   3.173   2.773  0.00  0.00     0.034 A 
ATOM     10  C   UNL d   1      -1.636   2.398   1.995  0.00  0.00     0.025 A 
ATOM     11 CL   UNL d   1      -1.421   4.437   3.753  0.00  0.00    -0.084 Cl
ATOM     12  C   UNL d   1      -1.115   1.402   1.160  0.00  0.00     0.025 A 
ENDBRANCH   3   6
ENDBRANCH   2   3
ENDBRANCH   1   2
BRANCH   1  13
ATOM     13  N   UNL d   1       2.423  -2.771  -0.625  0.00  0.00     0.098 N 
ATOM     14  C   UNL d   1       2.834  -3.635  -1.742  0.00  0.00     0.273 C 
ATOM     15  C   UNL d   1       4.308  -3.426  -2.090  0.00  0.00     0.030 C 
ATOM     16  C   UNL d   1       5.191  -3.677  -0.876  0.00  0.00     0.003 C 
ATOM     17  C   UNL d   1       4.712  -2.847   0.309  0.00  0.00     0.030 C 
ATOM     18  C   UNL d   1       3.216  -3.041   0.578  0.00  0.00     0.273 C 
ENDBRANCH   1  13
BRANCH   1  19
ATOM     19  C   UNL d   1       0.341  -4.064  -0.062  0.00  0.00    -0.024 A 
ATOM     20  C   UNL d   1       0.026  -4.980  -1.086  0.00  0.00     0.009 A 
ATOM     21  C   UNL d   1      -0.386  -6.281  -0.791  0.00  0.00     0.001 A 
ATOM     22  C   UNL d   1      -0.533  -6.679   0.533  0.00  0.00     0.000 A 
ATOM     23  C   UNL d   1      -0.279  -5.773   1.560  0.00  0.00     0.001 A 
ATOM     24  C   UNL d   1       0.159  -4.478   1.267  0.00  0.00     0.009 A 
ENDBRANCH   1  19
TORSDOF 5
