REMARK  4 active torsions:
REMARK  status: ('A' for Active; 'I' for Inactive)
REMARK    1  A    between atoms: C_12  and  N_2 
REMARK    2  A    between atoms: C_17  and  C_12 
REMARK    3  A    between atoms: S_13  and  C_17 
REMARK    4  A    between atoms: C_14  and  S_13 
ROOT
ATOM      1  C   UNL d   1      -0.388   0.381  -1.250  0.00  0.00     0.100 A 
ATOM      2  N   UNL d   1      -2.155  -0.647  -0.029  0.00  0.00    -0.264 N 
ATOM      3  C   UNL d   1      -1.654  -0.307  -1.296  0.00  0.00     0.271 A 
ATOM      4  C   UNL d   1       0.241   0.720  -0.084  0.00  0.00     0.065 A 
ATOM      5  C   UNL d   1      -1.565  -0.268   1.174  0.00  0.00     0.330 A 
ATOM      6  N   UNL d   1      -0.364   0.395   1.109  0.00  0.00    -0.306 N 
ATOM      7  S   UNL d   1       0.478   0.862  -2.623  0.00  0.00    -0.094 SA
ATOM      8  C   UNL d   1       1.481   1.398  -0.294  0.00  0.00    -0.027 A 
ATOM      9  C   UNL d   1       1.722   1.533  -1.653  0.00  0.00     0.059 A 
ATOM     10  O   UNL d   1      -2.068  -0.488   2.276  0.00  0.00    -0.246 OA
ATOM     11  O   UNL d   1      -2.263  -0.562  -2.333  0.00  0.00    -0.266 OA
ATOM     12  C   UNL d   1       2.411   1.904   0.758  0.00  0.00     0.051 C 
ATOM     13  H   UNL d   1       0.063   0.648   1.989  0.00  0.00     0.170 HD
ENDROOT
BRANCH   2  14
ATOM     14  C   UNL d   1      -3.423  -1.376   0.025  0.00  0.00     0.148 C 
BRANCH  14  15
ATOM     15  C   UNL d   1      -4.631  -0.433  -0.010  0.00  0.00     0.100 C 
BRANCH  15  16
ATOM     16  S   UNL d   1      -6.182  -1.405  -0.032  0.00  0.00    -0.128 SA
BRANCH  16  17
ATOM     17  C   UNL d   1      -7.444  -0.141   0.028  0.00  0.00     0.000 A 
ATOM     18  C   UNL d   1      -7.307   1.122  -0.558  0.00  0.00     0.020 A 
ATOM     19  C   UNL d   1      -8.352   2.052  -0.499  0.00  0.00     0.025 A 
ATOM     20  C   UNL d   1      -9.545   1.719   0.136  0.00  0.00     0.034 A 
ATOM     21  C   UNL d   1      -9.705   0.462   0.709  0.00  0.00     0.025 A 
ATOM     22 CL   UNL d   1     -10.828   2.862   0.202  0.00  0.00    -0.084 Cl
ATOM     23  C   UNL d   1      -8.658  -0.465   0.651  0.00  0.00     0.020 A 
ENDBRANCH  16  17
ENDBRANCH  15  16
ENDBRANCH  14  15
ENDBRANCH   2  14
TORSDOF 4
