REMARK  4 active torsions:
REMARK  status: ('A' for Active; 'I' for Inactive)
REMARK    1  A    between atoms: C_5  and  C_1 
REMARK    2  A    between atoms: N_3  and  C_2 
REMARK       I    between atoms: C_4  and  N_3 
REMARK    3  A    between atoms: C_9  and  C_4 
REMARK    4  A    between atoms: O_14  and  C_5 
ROOT
ATOM      1  N   UNL d   1       2.760   1.571  -0.185  0.00  0.00    -0.321 N 
ATOM      2  C   UNL d   1       2.971   2.933  -0.084  0.00  0.00     0.256 C 
ATOM      3  O   UNL d   1       2.112   3.806  -0.049  0.00  0.00    -0.267 OA
ATOM      4  H   UNL d   1       3.554   0.958  -0.058  0.00  0.00     0.169 HD
ENDROOT
BRANCH   1   5
ATOM      5  C   UNL d   1       1.520   0.928  -0.264  0.00  0.00     0.058 C 
ATOM      6  C   UNL d   1       0.291   1.417  -0.690  0.00  0.00     0.106 C 
ATOM      7  S   UNL d   1      -0.971   0.274  -0.421  0.00  0.00    -0.094 SA
ATOM      8  C   UNL d   1       0.127  -0.929   0.074  0.00  0.00     0.053 C 
ATOM      9  C   UNL d   1       1.418  -0.457   0.103  0.00  0.00     0.038 C 
BRANCH   6  10
ATOM     10  C   UNL d   1      -0.079   2.644  -1.369  0.00  0.00     0.302 C 
ATOM     11  O   UNL d   1      -1.128   3.261  -1.240  0.00  0.00    -0.259 OA
BRANCH  10  12
ATOM     12  O   UNL d   1       0.885   2.938  -2.292  0.00  0.00    -0.322 OA
ATOM     13  C   UNL d   1       0.772   4.200  -2.946  0.00  0.00     0.213 C 
ENDBRANCH  10  12
ENDBRANCH   6  10
ENDBRANCH   1   5
BRANCH   2  14
ATOM     14  C   UNL d   1       4.395   3.358   0.045  0.00  0.00     0.032 A 
ATOM     15  C   UNL d   1       4.792   4.547  -0.587  0.00  0.00     0.020 A 
ATOM     16  C   UNL d   1       6.089   5.035  -0.416  0.00  0.00     0.043 A 
ATOM     17  C   UNL d   1       6.981   4.339   0.391  0.00  0.00     0.116 A 
ATOM     18  C   UNL d   1       6.606   3.154   1.017  0.00  0.00     0.043 A 
ATOM     19  F   UNL d   1       8.214   4.825   0.585  0.00  0.00    -0.206 F 
ATOM     20  C   UNL d   1       5.310   2.658   0.846  0.00  0.00     0.020 A 
ENDBRANCH   2  14
TORSDOF 4
