REMARK  1 active torsions:
REMARK  status: ('A' for Active; 'I' for Inactive)
REMARK    1  A    between atoms: C_8  and  C_3 
ROOT
ATOM      1  C   UNL d   1       1.174   1.184  -0.096  0.00  0.00     0.176 A 
ATOM      2  C   UNL d   1       1.149  -1.200  -0.111  0.00  0.00     0.176 A 
ATOM      3  C   UNL d   1       2.107  -0.020  -0.148  0.00  0.00     0.168 A 
ATOM      4  C   UNL d   1      -0.206   0.701  -0.065  0.00  0.00     0.025 A 
ATOM      5  C   UNL d   1      -0.221  -0.686  -0.070  0.00  0.00     0.025 A 
ATOM      6  O   UNL d   1       1.469   2.364  -0.086  0.00  0.00    -0.291 OA
ATOM      7  O   UNL d   1       1.417  -2.387  -0.124  0.00  0.00    -0.291 OA
ATOM      8  C   UNL d   1      -1.375   1.440  -0.025  0.00  0.00     0.016 A 
ATOM      9  C   UNL d   1      -1.404  -1.400  -0.032  0.00  0.00     0.016 A 
ATOM     10  C   UNL d   1      -2.583   0.737   0.007  0.00  0.00     0.001 A 
ATOM     11  C   UNL d   1      -2.597  -0.671   0.005  0.00  0.00     0.001 A 
ENDROOT
BRANCH   3  12
ATOM     12  C   UNL d   1       3.122  -0.035   0.972  0.00  0.00    -0.039 A 
ATOM     13  C   UNL d   1       4.494  -0.088   0.681  0.00  0.00     0.008 A 
ATOM     14  C   UNL d   1       5.438  -0.053   1.709  0.00  0.00     0.001 A 
ATOM     15  C   UNL d   1       5.025   0.035   3.036  0.00  0.00     0.000 A 
ATOM     16  C   UNL d   1       3.666   0.065   3.340  0.00  0.00     0.001 A 
ATOM     17  C   UNL d   1       2.720   0.023   2.316  0.00  0.00     0.008 A 
ENDBRANCH   3  12
TORSDOF 1
