REMARK  2 active torsions:
REMARK  status: ('A' for Active; 'I' for Inactive)
REMARK    1  A    between atoms: N_4  and  C_1 
REMARK    2  A    between atoms: C_6  and  N_4 
ROOT
ATOM      1  C   UNL d   1       2.776  -1.742  -3.837  0.00  0.00     0.058 A 
ATOM      2  C   UNL d   1       2.184  -1.442  -2.604  0.00  0.00     0.055 A 
ATOM      3  C   UNL d   1       1.119  -0.541  -2.528  0.00  0.00     0.035 A 
ATOM      4  C   UNL d   1       2.294  -1.148  -5.007  0.00  0.00     0.055 A 
ATOM      5  C   UNL d   1       1.200  -0.285  -4.941  0.00  0.00     0.028 A 
ATOM      6 CL   UNL d   1       4.099  -2.855  -3.842  0.00  0.00    -0.082 Cl
ATOM      7  C   UNL d   1       0.606   0.004  -3.709  0.00  0.00     0.031 A 
ATOM      8 CL   UNL d   1       3.001  -1.438  -6.556  0.00  0.00    -0.083 Cl
ENDROOT
BRANCH   3   9
ATOM      9  N   UNL d   1       0.497  -0.168  -1.322  0.00  0.00    -0.334 N 
ATOM     10  H   UNL d   1      -0.438   0.222  -1.398  0.00  0.00     0.168 HD
BRANCH   9  11
ATOM     11  C   UNL d   1       0.938  -0.226  -0.041  0.00  0.00     0.169 C 
ATOM     12  S   UNL d   1      -0.106   0.029   1.226  0.00  0.00    -0.041 SA
ATOM     13  N   UNL d   1       2.249  -0.431   0.196  0.00  0.00    -0.376 N 
ATOM     14  H   UNL d   1       2.915  -0.094  -0.486  0.00  0.00     0.158 HD
ATOM     15  H   UNL d   1       2.547  -0.334   1.161  0.00  0.00     0.158 HD
ENDBRANCH   9  11
ENDBRANCH   3   9
TORSDOF 2
