REMARK  2 active torsions:
REMARK  status: ('A' for Active; 'I' for Inactive)
REMARK    1  A    between atoms: C_10  and  C_1 
REMARK    2  A    between atoms: C_3  and  C_2 
ROOT
ATOM      1  C   UNL d   1      -0.190  -1.036  -0.478  0.00  0.00     0.136 A 
ATOM      2  C   UNL d   1       1.234   0.620  -0.017  0.00  0.00     0.068 A 
ATOM      3  C   UNL d   1       1.007  -0.481  -0.881  0.00  0.00     0.068 A 
ATOM      4  N   UNL d   1       0.229   0.743   0.857  0.00  0.00    -0.297 N 
ATOM      5  HN  UNL d   1       0.134   1.434   1.601  1.00  0.00     0.187 HD
ATOM      6  N   UNL d   1      -0.629  -0.244   0.542  0.00  0.00    -0.292 N 
ATOM      7  C   UNL d   1      -1.883  -0.340   1.255  0.00  0.00     0.178 C 
ENDROOT
BRANCH   2   8
ATOM      8  C   UNL d   1       2.426   1.547  -0.068  0.00  0.00     0.040 A 
ATOM      9  S   UNL d   1       3.551   1.447  -1.355  0.00  0.00    -0.087 SA
ATOM     10  C   UNL d   1       4.495   2.742  -0.768  0.00  0.00     0.016 A 
ATOM     11  C   UNL d   1       5.656   3.274  -1.366  0.00  0.00     0.021 A 
ATOM     12  C   UNL d   1       3.982   3.242   0.428  0.00  0.00    -0.010 A 
ATOM     13  C   UNL d   1       6.320   4.327  -0.736  0.00  0.00     0.025 A 
ATOM     14  C   UNL d   1       5.838   4.836   0.460  0.00  0.00     0.035 A 
ATOM     15  C   UNL d   1       4.683   4.311   1.047  0.00  0.00     0.037 A 
ATOM     16 CL   UNL d   1       6.673   6.127   1.234  0.00  0.00    -0.084 Cl
ATOM     17  C   UNL d   1       2.769   2.542   0.840  0.00  0.00    -0.031 A 
ATOM     18  C   UNL d   1       2.060   2.913   2.110  0.00  0.00     0.050 C 
ENDBRANCH   2   8
BRANCH   1  19
ATOM     19  C   UNL d   1      -0.938  -2.208  -0.955  0.00  0.00     0.434 C 
ATOM     20  F   UNL d   1      -0.343  -2.800  -2.018  0.00  0.00    -0.165 F 
ATOM     21  F   UNL d   1      -1.057  -3.151   0.011  0.00  0.00    -0.165 F 
ATOM     22  F   UNL d   1      -2.197  -1.879  -1.338  0.00  0.00    -0.165 F 
ENDBRANCH   1  19
TORSDOF 2
