REMARK  1 active torsions:
REMARK  status: ('A' for Active; 'I' for Inactive)
REMARK    1  A    between atoms: C_2  and  N_1 
ROOT
ATOM      1  C   UNL d   1       0.005   2.304  -0.029  0.00  0.00     0.046 A 
ATOM      2  C   UNL d   1       0.665   3.005  -1.050  0.00  0.00     0.037 A 
ATOM      3  C   UNL d   1      -0.652   3.057   0.959  0.00  0.00     0.037 A 
ATOM      4  C   UNL d   1      -0.633   4.460   0.949  0.00  0.00    -0.059 A 
ATOM      5  C   UNL d   1       0.658   4.409  -1.103  0.00  0.00    -0.059 A 
ATOM      6  C   UNL d   1       0.015   5.127  -0.093  0.00  0.00     0.013 A 
ATOM      7  C   UNL d   1      -1.296   5.244   2.043  0.00  0.00     0.048 C 
ATOM      8  C   UNL d   1       1.330   5.138  -2.230  0.00  0.00     0.048 C 
ENDROOT
BRANCH   1   9
ATOM      9  N   UNL d   1       0.003   0.880   0.008  0.00  0.00    -0.245 N 
ATOM     10  C   UNL d   1       0.893   0.068  -0.642  0.00  0.00     0.255 A 
ATOM     11  C   UNL d   1       0.536  -1.320  -0.329  0.00  0.00     0.080 A 
ATOM     12  O   UNL d   1       1.864   0.323  -1.335  0.00  0.00    -0.268 OA
ATOM     13  C   UNL d   1      -0.525  -1.298   0.472  0.00  0.00     0.080 A 
ATOM     14  C   UNL d   1      -0.887   0.105   0.701  0.00  0.00     0.255 A 
ATOM     15  O   UNL d   1      -1.861   0.398   1.375  0.00  0.00    -0.268 OA
ENDBRANCH   1   9
TORSDOF 1
