REMARK  9 active torsions:
REMARK  status: ('A' for Active; 'I' for Inactive)
REMARK    1  A    between atoms: N_2  and  C_1 
REMARK    2  A    between atoms: C_3  and  C_1 
REMARK    3  A    between atoms: N_4  and  C_1 
REMARK    4  A    between atoms: C_8  and  C_1 
REMARK       I    between atoms: C_7  and  N_2 
REMARK    5  A    between atoms: C_9  and  N_4 
REMARK    6  A    between atoms: C_5  and  C_6 
REMARK    7  A    between atoms: C_11  and  C_7 
REMARK    8  A    between atoms: O_19  and  C_8 
REMARK    9  A    between atoms: C_24  and  O_19 
ROOT
ATOM      1  C   UNL d   1       1.209  -0.154  -0.206  0.00  0.00     0.297 C 
ENDROOT
BRANCH   1   2
ATOM      2  N   UNL d   1       0.764   0.431  -1.478  0.00  0.00    -0.315 N 
ATOM      3  C   UNL d   1       1.040   1.735  -1.808  0.00  0.00     0.254 C 
ATOM      4  O   UNL d   1       1.760   2.474  -1.151  0.00  0.00    -0.268 OA
ATOM      5  H   UNL d   1       0.069  -0.078  -2.007  0.00  0.00     0.166 HD
BRANCH   3   6
ATOM      6  C   UNL d   1       0.414   2.209  -3.056  0.00  0.00     0.032 A 
ATOM      7  C   UNL d   1      -0.978   2.277  -3.160  0.00  0.00     0.017 A 
ATOM      8  C   UNL d   1      -1.554   2.735  -4.345  0.00  0.00     0.001 A 
ATOM      9  C   UNL d   1      -0.742   3.113  -5.418  0.00  0.00     0.000 A 
ATOM     10  C   UNL d   1       0.648   3.045  -5.306  0.00  0.00     0.001 A 
ATOM     11  C   UNL d   1       1.232   2.600  -4.120  0.00  0.00     0.017 A 
ENDBRANCH   3   6
ENDBRANCH   1   2
BRANCH   1  12
ATOM     12  C   UNL d   1       1.122  -1.723  -0.165  0.00  0.00     0.442 C 
ATOM     13  F   UNL d   1       0.200  -2.169  -1.070  0.00  0.00    -0.166 F 
ATOM     14  F   UNL d   1       2.270  -2.366  -0.483  0.00  0.00    -0.166 F 
ATOM     15  F   UNL d   1       0.738  -2.199   1.045  0.00  0.00    -0.166 F 
ENDBRANCH   1  12
BRANCH   1  16
ATOM     16  N   UNL d   1       0.439   0.571   0.851  0.00  0.00    -0.347 N 
ATOM     17  H   UNL d   1       0.895   1.471   1.035  0.00  0.00     0.163 HD
BRANCH  16  18
ATOM     18  C   UNL d   1      -0.928   0.554   1.097  0.00  0.00     0.045 A 
ATOM     19  C   UNL d   1      -1.508   1.458   2.018  0.00  0.00     0.074 A 
ATOM     20  C   UNL d   1      -2.880   1.355   2.359  0.00  0.00     0.018 A 
ATOM     21  C   UNL d   1      -3.687   0.364   1.818  0.00  0.00     0.001 A 
ATOM     22  C   UNL d   1      -3.133  -0.531   0.922  0.00  0.00     0.002 A 
ATOM     23  C   UNL d   1      -1.780  -0.432   0.573  0.00  0.00     0.030 A 
BRANCH  19  24
ATOM     24  C   UNL d   1      -0.748   2.582   2.686  0.00  0.00     0.419 C 
ATOM     25  F   UNL d   1       0.566   2.678   2.335  0.00  0.00    -0.166 F 
ATOM     26  F   UNL d   1      -1.290   3.803   2.401  0.00  0.00    -0.166 F 
ATOM     27  F   UNL d   1      -0.764   2.487   4.046  0.00  0.00    -0.166 F 
ENDBRANCH  19  24
ENDBRANCH  16  18
ENDBRANCH   1  16
BRANCH   1  28
ATOM     28  C   UNL d   1       2.747   0.032  -0.042  0.00  0.00     0.318 C 
ATOM     29  O   UNL d   1       3.559  -0.061  -0.962  0.00  0.00    -0.260 OA
BRANCH  28  30
ATOM     30  O   UNL d   1       3.100   0.209   1.268  0.00  0.00    -0.318 OA
BRANCH  30  31
ATOM     31  C   UNL d   1       4.510   0.169   1.542  0.00  0.00     0.174 C 
ATOM     32  C   UNL d   1       5.160   1.520   1.311  0.00  0.00     0.034 C 
ENDBRANCH  30  31
ENDBRANCH  28  30
ENDBRANCH   1  28
TORSDOF 9
