REMARK  1 active torsions:
REMARK  status: ('A' for Active; 'I' for Inactive)
REMARK    1  A    between atoms: C_4  and  N_1 
ROOT
ATOM      1  N   UNL d   1       0.010  -0.932  -0.065  0.00  0.00    -0.252 N 
ATOM      2  C   UNL d   1      -1.241  -0.290  -0.085  0.00  0.00     0.231 C 
ATOM      3  C   UNL d   1       1.243  -0.289   0.118  0.00  0.00     0.231 C 
ATOM      4  O   UNL d   1      -2.323  -0.847  -0.264  0.00  0.00    -0.273 OA
ATOM      5  O   UNL d   1       2.330  -0.867   0.217  0.00  0.00    -0.273 OA
ATOM      6  C   UNL d   1       1.227   1.223   0.213  0.00  0.00     0.104 C 
ATOM      7  C   UNL d   1      -1.220   1.181   0.259  0.00  0.00     0.104 C 
ATOM      8  C   UNL d   1      -0.021   1.840  -0.374  0.00  0.00     0.019 C 
ENDROOT
BRANCH   1   9
ATOM      9  C   UNL d   1       0.021  -2.354  -0.241  0.00  0.00     0.045 A 
ATOM     10  C   UNL d   1      -0.606  -2.939  -1.351  0.00  0.00     0.032 A 
ATOM     11  C   UNL d   1      -0.582  -4.325  -1.532  0.00  0.00     0.026 A 
ATOM     12  C   UNL d   1       0.040  -5.135  -0.585  0.00  0.00     0.034 A 
ATOM     13  C   UNL d   1       0.652  -4.572   0.532  0.00  0.00     0.026 A 
ATOM     14 CL   UNL d   1       0.052  -6.842  -0.796  0.00  0.00    -0.084 Cl
ATOM     15  C   UNL d   1       0.657  -3.183   0.695  0.00  0.00     0.032 A 
ENDBRANCH   1   9
TORSDOF 1
