REMARK  2 active torsions:
REMARK  status: ('A' for Active; 'I' for Inactive)
REMARK    1  A    between atoms: C_11  and  C_1 
REMARK    2  A    between atoms: O_13  and  C_2 
ROOT
ATOM      1  C   UNL d   1       2.420   0.764  -0.013  0.00  0.00     0.076 A 
ATOM      2  C   UNL d   1       1.255   1.445  -0.050  0.00  0.00     0.094 A 
ATOM      3  C   UNL d   1       2.401  -0.736  -0.019  0.00  0.00     0.259 A 
ATOM      4  C   UNL d   1      -0.038   0.737  -0.034  0.00  0.00     0.027 A 
ATOM      5  N   UNL d   1       1.177  -1.349  -0.040  0.00  0.00    -0.322 N 
ATOM      6  C   UNL d   1      -0.039  -0.663  -0.028  0.00  0.00     0.049 A 
ATOM      7  C   UNL d   1      -1.266   1.410   0.006  0.00  0.00     0.042 A 
ATOM      8  C   UNL d   1      -1.233  -1.385   0.011  0.00  0.00     0.056 A 
ATOM      9  C   UNL d   1      -2.469   0.696   0.062  0.00  0.00     0.056 A 
ATOM     10  C   UNL d   1      -2.451  -0.704   0.065  0.00  0.00     0.058 A 
ATOM     11  O   UNL d   1       3.430  -1.406  -0.005  0.00  0.00    -0.267 OA
ATOM     12 CL   UNL d   1      -3.939   1.601   0.143  0.00  0.00    -0.083 Cl
ATOM     13 CL   UNL d   1      -3.895  -1.649   0.148  0.00  0.00    -0.082 Cl
ATOM     14  H   UNL d   1       1.202  -2.361  -0.036  0.00  0.00     0.169 HD
ENDROOT
BRANCH   1  15
ATOM     15  C   UNL d   1       3.714   1.463   0.066  0.00  0.00    -0.018 A 
ATOM     16  C   UNL d   1       4.263   1.774   1.318  0.00  0.00     0.012 A 
ATOM     17  C   UNL d   1       5.475   2.460   1.406  0.00  0.00     0.001 A 
ATOM     18  C   UNL d   1       6.143   2.844   0.245  0.00  0.00     0.000 A 
ATOM     19  C   UNL d   1       5.603   2.540  -1.004  0.00  0.00     0.001 A 
ATOM     20  C   UNL d   1       4.391   1.852  -1.096  0.00  0.00     0.012 A 
ENDBRANCH   1  15
BRANCH   2  21
ATOM     21  O   UNL d   1       1.160   2.825  -0.078  0.00  0.00    -0.359 OA
ATOM     22  H   UNL d   1       2.056   3.206  -0.123  0.00  0.00     0.217 HD
ENDBRANCH   2  21
TORSDOF 2
