REMARK  6 active torsions:
REMARK  status: ('A' for Active; 'I' for Inactive)
REMARK    1  A    between atoms: C_5  and  C_1 
REMARK    2  A    between atoms: C_2  and  C_4 
REMARK    3  A    between atoms: C_3  and  C_10 
REMARK       I    between atoms: C_6  and  N_9 
REMARK       I    between atoms: N_15  and  C_6 
REMARK    4  A    between atoms: N_9  and  C_8 
REMARK    5  A    between atoms: N_11  and  N_15 
REMARK    6  A    between atoms: C_29  and  C_28 
ROOT
ATOM      1  C   UNL d   1       2.255  -4.436   1.459  0.00  0.00     0.339 C 
ATOM      2  N   UNL d   1       1.165  -4.643   0.608  0.00  0.00    -0.308 N 
ATOM      3  N   UNL d   1       2.443  -3.091   1.770  0.00  0.00    -0.252 N 
ATOM      4  O   UNL d   1       2.963  -5.318   1.917  0.00  0.00    -0.245 OA
ATOM      5  H   UNL d   1       0.665  -3.826   0.301  0.00  0.00     0.170 HD
ATOM      6  H   UNL d   1       2.295  -2.446   1.004  0.00  0.00     0.191 HD
ENDROOT
BRANCH   2   7
ATOM      7  C   UNL d   1       0.795  -5.896   0.055  0.00  0.00     0.037 C 
ATOM      8  C   UNL d   1       1.428  -7.082   0.428  0.00  0.00     0.045 C 
ATOM      9  C   UNL d   1       1.263  -8.266  -0.292  0.00  0.00     0.050 C 
ATOM     10  C   UNL d   1       0.308  -8.309  -1.310  0.00  0.00     0.032 C 
ATOM     11  C   UNL d   1      -0.435  -7.162  -1.638  0.00  0.00     0.050 C 
ATOM     12  C   UNL d   1      -0.171  -5.950  -0.959  0.00  0.00     0.045 C 
BRANCH   9  13
ATOM     13  C   UNL d   1       2.184  -9.423   0.007  0.00  0.00     0.417 C 
ATOM     14  F   UNL d   1       2.252 -10.327  -1.005  0.00  0.00    -0.166 F 
ATOM     15  F   UNL d   1       1.829 -10.113   1.120  0.00  0.00    -0.166 F 
ATOM     16  F   UNL d   1       3.472  -9.012   0.214  0.00  0.00    -0.166 F 
ENDBRANCH   9  13
BRANCH  11  17
ATOM     17  C   UNL d   1      -1.456  -7.221  -2.753  0.00  0.00     0.417 C 
ATOM     18  F   UNL d   1      -1.570  -8.453  -3.318  0.00  0.00    -0.166 F 
ATOM     19  F   UNL d   1      -2.706  -6.885  -2.335  0.00  0.00    -0.166 F 
ATOM     20  F   UNL d   1      -1.158  -6.369  -3.773  0.00  0.00    -0.166 F 
ENDBRANCH  11  17
ENDBRANCH   2   7
BRANCH   3  21
ATOM     21  N   UNL d   1       3.457  -2.670   2.618  0.00  0.00    -0.307 N 
ATOM     22  C   UNL d   1       3.639  -3.374   3.696  0.00  0.00     0.118 C 
ATOM     23  HN  UNL d   1       4.028  -1.852   2.407  1.00  0.00     0.186 HD
BRANCH  22  24
ATOM     24  C   UNL d   1       4.655  -3.040   4.714  0.00  0.00    -0.019 A 
ATOM     25  C   UNL d   1       5.623  -2.061   4.487  0.00  0.00     0.013 A 
ATOM     26  C   UNL d   1       6.422  -1.621   5.547  0.00  0.00     0.017 A 
ATOM     27  C   UNL d   1       6.255  -2.154   6.836  0.00  0.00     0.048 A 
ATOM     28  C   UNL d   1       5.349  -3.210   7.024  0.00  0.00     0.017 A 
ATOM     29  C   UNL d   1       4.556  -3.657   5.965  0.00  0.00     0.013 A 
BRANCH  27  30
ATOM     30  C   UNL d   1       6.973  -1.564   8.027  0.00  0.00     0.417 C 
ATOM     31  F   UNL d   1       7.777  -0.511   7.714  0.00  0.00    -0.166 F 
ATOM     32  F   UNL d   1       6.099  -1.093   8.964  0.00  0.00    -0.166 F 
ATOM     33  F   UNL d   1       7.761  -2.464   8.673  0.00  0.00    -0.166 F 
ENDBRANCH  27  30
ENDBRANCH  22  24
ENDBRANCH   3  21
TORSDOF 6
