REMARK  2 active torsions:
REMARK  status: ('A' for Active; 'I' for Inactive)
REMARK    1  A    between atoms: C_2  and  C_1 
REMARK       I    between atoms: N_3  and  C_1 
REMARK    2  A    between atoms: N_4  and  N_3 
ROOT
ATOM      1  C   UNL d   1       0.980  -0.138  -0.056  0.00  0.00     0.271 C 
ATOM      2  N   UNL d   1       0.228  -0.662   0.986  0.00  0.00    -0.266 N 
ATOM      3  O   UNL d   1       2.196  -0.227  -0.180  0.00  0.00    -0.266 OA
ATOM      4  H   UNL d   1      -0.742  -0.401   1.089  0.00  0.00     0.190 HD
ENDROOT
BRANCH   1   5
ATOM      5  C   UNL d   1       0.206   0.603  -1.080  0.00  0.00     0.049 A 
ATOM      6  C   UNL d   1       0.817   1.647  -1.761  0.00  0.00     0.104 A 
ATOM      7  N   UNL d   1       0.200   2.387  -2.717  0.00  0.00    -0.374 N 
ATOM      8  C   UNL d   1      -1.071   2.050  -3.023  0.00  0.00     0.087 A 
ATOM      9  HN  UNL d   1       0.674   3.161  -3.183  1.00  0.00     0.164 HD
ATOM     10  C   UNL d   1      -1.758   1.010  -2.415  0.00  0.00     0.018 A 
ATOM     11  C   UNL d   1      -1.107   0.273  -1.427  0.00  0.00     0.020 A 
ENDBRANCH   1   5
BRANCH   2  12
ATOM     12  N   UNL d   1       0.834  -1.415   1.942  0.00  0.00    -0.307 N 
ATOM     13  C   UNL d   1       0.142  -1.935   2.909  0.00  0.00    -0.004 C 
ATOM     14  C   UNL d   1      -1.348  -1.822   3.128  0.00  0.00     0.064 C 
ATOM     15  C   UNL d   1       0.896  -2.761   3.929  0.00  0.00     0.064 C 
ATOM     16  HN  UNL d   1       1.841  -1.573   1.898  1.00  0.00     0.186 HD
ENDBRANCH   2  12
TORSDOF 2
