REMARK  4 active torsions:
REMARK  status: ('A' for Active; 'I' for Inactive)
REMARK       I    between atoms: N_4  and  C_1 
REMARK    1  A    between atoms: C_5  and  C_1 
REMARK    2  A    between atoms: N_2  and  C_3 
REMARK       I    between atoms: C_6  and  N_4 
REMARK       I    between atoms: N_9  and  C_6 
REMARK    3  A    between atoms: C_7  and  N_8 
REMARK    4  A    between atoms: N_8  and  N_9 
ROOT
ATOM      1  C   UNL d   1       0.953  -4.244  -2.645  0.00  0.00     0.263 C 
ATOM      2  N   UNL d   1       0.362  -3.066  -2.222  0.00  0.00    -0.274 N 
ATOM      3  C   UNL d   1       0.946  -1.971  -1.613  0.00  0.00     0.337 C 
ATOM      4  N   UNL d   1       2.325  -1.998  -1.550  0.00  0.00    -0.266 N 
ATOM      5  O   UNL d   1       2.102  -4.527  -2.311  0.00  0.00    -0.267 OA
ATOM      6  O   UNL d   1       0.210  -1.049  -1.263  0.00  0.00    -0.246 OA
ATOM      7  H   UNL d   1      -0.637  -2.945  -2.321  0.00  0.00     0.173 HD
ATOM      8  H   UNL d   1       2.752  -2.928  -1.583  0.00  0.00     0.186 HD
ENDROOT
BRANCH   4   9
ATOM      9  N   UNL d   1       3.113  -1.020  -0.851  0.00  0.00    -0.195 NA
ATOM     10  C   UNL d   1       2.522   0.333  -0.764  0.00  0.00     0.143 C 
BRANCH   9  11
ATOM     11  C   UNL d   1       4.435  -0.915  -1.397  0.00  0.00     0.063 A 
ATOM     12  C   UNL d   1       5.533  -0.473  -0.631  0.00  0.00     0.125 A 
ATOM     13  C   UNL d   1       6.790  -0.200  -1.195  0.00  0.00     0.038 A 
ATOM     14  C   UNL d   1       6.983  -0.409  -2.557  0.00  0.00     0.003 A 
ATOM     15  C   UNL d   1       5.939  -0.910  -3.332  0.00  0.00     0.002 A 
ATOM     16  C   UNL d   1       4.685  -1.159  -2.761  0.00  0.00     0.028 A 
BRANCH  12  17
ATOM     17  N   UNL d   1       5.408  -0.292   0.803  0.00  0.00    -0.114 N 
ATOM     18  O   UNL d   1       5.185  -1.297   1.492  0.00  0.00    -0.532 OA
ATOM     19  O   UNL d   1       5.603   0.851   1.240  0.00  0.00    -0.532 OA
ENDBRANCH  12  17
ENDBRANCH   9  11
ENDBRANCH   4   9
BRANCH   1  20
ATOM     20  C   UNL d   1       0.144  -5.173  -3.510  0.00  0.00     0.075 A 
ATOM     21  C   UNL d   1       0.805  -6.025  -4.425  0.00  0.00     0.051 A 
ATOM     22 CL   UNL d   1       2.521  -6.056  -4.673  0.00  0.00    -0.083 Cl
ATOM     23  C   UNL d   1       0.082  -6.899  -5.255  0.00  0.00     0.025 A 
ATOM     24  C   UNL d   1      -1.305  -6.937  -5.207  0.00  0.00     0.003 A 
ATOM     25  C   UNL d   1      -1.975  -6.109  -4.316  0.00  0.00     0.025 A 
ATOM     26  C   UNL d   1      -1.265  -5.243  -3.467  0.00  0.00     0.051 A 
ATOM     27 CL   UNL d   1      -2.253  -4.328  -2.377  0.00  0.00    -0.083 Cl
ENDBRANCH   1  20
TORSDOF 4
