REMARK  4 active torsions:
REMARK  status: ('A' for Active; 'I' for Inactive)
REMARK    1  A    between atoms: C_6  and  S_1 
REMARK    2  A    between atoms: C_10  and  S_1 
REMARK    3  A    between atoms: C_4  and  C_6 
REMARK    4  A    between atoms: C_13  and  C_5 
ROOT
ATOM      1  N   UNL d   1       0.058   3.079  -1.411  0.00  0.00    -0.322 N 
ATOM      2  HN  UNL d   1      -0.763   3.105  -0.806  1.00  0.00     0.169 HD
ATOM      3  C   UNL d   1       0.743   1.986  -1.882  0.00  0.00     0.118 A 
ATOM      4  C   UNL d   1       0.727   4.085  -1.934  0.00  0.00     0.182 A 
ATOM      5  N   UNL d   1       1.756   2.280  -2.708  0.00  0.00    -0.246 N 
ATOM      6  HN  UNL d   1       2.376   1.638  -3.202  1.00  0.00     0.196 HD
ATOM      7  O   UNL d   1       1.758   3.675  -2.733  0.00  0.00    -0.217 OA
ENDROOT
BRANCH   3   8
ATOM      8  C   UNL d   1       0.378   0.602  -1.530  0.00  0.00     0.225 C 
BRANCH   8   9
ATOM      9  S   UNL d   1       1.140   0.098  -0.005  0.00  0.00     0.197 S 
ATOM     10  O   UNL d   1       2.580   0.267  -0.120  0.00  0.00    -0.221 OA
ATOM     11  O   UNL d   1       0.604  -1.199   0.375  0.00  0.00    -0.221 OA
BRANCH   9  12
ATOM     12  C   UNL d   1       0.546   1.296   1.174  0.00  0.00     0.128 A 
ATOM     13  N   UNL d   1      -0.808   1.338   1.275  0.00  0.00    -0.357 N 
ATOM     14  C   UNL d   1      -1.304   2.289   2.092  0.00  0.00     0.089 A 
ATOM     15  HN  UNL d   1      -1.410   0.691   0.765  1.00  0.00     0.166 HD
ATOM     16  C   UNL d   1      -0.515   3.197   2.784  0.00  0.00     0.017 A 
ATOM     17  C   UNL d   1       0.870   3.123   2.647  0.00  0.00     0.004 A 
ATOM     18  C   UNL d   1       1.425   2.148   1.827  0.00  0.00     0.042 A 
ENDBRANCH   9  12
ENDBRANCH   8   9
ENDBRANCH   3   8
BRANCH   4  19
ATOM     19  C   UNL d   1       0.549   5.521  -1.752  0.00  0.00     0.017 A 
ATOM     20  C   UNL d   1      -0.489   5.995  -0.932  0.00  0.00     0.017 A 
ATOM     21  C   UNL d   1      -0.657   7.365  -0.707  0.00  0.00     0.025 A 
ATOM     22  C   UNL d   1       0.212   8.276  -1.302  0.00  0.00     0.034 A 
ATOM     23  C   UNL d   1       1.240   7.828  -2.128  0.00  0.00     0.025 A 
ATOM     24 CL   UNL d   1       0.022   9.959  -1.008  0.00  0.00    -0.084 Cl
ATOM     25  C   UNL d   1       1.407   6.457  -2.353  0.00  0.00     0.017 A 
ENDBRANCH   4  19
TORSDOF 4
