REMARK  8 active torsions:
REMARK  status: ('A' for Active; 'I' for Inactive)
REMARK    1  A    between atoms: O_5  and  N_1 
REMARK    2  A    between atoms: C_6  and  C_3 
REMARK    3  A    between atoms: N_16  and  C_3 
REMARK    4  A    between atoms: C_4  and  O_5 
REMARK    5  A    between atoms: C_7  and  C_4 
REMARK    6  A    between atoms: C_8  and  S_11 
REMARK    7  A    between atoms: S_11  and  C_19 
REMARK    8  A    between atoms: C_19  and  C_17 
ROOT
ATOM      1  N   UNL d   1      -1.042   0.202  -1.096  0.00  0.00    -0.246 N 
ATOM      2  HN  UNL d   1      -1.555   0.308  -1.971  1.00  0.00     0.196 HD
ATOM      3  C   UNL d   1       0.214  -0.123  -1.030  0.00  0.00     0.109 C 
ENDROOT
BRANCH   3   4
ATOM      4  C   UNL d   1       0.933  -0.401  -2.319  0.00  0.00     0.004 A 
ATOM      5  C   UNL d   1       2.025  -1.281  -2.348  0.00  0.00     0.022 A 
ATOM      6  C   UNL d   1       2.686  -1.569  -3.555  0.00  0.00    -0.048 A 
ATOM      7  C   UNL d   1       2.232  -0.956  -4.734  0.00  0.00     0.008 A 
ATOM      8  C   UNL d   1       1.150  -0.073  -4.707  0.00  0.00     0.002 A 
ATOM      9  C   UNL d   1       0.496   0.199  -3.505  0.00  0.00     0.015 A 
BRANCH   6  10
ATOM     10  C   UNL d   1       3.821  -2.570  -3.586  0.00  0.00     0.119 C 
BRANCH  10  11
ATOM     11  S   UNL d   1       5.388  -1.830  -4.153  0.00  0.00    -0.108 SA
BRANCH  11  12
ATOM     12  C   UNL d   1       6.494  -3.215  -3.939  0.00  0.00     0.069 A 
ATOM     13  N   UNL d   1       5.984  -4.394  -3.516  0.00  0.00    -0.361 N 
ATOM     14  C   UNL d   1       6.852  -5.413  -3.330  0.00  0.00     0.089 A 
ATOM     15  HN  UNL d   1       4.985  -4.509  -3.344  1.00  0.00     0.165 HD
ATOM     16  C   UNL d   1       8.217  -5.315  -3.543  0.00  0.00     0.017 A 
ATOM     17  C   UNL d   1       8.722  -4.100  -3.987  0.00  0.00     0.004 A 
ATOM     18  C   UNL d   1       7.849  -3.034  -4.193  0.00  0.00     0.037 A 
ENDBRANCH  11  12
ENDBRANCH  10  11
ENDBRANCH   6  10
ENDBRANCH   3   4
BRANCH   3  19
ATOM     19  N   UNL d   1       0.920  -0.212   0.149  0.00  0.00    -0.286 NA
ATOM     20  H   UNL d   1       0.451   0.266   0.909  0.00  0.00     0.125 HD
ATOM     21  H   UNL d   1       1.899   0.047   0.082  0.00  0.00     0.125 HD
ENDBRANCH   3  19
BRANCH   1  22
ATOM     22  O   UNL d   1      -1.619   0.390   0.179  0.00  0.00    -0.193 OA
BRANCH  22  23
ATOM     23  C   UNL d   1      -2.948   0.689   0.032  0.00  0.00     0.315 C 
ATOM     24  O   UNL d   1      -3.560   0.863  -1.012  0.00  0.00    -0.257 OA
BRANCH  23  25
ATOM     25  C   UNL d   1      -3.622   0.803   1.359  0.00  0.00     0.041 A 
ATOM     26  C   UNL d   1      -4.973   1.191   1.371  0.00  0.00     0.019 A 
ATOM     27  C   UNL d   1      -5.672   1.312   2.576  0.00  0.00     0.025 A 
ATOM     28  C   UNL d   1      -5.023   1.046   3.778  0.00  0.00     0.034 A 
ATOM     29  C   UNL d   1      -3.683   0.657   3.784  0.00  0.00     0.025 A 
ATOM     30 CL   UNL d   1      -5.879   1.195   5.262  0.00  0.00    -0.084 Cl
ATOM     31  C   UNL d   1      -2.981   0.533   2.577  0.00  0.00     0.019 A 
ENDBRANCH  23  25
ENDBRANCH  22  23
ENDBRANCH   1  22
TORSDOF 8
