REMARK  3 active torsions:
REMARK  status: ('A' for Active; 'I' for Inactive)
REMARK    1  A    between atoms: N_4  and  S_1 
REMARK    2  A    between atoms: C_2  and  N_3 
REMARK    3  A    between atoms: N_3  and  N_4 
ROOT
ATOM      1  C   UNL d   1       0.736  -3.150   2.384  0.00  0.00     0.092 A 
ATOM      2  C   UNL d   1       1.714  -3.938   3.029  0.00  0.00     0.065 A 
ATOM      3  C   UNL d   1      -0.588  -3.254   2.873  0.00  0.00     0.065 A 
ATOM      4  C   UNL d   1       1.385  -4.751   4.123  0.00  0.00     0.050 A 
ATOM      5  C   UNL d   1      -0.918  -4.067   3.960  0.00  0.00     0.050 A 
ATOM      6  C   UNL d   1       0.076  -4.809   4.582  0.00  0.00     0.037 A 
ATOM      7 CL   UNL d   1      -1.875  -2.362   2.125  0.00  0.00    -0.082 Cl
ATOM      8 CL   UNL d   1       3.380  -3.982   2.551  0.00  0.00    -0.082 Cl
ATOM      9 CL   UNL d   1      -0.312  -5.813   5.923  0.00  0.00    -0.084 Cl
ENDROOT
BRANCH   1  10
ATOM     10  N   UNL d   1       0.982  -2.324   1.264  0.00  0.00    -0.288 N 
ATOM     11  H   UNL d   1       0.213  -1.701   0.993  0.00  0.00     0.188 HD
BRANCH  10  12
ATOM     12  N   UNL d   1       2.259  -2.077   0.630  0.00  0.00    -0.227 N 
ATOM     13  H   UNL d   1       3.108  -2.572   0.921  0.00  0.00     0.200 HD
BRANCH  12  14
ATOM     14  S   UNL d   1       2.442  -1.023  -0.667  0.00  0.00     0.240 S 
ATOM     15  O   UNL d   1       3.849  -0.993  -0.989  0.00  0.00    -0.205 OA
ATOM     16  O   UNL d   1       1.689   0.180  -0.376  0.00  0.00    -0.205 OA
ATOM     17  C   UNL d   1       1.588  -1.917  -1.947  0.00  0.00     0.187 C 
ENDBRANCH  12  14
ENDBRANCH  10  12
ENDBRANCH   1  10
TORSDOF 3
