REMARK  5 active torsions:
REMARK  status: ('A' for Active; 'I' for Inactive)
REMARK    1  A    between atoms: N_2  and  S_1 
REMARK    2  A    between atoms: C_8  and  S_1 
REMARK       I    between atoms: N_5  and  C_4 
REMARK       I    between atoms: N_11  and  C_4 
REMARK    3  A    between atoms: N_9  and  N_11 
REMARK    4  A    between atoms: C_12  and  C_14 
REMARK    5  A    between atoms: O_15  and  C_13 
ROOT
ATOM      1  N   UNL d   1       0.481  -0.871  -1.451  0.00  0.00    -0.111 N 
ATOM      2  HN  UNL d   1       0.859  -0.410  -0.624  1.00  0.00     0.197 HD
ATOM      3  C   UNL d   1       0.751  -0.401  -2.632  0.00  0.00     0.704 C 
ATOM      4  N   UNL d   1       1.644   0.647  -2.778  0.00  0.00    -0.216 N 
ATOM      5  N   UNL d   1       0.249  -0.831  -3.854  0.00  0.00    -0.132 N 
ATOM      6  C   UNL d   1       2.909   0.705  -2.066  0.00  0.00     0.141 C 
ATOM      7  C   UNL d   1       1.177   1.987  -3.124  0.00  0.00     0.141 C 
ATOM      8  C   UNL d   1       3.017   2.146  -1.595  0.00  0.00     0.022 C 
ATOM      9  C   UNL d   1       2.305   2.920  -2.691  0.00  0.00     0.022 C 
ATOM     10  H   UNL d   1      -0.487  -1.541  -3.793  0.00  0.00     0.205 HD
ENDROOT
BRANCH   1  11
ATOM     11  S   UNL d   1      -0.449  -2.182  -1.286  0.00  0.00     0.276 S 
ATOM     12  O   UNL d   1       0.408  -3.343  -1.139  0.00  0.00    -0.200 OA
ATOM     13  O   UNL d   1      -1.483  -2.178  -2.312  0.00  0.00    -0.200 OA
BRANCH  11  14
ATOM     14  C   UNL d   1      -1.302  -2.012   0.268  0.00  0.00     0.080 A 
ATOM     15  C   UNL d   1      -1.098  -0.905   1.093  0.00  0.00     0.025 A 
ATOM     16  C   UNL d   1      -1.784  -0.823   2.308  0.00  0.00     0.002 A 
ATOM     17  C   UNL d   1      -2.665  -1.839   2.688  0.00  0.00     0.000 A 
ATOM     18  C   UNL d   1      -2.864  -2.944   1.859  0.00  0.00     0.002 A 
ATOM     19  C   UNL d   1      -2.183  -3.033   0.646  0.00  0.00     0.025 A 
ENDBRANCH  11  14
ENDBRANCH   1  11
BRANCH   5  20
ATOM     20  N   UNL d   1       0.930  -0.683  -5.024  0.00  0.00    -0.297 N 
ATOM     21  C   UNL d   1       0.458  -1.308  -6.053  0.00  0.00     0.121 C 
ATOM     22  HN  UNL d   1       1.770  -0.109  -5.085  1.00  0.00     0.186 HD
BRANCH  21  23
ATOM     23  C   UNL d   1       1.177  -1.230  -7.340  0.00  0.00     0.014 A 
ATOM     24  C   UNL d   1       2.428  -0.606  -7.449  0.00  0.00     0.077 A 
ATOM     25  C   UNL d   1       3.077  -0.544  -8.678  0.00  0.00     0.037 A 
ATOM     26  C   UNL d   1       2.478  -1.102  -9.808  0.00  0.00     0.003 A 
ATOM     27  C   UNL d   1       1.235  -1.731  -9.704  0.00  0.00     0.001 A 
ATOM     28  C   UNL d   1       0.583  -1.801  -8.470  0.00  0.00     0.015 A 
BRANCH  24  29
ATOM     29  O   UNL d   1       3.080  -0.035  -6.387  0.00  0.00    -0.360 OA
ATOM     30  H   UNL d   1       2.501  -0.128  -5.594  0.00  0.00     0.217 HD
ENDBRANCH  24  29
ENDBRANCH  21  23
ENDBRANCH   5  20
TORSDOF 5
