REMARK  1 active torsions:
REMARK  status: ('A' for Active; 'I' for Inactive)
REMARK    1  A    between atoms: C_7  and  C_2 
ROOT
ATOM      1  C   UNL d   1       1.311  -1.525  -0.005  0.00  0.00     0.188 A 
ATOM      2  C   UNL d   1       2.422   0.626  -0.064  0.00  0.00     0.090 A 
ATOM      3  C   UNL d   1       2.528  -0.707  -0.017  0.00  0.00     0.093 A 
ATOM      4  O   UNL d   1       1.234   1.320  -0.107  0.00  0.00    -0.309 OA
ATOM      5  C   UNL d   1       0.015  -0.801   0.057  0.00  0.00     0.054 A 
ATOM      6  C   UNL d   1       0.062   0.598  -0.038  0.00  0.00     0.090 A 
ATOM      7  O   UNL d   1       1.417  -2.741  -0.076  0.00  0.00    -0.287 OA
ATOM      8  C   UNL d   1      -1.230  -1.455   0.178  0.00  0.00    -0.045 A 
ATOM      9  C   UNL d   1      -1.115   1.348  -0.071  0.00  0.00     0.038 A 
ATOM     10  C   UNL d   1      -2.348   0.707  -0.017  0.00  0.00     0.003 A 
ATOM     11  C   UNL d   1      -2.404  -0.681   0.108  0.00  0.00     0.008 A 
ATOM     12  C   UNL d   1      -1.403  -2.941   0.343  0.00  0.00     0.049 C 
ENDROOT
BRANCH   2  13
ATOM     13  C   UNL d   1       3.638   1.439  -0.132  0.00  0.00    -0.002 A 
ATOM     14  C   UNL d   1       4.136   1.844  -1.378  0.00  0.00     0.016 A 
ATOM     15  C   UNL d   1       5.363   2.506  -1.465  0.00  0.00     0.024 A 
ATOM     16  C   UNL d   1       6.091   2.769  -0.306  0.00  0.00     0.034 A 
ATOM     17  C   UNL d   1       5.595   2.394   0.941  0.00  0.00     0.024 A 
ATOM     18 CL   UNL d   1       7.623   3.544  -0.418  0.00  0.00    -0.084 Cl
ATOM     19  C   UNL d   1       4.368   1.729   1.028  0.00  0.00     0.016 A 
ENDBRANCH   2  13
TORSDOF 1
