REMARK  7 active torsions:
REMARK  status: ('A' for Active; 'I' for Inactive)
REMARK    1  A    between atoms: N_2  and  S_1 
REMARK    2  A    between atoms: C_4  and  S_1 
REMARK    3  A    between atoms: C_5  and  N_2 
REMARK    4  A    between atoms: N_3  and  C_14 
REMARK    5  A    between atoms: C_11  and  C_5 
REMARK    6  A    between atoms: O_15  and  C_6 
REMARK    7  A    between atoms: C_24  and  O_15 
ROOT
ATOM      1  C   UNL d   1       0.446   1.635   0.167  0.00  0.00     0.083 A 
ATOM      2  C   UNL d   1      -0.668   4.198   0.461  0.00  0.00     0.119 A 
ATOM      3  C   UNL d   1      -1.437   3.055   0.724  0.00  0.00     0.071 A 
ATOM      4  C   UNL d   1       0.688   4.030   0.122  0.00  0.00     0.071 A 
ATOM      5  C   UNL d   1      -0.887   1.782   0.551  0.00  0.00     0.052 A 
ATOM      6  C   UNL d   1       1.248   2.758  -0.031  0.00  0.00     0.052 A 
ATOM      7 CL   UNL d   1      -3.049   3.099   1.350  0.00  0.00    -0.081 Cl
ATOM      8 CL   UNL d   1       1.734   5.394  -0.083  0.00  0.00    -0.081 Cl
ENDROOT
BRANCH   1   9
ATOM      9  S   UNL d   1       1.163   0.027  -0.074  0.00  0.00     0.264 S 
ATOM     10  O   UNL d   1       1.729   0.005  -1.402  0.00  0.00    -0.200 OA
ATOM     11  O   UNL d   1       1.932  -0.267   1.117  0.00  0.00    -0.200 OA
BRANCH   9  12
ATOM     12  N   UNL d   1      -0.150  -1.004  -0.050  0.00  0.00    -0.265 N 
ATOM     13  H   UNL d   1      -0.182  -1.532   0.817  0.00  0.00     0.180 HD
BRANCH  12  14
ATOM     14  C   UNL d   1      -1.143  -1.115  -1.031  0.00  0.00     0.120 C 
ATOM     15  N   UNL d   1      -0.939  -0.724  -2.237  0.00  0.00    -0.384 N 
ATOM     16  H   UNL d   1       0.045  -0.438  -2.362  0.00  0.00     0.157 HD
ATOM     17  HN  UNL d   1      -1.649  -0.700  -2.969  1.00  0.00     0.157 HD
BRANCH  14  18
ATOM     18  C   UNL d   1      -2.459  -1.659  -0.605  0.00  0.00     0.023 A 
ATOM     19  C   UNL d   1      -3.474  -1.745  -1.553  0.00  0.00     0.102 A 
ATOM     20  N   UNL d   1      -4.727  -2.200  -1.293  0.00  0.00    -0.374 N 
ATOM     21  C   UNL d   1      -4.984  -2.583  -0.026  0.00  0.00     0.087 A 
ATOM     22  HN  UNL d   1      -5.439  -2.248  -2.021  1.00  0.00     0.164 HD
ATOM     23  C   UNL d   1      -4.053  -2.517   0.996  0.00  0.00     0.018 A 
ATOM     24  C   UNL d   1      -2.772  -2.041   0.704  0.00  0.00     0.018 A 
ENDBRANCH  14  18
ENDBRANCH  12  14
ENDBRANCH   9  12
ENDBRANCH   1   9
BRANCH   2  25
ATOM     25  O   UNL d   1      -1.095   5.490   0.663  0.00  0.00    -0.307 OA
BRANCH  25  26
ATOM     26  C   UNL d   1      -2.273   5.957   0.131  0.00  0.00     0.076 A 
ATOM     27  C   UNL d   1      -2.762   7.112   0.754  0.00  0.00     0.040 A 
ATOM     28  C   UNL d   1      -3.973   7.681   0.357  0.00  0.00     0.039 A 
ATOM     29  C   UNL d   1      -4.701   7.081  -0.676  0.00  0.00     0.103 A 
ATOM     30  C   UNL d   1      -4.207   5.943  -1.328  0.00  0.00     0.039 A 
ATOM     31  C   UNL d   1      -2.975   5.401  -0.943  0.00  0.00     0.040 A 
BRANCH  29  32
ATOM     32  N   UNL d   1      -5.992   7.654  -1.079  0.00  0.00    -0.116 N 
ATOM     33  O   UNL d   1      -6.368   8.690  -0.516  0.00  0.00    -0.532 OA
ATOM     34  O   UNL d   1      -6.632   7.062  -1.964  0.00  0.00    -0.532 OA
ENDBRANCH  29  32
ENDBRANCH  25  26
ENDBRANCH   2  25
TORSDOF 7
