REMARK  10 active torsions:
REMARK  status: ('A' for Active; 'I' for Inactive)
REMARK    1  A    between atoms: O_16  and  C_1 
REMARK    2  A    between atoms: C_6  and  C_2 
REMARK    3  A    between atoms: O_17  and  C_3 
REMARK    4  A    between atoms: O_18  and  C_4 
REMARK    5  A    between atoms: C_5  and  C_11 
REMARK       I    between atoms: N_10  and  C_5 
REMARK    6  A    between atoms: C_11  and  C_6 
REMARK    7  A    between atoms: C_12  and  C_6 
REMARK    8  A    between atoms: C_9  and  C_12 
REMARK    9  A    between atoms: O_19  and  C_9 
REMARK   10  A    between atoms: C_15  and  N_10 
ROOT
ATOM      1  C   UNL d   1      -2.777   0.068  -0.738  0.00  0.00     0.037 C 
ENDROOT
BRANCH   1   2
ATOM      2  C   UNL d   1      -1.348  -0.475  -0.857  0.00  0.00    -0.048 A 
ATOM      3  C   UNL d   1      -0.411  -0.128   0.124  0.00  0.00     0.047 A 
ATOM      4  C   UNL d   1       0.828  -0.783   0.235  0.00  0.00     0.104 A 
ATOM      5  C   UNL d   1       1.163  -1.800  -0.678  0.00  0.00     0.135 A 
ATOM      6  C   UNL d   1       0.290  -2.060  -1.757  0.00  0.00     0.104 A 
ATOM      7  C   UNL d   1      -0.953  -1.405  -1.833  0.00  0.00     0.047 A 
BRANCH   4   8
ATOM      8  O   UNL d   1       1.552  -0.311   1.300  0.00  0.00    -0.353 OA
ATOM      9  C   UNL d   1       2.722  -1.007   1.698  0.00  0.00     0.210 C 
ENDBRANCH   4   8
BRANCH   5  10
ATOM     10  O   UNL d   1       2.371  -2.438  -0.528  0.00  0.00    -0.351 OA
ATOM     11  C   UNL d   1       2.385  -3.845  -0.775  0.00  0.00     0.210 C 
ENDBRANCH   5  10
BRANCH   6  12
ATOM     12  O   UNL d   1       0.698  -2.991  -2.679  0.00  0.00    -0.353 OA
ATOM     13  C   UNL d   1       0.128  -2.950  -3.977  0.00  0.00     0.210 C 
ENDBRANCH   6  12
ENDBRANCH   1   2
BRANCH   1  14
ATOM     14  C   UNL d   1      -3.021   1.313  -1.614  0.00  0.00     0.113 C 
BRANCH  14  15
ATOM     15  C   UNL d   1      -4.410   1.907  -1.400  0.00  0.00     0.222 C 
ATOM     16  N   UNL d   1      -4.998   2.783  -2.272  0.00  0.00    -0.327 N 
ATOM     17  H   UNL d   1      -5.839   3.169  -1.861  0.00  0.00     0.169 HD
ATOM     18  O   UNL d   1      -5.029   1.662  -0.356  0.00  0.00    -0.273 OA
BRANCH  16  19
ATOM     19  C   UNL d   1      -4.667   3.284  -3.543  0.00  0.00     0.034 A 
ATOM     20  C   UNL d   1      -3.729   2.736  -4.410  0.00  0.00     0.030 A 
ATOM     21  C   UNL d   1      -3.426   3.345  -5.630  0.00  0.00     0.009 A 
ATOM     22  C   UNL d   1      -4.079   4.508  -6.034  0.00  0.00    -0.062 A 
ATOM     23  C   UNL d   1      -5.077   5.031  -5.208  0.00  0.00     0.009 A 
ATOM     24  C   UNL d   1      -3.681   5.168  -7.318  0.00  0.00     0.048 C 
ATOM     25  C   UNL d   1      -5.374   4.420  -3.981  0.00  0.00     0.030 A 
ENDBRANCH  16  19
ENDBRANCH  14  15
ENDBRANCH   1  14
BRANCH   1  26
ATOM     26  C   UNL d   1      -3.825  -1.033  -1.021  0.00  0.00     0.119 C 
BRANCH  26  27
ATOM     27  C   UNL d   1      -3.759  -2.125   0.013  0.00  0.00     0.140 C 
ATOM     28  O   UNL d   1      -3.270  -3.225  -0.188  0.00  0.00    -0.650 OA
BRANCH  27  29
ATOM     29  O   UNL d   1      -4.315  -1.771   1.194  0.00  0.00    -0.776 OA
ATOM     30  H   UNL d   1      -4.686  -0.866   1.200  0.00  0.00     0.167 HD
ENDBRANCH  27  29
ENDBRANCH  26  27
ENDBRANCH   1  26
TORSDOF 10
