REMARK  5 active torsions:
REMARK  status: ('A' for Active; 'I' for Inactive)
REMARK    1  A    between atoms: C_7  and  C_1 
REMARK    2  A    between atoms: N_16  and  C_3 
REMARK    3  A    between atoms: C_9  and  C_7 
REMARK    4  A    between atoms: C_10  and  C_7 
REMARK    5  A    between atoms: N_8  and  C_9 
ROOT
ATOM      1  C   UNL d   1      -0.092   1.587  -0.131  0.00  0.00     0.060 C 
ATOM      2  N   UNL d   1      -0.701  -0.541   0.728  0.00  0.00    -0.294 N 
ATOM      3  C   UNL d   1      -0.773   0.852   0.785  0.00  0.00     0.096 C 
ATOM      4  N   UNL d   1       0.315  -0.444  -1.383  0.00  0.00    -0.270 N 
ATOM      5  C   UNL d   1      -0.211  -1.232  -0.388  0.00  0.00     0.332 C 
ATOM      6  C   UNL d   1       0.778   0.792  -1.044  0.00  0.00     0.261 C 
ATOM      7  O   UNL d   1      -0.214  -2.461  -0.457  0.00  0.00    -0.246 OA
ATOM      8  O   UNL d   1       1.846   1.243  -1.448  0.00  0.00    -0.267 OA
ATOM      9  C   UNL d   1      -1.296  -1.400   1.743  0.00  0.00     0.162 C 
ATOM     10  C   UNL d   1       0.908  -1.118  -2.523  0.00  0.00     0.164 C 
ENDROOT
BRANCH   1  11
ATOM     11  C   UNL d   1      -0.022   3.141  -0.244  0.00  0.00     0.096 C 
BRANCH  11  12
ATOM     12  C   UNL d   1       0.821   3.781  -1.412  0.00  0.00     0.165 C 
ATOM     13  C   UNL d   1       0.991   5.305  -1.355  0.00  0.00     0.040 C 
BRANCH  12  14
ATOM     14  N   UNL d   1       0.281   3.421  -2.788  0.00  0.00    -0.150 N 
ATOM     15  O   UNL d   1      -0.710   2.689  -2.873  0.00  0.00    -0.536 OA
ATOM     16  O   UNL d   1       0.902   3.869  -3.764  0.00  0.00    -0.536 OA
ENDBRANCH  12  14
ENDBRANCH  11  12
BRANCH  11  17
ATOM     17  C   UNL d   1      -1.373   3.874  -0.105  0.00  0.00    -0.007 C 
ATOM     18  S   UNL d   1      -1.513   5.258   0.916  0.00  0.00    -0.106 SA
ATOM     19  C   UNL d   1      -3.114   5.559   0.403  0.00  0.00     0.050 C 
ATOM     20  C   UNL d   1      -3.587   4.558  -0.412  0.00  0.00     0.008 C 
ATOM     21  C   UNL d   1      -2.595   3.571  -0.678  0.00  0.00     0.016 C 
ENDBRANCH  11  17
ENDBRANCH   1  11
BRANCH   3  22
ATOM     22  N   UNL d   1      -1.535   1.438   1.780  0.00  0.00    -0.288 NA
ATOM     23  H   UNL d   1      -1.337   1.070   2.703  0.00  0.00     0.125 HD
ATOM     24  H   UNL d   1      -1.538   2.454   1.804  0.00  0.00     0.125 HD
ENDBRANCH   3  22
TORSDOF 5
