REMARK  3 active torsions:
REMARK  status: ('A' for Active; 'I' for Inactive)
REMARK    1  A    between atoms: O_4  and  S_1 
REMARK    2  A    between atoms: C_2  and  O_4 
REMARK    3  A    between atoms: K_16  and  K_16 
ROOT
ATOM      1  K   UNL d   2      -1.372  -0.720  -0.250  0.00  0.00     0.000 K 
ENDROOT
TORSDOF 3
