REMARK  7 active torsions:
REMARK  status: ('A' for Active; 'I' for Inactive)
REMARK    1  A    between atoms: C_12  and  C_1 
REMARK    2  A    between atoms: C_2  and  N_13 
REMARK    3  A    between atoms: C_18  and  N_3 
REMARK    4  A    between atoms: C_16  and  N_6 
REMARK    5  A    between atoms: C_15  and  C_10 
REMARK       I    between atoms: N_13  and  C_12 
REMARK    6  A    between atoms: C_19  and  C_14 
REMARK    7  A    between atoms: C_27  and  C_18 
ROOT
ATOM      1  C   UNL d   1      -1.167  -2.892   0.643  0.00  0.00     0.275 C 
ATOM      2  N   UNL d   1      -2.041  -3.219   1.664  0.00  0.00    -0.306 N 
ATOM      3  O   UNL d   1      -0.623  -3.744  -0.055  0.00  0.00    -0.266 OA
ATOM      4  H   UNL d   1      -2.429  -2.459   2.214  0.00  0.00     0.170 HD
ENDROOT
BRANCH   2   5
ATOM      5  C   UNL d   1      -2.812  -4.380   1.627  0.00  0.00     0.132 C 
ATOM      6  N   UNL d   1      -3.001  -5.258   2.695  0.00  0.00    -0.239 N 
ATOM      7  N   UNL d   1      -4.256  -5.753   2.668  0.00  0.00    -0.291 N 
ATOM      8  C   UNL d   1      -4.638  -5.619   1.396  0.00  0.00     0.069 C 
ATOM      9  HN  UNL d   1      -4.792  -6.143   3.444  1.00  0.00     0.187 HD
ATOM     10  C   UNL d   1      -3.733  -4.795   0.676  0.00  0.00     0.082 C 
BRANCH   6  11
ATOM     11  C   UNL d   1      -2.078  -5.815   3.629  0.00  0.00     0.058 A 
ATOM     12  C   UNL d   1      -2.576  -6.676   4.632  0.00  0.00     0.034 A 
ATOM     13  C   UNL d   1      -1.708  -7.390   5.457  0.00  0.00     0.044 A 
ATOM     14  C   UNL d   1      -0.341  -7.248   5.282  0.00  0.00     0.116 A 
ATOM     15  C   UNL d   1       0.171  -6.394   4.307  0.00  0.00     0.044 A 
ATOM     16  F   UNL d   1       0.497  -7.961   6.046  0.00  0.00    -0.206 F 
ATOM     17  C   UNL d   1      -0.695  -5.669   3.475  0.00  0.00     0.034 A 
ENDBRANCH   6  11
BRANCH   8  18
ATOM     18  C   UNL d   1      -5.931  -6.233   0.952  0.00  0.00     0.033 A 
ATOM     19  S   UNL d   1      -6.553  -6.209  -0.634  0.00  0.00    -0.100 SA
ATOM     20  C   UNL d   1      -7.954  -7.080  -0.163  0.00  0.00     0.050 A 
ATOM     21  C   UNL d   1      -7.956  -7.379   1.179  0.00  0.00     0.008 A 
ATOM     22  C   UNL d   1      -6.778  -6.898   1.821  0.00  0.00     0.021 A 
ENDBRANCH   8  18
ENDBRANCH   2   5
BRANCH   1  23
ATOM     23  C   UNL d   1      -0.863  -1.469   0.522  0.00  0.00     0.121 A 
ATOM     24  N   UNL d   1       0.381  -0.957   0.215  0.00  0.00    -0.282 N 
ATOM     25  N   UNL d   1       0.405   0.393   0.167  0.00  0.00    -0.301 N 
ATOM     26  C   UNL d   1      -0.868   0.769   0.307  0.00  0.00     0.036 A 
ATOM     27  HN  UNL d   1       1.220   0.995   0.048  1.00  0.00     0.187 HD
ATOM     28  C   UNL d   1      -1.687  -0.355   0.584  0.00  0.00     0.064 A 
BRANCH  24  29
ATOM     29  C   UNL d   1       1.653  -1.661   0.066  0.00  0.00     0.188 C 
BRANCH  29  30
ATOM     30  C   UNL d   1       2.122  -1.749  -1.369  0.00  0.00    -0.038 A 
ATOM     31  C   UNL d   1       3.479  -1.542  -1.669  0.00  0.00     0.009 A 
ATOM     32  C   UNL d   1       3.949  -1.675  -2.978  0.00  0.00     0.001 A 
ATOM     33  C   UNL d   1       3.071  -2.018  -4.003  0.00  0.00     0.000 A 
ATOM     34  C   UNL d   1       1.724  -2.227  -3.721  0.00  0.00     0.001 A 
ATOM     35  C   UNL d   1       1.254  -2.102  -2.413  0.00  0.00     0.009 A 
ENDBRANCH  29  30
ENDBRANCH  24  29
BRANCH  26  36
ATOM     36  C   UNL d   1      -1.204   2.258   0.165  0.00  0.00    -0.007 C 
ATOM     37  C   UNL d   1      -2.717   2.527   0.258  0.00  0.00     0.021 C 
ATOM     38  C   UNL d   1      -0.501   3.068   1.275  0.00  0.00     0.021 C 
ATOM     39  C   UNL d   1      -0.718   2.788  -1.202  0.00  0.00     0.021 C 
ENDBRANCH  26  36
ENDBRANCH   1  23
TORSDOF 7
