REMARK  2 active torsions:
REMARK  status: ('A' for Active; 'I' for Inactive)
REMARK    1  A    between atoms: C_2  and  S_1 
REMARK    2  A    between atoms: C_5  and  S_1 
ROOT
ATOM      1  N   UNL d   1      -1.935  -3.276  -2.785  0.00  0.00    -0.353 N 
ATOM      2  HN  UNL d   1      -2.518  -2.579  -3.248  1.00  0.00     0.166 HD
ATOM      3  C   UNL d   1       0.556  -1.579  -0.581  0.00  0.00     0.070 A 
ATOM      4  C   UNL d   1      -0.912  -2.991  -1.894  0.00  0.00     0.051 A 
ATOM      5  S   UNL d   1      -0.940  -5.533  -2.046  0.00  0.00    -0.075 SA
ATOM      6  C   UNL d   1      -2.044  -4.577  -2.946  0.00  0.00     0.048 A 
ATOM      7  C   UNL d   1      -0.513  -1.704  -1.480  0.00  0.00     0.054 A 
ATOM      8  C   UNL d   1      -0.244  -4.105  -1.382  0.00  0.00     0.033 A 
ATOM      9  C   UNL d   1       1.204  -2.703  -0.067  0.00  0.00     0.025 A 
ATOM     10  C   UNL d   1       0.815  -3.984  -0.466  0.00  0.00     0.023 A 
ATOM     11  C   UNL d   1      -3.036  -5.238  -3.838  0.00  0.00     0.076 C 
ENDROOT
BRANCH   3  12
ATOM     12  S   UNL d   1       1.029   0.045   0.002  0.00  0.00     0.276 S 
ATOM     13  O   UNL d   1      -0.154   0.881  -0.143  0.00  0.00    -0.213 OA
ATOM     14  O   UNL d   1       1.588  -0.162   1.330  0.00  0.00    -0.213 OA
BRANCH  12  15
ATOM     15  C   UNL d   1       2.331   0.551  -1.176  0.00  0.00     0.503 C 
ATOM     16  F   UNL d   1       2.542  -0.371  -2.160  0.00  0.00    -0.157 F 
ATOM     17  F   UNL d   1       2.039   1.723  -1.809  0.00  0.00    -0.157 F 
ATOM     18  F   UNL d   1       3.539   0.736  -0.568  0.00  0.00    -0.157 F 
ENDBRANCH  12  15
ENDBRANCH   3  12
TORSDOF 2
