REMARK  10 active torsions:
REMARK  status: ('A' for Active; 'I' for Inactive)
REMARK    1  A    between atoms: C_3  and  C_1 
REMARK    2  A    between atoms: C_4  and  C_1 
REMARK    3  A    between atoms: N_8  and  C_2 
REMARK    4  A    between atoms: S_13  and  C_2 
REMARK    5  A    between atoms: C_9  and  C_3 
REMARK    6  A    between atoms: N_5  and  C_4 
REMARK    7  A    between atoms: C_14  and  N_8 
REMARK    8  A    between atoms: C_10  and  C_14 
REMARK    9  A    between atoms: O_20  and  C_10 
REMARK   10  A    between atoms: C_23  and  O_20 
ROOT
ATOM      1  C   UNL d   1       1.026  -0.039  -0.088  0.00  0.00     0.110 C 
ATOM      2  C   UNL d   1       0.282  -0.878  -0.860  0.00  0.00     0.089 C 
ENDROOT
BRANCH   1   3
ATOM      3  C   UNL d   1       0.447   1.014   0.837  0.00  0.00     0.204 C 
ATOM      4  O   UNL d   1      -0.690   0.973   1.295  0.00  0.00    -0.286 OA
BRANCH   3   5
ATOM      5  C   UNL d   1       1.330   2.142   1.281  0.00  0.00     0.016 A 
ATOM      6  C   UNL d   1       2.201   2.804   0.399  0.00  0.00     0.017 A 
ATOM      7  C   UNL d   1       3.121   3.735   0.887  0.00  0.00     0.025 A 
ATOM      8  C   UNL d   1       3.130   4.058   2.242  0.00  0.00     0.034 A 
ATOM      9  C   UNL d   1       2.215   3.468   3.109  0.00  0.00     0.025 A 
ATOM     10 CL   UNL d   1       4.279   5.188   2.841  0.00  0.00    -0.084 Cl
ATOM     11  C   UNL d   1       1.314   2.510   2.632  0.00  0.00     0.017 A 
ENDBRANCH   3   5
ENDBRANCH   1   3
BRANCH   1  12
ATOM     12  C   UNL d   1       2.546  -0.039  -0.088  0.00  0.00    -0.030 C 
BRANCH  12  13
ATOM     13  N   UNL d   1       3.807  -0.039  -0.088  0.00  0.00    -0.365 N 
ATOM     14  HN2 UNL d   1       2.787  -0.039  -0.088  1.00  0.00     0.165 HD
ATOM     15  HN1 UNL d   1       4.827  -0.039  -0.088  1.00  0.00     0.165 HD
ENDBRANCH  12  13
ENDBRANCH   1  12
BRANCH   2  16
ATOM     16  N   UNL d   1      -1.107  -0.948  -0.907  0.00  0.00    -0.374 N 
ATOM     17  H   UNL d   1      -1.433  -1.781  -1.398  0.00  0.00     0.160 HD
BRANCH  16  18
ATOM     18  C   UNL d   1      -2.034   0.182  -1.087  0.00  0.00     0.231 C 
BRANCH  18  19
ATOM     19  C   UNL d   1      -2.962  -0.041  -2.280  0.00  0.00     0.276 C 
ATOM     20  O   UNL d   1      -2.968  -1.046  -2.984  0.00  0.00    -0.263 OA
BRANCH  19  21
ATOM     21  O   UNL d   1      -3.765   1.047  -2.452  0.00  0.00    -0.321 OA
BRANCH  21  22
ATOM     22  C   UNL d   1      -4.686   0.999  -3.553  0.00  0.00     0.174 C 
ATOM     23  C   UNL d   1      -4.003   1.476  -4.822  0.00  0.00     0.034 C 
ENDBRANCH  21  22
ENDBRANCH  19  21
ENDBRANCH  18  19
ENDBRANCH  16  18
ENDBRANCH   2  16
BRANCH   2  24
ATOM     24  S   UNL d   1       1.167  -2.072  -1.850  0.00  0.00    -0.115 SA
ATOM     25  C   UNL d   1       0.206  -2.085  -3.388  0.00  0.00     0.097 C 
ENDBRANCH   2  24
TORSDOF 10
