REMARK  2 active torsions:
REMARK  status: ('A' for Active; 'I' for Inactive)
REMARK       I    between atoms: N_2  and  C_1 
REMARK    1  A    between atoms: C_3  and  C_1 
REMARK    2  A    between atoms: C_5  and  N_2 
ROOT
ATOM      1  C   UNL d   1       1.125   0.176  -0.115  0.00  0.00     0.229 C 
ATOM      2  N   UNL d   1       0.561  -0.896   0.560  0.00  0.00    -0.327 N 
ATOM      3  O   UNL d   1       2.321   0.462  -0.093  0.00  0.00    -0.272 OA
ATOM      4  H   UNL d   1      -0.393  -1.139   0.330  0.00  0.00     0.169 HD
ENDROOT
BRANCH   2   5
ATOM      5  C   UNL d   1       1.212  -1.750   1.478  0.00  0.00     0.034 A 
ATOM      6  C   UNL d   1       2.471  -1.480   2.024  0.00  0.00     0.032 A 
ATOM      7  C   UNL d   1       3.057  -2.364   2.934  0.00  0.00     0.044 A 
ATOM      8  C   UNL d   1       2.383  -3.519   3.299  0.00  0.00     0.116 A 
ATOM      9  C   UNL d   1       1.126  -3.803   2.779  0.00  0.00     0.044 A 
ATOM     10  F   UNL d   1       2.947  -4.370   4.166  0.00  0.00    -0.206 F 
ATOM     11  C   UNL d   1       0.536  -2.914   1.875  0.00  0.00     0.032 A 
ENDBRANCH   2   5
BRANCH   1  12
ATOM     12  C   UNL d   1       0.124   1.025  -0.929  0.00  0.00     0.030 C 
ATOM     13  C   UNL d   1      -0.930   1.627   0.013  0.00  0.00     0.025 C 
ATOM     14  C   UNL d   1       0.884   2.176  -1.614  0.00  0.00     0.025 C 
ATOM     15  C   UNL d   1      -0.559   0.180  -2.015  0.00  0.00     0.025 C 
ENDBRANCH   1  12
TORSDOF 2
