REMARK  1 active torsions:
REMARK  status: ('A' for Active; 'I' for Inactive)
REMARK    1  A    between atoms: C_11  and  N_8 
ROOT
ATOM      1  C   UNL d   1      -0.061   0.734   0.116  0.00  0.00     0.077 A 
ATOM      2  C   UNL d   1      -0.050  -0.610   0.067  0.00  0.00     0.101 A 
ATOM      3  N   UNL d   1       1.155  -1.279  -0.063  0.00  0.00    -0.293 N 
ATOM      4  N   UNL d   1       2.361   0.751  -0.014  0.00  0.00    -0.270 N 
ATOM      5  C   UNL d   1       2.388  -0.631  -0.100  0.00  0.00     0.332 A 
ATOM      6  C   UNL d   1       1.206   1.494   0.086  0.00  0.00     0.262 A 
ATOM      7  N   UNL d   1      -1.264  -1.284   0.147  0.00  0.00    -0.252 NA
ATOM      8  N   UNL d   1      -2.527   0.789  -0.258  0.00  0.00     0.111 N 
ATOM      9  C   UNL d   1      -1.337   1.545   0.161  0.00  0.00     0.322 C 
ATOM     10  C   UNL d   1      -2.491  -0.532   0.344  0.00  0.00     0.369 C 
ATOM     11  O   UNL d   1       3.450  -1.254  -0.194  0.00  0.00    -0.246 OA
ATOM     12  O   UNL d   1       1.181   2.721   0.162  0.00  0.00    -0.267 OA
ATOM     13  C   UNL d   1       1.216  -2.733  -0.095  0.00  0.00     0.162 C 
ATOM     14  C   UNL d   1       3.642   1.433  -0.002  0.00  0.00     0.164 C 
ATOM     15  H   UNL d   1      -1.350  -1.956  -0.609  0.00  0.00     0.130 HD
ENDROOT
BRANCH   8  16
ATOM     16  C   UNL d   1      -3.818   1.472  -0.104  0.00  0.00     0.233 C 
ATOM     17  C   UNL d   1      -4.394   1.738   1.319  0.00  0.00     0.075 C 
ATOM     18  C   UNL d   1      -5.452   2.759   1.000  0.00  0.00    -0.050 A 
ATOM     19  C   UNL d   1      -6.564   3.119   1.742  0.00  0.00     0.007 A 
ATOM     20  C   UNL d   1      -5.186   3.376  -0.229  0.00  0.00    -0.050 A 
ATOM     21  C   UNL d   1      -7.419   4.101   1.224  0.00  0.00     0.001 A 
ATOM     22  C   UNL d   1      -7.143   4.716  -0.009  0.00  0.00     0.001 A 
ATOM     23  C   UNL d   1      -6.011   4.361  -0.742  0.00  0.00     0.007 A 
ATOM     24  C   UNL d   1      -3.921   2.840  -0.829  0.00  0.00     0.075 C 
ENDBRANCH   8  16
TORSDOF 1
