REMARK  7 active torsions:
REMARK  status: ('A' for Active; 'I' for Inactive)
REMARK    1  A    between atoms: C_3  and  C_9 
REMARK    2  A    between atoms: C_4  and  C_10 
REMARK    3  A    between atoms: C_19  and  C_5 
REMARK    4  A    between atoms: C_13  and  C_8 
REMARK    5  A    between atoms: C_15  and  C_14 
REMARK    6  A    between atoms: S_18  and  C_19 
REMARK    7  A    between atoms: C_26  and  S_18 
ROOT
ATOM      1  N   UNL d   1       1.313   0.181  -0.082  0.00  0.00    -0.323 N 
ATOM      2  HN  UNL d   1       2.316   0.356  -0.149  1.00  0.00     0.169 HD
ATOM      3  C   UNL d   1       0.681  -0.971  -0.028  0.00  0.00     0.158 A 
ATOM      4  N   UNL d   1      -0.935   0.538   0.005  0.00  0.00    -0.243 N 
ATOM      5  HN  UNL d   1      -1.838   1.012   0.022  1.00  0.00     0.196 HD
ATOM      6  C   UNL d   1       0.288   1.083  -0.027  0.00  0.00     0.127 A 
ATOM      7  O   UNL d   1      -0.677  -0.836   0.008  0.00  0.00    -0.222 OA
ENDROOT
BRANCH   6   8
ATOM      8  C   UNL d   1       0.596   2.474  -0.016  0.00  0.00     0.051 C 
ATOM      9  C   UNL d   1       1.839   2.982   0.023  0.00  0.00     0.015 C 
BRANCH   9  10
ATOM     10  C   UNL d   1       2.137   4.419  -0.003  0.00  0.00    -0.035 A 
ATOM     11  C   UNL d   1       1.291   5.353   0.605  0.00  0.00     0.027 A 
ATOM     12  C   UNL d   1       1.553   6.729   0.524  0.00  0.00     0.049 A 
ATOM     13  C   UNL d   1       2.706   7.162  -0.144  0.00  0.00     0.032 A 
ATOM     14  C   UNL d   1       3.577   6.243  -0.751  0.00  0.00     0.049 A 
ATOM     15  C   UNL d   1       3.292   4.870  -0.654  0.00  0.00     0.027 A 
BRANCH  12  16
ATOM     16  C   UNL d   1       0.562   7.707   1.105  0.00  0.00     0.417 C 
ATOM     17  F   UNL d   1       0.915   9.009   0.925  0.00  0.00    -0.166 F 
ATOM     18  F   UNL d   1      -0.672   7.573   0.546  0.00  0.00    -0.166 F 
ATOM     19  F   UNL d   1       0.387   7.544   2.444  0.00  0.00    -0.166 F 
ENDBRANCH  12  16
BRANCH  14  20
ATOM     20  C   UNL d   1       4.768   6.717  -1.550  0.00  0.00     0.417 C 
ATOM     21  F   UNL d   1       4.861   8.074  -1.624  0.00  0.00    -0.166 F 
ATOM     22  F   UNL d   1       5.953   6.287  -1.040  0.00  0.00    -0.166 F 
ATOM     23  F   UNL d   1       4.729   6.278  -2.839  0.00  0.00    -0.166 F 
ENDBRANCH  14  20
ENDBRANCH   9  10
ENDBRANCH   6   8
BRANCH   3  24
ATOM     24  C   UNL d   1       1.230  -2.348   0.003  0.00  0.00     0.166 C 
BRANCH  24  25
ATOM     25  S   UNL d   1       2.795  -2.369   0.960  0.00  0.00    -0.122 SA
BRANCH  25  26
ATOM     26  C   UNL d   1       3.409  -4.018   0.699  0.00  0.00     0.001 A 
ATOM     27  C   UNL d   1       4.801  -4.189   0.681  0.00  0.00     0.020 A 
ATOM     28  C   UNL d   1       5.363  -5.461   0.551  0.00  0.00     0.025 A 
ATOM     29  C   UNL d   1       4.531  -6.571   0.442  0.00  0.00     0.034 A 
ATOM     30  C   UNL d   1       3.147  -6.418   0.464  0.00  0.00     0.025 A 
ATOM     31 CL   UNL d   1       5.215  -8.142   0.292  0.00  0.00    -0.084 Cl
ATOM     32  C   UNL d   1       2.587  -5.143   0.595  0.00  0.00     0.020 A 
ENDBRANCH  25  26
ENDBRANCH  24  25
ENDBRANCH   3  24
TORSDOF 7
