REMARK  5 active torsions:
REMARK  status: ('A' for Active; 'I' for Inactive)
REMARK       I    between atoms: C_2  and  N_1 
REMARK    1  A    between atoms: C_3  and  N_1 
REMARK    2  A    between atoms: O_4  and  N_1 
REMARK    3  A    between atoms: C_8  and  C_2 
REMARK    4  A    between atoms: C_5  and  O_4 
REMARK    5  A    between atoms: C_11  and  C_5 
ROOT
ATOM      1  N   UNL d   1       0.897   0.462  -0.043  0.00  0.00    -0.110 NA
ATOM      2  C   UNL d   1       0.116   1.605  -0.299  0.00  0.00     0.257 C 
ATOM      3  O   UNL d   1      -1.006   1.584  -0.786  0.00  0.00    -0.272 OA
ENDROOT
BRANCH   1   4
ATOM      4  C   UNL d   1       0.386  -0.946  -0.239  0.00  0.00     0.104 C 
ATOM      5  C   UNL d   1      -1.155  -1.167  -0.151  0.00  0.00     0.007 C 
ATOM      6  C   UNL d   1      -1.501  -2.668  -0.330  0.00  0.00     0.011 C 
ATOM      7  C   UNL d   1      -1.670  -0.728   1.229  0.00  0.00     0.011 C 
ATOM      8  C   UNL d   1      -0.855  -3.507   0.781  0.00  0.00    -0.013 C 
ATOM      9  C   UNL d   1       0.660  -3.339   0.657  0.00  0.00     0.011 C 
ATOM     10  C   UNL d   1      -1.317  -3.008   2.164  0.00  0.00     0.009 C 
ATOM     11  C   UNL d   1       1.041  -1.860   0.844  0.00  0.00     0.007 C 
ATOM     12  C   UNL d   1       0.567  -1.381   2.227  0.00  0.00     0.011 C 
ATOM     13  C   UNL d   1      -0.960  -1.525   2.335  0.00  0.00    -0.013 C 
ENDBRANCH   1   4
BRANCH   1  14
ATOM     14  O   UNL d   1       2.083   0.624  -0.848  0.00  0.00    -0.212 OA
BRANCH  14  15
ATOM     15  C   UNL d   1       3.236   0.163  -0.263  0.00  0.00     0.310 C 
ATOM     16  O   UNL d   1       3.629   0.378   0.870  0.00  0.00    -0.258 OA
BRANCH  15  17
ATOM     17  C   UNL d   1       3.772  -0.900  -1.159  0.00  0.00     0.041 A 
ATOM     18  C   UNL d   1       4.553  -1.914  -0.585  0.00  0.00     0.021 A 
ATOM     19  C   UNL d   1       4.767  -3.102  -1.291  0.00  0.00     0.043 A 
ATOM     20  C   UNL d   1       4.219  -3.254  -2.561  0.00  0.00     0.116 A 
ATOM     21  C   UNL d   1       3.503  -2.230  -3.166  0.00  0.00     0.043 A 
ATOM     22  F   UNL d   1       4.354  -4.421  -3.200  0.00  0.00    -0.206 F 
ATOM     23  C   UNL d   1       3.297  -1.040  -2.474  0.00  0.00     0.021 A 
ENDBRANCH  15  17
ENDBRANCH  14  15
ENDBRANCH   1  14
BRANCH   2  24
ATOM     24  C   UNL d   1       0.665   2.935   0.134  0.00  0.00     0.028 A 
ATOM     25  C   UNL d   1       1.790   3.069   0.959  0.00  0.00     0.020 A 
ATOM     26  C   UNL d   1       2.302   4.333   1.268  0.00  0.00     0.043 A 
ATOM     27  C   UNL d   1       1.654   5.468   0.803  0.00  0.00     0.116 A 
ATOM     28  C   UNL d   1       0.487   5.364   0.056  0.00  0.00     0.043 A 
ATOM     29  F   UNL d   1       2.153   6.678   1.087  0.00  0.00    -0.206 F 
ATOM     30  C   UNL d   1      -0.006   4.099  -0.278  0.00  0.00     0.020 A 
ENDBRANCH   2  24
TORSDOF 5
