REMARK  4 active torsions:
REMARK  status: ('A' for Active; 'I' for Inactive)
REMARK    1  A    between atoms: C_16  and  N_1 
REMARK    2  A    between atoms: N_6  and  C_8 
REMARK    3  A    between atoms: C_21  and  C_16 
REMARK    4  A    between atoms: O_20  and  C_21 
ROOT
ATOM      1  N   UNL d   1       2.284  -0.130   0.138  0.00  0.00    -0.278 N 
ATOM      2  C   UNL d   1       1.586  -1.331   0.028  0.00  0.00     0.261 C 
ATOM      3  C   UNL d   1       1.697   1.131   0.052  0.00  0.00     0.261 C 
ATOM      4  C   UNL d   1       0.107  -1.254   0.047  0.00  0.00     0.047 A 
ATOM      5  C   UNL d   1       0.217   1.184   0.012  0.00  0.00     0.044 A 
ATOM      6  C   UNL d   1      -0.522  -0.004   0.029  0.00  0.00     0.006 A 
ATOM      7  C   UNL d   1      -2.038  -2.367   0.080  0.00  0.00     0.104 A 
ATOM      8  C   UNL d   1      -0.642  -2.439   0.069  0.00  0.00     0.054 A 
ATOM      9  C   UNL d   1      -1.938   0.061   0.019  0.00  0.00    -0.021 A 
ATOM     10  C   UNL d   1      -2.687  -1.126   0.051  0.00  0.00     0.048 A 
ATOM     11  O   UNL d   1       2.109  -2.431  -0.126  0.00  0.00    -0.267 OA
ATOM     12  O   UNL d   1       2.336   2.179  -0.007  0.00  0.00    -0.267 OA
ATOM     13  C   UNL d   1      -0.428   2.426  -0.034  0.00  0.00     0.018 A 
ATOM     14  C   UNL d   1      -2.569   1.314  -0.024  0.00  0.00     0.012 A 
ATOM     15  C   UNL d   1      -1.819   2.490  -0.056  0.00  0.00     0.002 A 
ENDROOT
BRANCH   1  16
ATOM     16  C   UNL d   1       3.747  -0.190   0.206  0.00  0.00     0.161 C 
BRANCH  16  17
ATOM     17  C   UNL d   1       4.317   0.383   1.510  0.00  0.00     0.184 C 
BRANCH  17  18
ATOM     18  O   UNL d   1       3.840  -0.352   2.635  0.00  0.00    -0.399 OA
ATOM     19  H   UNL d   1       4.246   0.045   3.423  0.00  0.00     0.209 HD
ENDBRANCH  17  18
ENDBRANCH  16  17
ENDBRANCH   1  16
BRANCH   7  20
ATOM     20  N   UNL d   1      -2.832  -3.601   0.125  0.00  0.00    -0.116 N 
ATOM     21  O   UNL d   1      -2.224  -4.679   0.147  0.00  0.00    -0.532 OA
ATOM     22  O   UNL d   1      -4.066  -3.488   0.141  0.00  0.00    -0.532 OA
ENDBRANCH   7  20
TORSDOF 4
