REMARK  4 active torsions:
REMARK  status: ('A' for Active; 'I' for Inactive)
REMARK    1  A    between atoms: C_6  and  S_1 
REMARK    2  A    between atoms: C_2  and  C_3 
REMARK    3  A    between atoms: O_10  and  C_2 
REMARK    4  A    between atoms: C_9  and  C_6 
ROOT
ATOM      1  C   UNL d   1      -3.139   2.193   1.703  0.00  0.00     0.040 A 
ATOM      2  C   UNL d   1      -1.739   2.150   1.621  0.00  0.00     0.025 A 
ATOM      3  C   UNL d   1      -1.061   0.920   1.579  0.00  0.00    -0.043 A 
ATOM      4  C   UNL d   1      -3.864   0.996   1.725  0.00  0.00     0.017 A 
ATOM      5  C   UNL d   1      -3.199  -0.230   1.674  0.00  0.00     0.002 A 
ATOM      6  C   UNL d   1      -1.806  -0.268   1.602  0.00  0.00     0.008 A 
ENDROOT
BRANCH   3   7
ATOM      7  C   UNL d   1       0.444   0.880   1.509  0.00  0.00     0.178 C 
BRANCH   7   8
ATOM      8  S   UNL d   1       0.970   0.854  -0.202  0.00  0.00     0.144 S 
ATOM      9  O   UNL d   1       0.530   2.073  -0.854  0.00  0.00    -0.228 OA
ATOM     10  O   UNL d   1       0.674  -0.451  -0.764  0.00  0.00    -0.228 OA
ATOM     11  C   UNL d   1       2.735   0.966  -0.050  0.00  0.00     0.161 C 
ENDBRANCH   7   8
ENDBRANCH   3   7
BRANCH   1  12
ATOM     12  C   UNL d   1      -3.898   3.472   1.785  0.00  0.00     0.292 C 
ATOM     13  O   UNL d   1      -5.117   3.530   1.815  0.00  0.00    -0.259 OA
BRANCH  12  14
ATOM     14  O   UNL d   1      -3.053   4.530   1.861  0.00  0.00    -0.323 OA
ATOM     15  C   UNL d   1      -3.715   5.789   1.995  0.00  0.00     0.213 C 
ENDBRANCH  12  14
ENDBRANCH   1  12
TORSDOF 4
