REMARK  1 active torsions:
REMARK  status: ('A' for Active; 'I' for Inactive)
REMARK    1  A    between atoms: C_6  and  N_1 
ROOT
ATOM      1  N   UNL d   1       2.468   0.047   0.076  0.00  0.00    -0.252 N 
ATOM      2  C   UNL d   1       1.671  -1.091   0.029  0.00  0.00     0.236 C 
ATOM      3  C   UNL d   1       1.679   1.192   0.123  0.00  0.00     0.236 C 
ATOM      4  C   UNL d   1       0.296  -0.608  -0.329  0.00  0.00     0.092 C 
ATOM      5  C   UNL d   1       0.276   0.723   0.391  0.00  0.00     0.092 C 
ATOM      6  C   UNL d   1      -0.897   1.559  -0.081  0.00  0.00     0.015 C 
ATOM      7  O   UNL d   1       1.964  -2.265   0.190  0.00  0.00    -0.272 OA
ATOM      8  O   UNL d   1       1.992   2.366   0.002  0.00  0.00    -0.272 OA
ATOM      9  C   UNL d   1      -0.923  -1.427   0.041  0.00  0.00     0.019 C 
ATOM     10  C   UNL d   1      -2.201   0.788   0.186  0.00  0.00     0.005 C 
ATOM     11  C   UNL d   1      -2.204  -0.660  -0.363  0.00  0.00    -0.018 C 
ATOM     12  C   UNL d   1      -2.402  -0.663  -1.884  0.00  0.00     0.010 C 
ENDROOT
BRANCH   1  13
ATOM     13  C   UNL d   1       3.892   0.039   0.045  0.00  0.00     0.045 A 
ATOM     14  C   UNL d   1       4.600  -1.096  -0.384  0.00  0.00     0.032 A 
ATOM     15  C   UNL d   1       6.000  -1.103  -0.441  0.00  0.00     0.026 A 
ATOM     16  C   UNL d   1       6.713   0.025  -0.056  0.00  0.00     0.034 A 
ATOM     17  C   UNL d   1       6.038   1.159   0.379  0.00  0.00     0.026 A 
ATOM     18 CL   UNL d   1       8.431   0.018  -0.120  0.00  0.00    -0.084 Cl
ATOM     19  C   UNL d   1       4.639   1.165   0.424  0.00  0.00     0.032 A 
ENDBRANCH   1  13
TORSDOF 1
