REMARK  5 active torsions:
REMARK  status: ('A' for Active; 'I' for Inactive)
REMARK    1  A    between atoms: C_3  and  C_1 
REMARK    2  A    between atoms: N_4  and  C_2 
REMARK       I    between atoms: C_5  and  N_15 
REMARK       I    between atoms: N_10  and  C_5 
REMARK    3  A    between atoms: C_7  and  N_6 
REMARK    4  A    between atoms: C_11  and  N_10 
REMARK    5  A    between atoms: N_15  and  C_29 
ROOT
ATOM      1  C   UNL d   1      -3.446   6.047   0.712  0.00  0.00     0.103 A 
ATOM      2  N   UNL d   1      -4.187   6.217   1.829  0.00  0.00    -0.350 N 
ATOM      3  HN  UNL d   1      -4.101   5.570   2.613  1.00  0.00     0.166 HD
ATOM      4  C   UNL d   1      -3.519   6.992  -0.312  0.00  0.00     0.051 A 
ATOM      5  C   UNL d   1      -5.046   7.262   1.887  0.00  0.00     0.119 A 
ATOM      6  C   UNL d   1      -5.240   8.187   0.868  0.00  0.00     0.051 A 
ATOM      7  C   UNL d   1      -4.416   8.064  -0.236  0.00  0.00     0.035 A 
ENDROOT
BRANCH   1   8
ATOM      8  N   UNL d   1      -2.743   4.859   0.556  0.00  0.00    -0.365 N 
ATOM      9  C   UNL d   1      -2.776   3.932   1.709  0.00  0.00     0.139 C 
ATOM     10  C   UNL d   1      -2.395   2.499   1.261  0.00  0.00     0.117 C 
ATOM     11  N   UNL d   1      -1.075   2.514   0.581  0.00  0.00    -0.266 NA
ATOM     12  C   UNL d   1      -1.115   3.398  -0.608  0.00  0.00     0.117 C 
ATOM     13  C   UNL d   1      -1.462   4.843  -0.177  0.00  0.00     0.139 C 
BRANCH  11  14
ATOM     14  C   UNL d   1      -0.594   1.230   0.307  0.00  0.00     0.097 A 
ATOM     15  C   UNL d   1       0.046   0.480   1.294  0.00  0.00     0.086 A 
ATOM     16  C   UNL d   1       0.538  -0.795   0.948  0.00  0.00     0.021 A 
ATOM     17  C   UNL d   1       0.397  -1.278  -0.344  0.00  0.00     0.018 A 
ATOM     18  C   UNL d   1      -0.241  -0.468  -1.256  0.00  0.00     0.089 A 
ATOM     19  N   UNL d   1      -0.727   0.755  -0.957  0.00  0.00    -0.356 N 
ATOM     20  HN  UNL d   1      -1.189   1.316  -1.673  1.00  0.00     0.166 HD
BRANCH  15  21
ATOM     21  C   UNL d   1       0.267   0.961   2.698  0.00  0.00     0.420 C 
ATOM     22  F   UNL d   1      -0.062   2.250   2.983  0.00  0.00    -0.166 F 
ATOM     23  F   UNL d   1      -0.437   0.208   3.598  0.00  0.00    -0.166 F 
ATOM     24  F   UNL d   1       1.574   0.835   3.080  0.00  0.00    -0.166 F 
ENDBRANCH  15  21
ENDBRANCH  11  14
ENDBRANCH   1   8
BRANCH   6  25
ATOM     25  N   UNL d   1      -6.310   9.095   0.978  0.00  0.00    -0.307 N 
ATOM     26  C   UNL d   1      -6.763   9.964   0.036  0.00  0.00     0.325 C 
ATOM     27  N   UNL d   1      -8.057  10.398   0.135  0.00  0.00    -0.306 N 
ATOM     28  O   UNL d   1      -6.146  10.305  -0.977  0.00  0.00    -0.247 OA
ATOM     29  H   UNL d   1      -8.321  10.834  -0.741  0.00  0.00     0.171 HD
ATOM     30  H   UNL d   1      -6.833   9.053   1.837  0.00  0.00     0.170 HD
BRANCH  27  31
ATOM     31  C   UNL d   1      -9.086  10.235   1.086  0.00  0.00     0.075 A 
ATOM     32  C   UNL d   1      -8.917   9.920   2.441  0.00  0.00     0.146 A 
ATOM     33  C   UNL d   1     -10.004   9.776   3.300  0.00  0.00     0.086 A 
ATOM     34  F   UNL d   1      -7.695   9.780   2.973  0.00  0.00    -0.204 F 
ATOM     35  C   UNL d   1     -11.285   9.954   2.804  0.00  0.00     0.119 A 
ATOM     36  C   UNL d   1     -11.492  10.285   1.472  0.00  0.00     0.044 A 
ATOM     37  F   UNL d   1     -12.336   9.808   3.620  0.00  0.00    -0.206 F 
ATOM     38  C   UNL d   1     -10.394  10.438   0.618  0.00  0.00     0.036 A 
ENDBRANCH  27  31
ENDBRANCH   6  25
TORSDOF 5
