REMARK  7 active torsions:
REMARK  status: ('A' for Active; 'I' for Inactive)
REMARK    1  A    between atoms: C_9  and  N_1 
REMARK    2  A    between atoms: S_8  and  C_2 
REMARK    3  A    between atoms: C_7  and  O_10 
REMARK    4  A    between atoms: C_16  and  S_8 
REMARK    5  A    between atoms: O_10  and  C_17 
REMARK    6  A    between atoms: C_19  and  C_16 
REMARK    7  A    between atoms: O_26  and  C_18 
ROOT
ATOM      1  N   UNL d   1       0.520   0.515   0.254  0.00  0.00    -0.219 N 
ATOM      2  C   UNL d   1       0.988  -0.791   0.176  0.00  0.00     0.177 A 
ATOM      3  N   UNL d   1       0.019  -1.618   0.510  0.00  0.00    -0.264 N 
ATOM      4  HN  UNL d   1       0.054  -2.637   0.505  1.00  0.00     0.186 HD
ATOM      5  N   UNL d   1      -1.042  -0.833   0.864  0.00  0.00    -0.006 NA
ATOM      6  N   UNL d   1      -0.739   0.452   0.767  0.00  0.00     0.001 NA
ENDROOT
BRANCH   2   7
ATOM      7  S   UNL d   1       2.635  -1.266  -0.084  0.00  0.00    -0.087 SA
BRANCH   7   8
ATOM      8  C   UNL d   1       2.487  -3.074  -0.027  0.00  0.00     0.121 C 
BRANCH   8   9
ATOM      9  C   UNL d   1       3.844  -3.735  -0.067  0.00  0.00    -0.048 A 
ATOM     10  C   UNL d   1       4.449  -4.174   1.116  0.00  0.00     0.011 A 
ATOM     11  C   UNL d   1       5.690  -4.810   1.079  0.00  0.00     0.037 A 
ATOM     12  C   UNL d   1       6.349  -5.023  -0.135  0.00  0.00     0.078 A 
ATOM     13  C   UNL d   1       5.781  -4.535  -1.308  0.00  0.00     0.037 A 
ATOM     14  C   UNL d   1       4.532  -3.903  -1.278  0.00  0.00     0.011 A 
BRANCH  12  15
ATOM     15  O   UNL d   1       7.524  -5.705  -0.019  0.00  0.00    -0.255 OA
BRANCH  15  16
ATOM     16  C   UNL d   1       8.033  -6.378  -1.159  0.00  0.00     0.530 C 
ATOM     17  F   UNL d   1       7.065  -6.827  -1.987  0.00  0.00    -0.144 F 
ATOM     18  F   UNL d   1       8.865  -5.566  -1.843  0.00  0.00    -0.144 F 
ATOM     19  F   UNL d   1       8.741  -7.451  -0.737  0.00  0.00    -0.144 F 
ENDBRANCH  15  16
ENDBRANCH  12  15
ENDBRANCH   8   9
ENDBRANCH   7   8
ENDBRANCH   2   7
BRANCH   1  20
ATOM     20  C   UNL d   1       1.079   1.769  -0.114  0.00  0.00     0.057 A 
ATOM     21  C   UNL d   1       2.134   1.872  -1.034  0.00  0.00     0.034 A 
ATOM     22  C   UNL d   1       2.627   3.131  -1.391  0.00  0.00     0.039 A 
ATOM     23  C   UNL d   1       2.079   4.279  -0.835  0.00  0.00     0.065 A 
ATOM     24  C   UNL d   1       1.033   4.199   0.074  0.00  0.00     0.039 A 
ATOM     25  C   UNL d   1       0.527   2.944   0.429  0.00  0.00     0.034 A 
BRANCH  23  26
ATOM     26  O   UNL d   1       2.591   5.480  -1.226  0.00  0.00    -0.361 OA
ATOM     27  H   UNL d   1       2.088   6.191  -0.797  0.00  0.00     0.217 HD
ENDBRANCH  23  26
ENDBRANCH   1  20
TORSDOF 7
