REMARK  3 active torsions:
REMARK  status: ('A' for Active; 'I' for Inactive)
REMARK    1  A    between atoms: C_9  and  N_1 
REMARK    2  A    between atoms: S_2  and  C_8 
REMARK    3  A    between atoms: N_14  and  S_2 
ROOT
ATOM      1  N   UNL d   1       2.347  -0.691   0.037  0.00  0.00    -0.220 N 
ATOM      2  C   UNL d   1       1.171  -1.459   0.011  0.00  0.00     0.278 A 
ATOM      3  N   UNL d   1       2.356   0.685   0.187  0.00  0.00    -0.301 N 
ATOM      4  HN  UNL d   1       3.236   1.191   0.292  1.00  0.00     0.186 HD
ATOM      5  C   UNL d   1      -0.100  -0.713   0.021  0.00  0.00     0.045 A 
ATOM      6  C   UNL d   1       1.226   1.315   0.192  0.00  0.00     0.120 A 
ATOM      7  O   UNL d   1       1.097  -2.686  -0.003  0.00  0.00    -0.265 OA
ATOM      8  C   UNL d   1      -0.073   0.669   0.074  0.00  0.00    -0.004 A 
ATOM      9  C   UNL d   1      -1.328  -1.381  -0.041  0.00  0.00     0.018 A 
ATOM     10  C   UNL d   1      -1.253   1.414   0.034  0.00  0.00     0.014 A 
ATOM     11  C   UNL d   1      -2.516  -0.649  -0.073  0.00  0.00     0.001 A 
ATOM     12  C   UNL d   1      -2.477   0.747  -0.045  0.00  0.00     0.001 A 
ENDROOT
BRANCH   1  13
ATOM     13  C   UNL d   1       3.649  -1.274  -0.096  0.00  0.00     0.060 A 
ATOM     14  C   UNL d   1       3.834  -2.497  -0.761  0.00  0.00     0.033 A 
ATOM     15  C   UNL d   1       5.098  -3.079  -0.871  0.00  0.00     0.027 A 
ATOM     16  C   UNL d   1       6.196  -2.447  -0.294  0.00  0.00     0.074 A 
ATOM     17  C   UNL d   1       6.053  -1.208   0.335  0.00  0.00     0.027 A 
ATOM     18  C   UNL d   1       4.784  -0.623   0.421  0.00  0.00     0.033 A 
BRANCH  16  19
ATOM     19  S   UNL d   1       7.775  -3.232  -0.365  0.00  0.00     0.239 S 
ATOM     20  O   UNL d   1       7.814  -4.128  -1.498  0.00  0.00    -0.206 OA
ATOM     21  O   UNL d   1       8.809  -2.258  -0.112  0.00  0.00    -0.206 OA
BRANCH  19  22
ATOM     22  N   UNL d   1       7.713  -4.209   0.998  0.00  0.00    -0.225 NA
ATOM     23  H   UNL d   1       7.734  -5.192   0.732  0.00  0.00     0.136 HD
ATOM     24  H   UNL d   1       8.435  -3.933   1.663  0.00  0.00     0.136 HD
ENDBRANCH  19  22
ENDBRANCH  16  19
ENDBRANCH   1  13
TORSDOF 3
