REMARK  4 active torsions:
REMARK  status: ('A' for Active; 'I' for Inactive)
REMARK    1  A    between atoms: N_2  and  C_1 
REMARK    2  A    between atoms: N_3  and  C_1 
REMARK    3  A    between atoms: C_6  and  N_2 
REMARK    4  A    between atoms: C_4  and  N_3 
ROOT
ATOM      1  C   UNL d   1       1.142  -0.053  -0.066  0.00  0.00     0.177 C 
ATOM      2  S   UNL d   1       2.808  -0.239  -0.146  0.00  0.00    -0.040 SA
ENDROOT
BRANCH   1   3
ATOM      3  N   UNL d   1       0.534   0.438  -1.185  0.00  0.00    -0.319 N 
ATOM      4  H   UNL d   1       1.146   0.506  -1.988  0.00  0.00     0.169 HD
BRANCH   3   5
ATOM      5  C   UNL d   1      -0.811   0.770  -1.379  0.00  0.00     0.106 A 
ATOM      6  N   UNL d   1      -1.619   0.960  -0.312  0.00  0.00    -0.352 N 
ATOM      7  C   UNL d   1      -2.898   1.320  -0.566  0.00  0.00     0.089 A 
ATOM      8  HN  UNL d   1      -1.279   0.838   0.642  1.00  0.00     0.166 HD
ATOM      9  C   UNL d   1      -3.422   1.466  -1.840  0.00  0.00     0.017 A 
ATOM     10  C   UNL d   1      -2.581   1.246  -2.922  0.00  0.00     0.005 A 
ATOM     11  C   UNL d   1      -1.250   0.912  -2.690  0.00  0.00     0.048 A 
ENDBRANCH   3   5
ENDBRANCH   1   3
BRANCH   1  12
ATOM     12  N   UNL d   1       0.326  -0.369   0.988  0.00  0.00    -0.332 N 
ATOM     13  H   UNL d   1      -0.506   0.221   1.062  0.00  0.00     0.168 HD
BRANCH  12  14
ATOM     14  C   UNL d   1       0.476  -1.363   1.983  0.00  0.00     0.056 A 
ATOM     15  C   UNL d   1      -0.236  -1.259   3.190  0.00  0.00     0.062 A 
ATOM     16  C   UNL d   1      -0.137  -2.255   4.169  0.00  0.00     0.050 A 
ATOM     17 CL   UNL d   1      -1.240   0.110   3.526  0.00  0.00    -0.082 Cl
ATOM     18  C   UNL d   1       0.650  -3.377   3.932  0.00  0.00     0.035 A 
ATOM     19  C   UNL d   1       1.331  -3.517   2.725  0.00  0.00     0.026 A 
ATOM     20 CL   UNL d   1       0.767  -4.614   5.120  0.00  0.00    -0.084 Cl
ATOM     21  C   UNL d   1       1.240  -2.515   1.757  0.00  0.00     0.033 A 
ENDBRANCH  12  14
ENDBRANCH   1  12
TORSDOF 4
