REMARK  5 active torsions:
REMARK  status: ('A' for Active; 'I' for Inactive)
REMARK    1  A    between atoms: N_2  and  S_1 
REMARK    2  A    between atoms: C_5  and  S_1 
REMARK    3  A    between atoms: C_3  and  N_2 
REMARK       I    between atoms: C_4  and  N_6 
REMARK    4  A    between atoms: C_10  and  C_4 
REMARK    5  A    between atoms: N_6  and  C_18 
ROOT
ATOM      1  C   UNL d   1       0.552  -0.668  -1.587  0.00  0.00     0.075 A 
ATOM      2  C   UNL d   1       1.056  -1.947  -1.834  0.00  0.00     0.027 A 
ATOM      3  C   UNL d   1      -0.348  -0.087  -2.480  0.00  0.00     0.027 A 
ATOM      4  C   UNL d   1      -0.232  -2.068  -3.896  0.00  0.00     0.035 A 
ATOM      5  C   UNL d   1      -0.736  -0.790  -3.631  0.00  0.00     0.031 A 
ATOM      6  C   UNL d   1       0.682  -2.631  -2.994  0.00  0.00     0.031 A 
ENDROOT
BRANCH   1   7
ATOM      7  S   UNL d   1       0.975   0.155  -0.067  0.00  0.00     0.246 S 
ATOM      8  O   UNL d   1      -0.046   1.149   0.192  0.00  0.00    -0.206 OA
ATOM      9  O   UNL d   1       1.298  -0.859   0.913  0.00  0.00    -0.206 OA
BRANCH   7  10
ATOM     10  N   UNL d   1       2.378   1.024  -0.475  0.00  0.00    -0.178 NA
ATOM     11  H   UNL d   1       2.356   1.908   0.038  0.00  0.00     0.146 HD
BRANCH  10  12
ATOM     12  C   UNL d   1       3.613   0.303  -0.398  0.00  0.00     0.064 A 
ATOM     13  C   UNL d   1       4.080  -0.375  -1.521  0.00  0.00     0.069 A 
ATOM     14  C   UNL d   1       5.228  -1.155  -1.414  0.00  0.00     0.118 A 
ATOM     15  F   UNL d   1       5.671  -1.817  -2.490  0.00  0.00    -0.206 F 
ATOM     16  C   UNL d   1       5.917  -1.269  -0.209  0.00  0.00     0.045 A 
ATOM     17  C   UNL d   1       5.455  -0.586   0.915  0.00  0.00     0.047 A 
ATOM     18  C   UNL d   1       4.305   0.194   0.815  0.00  0.00     0.138 A 
ATOM     19  F   UNL d   1       3.864   0.851   1.898  0.00  0.00    -0.204 F 
ENDBRANCH  10  12
ENDBRANCH   7  10
ENDBRANCH   1   7
BRANCH   4  20
ATOM     20  N   UNL d   1      -0.591  -2.850  -5.018  0.00  0.00    -0.323 N 
ATOM     21  C   UNL d   1      -1.508  -2.527  -6.005  0.00  0.00     0.256 C 
ATOM     22  O   UNL d   1      -2.162  -1.492  -6.079  0.00  0.00    -0.267 OA
ATOM     23  H   UNL d   1      -0.096  -3.726  -5.114  0.00  0.00     0.169 HD
BRANCH  21  24
ATOM     24  C   UNL d   1      -1.664  -3.529  -7.101  0.00  0.00     0.032 A 
ATOM     25  C   UNL d   1      -1.532  -4.911  -6.897  0.00  0.00     0.018 A 
ATOM     26  C   UNL d   1      -1.655  -5.792  -7.980  0.00  0.00     0.025 A 
ATOM     27  C   UNL d   1      -1.920  -5.298  -9.256  0.00  0.00     0.034 A 
ATOM     28  C   UNL d   1      -2.091  -3.930  -9.462  0.00  0.00     0.025 A 
ATOM     29 CL   UNL d   1      -2.035  -6.380 -10.588  0.00  0.00    -0.084 Cl
ATOM     30  C   UNL d   1      -1.970  -3.050  -8.384  0.00  0.00     0.018 A 
ENDBRANCH  21  24
ENDBRANCH   4  20
TORSDOF 5
