REMARK  8 active torsions:
REMARK  status: ('A' for Active; 'I' for Inactive)
REMARK    1  A    between atoms: N_2  and  C_1 
REMARK    2  A    between atoms: N_12  and  C_3 
REMARK    3  A    between atoms: C_9  and  C_4 
REMARK    4  A    between atoms: C_5  and  C_8 
REMARK    5  A    between atoms: C_7  and  N_13 
REMARK    6  A    between atoms: O_22  and  C_9 
REMARK    7  A    between atoms: N_13  and  N_12 
REMARK    8  A    between atoms: C_24  and  O_22 
ROOT
ATOM      1  C   UNL d   1      -3.854  -3.483  -0.361  0.00  0.00     0.136 C 
ATOM      2  C   UNL d   1      -3.066  -2.393  -0.304  0.00  0.00     0.136 C 
ATOM      3  C   UNL d   1      -3.348  -4.801  -0.232  0.00  0.00     0.107 C 
ATOM      4  N   UNL d   1      -2.932  -5.882  -0.128  0.00  0.00    -0.191 NA
ENDROOT
BRANCH   1   5
ATOM      5  C   UNL d   1      -5.317  -3.259  -0.474  0.00  0.00     0.305 C 
ATOM      6  O   UNL d   1      -5.845  -2.159  -0.524  0.00  0.00    -0.258 OA
BRANCH   5   7
ATOM      7  O   UNL d   1      -5.976  -4.446  -0.425  0.00  0.00    -0.317 OA
BRANCH   7   8
ATOM      8  C   UNL d   1      -7.387  -4.385  -0.160  0.00  0.00     0.174 C 
ATOM      9  C   UNL d   1      -7.591  -4.510   1.340  0.00  0.00     0.034 C 
ENDBRANCH   7   8
ENDBRANCH   5   7
ENDBRANCH   1   5
BRANCH   2  10
ATOM     10  N   UNL d   1      -1.702  -2.302  -0.075  0.00  0.00    -0.308 N 
ATOM     11  H   UNL d   1      -1.280  -3.208   0.191  0.00  0.00     0.186 HD
BRANCH  10  12
ATOM     12  N   UNL d   1      -0.934  -1.194   0.261  0.00  0.00    -0.295 N 
ATOM     13  C   UNL d   1      -1.613   0.104   0.414  0.00  0.00     0.178 C 
BRANCH  12  14
ATOM     14  C   UNL d   1       0.440  -1.149  -0.104  0.00  0.00     0.083 A 
ATOM     15  C   UNL d   1       1.376  -2.154   0.226  0.00  0.00     0.131 A 
ATOM     16  C   UNL d   1       2.729  -2.103  -0.176  0.00  0.00     0.054 A 
ATOM     17  C   UNL d   1       3.208  -1.011  -0.906  0.00  0.00     0.050 A 
ATOM     18  C   UNL d   1       2.311   0.015  -1.219  0.00  0.00     0.019 A 
ATOM     19  C   UNL d   1       0.961  -0.059  -0.833  0.00  0.00     0.034 A 
BRANCH  15  20
ATOM     20  N   UNL d   1       1.038  -3.232   1.143  0.00  0.00    -0.113 N 
ATOM     21  O   UNL d   1       0.139  -4.017   0.812  0.00  0.00    -0.532 OA
ATOM     22  O   UNL d   1       1.726  -3.325   2.170  0.00  0.00    -0.532 OA
ENDBRANCH  15  20
BRANCH  17  23
ATOM     23  C   UNL d   1       4.653  -0.919  -1.334  0.00  0.00     0.417 C 
ATOM     24  F   UNL d   1       5.414  -1.961  -0.900  0.00  0.00    -0.166 F 
ATOM     25  F   UNL d   1       4.791  -0.891  -2.687  0.00  0.00    -0.166 F 
ATOM     26  F   UNL d   1       5.259   0.208  -0.870  0.00  0.00    -0.166 F 
ENDBRANCH  17  23
ENDBRANCH  12  14
ENDBRANCH  10  12
ENDBRANCH   2  10
TORSDOF 8
