REMARK  3 active torsions:
REMARK  status: ('A' for Active; 'I' for Inactive)
REMARK    1  A    between atoms: N_5  and  C_1 
REMARK    2  A    between atoms: N_2  and  N_5 
REMARK    3  A    between atoms: C_4  and  C_8 
ROOT
ATOM      1  N   UNL d   1       1.023   2.481   0.174  0.00  0.00    -0.302 N 
ATOM      2  HN  UNL d   1       0.493   1.610   0.171  1.00  0.00     0.186 HD
ATOM      3  C   UNL d   1       0.419   3.636   0.169  0.00  0.00     0.032 C 
ATOM      4  C   UNL d   1       1.145   4.968   0.202  0.00  0.00     0.070 C 
ENDROOT
BRANCH   3   5
ATOM      5  C   UNL d   1      -1.077   3.655   0.141  0.00  0.00    -0.011 A 
ATOM      6  C   UNL d   1      -1.786   2.609   0.746  0.00  0.00     0.039 A 
ATOM      7  C   UNL d   1      -3.186   2.608   0.738  0.00  0.00     0.056 A 
ATOM      8 CL   UNL d   1      -3.994   1.294   1.516  0.00  0.00    -0.083 Cl
ATOM      9  C   UNL d   1      -3.883   3.651   0.117  0.00  0.00     0.055 A 
ATOM     10  C   UNL d   1      -3.176   4.688  -0.498  0.00  0.00     0.026 A 
ATOM     11 CL   UNL d   1      -5.608   3.719   0.067  0.00  0.00    -0.083 Cl
ATOM     12  C   UNL d   1      -1.778   4.688  -0.492  0.00  0.00     0.015 A 
ENDBRANCH   3   5
BRANCH   1  13
ATOM     13  N   UNL d   1       2.390   2.475   0.185  0.00  0.00    -0.276 N 
ATOM     14  H   UNL d   1       2.921   3.338   0.166  0.00  0.00     0.189 HD
BRANCH  13  15
ATOM     15  C   UNL d   1       3.107   1.313   0.190  0.00  0.00     0.184 C 
ATOM     16  S   UNL d   1       4.766   1.305   0.183  0.00  0.00    -0.040 SA
ATOM     17  N   UNL d   1       2.385   0.171   0.205  0.00  0.00    -0.375 N 
ATOM     18  H   UNL d   1       1.380   0.258   0.125  0.00  0.00     0.158 HD
ATOM     19  H   UNL d   1       2.831  -0.734   0.158  0.00  0.00     0.158 HD
ENDBRANCH  13  15
ENDBRANCH   1  13
TORSDOF 3
