REMARK  6 active torsions:
REMARK  status: ('A' for Active; 'I' for Inactive)
REMARK    1  A    between atoms: C_6  and  C_1 
REMARK    2  A    between atoms: C_5  and  C_2 
REMARK       I    between atoms: N_9  and  C_5 
REMARK    3  A    between atoms: C_19  and  N_9 
REMARK    4  A    between atoms: O_18  and  C_12 
REMARK    5  A    between atoms: C_16  and  C_17 
REMARK    6  A    between atoms: C_23  and  O_18 
ROOT
ATOM      1  C   UNL d   1       1.054  -3.881  -0.047  0.00  0.00     0.261 C 
ATOM      2  N   UNL d   1      -0.021  -3.842   0.810  0.00  0.00    -0.322 N 
ATOM      3  O   UNL d   1       0.974  -4.010  -1.266  0.00  0.00    -0.267 OA
ATOM      4  H   UNL d   1       0.167  -4.031   1.789  0.00  0.00     0.169 HD
ENDROOT
BRANCH   2   5
ATOM      5  C   UNL d   1      -1.359  -3.540   0.472  0.00  0.00     0.050 A 
ATOM      6  C   UNL d   1      -2.332  -3.735   1.442  0.00  0.00     0.119 A 
ATOM      7  N   UNL d   1      -3.609  -3.305   1.347  0.00  0.00    -0.344 N 
ATOM      8  C   UNL d   1      -3.954  -2.626   0.228  0.00  0.00     0.148 A 
ATOM      9  HN  UNL d   1      -4.286  -3.486   2.088  1.00  0.00     0.167 HD
ATOM     10  C   UNL d   1      -3.087  -2.478  -0.847  0.00  0.00     0.059 A 
ATOM     11  C   UNL d   1      -1.773  -2.948  -0.723  0.00  0.00     0.035 A 
BRANCH   8  12
ATOM     12  O   UNL d   1      -5.220  -2.054   0.135  0.00  0.00    -0.294 OA
BRANCH  12  13
ATOM     13  C   UNL d   1      -5.723  -1.460   1.276  0.00  0.00     0.077 A 
ATOM     14  C   UNL d   1      -5.914  -2.143   2.474  0.00  0.00     0.038 A 
ATOM     15  C   UNL d   1      -6.358  -1.468   3.618  0.00  0.00     0.011 A 
ATOM     16  C   UNL d   1      -6.690  -0.103   3.589  0.00  0.00    -0.050 A 
ATOM     17  C   UNL d   1      -6.577   0.548   2.345  0.00  0.00     0.011 A 
ATOM     18  C   UNL d   1      -6.105  -0.122   1.202  0.00  0.00     0.038 A 
BRANCH  16  19
ATOM     19  C   UNL d   1      -7.061   0.656   4.879  0.00  0.00    -0.024 C 
ATOM     20  C   UNL d   1      -8.018   1.843   4.630  0.00  0.00     0.019 C 
ATOM     21  C   UNL d   1      -7.750  -0.243   5.934  0.00  0.00     0.019 C 
ATOM     22  C   UNL d   1      -5.757   1.205   5.494  0.00  0.00     0.019 C 
ENDBRANCH  16  19
ENDBRANCH  12  13
ENDBRANCH   8  12
ENDBRANCH   2   5
BRANCH   1  23
ATOM     23  C   UNL d   1       2.348  -3.834   0.610  0.00  0.00     0.093 C 
ATOM     24  C   UNL d   1       3.022  -2.816   1.388  0.00  0.00     0.086 C 
ATOM     25  N   UNL d   1       4.295  -3.209   1.581  0.00  0.00    -0.259 N 
ATOM     26  O   UNL d   1       4.409  -4.495   1.142  0.00  0.00    -0.241 OA
ATOM     27  HN  UNL d   1       5.043  -2.644   1.985  1.00  0.00     0.195 HD
ATOM     28  C   UNL d   1       3.245  -4.883   0.576  0.00  0.00     0.090 C 
ATOM     29  C   UNL d   1       3.208  -6.286   0.119  0.00  0.00     0.080 C 
BRANCH  24  30
ATOM     30  C   UNL d   1       2.578  -1.528   1.986  0.00  0.00     0.037 A 
ATOM     31  C   UNL d   1       3.080  -1.098   3.250  0.00  0.00     0.048 A 
ATOM     32 CL   UNL d   1       4.262  -1.955   4.196  0.00  0.00    -0.083 Cl
ATOM     33  C   UNL d   1       2.629   0.084   3.866  0.00  0.00     0.025 A 
ATOM     34  C   UNL d   1       1.635   0.849   3.279  0.00  0.00     0.003 A 
ATOM     35  C   UNL d   1       1.147   0.473   2.036  0.00  0.00     0.025 A 
ATOM     36  C   UNL d   1       1.647  -0.666   1.373  0.00  0.00     0.048 A 
ATOM     37 CL   UNL d   1       1.133  -0.811  -0.270  0.00  0.00    -0.083 Cl
ENDBRANCH  24  30
ENDBRANCH   1  23
TORSDOF 6
