REMARK  4 active torsions:
REMARK  status: ('A' for Active; 'I' for Inactive)
REMARK    1  A    between atoms: N_3  and  C_1 
REMARK    2  A    between atoms: C_7  and  C_2 
REMARK       I    between atoms: N_13  and  C_7 
REMARK       I    between atoms: C_10  and  N_14 
REMARK    3  A    between atoms: C_17  and  C_10 
REMARK    4  A    between atoms: N_14  and  N_13 
ROOT
ATOM      1  C   UNL d   1      -1.981  -0.748   0.188  0.00  0.00     0.098 A 
ATOM      2  C   UNL d   1      -0.973  -1.688  -0.031  0.00  0.00     0.075 A 
ATOM      3  S   UNL d   1      -1.393   0.839   0.358  0.00  0.00    -0.075 SA
ATOM      4  C   UNL d   1       0.332  -1.026   0.024  0.00  0.00    -0.026 A 
ATOM      5  C   UNL d   1       0.203   0.349   0.126  0.00  0.00    -0.008 A 
ATOM      6  C   UNL d   1       1.700  -1.640  -0.125  0.00  0.00     0.041 C 
ATOM      7  C   UNL d   1       1.310   1.359   0.091  0.00  0.00     0.047 C 
ATOM      8  C   UNL d   1       2.804  -0.673   0.346  0.00  0.00     0.005 C 
ATOM      9  C   UNL d   1       2.642   0.709  -0.298  0.00  0.00     0.005 C 
ENDROOT
BRANCH   2  10
ATOM     10  C   UNL d   1      -1.206  -3.101  -0.405  0.00  0.00     0.273 C 
ATOM     11  N   UNL d   1      -0.437  -4.018   0.305  0.00  0.00    -0.263 N 
ATOM     12  H   UNL d   1       0.004  -3.737   1.173  0.00  0.00     0.190 HD
ATOM     13  O   UNL d   1      -1.967  -3.413  -1.317  0.00  0.00    -0.266 OA
BRANCH  11  14
ATOM     14  N   UNL d   1      -0.532  -5.407   0.057  0.00  0.00    -0.263 N 
ATOM     15  C   UNL d   1      -1.643  -6.123   0.471  0.00  0.00     0.270 C 
ATOM     16  O   UNL d   1      -2.581  -5.665   1.111  0.00  0.00    -0.266 OA
ATOM     17  H   UNL d   1       0.120  -5.804  -0.612  0.00  0.00     0.190 HD
BRANCH  15  18
ATOM     18  C   UNL d   1      -1.636  -7.566   0.118  0.00  0.00     0.033 A 
ATOM     19  C   UNL d   1      -0.543  -8.377   0.454  0.00  0.00     0.017 A 
ATOM     20  C   UNL d   1      -0.578  -9.747   0.178  0.00  0.00     0.001 A 
ATOM     21  C   UNL d   1      -1.696 -10.307  -0.439  0.00  0.00     0.000 A 
ATOM     22  C   UNL d   1      -2.789  -9.504  -0.770  0.00  0.00     0.001 A 
ATOM     23  C   UNL d   1      -2.765  -8.138  -0.482  0.00  0.00     0.017 A 
ENDBRANCH  15  18
ENDBRANCH  11  14
ENDBRANCH   2  10
BRANCH   1  24
ATOM     24  N   UNL d   1      -3.370  -0.930   0.379  0.00  0.00    -0.313 N 
ATOM     25  C   UNL d   1      -4.429  -0.117  -0.076  0.00  0.00     0.013 C 
ATOM     26  C   UNL d   1      -5.623  -0.715   0.261  0.00  0.00     0.027 C 
ATOM     27  C   UNL d   1      -4.285   1.150  -0.857  0.00  0.00     0.068 C 
ATOM     28  C   UNL d   1      -5.337  -1.845   1.034  0.00  0.00     0.027 C 
ATOM     29  C   UNL d   1      -3.963  -1.901   1.194  0.00  0.00     0.013 C 
ATOM     30  C   UNL d   1      -3.250  -2.741   2.198  0.00  0.00     0.068 C 
ENDBRANCH   1  24
TORSDOF 4
