REMARK  0 active torsions:
REMARK  status: ('A' for Active; 'I' for Inactive)
ROOT
ATOM      1  C   UNL d   1      -0.687  -1.246   0.040  0.00  0.00     0.079 A 
ATOM      2  C   UNL d   1       0.691   1.244  -0.040  0.00  0.00     0.079 A 
ATOM      3  C   UNL d   1       1.435   0.134  -0.018  0.00  0.00     0.064 A 
ATOM      4  C   UNL d   1      -1.431  -0.136   0.019  0.00  0.00     0.064 A 
ATOM      5  C   UNL d   1       0.787  -1.205   0.021  0.00  0.00     0.190 A 
ATOM      6  C   UNL d   1      -0.783   1.203  -0.021  0.00  0.00     0.190 A 
ATOM      7  O   UNL d   1       1.415  -2.257   0.037  0.00  0.00    -0.287 OA
ATOM      8  O   UNL d   1      -1.411   2.255  -0.039  0.00  0.00    -0.287 OA
ATOM      9 BR   UNL d   1      -3.297  -0.216   0.037  0.00  0.00    -0.047 Br
ATOM     10 BR   UNL d   1       3.301   0.215  -0.037  0.00  0.00    -0.047 Br
ENDROOT
TORSDOF 0
