REMARK  5 active torsions:
REMARK  status: ('A' for Active; 'I' for Inactive)
REMARK    1  A    between atoms: C_9  and  N_1 
REMARK    2  A    between atoms: N_5  and  C_4 
REMARK    3  A    between atoms: C_8  and  N_11 
REMARK    4  A    between atoms: N_14  and  C_9 
REMARK    5  A    between atoms: C_10  and  C_13 
ROOT
ATOM      1  N   UNL d   1       3.756   3.993   0.846  0.00  0.00    -0.376 N 
ATOM      2  N   UNL d   1       3.256   1.352  -0.229  0.00  0.00     0.109 N 
ATOM      3  C   UNL d   1       3.995   3.712  -0.591  0.00  0.00     0.153 C 
ATOM      4  C   UNL d   1       2.739   3.097   1.442  0.00  0.00     0.153 C 
ATOM      5  C   UNL d   1       4.317   2.205  -0.796  0.00  0.00     0.294 C 
ATOM      6  C   UNL d   1       3.122   1.619   1.210  0.00  0.00     0.294 C 
ENDROOT
BRANCH   1   7
ATOM      7  C   UNL d   1       3.896   5.282   1.350  0.00  0.00     0.063 A 
ATOM      8  C   UNL d   1       5.096   6.022   1.321  0.00  0.00     0.130 A 
ATOM      9  C   UNL d   1       5.260   7.253   1.989  0.00  0.00     0.054 A 
ATOM     10  C   UNL d   1       4.205   7.798   2.722  0.00  0.00     0.050 A 
ATOM     11  C   UNL d   1       2.978   7.129   2.710  0.00  0.00     0.018 A 
ATOM     12  C   UNL d   1       2.833   5.909   2.033  0.00  0.00     0.032 A 
BRANCH   8  13
ATOM     13  N   UNL d   1       6.287   5.505   0.671  0.00  0.00    -0.113 N 
ATOM     14  O   UNL d   1       6.805   4.479   1.133  0.00  0.00    -0.532 OA
ATOM     15  O   UNL d   1       6.729   6.167  -0.277  0.00  0.00    -0.532 OA
ENDBRANCH   8  13
BRANCH  10  16
ATOM     16  C   UNL d   1       4.379   9.053   3.546  0.00  0.00     0.417 C 
ATOM     17  F   UNL d   1       5.641   9.559   3.498  0.00  0.00    -0.166 F 
ATOM     18  F   UNL d   1       3.553  10.058   3.152  0.00  0.00    -0.166 F 
ATOM     19  F   UNL d   1       4.114   8.842   4.866  0.00  0.00    -0.166 F 
ENDBRANCH  10  16
ENDBRANCH   1   7
BRANCH   2  20
ATOM     20  C   UNL d   1       3.333  -0.065  -0.569  0.00  0.00     0.408 C 
BRANCH  20  21
ATOM     21  N   UNL d   1       4.628  -0.653  -0.357  0.00  0.00    -0.252 N 
ATOM     22  C   UNL d   1       5.040  -1.228   0.812  0.00  0.00     0.263 A 
ATOM     23  C   UNL d   1       6.362  -1.797   0.550  0.00  0.00     0.048 A 
ATOM     24  O   UNL d   1       4.454  -1.331   1.874  0.00  0.00    -0.267 OA
ATOM     25  C   UNL d   1       7.255  -2.430   1.391  0.00  0.00     0.018 A 
ATOM     26  C   UNL d   1       6.632  -1.618  -0.794  0.00  0.00     0.048 A 
ATOM     27  C   UNL d   1       8.454  -2.883   0.828  0.00  0.00     0.001 A 
ATOM     28  C   UNL d   1       8.720  -2.710  -0.546  0.00  0.00     0.001 A 
ATOM     29  C   UNL d   1       7.797  -2.073  -1.380  0.00  0.00     0.018 A 
ATOM     30  C   UNL d   1       5.497  -0.914  -1.381  0.00  0.00     0.263 A 
ATOM     31  O   UNL d   1       5.392  -0.670  -2.568  0.00  0.00    -0.267 OA
ENDBRANCH  20  21
ENDBRANCH   2  20
TORSDOF 5
