REMARK  7 active torsions:
REMARK  status: ('A' for Active; 'I' for Inactive)
REMARK    1  A    between atoms: C_2  and  N_1 
REMARK    2  A    between atoms: N_7  and  C_2 
REMARK    3  A    between atoms: C_13  and  C_4 
REMARK    4  A    between atoms: C_6  and  O_15 
REMARK    5  A    between atoms: C_16  and  N_7 
REMARK    6  A    between atoms: O_15  and  C_22 
REMARK    7  A    between atoms: O_30  and  C_23 
ROOT
ATOM      1  N   UNL d   1      -2.544   0.273  -0.272  0.00  0.00    -0.345 N 
ATOM      2  C   UNL d   1      -0.166   0.781   0.138  0.00  0.00    -0.017 A 
ATOM      3  C   UNL d   1      -1.589   1.264   0.291  0.00  0.00     0.154 C 
ATOM      4  C   UNL d   1       0.149  -0.534  -0.152  0.00  0.00    -0.007 A 
ATOM      5  C   UNL d   1      -2.250  -1.149   0.049  0.00  0.00     0.131 C 
ATOM      6  S   UNL d   1       1.821  -0.818  -0.246  0.00  0.00    -0.106 SA
ATOM      7  C   UNL d   1      -0.852  -1.608  -0.399  0.00  0.00     0.067 C 
ATOM      8  C   UNL d   1       1.023   1.575   0.236  0.00  0.00     0.018 A 
ATOM      9  C   UNL d   1       2.167   0.828   0.059  0.00  0.00     0.051 A 
ENDROOT
BRANCH   1  10
ATOM     10  C   UNL d   1      -3.451   0.620  -1.247  0.00  0.00     0.175 C 
ATOM     11  S   UNL d   1      -3.234   1.856  -2.372  0.00  0.00    -0.041 SA
BRANCH  10  12
ATOM     12  N   UNL d   1      -4.606  -0.098  -1.422  0.00  0.00    -0.333 N 
ATOM     13  H   UNL d   1      -5.032   0.090  -2.321  0.00  0.00     0.168 HD
BRANCH  12  14
ATOM     14  C   UNL d   1      -5.375  -0.889  -0.545  0.00  0.00     0.034 A 
ATOM     15  C   UNL d   1      -5.193  -0.930   0.837  0.00  0.00     0.032 A 
ATOM     16  C   UNL d   1      -5.928  -1.827   1.633  0.00  0.00     0.039 A 
ATOM     17  C   UNL d   1      -6.915  -2.624   1.059  0.00  0.00     0.078 A 
ATOM     18  C   UNL d   1      -7.144  -2.524  -0.318  0.00  0.00     0.039 A 
ATOM     19  C   UNL d   1      -6.386  -1.660  -1.112  0.00  0.00     0.032 A 
BRANCH  17  20
ATOM     20  O   UNL d   1      -7.738  -3.502   1.697  0.00  0.00    -0.255 OA
BRANCH  20  21
ATOM     21  C   UNL d   1      -7.583  -3.702   3.091  0.00  0.00     0.530 C 
ATOM     22  F   UNL d   1      -7.540  -2.534   3.771  0.00  0.00    -0.144 F 
ATOM     23  F   UNL d   1      -8.648  -4.401   3.543  0.00  0.00    -0.144 F 
ATOM     24  F   UNL d   1      -6.470  -4.416   3.350  0.00  0.00    -0.144 F 
ENDBRANCH  20  21
ENDBRANCH  17  20
ENDBRANCH  12  14
ENDBRANCH  10  12
ENDBRANCH   1  10
BRANCH   3  25
ATOM     25  C   UNL d   1      -1.854   1.535   1.772  0.00  0.00    -0.031 A 
ATOM     26  C   UNL d   1      -2.737   2.575   2.114  0.00  0.00     0.012 A 
ATOM     27  C   UNL d   1      -3.022   2.883   3.453  0.00  0.00     0.037 A 
ATOM     28  C   UNL d   1      -2.436   2.147   4.480  0.00  0.00     0.068 A 
ATOM     29  C   UNL d   1      -1.580   1.096   4.156  0.00  0.00     0.037 A 
ATOM     30  C   UNL d   1      -1.296   0.787   2.822  0.00  0.00     0.012 A 
BRANCH  28  31
ATOM     31  O   UNL d   1      -2.612   2.344   5.821  0.00  0.00    -0.356 OA
ATOM     32  C   UNL d   1      -3.451   3.424   6.209  0.00  0.00     0.210 C 
ENDBRANCH  28  31
ENDBRANCH   3  25
TORSDOF 7
