REMARK  2 active torsions:
REMARK  status: ('A' for Active; 'I' for Inactive)
REMARK    1  A    between atoms: C_6  and  N_1 
REMARK    2  A    between atoms: C_10  and  C_4 
ROOT
ATOM      1  N   UNL d   1      -0.015   0.908   0.011  0.00  0.00    -0.244 N 
ATOM      2  C   UNL d   1      -1.127   0.114   0.138  0.00  0.00     0.266 A 
ATOM      3  C   UNL d   1       1.093   0.120  -0.107  0.00  0.00     0.256 A 
ATOM      4  C   UNL d   1      -0.672  -1.297   0.063  0.00  0.00     0.048 A 
ATOM      5  C   UNL d   1       0.656  -1.274  -0.057  0.00  0.00     0.093 A 
ATOM      6  O   UNL d   1      -2.302   0.432   0.239  0.00  0.00    -0.267 OA
ATOM      7  O   UNL d   1       2.274   0.400  -0.213  0.00  0.00    -0.268 OA
ENDROOT
BRANCH   1   8
ATOM      8  C   UNL d   1      -0.017   2.329  -0.014  0.00  0.00     0.047 A 
ATOM      9  C   UNL d   1      -1.089   3.068   0.510  0.00  0.00     0.054 A 
ATOM     10  C   UNL d   1      -1.066   4.465   0.500  0.00  0.00     0.036 A 
ATOM     11 CL   UNL d   1      -2.368   5.344   1.205  0.00  0.00    -0.084 Cl
ATOM     12  C   UNL d   1       0.006   5.154  -0.055  0.00  0.00     0.024 A 
ATOM     13  C   UNL d   1       1.070   4.440  -0.596  0.00  0.00     0.004 A 
ATOM     14  C   UNL d   1       1.062   3.043  -0.564  0.00  0.00     0.030 A 
ENDBRANCH   1   8
BRANCH   4  15
ATOM     15  C   UNL d   1      -1.518  -2.490   0.056  0.00  0.00    -0.020 A 
ATOM     16  C   UNL d   1      -2.716  -2.538   0.780  0.00  0.00     0.012 A 
ATOM     17  C   UNL d   1      -3.549  -3.656   0.704  0.00  0.00     0.001 A 
ATOM     18  C   UNL d   1      -3.193  -4.740  -0.096  0.00  0.00     0.000 A 
ATOM     19  C   UNL d   1      -2.001  -4.712  -0.812  0.00  0.00     0.001 A 
ATOM     20  C   UNL d   1      -1.168  -3.595  -0.737  0.00  0.00     0.012 A 
ENDBRANCH   4  15
TORSDOF 2
