REMARK  8 active torsions:
REMARK  status: ('A' for Active; 'I' for Inactive)
REMARK    1  A    between atoms: C_2  and  C_1 
REMARK    2  A    between atoms: C_10  and  C_2 
REMARK    3  A    between atoms: N_11  and  N_5 
REMARK    4  A    between atoms: N_16  and  C_7 
REMARK    5  A    between atoms: O_20  and  C_10 
REMARK    6  A    between atoms: C_19  and  N_11 
REMARK    7  A    between atoms: C_12  and  C_13 
REMARK    8  A    between atoms: C_24  and  O_20 
ROOT
ATOM      1  C   UNL d   1      -2.005  -2.482  -0.003  0.00  0.00     0.151 C 
ATOM      2  N   UNL d   1      -3.310  -2.391  -0.029  0.00  0.00    -0.293 N 
ATOM      3  HN  UNL d   1      -3.890  -3.225   0.065  1.00  0.00     0.187 HD
ENDROOT
BRANCH   1   4
ATOM      4  C   UNL d   1      -1.450  -3.834   0.103  0.00  0.00     0.075 A 
ATOM      5  N   UNL d   1      -0.079  -4.064   0.185  0.00  0.00    -0.335 N 
ATOM      6  C   UNL d   1       0.174  -5.348   0.176  0.00  0.00     0.142 A 
ATOM      7  HN  UNL d   1       0.630  -3.333   0.245  1.00  0.00     0.168 HD
ATOM      8  S   UNL d   1      -1.201  -6.370   0.128  0.00  0.00    -0.064 SA
ATOM      9  C   UNL d   1      -2.211  -4.990   0.088  0.00  0.00     0.085 A 
BRANCH   6  10
ATOM     10  N   UNL d   1       1.418  -5.850   0.173  0.00  0.00    -0.380 N 
ATOM     11  H   UNL d   1       2.151  -5.201  -0.091  0.00  0.00     0.158 HD
ATOM     12  H   UNL d   1       1.545  -6.786  -0.193  0.00  0.00     0.158 HD
ENDBRANCH   6  10
ENDBRANCH   1   4
BRANCH   1  13
ATOM     13  C   UNL d   1      -1.103  -1.256  -0.127  0.00  0.00     0.313 C 
ATOM     14  O   UNL d   1      -1.390  -0.184   0.383  0.00  0.00    -0.257 OA
BRANCH  13  15
ATOM     15  O   UNL d   1      -0.091  -1.511  -0.981  0.00  0.00    -0.317 OA
BRANCH  15  16
ATOM     16  C   UNL d   1       0.657  -0.383  -1.444  0.00  0.00     0.175 C 
ATOM     17  C   UNL d   1       0.103  -0.001  -2.803  0.00  0.00     0.034 C 
ENDBRANCH  15  16
ENDBRANCH  13  15
ENDBRANCH   1  13
BRANCH   2  18
ATOM     18  N   UNL d   1      -3.878  -1.161  -0.184  0.00  0.00    -0.300 N 
ATOM     19  H   UNL d   1      -3.376  -0.324   0.134  0.00  0.00     0.187 HD
BRANCH  18  20
ATOM     20  C   UNL d   1      -5.281  -1.062  -0.081  0.00  0.00     0.048 A 
ATOM     21  C   UNL d   1      -6.102  -2.192   0.032  0.00  0.00     0.032 A 
ATOM     22  C   UNL d   1      -7.493  -2.074   0.069  0.00  0.00     0.017 A 
ATOM     23  C   UNL d   1      -8.098  -0.818  -0.031  0.00  0.00     0.009 A 
ATOM     24  C   UNL d   1      -7.296   0.314  -0.202  0.00  0.00     0.017 A 
ATOM     25  C   UNL d   1      -5.899   0.187  -0.229  0.00  0.00     0.032 A 
BRANCH  23  26
ATOM     26  C   UNL d   1      -9.584  -0.756   0.026  0.00  0.00     0.155 C 
ATOM     27  O   UNL d   1     -10.244  -1.743  -0.296  0.00  0.00    -0.293 OA
ATOM     28  C   UNL d   1     -10.265   0.495   0.518  0.00  0.00     0.096 C 
ENDBRANCH  23  26
ENDBRANCH  18  20
ENDBRANCH   2  18
TORSDOF 8
