REMARK  6 active torsions:
REMARK  status: ('A' for Active; 'I' for Inactive)
REMARK    1  A    between atoms: C_17  and  C_3 
REMARK    2  A    between atoms: C_4  and  C_9 
REMARK    3  A    between atoms: C_5  and  C_10 
REMARK    4  A    between atoms: C_13  and  C_8 
REMARK    5  A    between atoms: N_14  and  C_17 
REMARK    6  A    between atoms: C_16  and  C_15 
ROOT
ATOM      1  C   UNL d   1       0.464   2.580  -0.084  0.00  0.00     0.051 C 
ATOM      2  C   UNL d   1      -0.390   3.604   0.074  0.00  0.00     0.015 C 
ENDROOT
BRANCH   1   3
ATOM      3  C   UNL d   1       0.113   1.201  -0.121  0.00  0.00     0.127 A 
ATOM      4  N   UNL d   1      -1.109   0.660  -0.018  0.00  0.00    -0.243 N 
ATOM      5  O   UNL d   1      -0.854  -0.714  -0.026  0.00  0.00    -0.221 OA
ATOM      6  HN  UNL d   1      -2.009   1.136   0.049  1.00  0.00     0.196 HD
ATOM      7  C   UNL d   1       0.499  -0.855  -0.131  0.00  0.00     0.177 A 
ATOM      8  N   UNL d   1       1.134   0.294  -0.229  0.00  0.00    -0.322 N 
ATOM      9  HN  UNL d   1       2.132   0.465  -0.354  1.00  0.00     0.169 HD
BRANCH   7  10
ATOM     10  C   UNL d   1       1.051  -2.238   0.020  0.00  0.00     0.358 C 
BRANCH  10  11
ATOM     11  N   UNL d   1       1.940  -2.423   1.200  0.00  0.00     0.096 N 
ATOM     12  C   UNL d   1       1.189  -2.257   2.452  0.00  0.00     0.273 C 
ATOM     13  C   UNL d   1       1.876  -1.618   3.659  0.00  0.00     0.030 C 
ATOM     14  C   UNL d   1       3.138  -2.339   4.110  0.00  0.00     0.002 C 
ATOM     15  C   UNL d   1       4.370  -1.898   3.335  0.00  0.00     0.002 C 
ATOM     16  C   UNL d   1       4.347  -2.257   1.855  0.00  0.00     0.030 C 
ATOM     17  C   UNL d   1       3.184  -1.658   1.061  0.00  0.00     0.273 C 
ENDBRANCH  10  11
ENDBRANCH   7  10
ENDBRANCH   1   3
BRANCH   2  18
ATOM     18  C   UNL d   1       0.101   4.980   0.102  0.00  0.00    -0.035 A 
ATOM     19  C   UNL d   1       0.233   5.697  -1.090  0.00  0.00     0.027 A 
ATOM     20  C   UNL d   1       0.767   6.995  -1.091  0.00  0.00     0.049 A 
ATOM     21  C   UNL d   1       1.160   7.569   0.129  0.00  0.00     0.032 A 
ATOM     22  C   UNL d   1       1.045   6.857   1.334  0.00  0.00     0.049 A 
ATOM     23  C   UNL d   1       0.505   5.561   1.309  0.00  0.00     0.027 A 
BRANCH  20  24
ATOM     24  C   UNL d   1       0.943   7.733  -2.397  0.00  0.00     0.417 C 
ATOM     25  F   UNL d   1       1.497   8.968  -2.250  0.00  0.00    -0.166 F 
ATOM     26  F   UNL d   1       1.752   7.062  -3.263  0.00  0.00    -0.166 F 
ATOM     27  F   UNL d   1      -0.234   7.925  -3.052  0.00  0.00    -0.166 F 
ENDBRANCH  20  24
BRANCH  22  28
ATOM     28  C   UNL d   1       1.522   7.450   2.639  0.00  0.00     0.417 C 
ATOM     29  F   UNL d   1       2.076   8.687   2.502  0.00  0.00    -0.166 F 
ATOM     30  F   UNL d   1       0.520   7.587   3.550  0.00  0.00    -0.166 F 
ATOM     31  F   UNL d   1       2.473   6.681   3.238  0.00  0.00    -0.166 F 
ENDBRANCH  22  28
ENDBRANCH   2  18
TORSDOF 6
