REMARK  2 active torsions:
REMARK  status: ('A' for Active; 'I' for Inactive)
REMARK    1  A    between atoms: C_5  and  C_1 
REMARK    2  A    between atoms: C_10  and  C_5 
ROOT
ATOM      1  N   UNL d   1       2.446   4.595   0.988  0.00  0.00    -0.197 NA
ATOM      2  C   UNL d   1       1.643   4.197   0.251  0.00  0.00     0.067 C 
ATOM      3  C   UNL d   1       0.676   3.678  -0.710  0.00  0.00     0.208 C 
ENDROOT
BRANCH   3   4
ATOM      4  C   UNL d   1      -0.262   2.700  -0.044  0.00  0.00     0.179 C 
ATOM      5  O   UNL d   1      -1.338   3.106   0.402  0.00  0.00    -0.291 OA
BRANCH   4   6
ATOM      6  C   UNL d   1       0.153   1.301  -0.002  0.00  0.00     0.051 A 
ATOM      7  S   UNL d   1      -1.054   0.083   0.071  0.00  0.00    -0.098 SA
ATOM      8  C   UNL d   1       0.106  -1.169   0.025  0.00  0.00     0.050 A 
ATOM      9  C   UNL d   1       1.391  -0.680  -0.009  0.00  0.00     0.009 A 
ATOM     10  C   UNL d   1       1.421   0.747  -0.027  0.00  0.00     0.023 A 
ENDBRANCH   4   6
ENDBRANCH   3   4
TORSDOF 2
