REMARK  6 active torsions:
REMARK  status: ('A' for Active; 'I' for Inactive)
REMARK    1  A    between atoms: C_8  and  C_1 
REMARK    2  A    between atoms: O_7  and  C_2 
REMARK    3  A    between atoms: O_16  and  C_5 
REMARK    4  A    between atoms: C_6  and  O_7 
REMARK    5  A    between atoms: C_9  and  C_6 
REMARK    6  A    between atoms: O_17  and  C_8 
ROOT
ATOM      1  C   UNL d   1       0.271   1.324  -0.286  0.00  0.00     0.116 A 
ATOM      2  C   UNL d   1       1.544   0.812  -0.100  0.00  0.00     0.106 A 
ATOM      3  C   UNL d   1       1.546  -0.612  -0.031  0.00  0.00     0.083 A 
ATOM      4  S   UNL d   1      -0.894   0.065  -0.329  0.00  0.00    -0.057 SA
ATOM      5  C   UNL d   1       0.282  -1.162  -0.120  0.00  0.00     0.112 A 
ENDROOT
BRANCH   2   6
ATOM      6  O   UNL d   1       2.607   1.652  -0.049  0.00  0.00    -0.272 OA
BRANCH   6   7
ATOM      7  C   UNL d   1       3.799   1.284   0.502  0.00  0.00     0.322 C 
ATOM      8  O   UNL d   1       4.081   0.188   0.970  0.00  0.00    -0.257 OA
BRANCH   7   9
ATOM      9  C   UNL d   1       4.706   2.410   0.475  0.00  0.00     0.150 A 
ATOM     10  O   UNL d   1       4.290   3.632   0.012  0.00  0.00    -0.317 OA
ATOM     11  C   UNL d   1       5.337   4.488   0.133  0.00  0.00     0.143 A 
ATOM     12  C   UNL d   1       6.429   3.843   0.661  0.00  0.00     0.027 A 
ATOM     13  C   UNL d   1       6.025   2.505   0.883  0.00  0.00     0.045 A 
ENDBRANCH   7   9
ENDBRANCH   6   7
ENDBRANCH   2   6
BRANCH   1  14
ATOM     14  C   UNL d   1      -0.178   2.701  -0.431  0.00  0.00     0.302 C 
ATOM     15  O   UNL d   1      -1.326   3.079  -0.628  0.00  0.00    -0.259 OA
BRANCH  14  16
ATOM     16  O   UNL d   1       0.886   3.545  -0.312  0.00  0.00    -0.322 OA
ATOM     17  C   UNL d   1       0.622   4.937  -0.474  0.00  0.00     0.213 C 
ENDBRANCH  14  16
ENDBRANCH   1  14
BRANCH   5  18
ATOM     18  O   UNL d   1      -0.133  -2.436  -0.078  0.00  0.00    -0.349 OA
ATOM     19  C   UNL d   1       0.874  -3.420   0.130  0.00  0.00     0.211 C 
ENDBRANCH   5  18
TORSDOF 6
