REMARK  3 active torsions:
REMARK  status: ('A' for Active; 'I' for Inactive)
REMARK    1  A    between atoms: N_5  and  C_2 
REMARK    2  A    between atoms: C_10  and  C_16 
REMARK    3  A    between atoms: O_20  and  C_10 
ROOT
ATOM      1  C   UNL d   1       2.002  -0.340  -0.685  0.00  0.00     0.070 A 
ATOM      2  C   UNL d   1       1.483  -1.411   0.068  0.00  0.00     0.103 A 
ATOM      3  S   UNL d   1       3.019  -0.350  -2.078  0.00  0.00    -0.096 SA
ATOM      4  C   UNL d   1       1.740   0.970  -0.286  0.00  0.00     0.060 A 
ATOM      5  C   UNL d   1       2.405   1.950  -1.101  0.00  0.00    -0.027 A 
ATOM      6  C   UNL d   1       3.099   1.351  -2.132  0.00  0.00     0.059 A 
ATOM      7  N   UNL d   1       0.721  -1.093   1.144  0.00  0.00    -0.342 N 
ATOM      8  HN  UNL d   1       0.323  -1.828   1.729  1.00  0.00     0.167 HD
ATOM      9  N   UNL d   1       0.966   1.264   0.787  0.00  0.00    -0.351 N 
ATOM     10  HN  UNL d   1       0.760   2.220   1.077  1.00  0.00     0.166 HD
ATOM     11  C   UNL d   1       0.496   0.196   1.430  0.00  0.00     0.182 A 
ATOM     12  C   UNL d   1       2.375   3.421  -0.859  0.00  0.00     0.051 C 
ENDROOT
BRANCH   2  13
ATOM     13  N   UNL d   1       1.821  -2.756  -0.176  0.00  0.00    -0.268 NA
ATOM     14  C   UNL d   1       1.698  -3.590   1.024  0.00  0.00     0.098 C 
ATOM     15  C   UNL d   1       2.394  -4.924   0.754  0.00  0.00     0.030 C 
ATOM     16  C   UNL d   1       1.825  -5.624  -0.486  0.00  0.00     0.086 C 
ATOM     17  C   UNL d   1       1.790  -4.662  -1.687  0.00  0.00     0.030 C 
ATOM     18  C   UNL d   1       1.130  -3.320  -1.343  0.00  0.00     0.098 C 
BRANCH  16  19
ATOM     19  C   UNL d   1       0.451  -6.216  -0.217  0.00  0.00     0.143 C 
ATOM     20  O   UNL d   1      -0.569  -5.923  -0.825  0.00  0.00    -0.650 OA
BRANCH  19  21
ATOM     21  O   UNL d   1       0.450  -7.161   0.750  0.00  0.00    -0.776 OA
ATOM     22  H   UNL d   1       1.327  -7.362   1.125  0.00  0.00     0.167 HD
ENDBRANCH  19  21
ENDBRANCH  16  19
ENDBRANCH   2  13
TORSDOF 3
