REMARK  5 active torsions:
REMARK  status: ('A' for Active; 'I' for Inactive)
REMARK    1  A    between atoms: C_9  and  C_3 
REMARK    2  A    between atoms: C_6  and  C_5 
REMARK    3  A    between atoms: C_8  and  C_6 
REMARK    4  A    between atoms: O_16  and  C_8 
REMARK    5  A    between atoms: C_18  and  O_16 
ROOT
ATOM      1  N   UNL d   1       1.340  -0.622   0.036  0.00  0.00    -0.352 N 
ATOM      2  HN  UNL d   1       2.208  -1.158   0.054  1.00  0.00     0.166 HD
ATOM      3  C   UNL d   1       0.132  -1.153   0.010  0.00  0.00     0.084 A 
ATOM      4  S   UNL d   1      -1.153  -0.003  -0.011  0.00  0.00    -0.081 SA
ATOM      5  C   UNL d   1       1.269   0.765   0.035  0.00  0.00     0.025 A 
ATOM      6  C   UNL d   1      -0.016   1.272   0.019  0.00  0.00     0.077 A 
ENDROOT
BRANCH   3   7
ATOM      7  C   UNL d   1      -0.136  -2.603  -0.048  0.00  0.00    -0.002 A 
ATOM      8  C   UNL d   1      -1.301  -3.182   0.473  0.00  0.00     0.016 A 
ATOM      9  C   UNL d   1      -1.516  -4.562   0.389  0.00  0.00     0.024 A 
ATOM     10  C   UNL d   1      -0.563  -5.378  -0.215  0.00  0.00     0.034 A 
ATOM     11  C   UNL d   1       0.607  -4.827  -0.729  0.00  0.00     0.024 A 
ATOM     12 CL   UNL d   1      -0.833  -7.073  -0.324  0.00  0.00    -0.084 Cl
ATOM     13  C   UNL d   1       0.821  -3.447  -0.640  0.00  0.00     0.016 A 
ENDBRANCH   3   7
BRANCH   5  14
ATOM     14  C   UNL d   1       2.538   1.548   0.068  0.00  0.00     0.168 C 
BRANCH  14  15
ATOM     15  C   UNL d   1       2.807   2.263  -1.236  0.00  0.00     0.264 C 
ATOM     16  O   UNL d   1       2.054   2.335  -2.197  0.00  0.00    -0.265 OA
BRANCH  15  17
ATOM     17  O   UNL d   1       4.058   2.816  -1.185  0.00  0.00    -0.322 OA
BRANCH  17  18
ATOM     18  C   UNL d   1       4.587   3.257  -2.443  0.00  0.00     0.174 C 
ATOM     19  C   UNL d   1       5.322   2.090  -3.078  0.00  0.00     0.034 C 
ENDBRANCH  17  18
ENDBRANCH  15  17
ENDBRANCH  14  15
ENDBRANCH   5  14
TORSDOF 5
