REMARK  4 active torsions:
REMARK  status: ('A' for Active; 'I' for Inactive)
REMARK    1  A    between atoms: C_9  and  N_2 
REMARK    2  A    between atoms: N_3  and  C_12 
REMARK    3  A    between atoms: N_4  and  C_13 
REMARK    4  A    between atoms: C_17  and  N_5 
ROOT
ATOM      1  C   UNL d   1       1.596   0.400   0.036  0.00  0.00     0.119 C 
ATOM      2  N   UNL d   1       0.235   0.734   0.046  0.00  0.00    -0.328 N 
ATOM      3  N   UNL d   1       2.554   1.275  -0.060  0.00  0.00    -0.342 N 
ATOM      4  HN  UNL d   1       2.268   2.254  -0.086  1.00  0.00     0.167 HD
ATOM      5  C   UNL d   1       1.660  -1.095   0.102  0.00  0.00     0.016 C 
ATOM      6  C   UNL d   1      -0.633  -0.439  -0.103  0.00  0.00     0.170 C 
ATOM      7  C   UNL d   1       0.356  -1.563  -0.116  0.00  0.00    -0.026 C 
ATOM      8  C   UNL d   1       2.683  -2.001   0.307  0.00  0.00     0.016 C 
ATOM      9  C   UNL d   1       0.095  -2.917  -0.282  0.00  0.00     0.010 C 
ATOM     10  C   UNL d   1       2.447  -3.361   0.084  0.00  0.00     0.001 C 
ATOM     11  C   UNL d   1       1.159  -3.812  -0.228  0.00  0.00     0.001 C 
ENDROOT
BRANCH   2  12
ATOM     12  C   UNL d   1      -0.347   2.010  -0.030  0.00  0.00     0.038 A 
ATOM     13  C   UNL d   1       0.262   3.068  -0.723  0.00  0.00     0.065 A 
ATOM     14  C   UNL d   1      -0.340   4.334  -0.775  0.00  0.00     0.105 A 
ATOM     15  C   UNL d   1      -1.553   4.585  -0.128  0.00  0.00     0.036 A 
ATOM     16  C   UNL d   1      -2.166   3.546   0.573  0.00  0.00     0.005 A 
ATOM     17  C   UNL d   1      -1.572   2.282   0.613  0.00  0.00     0.030 A 
BRANCH  14  18
ATOM     18  N   UNL d   1       0.307   5.415  -1.531  0.00  0.00    -0.116 N 
ATOM     19  O   UNL d   1       1.357   5.155  -2.136  0.00  0.00    -0.532 OA
ATOM     20  O   UNL d   1      -0.243   6.525  -1.528  0.00  0.00    -0.532 OA
ENDBRANCH  14  18
ENDBRANCH   2  12
BRANCH   3  21
ATOM     21  C   UNL d   1       3.929   1.034  -0.132  0.00  0.00     0.035 C 
ATOM     22  C   UNL d   1       4.503   0.040  -0.914  0.00  0.00     0.065 C 
ATOM     23  C   UNL d   1       5.846  -0.291  -0.708  0.00  0.00     0.105 C 
ATOM     24  C   UNL d   1       6.686   0.500   0.079  0.00  0.00     0.036 C 
ATOM     25  C   UNL d   1       6.154   1.632   0.685  0.00  0.00     0.005 C 
ATOM     26  C   UNL d   1       4.778   1.874   0.603  0.00  0.00     0.029 C 
BRANCH  23  27
ATOM     27  N   UNL d   1       6.310  -1.597  -1.154  0.00  0.00    -0.116 N 
ATOM     28  O   UNL d   1       5.961  -1.976  -2.279  0.00  0.00    -0.532 OA
ATOM     29  O   UNL d   1       6.977  -2.262  -0.350  0.00  0.00    -0.532 OA
ENDBRANCH  23  27
ENDBRANCH   3  21
TORSDOF 4
