REMARK  5 active torsions:
REMARK  status: ('A' for Active; 'I' for Inactive)
REMARK    1  A    between atoms: C_17  and  C_3 
REMARK    2  A    between atoms: C_4  and  S_18 
REMARK    3  A    between atoms: C_21  and  C_10 
REMARK    4  A    between atoms: C_11  and  C_15 
REMARK    5  A    between atoms: S_18  and  C_21 
ROOT
ATOM      1  S   UNL d   1       3.125  -2.194   0.010  0.00  0.00    -0.086 SA
ENDROOT
BRANCH   1   2
ATOM      2  C   UNL d   1       3.583  -3.853   0.043  0.00  0.00     0.145 A 
ATOM      3  N   UNL d   1       2.803  -4.903   0.071  0.00  0.00    -0.335 N 
ATOM      4  C   UNL d   1       3.667  -5.974   0.103  0.00  0.00     0.061 A 
ATOM      5  HN  UNL d   1       1.783  -4.923   0.070  1.00  0.00     0.168 HD
ATOM      6  C   UNL d   1       3.387  -7.348   0.147  0.00  0.00     0.048 A 
ATOM      7  C   UNL d   1       4.994  -5.553   0.093  0.00  0.00     0.061 A 
ATOM      8  C   UNL d   1       4.455  -8.268   0.187  0.00  0.00     0.050 A 
ATOM      9  C   UNL d   1       5.781  -7.798   0.174  0.00  0.00     0.018 A 
ATOM     10  C   UNL d   1       6.080  -6.430   0.126  0.00  0.00     0.032 A 
ATOM     11  N   UNL d   1       4.906  -4.185   0.050  0.00  0.00    -0.335 N 
ATOM     12  H   UNL d   1       5.671  -3.527   0.034  0.00  0.00     0.168 HD
BRANCH   8  13
ATOM     13  C   UNL d   1       4.178  -9.751   0.248  0.00  0.00     0.417 C 
ATOM     14  F   UNL d   1       2.853 -10.062   0.259  0.00  0.00    -0.166 F 
ATOM     15  F   UNL d   1       4.710 -10.424  -0.809  0.00  0.00    -0.166 F 
ATOM     16  F   UNL d   1       4.706 -10.331   1.363  0.00  0.00    -0.166 F 
ENDBRANCH   8  13
ENDBRANCH   1   2
BRANCH   1  17
ATOM     17  C   UNL d   1       1.307  -2.327   0.011  0.00  0.00     0.169 C 
BRANCH  17  18
ATOM     18  C   UNL d   1       0.709  -0.970  -0.039  0.00  0.00     0.158 A 
ATOM     19  N   UNL d   1       0.403  -0.220  -1.075  0.00  0.00    -0.322 N 
ATOM     20  C   UNL d   1      -0.043   0.946  -0.486  0.00  0.00     0.137 A 
ATOM     21  HN  UNL d   1       0.477  -0.444  -2.067  1.00  0.00     0.169 HD
ATOM     22  N   UNL d   1      -0.040   0.909   0.857  0.00  0.00    -0.242 N 
ATOM     23  O   UNL d   1       0.457  -0.359   1.155  0.00  0.00    -0.222 OA
ATOM     24  HN  UNL d   1      -0.333   1.638   1.508  1.00  0.00     0.196 HD
BRANCH  20  25
ATOM     25  C   UNL d   1      -0.470   2.100  -1.275  0.00  0.00     0.010 A 
ATOM     26  C   UNL d   1      -0.438   2.042  -2.678  0.00  0.00     0.017 A 
ATOM     27  C   UNL d   1      -0.855   3.131  -3.451  0.00  0.00     0.025 A 
ATOM     28  C   UNL d   1      -1.304   4.292  -2.823  0.00  0.00     0.034 A 
ATOM     29  C   UNL d   1      -1.335   4.372  -1.433  0.00  0.00     0.025 A 
ATOM     30 CL   UNL d   1      -1.827   5.628  -3.772  0.00  0.00    -0.084 Cl
ATOM     31  C   UNL d   1      -0.918   3.281  -0.661  0.00  0.00     0.017 A 
ENDBRANCH  20  25
ENDBRANCH  17  18
ENDBRANCH   1  17
TORSDOF 5
