REMARK  3 active torsions:
REMARK  status: ('A' for Active; 'I' for Inactive)
REMARK    1  A    between atoms: C_5  and  C_1 
REMARK    2  A    between atoms: N_9  and  C_2 
REMARK       I    between atoms: C_8  and  N_9 
REMARK       I    between atoms: N_10  and  C_8 
REMARK    3  A    between atoms: C_14  and  N_10 
ROOT
ATOM      1  C   UNL d   1      -1.630  -0.981  -0.084  0.00  0.00     0.097 A 
ATOM      2  C   UNL d   1      -0.213  -1.196  -0.145  0.00  0.00     0.097 A 
ATOM      3  N   UNL d   1      -1.905   0.307  -0.333  0.00  0.00    -0.258 N 
ATOM      4  HN  UNL d   1      -2.823   0.751  -0.294  1.00  0.00     0.195 HD
ATOM      5  C   UNL d   1       0.289   0.003  -0.605  0.00  0.00     0.101 A 
ATOM      6  O   UNL d   1      -0.714   0.915  -0.649  0.00  0.00    -0.240 OA
ATOM      7  C   UNL d   1       1.573   0.447  -1.179  0.00  0.00     0.081 C 
ENDROOT
BRANCH   2   8
ATOM      8  N   UNL d   1       0.501  -2.378  -0.127  0.00  0.00    -0.304 N 
ATOM      9  C   UNL d   1       1.079  -2.987   0.952  0.00  0.00     0.325 C 
ATOM     10  N   UNL d   1       1.303  -2.231   2.070  0.00  0.00    -0.309 N 
ATOM     11  O   UNL d   1       1.363  -4.179   0.828  0.00  0.00    -0.247 OA
ATOM     12  H   UNL d   1       0.721  -1.415   2.195  0.00  0.00     0.170 HD
ATOM     13  H   UNL d   1       0.141  -3.105  -0.742  0.00  0.00     0.171 HD
BRANCH  10  14
ATOM     14  C   UNL d   1       2.131  -2.604   3.157  0.00  0.00     0.036 A 
ATOM     15  C   UNL d   1       3.099  -3.613   3.062  0.00  0.00     0.031 A 
ATOM     16  C   UNL d   1       3.957  -3.891   4.131  0.00  0.00     0.026 A 
ATOM     17  C   UNL d   1       3.848  -3.167   5.312  0.00  0.00     0.034 A 
ATOM     18  C   UNL d   1       2.878  -2.175   5.434  0.00  0.00     0.026 A 
ATOM     19 CL   UNL d   1       4.926  -3.486   6.613  0.00  0.00    -0.084 Cl
ATOM     20  C   UNL d   1       2.026  -1.890   4.356  0.00  0.00     0.031 A 
ENDBRANCH  10  14
ENDBRANCH   2   8
BRANCH   1  21
ATOM     21  C   UNL d   1      -2.721  -1.935   0.147  0.00  0.00     0.038 A 
ATOM     22  C   UNL d   1      -3.736  -1.662   1.090  0.00  0.00     0.048 A 
ATOM     23 CL   UNL d   1      -3.698  -0.293   2.156  0.00  0.00    -0.083 Cl
ATOM     24  C   UNL d   1      -4.840  -2.516   1.233  0.00  0.00     0.025 A 
ATOM     25  C   UNL d   1      -4.937  -3.676   0.473  0.00  0.00     0.003 A 
ATOM     26  C   UNL d   1      -3.935  -3.979  -0.441  0.00  0.00     0.025 A 
ATOM     27  C   UNL d   1      -2.850  -3.110  -0.623  0.00  0.00     0.048 A 
ATOM     28 CL   UNL d   1      -1.755  -3.550  -1.894  0.00  0.00    -0.083 Cl
ENDBRANCH   1  21
TORSDOF 3
