REMARK  5 active torsions:
REMARK  status: ('A' for Active; 'I' for Inactive)
REMARK    1  A    between atoms: C_2  and  C_1 
REMARK       I    between atoms: N_4  and  C_2 
REMARK    2  A    between atoms: C_3  and  C_6 
REMARK    3  A    between atoms: C_5  and  N_4 
REMARK    4  A    between atoms: O_13  and  C_10 
REMARK    5  A    between atoms: C_11  and  O_13 
ROOT
ATOM      1  C   UNL d   1      -0.730  -1.272   1.840  0.00  0.00     0.069 C 
ATOM      2  C   UNL d   1      -1.782  -1.495   4.037  0.00  0.00     0.050 C 
ATOM      3  C   UNL d   1      -1.395  -0.046   1.653  0.00  0.00     0.102 C 
ATOM      4  C   UNL d   1      -0.988  -2.019   3.002  0.00  0.00     0.048 C 
ATOM      5  C   UNL d   1      -2.313  -0.208   3.894  0.00  0.00     0.019 C 
ATOM      6  C   UNL d   1      -2.116   0.513   2.717  0.00  0.00     0.040 C 
ENDROOT
BRANCH   3   7
ATOM      7  O   UNL d   1      -1.322   0.567   0.419  0.00  0.00    -0.308 OA
BRANCH   7   8
ATOM      8  C   UNL d   1      -2.384   1.289  -0.079  0.00  0.00     0.077 A 
ATOM      9  C   UNL d   1      -2.053   2.344  -0.930  0.00  0.00     0.045 A 
ATOM     10  C   UNL d   1      -3.051   3.134  -1.528  0.00  0.00    -0.037 A 
ATOM     11  C   UNL d   1      -2.641   4.247  -2.454  0.00  0.00     0.050 C 
ATOM     12  C   UNL d   1      -4.403   2.872  -1.228  0.00  0.00     0.046 A 
ATOM     13  C   UNL d   1      -4.752   1.805  -0.378  0.00  0.00    -0.037 A 
ATOM     14 CL   UNL d   1      -5.635   3.874  -1.929  0.00  0.00    -0.083 Cl
ATOM     15  C   UNL d   1      -3.729   0.996   0.153  0.00  0.00     0.045 A 
ATOM     16  C   UNL d   1      -6.168   1.460  -0.002  0.00  0.00     0.050 C 
ENDBRANCH   7   8
ENDBRANCH   3   7
BRANCH   1  17
ATOM     17  N   UNL d   1       0.212  -1.825   0.935  0.00  0.00    -0.321 N 
ATOM     18  C   UNL d   1       1.153  -1.081   0.213  0.00  0.00     0.277 C 
ATOM     19  O   UNL d   1       1.252   0.148   0.297  0.00  0.00    -0.268 OA
ATOM     20  H   UNL d   1       0.451  -2.802   1.073  0.00  0.00     0.169 HD
BRANCH  18  21
ATOM     21  C   UNL d   1       2.120  -1.897  -0.684  0.00  0.00     0.269 C 
ATOM     22 CL   UNL d   1       2.009  -3.653  -0.349  0.00  0.00    -0.073 Cl
ATOM     23 CL   UNL d   1       3.795  -1.370  -0.353  0.00  0.00    -0.073 Cl
ATOM     24 CL   UNL d   1       1.699  -1.588  -2.385  0.00  0.00    -0.073 Cl
ENDBRANCH  18  21
ENDBRANCH   1  17
BRANCH   2  25
ATOM     25  C   UNL d   1      -2.042  -2.272   5.305  0.00  0.00     0.417 C 
ATOM     26  F   UNL d   1      -1.475  -3.510   5.309  0.00  0.00    -0.166 F 
ATOM     27  F   UNL d   1      -1.565  -1.638   6.410  0.00  0.00    -0.166 F 
ATOM     28  F   UNL d   1      -3.371  -2.469   5.528  0.00  0.00    -0.166 F 
ENDBRANCH   2  25
TORSDOF 5
