REMARK  4 active torsions:
REMARK  status: ('A' for Active; 'I' for Inactive)
REMARK    1  A    between atoms: N_2  and  S_1 
REMARK    2  A    between atoms: C_3  and  S_1 
REMARK    3  A    between atoms: C_13  and  N_4 
REMARK    4  A    between atoms: C_18  and  C_13 
ROOT
ATOM      1  N   UNL d   1       0.652   0.570   1.167  0.00  0.00    -0.203 NA
ATOM      2  N   UNL d   1       2.387   2.578   2.560  0.00  0.00     0.095 N 
ATOM      3  C   UNL d   1       0.304   2.022   1.183  0.00  0.00     0.138 C 
ATOM      4  C   UNL d   1       1.477   0.199   2.359  0.00  0.00     0.138 C 
ATOM      5  C   UNL d   1       2.691   1.129   2.544  0.00  0.00     0.288 C 
ATOM      6  C   UNL d   1       1.561   2.907   1.375  0.00  0.00     0.288 C 
ENDROOT
BRANCH   1   7
ATOM      7  S   UNL d   1       1.163  -0.066  -0.330  0.00  0.00     0.243 S 
ATOM      8  O   UNL d   1       1.768  -1.362  -0.103  0.00  0.00    -0.206 OA
ATOM      9  O   UNL d   1       1.854   0.970  -1.064  0.00  0.00    -0.206 OA
BRANCH   7  10
ATOM     10  C   UNL d   1      -0.379  -0.390  -1.171  0.00  0.00     0.074 A 
ATOM     11  C   UNL d   1      -0.663   0.228  -2.394  0.00  0.00     0.026 A 
ATOM     12  C   UNL d   1      -1.816  -0.135  -3.097  0.00  0.00     0.025 A 
ATOM     13  C   UNL d   1      -2.672  -1.109  -2.579  0.00  0.00     0.034 A 
ATOM     14  C   UNL d   1      -2.392  -1.721  -1.354  0.00  0.00     0.025 A 
ATOM     15 CL   UNL d   1      -4.071  -1.576  -3.464  0.00  0.00    -0.084 Cl
ATOM     16  C   UNL d   1      -1.239  -1.362  -0.649  0.00  0.00     0.026 A 
ENDBRANCH   7  10
ENDBRANCH   1   7
BRANCH   2  17
ATOM     17  C   UNL d   1       1.734   3.040   3.796  0.00  0.00     0.311 C 
BRANCH  17  18
ATOM     18  C   UNL d   1       2.569   2.886   5.050  0.00  0.00    -0.030 A 
ATOM     19  C   UNL d   1       3.840   3.472   5.152  0.00  0.00     0.009 A 
ATOM     20  C   UNL d   1       4.587   3.346   6.327  0.00  0.00     0.001 A 
ATOM     21  C   UNL d   1       4.070   2.640   7.411  0.00  0.00     0.000 A 
ATOM     22  C   UNL d   1       2.805   2.062   7.326  0.00  0.00     0.001 A 
ATOM     23  C   UNL d   1       2.058   2.187   6.154  0.00  0.00     0.009 A 
ENDBRANCH  17  18
ENDBRANCH   2  17
TORSDOF 4
