REMARK  2 active torsions:
REMARK  status: ('A' for Active; 'I' for Inactive)
REMARK    1  A    between atoms: C_11  and  C_4 
REMARK    2  A    between atoms: O_23  and  C_19 
ROOT
ATOM      1  C   UNL d   1       1.366   1.599   0.002  0.00  0.00     0.171 C 
ATOM      2  O   UNL d   1       1.831   2.744  -0.783  0.00  0.00    -0.325 OA
ATOM      3  C   UNL d   1       2.611   2.888   1.401  0.00  0.00    -0.001 A 
ATOM      4  C   UNL d   1       1.328   2.120   1.479  0.00  0.00     0.103 C 
ATOM      5  C   UNL d   1       2.778   3.297   0.073  0.00  0.00     0.079 A 
ATOM      6  C   UNL d   1       0.018   0.985  -0.388  0.00  0.00    -0.004 A 
ATOM      7  C   UNL d   1       2.468   0.476  -0.174  0.00  0.00     0.190 C 
ATOM      8  C   UNL d   1       3.527   3.212   2.397  0.00  0.00    -0.016 A 
ATOM      9  C   UNL d   1       2.151  -0.870   0.346  0.00  0.00     0.055 C 
ATOM     10  C   UNL d   1       0.871  -1.249   0.392  0.00  0.00     0.016 C 
ATOM     11  C   UNL d   1      -0.205  -0.386  -0.109  0.00  0.00    -0.026 A 
ATOM     12  C   UNL d   1       3.806   4.128  -0.302  0.00  0.00     0.038 A 
ATOM     13  O   UNL d   1       3.575   0.626  -0.687  0.00  0.00    -0.289 OA
ATOM     14  C   UNL d   1       4.621   4.029   2.024  0.00  0.00    -0.025 A 
ATOM     15  C   UNL d   1       4.727   4.496   0.687  0.00  0.00     0.015 A 
ATOM     16  C   UNL d   1      -1.038   1.750  -0.898  0.00  0.00     0.011 A 
ATOM     17  C   UNL d   1       3.419   2.741   3.721  0.00  0.00     0.013 A 
ATOM     18  C   UNL d   1      -1.466  -0.955  -0.318  0.00  0.00     0.012 A 
ATOM     19  C   UNL d   1       5.583   4.338   2.999  0.00  0.00     0.012 A 
ATOM     20  C   UNL d   1      -2.296   1.171  -1.099  0.00  0.00     0.001 A 
ATOM     21  C   UNL d   1       4.397   3.045   4.663  0.00  0.00     0.001 A 
ATOM     22  C   UNL d   1      -2.510  -0.175  -0.807  0.00  0.00     0.001 A 
ATOM     23  C   UNL d   1       5.478   3.843   4.302  0.00  0.00     0.001 A 
ENDROOT
BRANCH   4  24
ATOM     24  C   UNL d   1       0.167   3.058   1.882  0.00  0.00    -0.046 A 
ATOM     25  C   UNL d   1       0.105   4.402   1.459  0.00  0.00     0.011 A 
ATOM     26  C   UNL d   1      -0.899   5.266   1.898  0.00  0.00     0.037 A 
ATOM     27  C   UNL d   1      -1.895   4.814   2.752  0.00  0.00     0.068 A 
ATOM     28  C   UNL d   1      -1.884   3.478   3.153  0.00  0.00     0.037 A 
ATOM     29  C   UNL d   1      -0.861   2.608   2.724  0.00  0.00     0.011 A 
BRANCH  27  30
ATOM     30  O   UNL d   1      -2.785   5.781   3.125  0.00  0.00    -0.356 OA
ATOM     31  C   UNL d   1      -3.918   5.375   3.877  0.00  0.00     0.210 C 
ENDBRANCH  27  30
ENDBRANCH   4  24
TORSDOF 2
