REMARK  5 active torsions:
REMARK  status: ('A' for Active; 'I' for Inactive)
REMARK    1  A    between atoms: C_3  and  C_1 
REMARK       I    between atoms: N_5  and  C_3 
REMARK    2  A    between atoms: C_9  and  N_6 
REMARK    3  A    between atoms: O_20  and  C_16 
REMARK    4  A    between atoms: O_21  and  C_18 
REMARK    5  A    between atoms: C_24  and  O_20 
ROOT
ATOM      1  C   UNL d   1      -3.753  -0.196  -0.679  0.00  0.00     0.270 C 
ATOM      2  N   UNL d   1      -4.180  -1.525  -0.648  0.00  0.00    -0.344 N 
ATOM      3  N   UNL d   1      -5.224  -4.145  -0.201  0.00  0.00    -0.376 N 
ATOM      4  C   UNL d   1      -3.703  -2.334   0.485  0.00  0.00     0.146 C 
ATOM      5  C   UNL d   1      -5.524  -1.917  -1.123  0.00  0.00     0.146 C 
ATOM      6  O   UNL d   1      -3.045   0.275   0.217  0.00  0.00    -0.266 OA
ATOM      7  C   UNL d   1      -5.588  -3.417  -1.428  0.00  0.00     0.143 C 
ATOM      8  C   UNL d   1      -3.842  -3.862   0.234  0.00  0.00     0.143 C 
ENDROOT
BRANCH   1   9
ATOM      9  C   UNL d   1      -4.145   0.597  -1.823  0.00  0.00     0.102 C 
ATOM     10  N   UNL d   1      -4.310   0.113  -3.102  0.00  0.00    -0.351 N 
ATOM     11  C   UNL d   1      -4.776   1.096  -3.939  0.00  0.00     0.043 A 
ATOM     12  H   UNL d   1      -4.159  -0.847  -3.372  0.00  0.00     0.166 HD
ATOM     13  C   UNL d   1      -5.187   1.028  -5.272  0.00  0.00     0.033 A 
ATOM     14  C   UNL d   1      -4.759   2.283  -3.214  0.00  0.00    -0.004 A 
ATOM     15  C   UNL d   1      -5.562   2.226  -5.893  0.00  0.00     0.039 A 
ATOM     16  C   UNL d   1      -5.520   3.440  -5.206  0.00  0.00     0.069 A 
ATOM     17  C   UNL d   1      -5.131   3.473  -3.860  0.00  0.00     0.050 A 
ATOM     18  C   UNL d   1      -4.339   1.961  -1.895  0.00  0.00     0.049 C 
BRANCH  16  19
ATOM     19  O   UNL d   1      -5.836   4.667  -5.726  0.00  0.00    -0.356 OA
ATOM     20  C   UNL d   1      -6.095   4.722  -7.122  0.00  0.00     0.210 C 
ENDBRANCH  16  19
ENDBRANCH   1   9
BRANCH   3  21
ATOM     21  C   UNL d   1      -5.868  -5.340   0.100  0.00  0.00     0.064 A 
ATOM     22  C   UNL d   1      -6.174  -5.787   1.409  0.00  0.00     0.095 A 
ATOM     23  C   UNL d   1      -6.913  -6.973   1.595  0.00  0.00     0.039 A 
ATOM     24  C   UNL d   1      -7.399  -7.712   0.522  0.00  0.00     0.003 A 
ATOM     25  C   UNL d   1      -7.110  -7.299  -0.766  0.00  0.00     0.002 A 
ATOM     26  C   UNL d   1      -6.341  -6.148  -0.965  0.00  0.00     0.032 A 
BRANCH  22  27
ATOM     27  O   UNL d   1      -5.891  -5.208   2.627  0.00  0.00    -0.349 OA
BRANCH  27  28
ATOM     28  C   UNL d   1      -5.751  -3.800   2.692  0.00  0.00     0.171 C 
ATOM     29  C   UNL d   1      -6.155  -3.280   4.058  0.00  0.00     0.034 C 
ENDBRANCH  27  28
ENDBRANCH  22  27
ENDBRANCH   3  21
TORSDOF 5
