REMARK  7 active torsions:
REMARK  status: ('A' for Active; 'I' for Inactive)
REMARK    1  A    between atoms: C_6  and  N_1 
REMARK    2  A    between atoms: C_2  and  O_7 
REMARK    3  A    between atoms: C_3  and  C_2 
REMARK    4  A    between atoms: O_7  and  N_4 
REMARK    5  A    between atoms: C_8  and  C_19 
REMARK    6  A    between atoms: N_20  and  C_8 
REMARK    7  A    between atoms: C_19  and  C_21 
ROOT
ATOM      1  N   UNL d   1       0.119  -4.577   3.271  0.00  0.00    -0.245 N 
ATOM      2  HN  UNL d   1       0.614  -4.967   4.073  1.00  0.00     0.196 HD
ATOM      3  C   UNL d   1      -0.994  -5.063   2.817  0.00  0.00     0.100 C 
ENDROOT
BRANCH   3   4
ATOM      4  C   UNL d   1      -1.529  -6.310   3.520  0.00  0.00     0.116 C 
BRANCH   4   5
ATOM      5  C   UNL d   1      -2.407  -6.027   4.721  0.00  0.00    -0.051 A 
ATOM      6  C   UNL d   1      -3.718  -6.527   4.774  0.00  0.00     0.010 A 
ATOM      7  C   UNL d   1      -4.497  -6.369   5.924  0.00  0.00     0.036 A 
ATOM      8  C   UNL d   1      -3.963  -5.707   7.037  0.00  0.00     0.102 A 
ATOM      9  C   UNL d   1      -2.665  -5.187   6.995  0.00  0.00     0.036 A 
ATOM     10  C   UNL d   1      -1.893  -5.351   5.841  0.00  0.00     0.010 A 
BRANCH   8  11
ATOM     11  N   UNL d   1      -4.762  -5.582   8.263  0.00  0.00    -0.116 N 
ATOM     12  O   UNL d   1      -4.245  -5.014   9.235  0.00  0.00    -0.532 OA
ATOM     13  O   UNL d   1      -5.908  -6.056   8.255  0.00  0.00    -0.532 OA
ENDBRANCH   8  11
ENDBRANCH   4   5
ENDBRANCH   3   4
BRANCH   3  14
ATOM     14  N   UNL d   1      -1.711  -4.558   1.761  0.00  0.00    -0.387 N 
ATOM     15  H   UNL d   1      -1.474  -3.607   1.508  0.00  0.00     0.157 HD
ATOM     16  H   UNL d   1      -2.705  -4.756   1.744  0.00  0.00     0.157 HD
ENDBRANCH   3  14
BRANCH   1  17
ATOM     17  O   UNL d   1       0.580  -3.454   2.547  0.00  0.00    -0.193 OA
BRANCH  17  18
ATOM     18  C   UNL d   1       1.827  -3.137   3.013  0.00  0.00     0.315 C 
ATOM     19  O   UNL d   1       2.457  -3.715   3.889  0.00  0.00    -0.257 OA
BRANCH  18  20
ATOM     20  C   UNL d   1       2.400  -1.945   2.325  0.00  0.00     0.044 A 
ATOM     21  C   UNL d   1       3.680  -1.531   2.726  0.00  0.00     0.041 A 
ATOM     22  C   UNL d   1       4.274  -0.411   2.145  0.00  0.00     0.036 A 
ATOM     23 CL   UNL d   1       5.838   0.085   2.655  0.00  0.00    -0.084 Cl
ATOM     24  C   UNL d   1       3.607   0.307   1.160  0.00  0.00     0.047 A 
ATOM     25  C   UNL d   1       2.338  -0.107   0.756  0.00  0.00     0.036 A 
ATOM     26  C   UNL d   1       1.728  -1.229   1.329  0.00  0.00     0.041 A 
ATOM     27 CL   UNL d   1       1.509   0.781  -0.463  0.00  0.00    -0.084 Cl
ENDBRANCH  18  20
ENDBRANCH  17  18
ENDBRANCH   1  17
TORSDOF 7
