REMARK  6 active torsions:
REMARK  status: ('A' for Active; 'I' for Inactive)
REMARK    1  A    between atoms: C_7  and  N_1 
REMARK    2  A    between atoms: S_14  and  C_2 
REMARK    3  A    between atoms: C_8  and  C_12 
REMARK    4  A    between atoms: C_9  and  C_13 
REMARK    5  A    between atoms: C_11  and  C_17 
REMARK    6  A    between atoms: C_17  and  S_14 
ROOT
ATOM      1  N   UNL d   1       2.408  -0.734   0.084  0.00  0.00    -0.258 N 
ATOM      2  C   UNL d   1       2.376   0.658  -0.024  0.00  0.00     0.155 A 
ATOM      3  C   UNL d   1       1.213  -1.464   0.161  0.00  0.00     0.266 A 
ATOM      4  N   UNL d   1       1.280   1.348  -0.070  0.00  0.00    -0.335 N 
ATOM      5  HN  UNL d   1       1.313   2.365  -0.141  1.00  0.00     0.168 HD
ATOM      6  C   UNL d   1      -0.039  -0.700   0.086  0.00  0.00     0.059 A 
ATOM      7  C   UNL d   1       0.053   0.681  -0.022  0.00  0.00     0.049 A 
ATOM      8  O   UNL d   1       1.130  -2.691   0.252  0.00  0.00    -0.267 OA
ATOM      9  C   UNL d   1      -1.280  -1.350   0.105  0.00  0.00     0.019 A 
ATOM     10  C   UNL d   1      -1.129   1.425  -0.085  0.00  0.00     0.030 A 
ATOM     11  C   UNL d   1      -2.451  -0.599   0.031  0.00  0.00     0.001 A 
ATOM     12  C   UNL d   1      -2.374   0.789  -0.058  0.00  0.00     0.002 A 
ENDROOT
BRANCH   1  13
ATOM     13  C   UNL d   1       3.604  -1.513   0.063  0.00  0.00     0.046 A 
ATOM     14  C   UNL d   1       4.428  -1.530  -1.069  0.00  0.00     0.046 A 
ATOM     15  C   UNL d   1       5.488  -2.446  -1.167  0.00  0.00     0.050 A 
ATOM     16  C   UNL d   1       5.733  -3.328  -0.098  0.00  0.00     0.032 A 
ATOM     17  C   UNL d   1       4.922  -3.323   1.046  0.00  0.00     0.050 A 
ATOM     18  C   UNL d   1       3.859  -2.412   1.111  0.00  0.00     0.046 A 
BRANCH  15  19
ATOM     19  C   UNL d   1       6.329  -2.534  -2.419  0.00  0.00     0.417 C 
ATOM     20  F   UNL d   1       5.910  -1.707  -3.416  0.00  0.00    -0.166 F 
ATOM     21  F   UNL d   1       7.633  -2.220  -2.192  0.00  0.00    -0.166 F 
ATOM     22  F   UNL d   1       6.332  -3.788  -2.951  0.00  0.00    -0.166 F 
ENDBRANCH  15  19
BRANCH  17  23
ATOM     23  C   UNL d   1       5.165  -4.310   2.164  0.00  0.00     0.417 C 
ATOM     24  F   UNL d   1       4.248  -4.241   3.167  0.00  0.00    -0.166 F 
ATOM     25  F   UNL d   1       5.150  -5.600   1.729  0.00  0.00    -0.166 F 
ATOM     26  F   UNL d   1       6.379  -4.130   2.753  0.00  0.00    -0.166 F 
ENDBRANCH  17  23
ENDBRANCH   1  13
BRANCH   2  27
ATOM     27  S   UNL d   1       3.895   1.569  -0.032  0.00  0.00    -0.088 SA
BRANCH  27  28
ATOM     28  C   UNL d   1       3.297   3.171   0.582  0.00  0.00     0.124 C 
BRANCH  28  29
ATOM     29  C   UNL d   1       4.365   4.239   0.719  0.00  0.00    -0.005 A 
ATOM     30  C   UNL d   1       4.559   5.213  -0.281  0.00  0.00     0.042 A 
ATOM     31 CL   UNL d   1       3.734   5.156  -1.801  0.00  0.00    -0.084 Cl
ATOM     32  C   UNL d   1       5.431   6.294  -0.083  0.00  0.00     0.024 A 
ATOM     33  C   UNL d   1       6.147   6.412   1.103  0.00  0.00     0.003 A 
ATOM     34  C   UNL d   1       6.018   5.430   2.079  0.00  0.00     0.024 A 
ATOM     35  C   UNL d   1       5.144   4.352   1.888  0.00  0.00     0.042 A 
ATOM     36 CL   UNL d   1       5.058   3.183   3.162  0.00  0.00    -0.084 Cl
ENDBRANCH  28  29
ENDBRANCH  27  28
ENDBRANCH   2  27
TORSDOF 6
