REMARK  3 active torsions:
REMARK  status: ('A' for Active; 'I' for Inactive)
REMARK    1  A    between atoms: N_17  and  C_3 
REMARK    2  A    between atoms: C_14  and  C_5 
REMARK    3  A    between atoms: C_8  and  C_15 
ROOT
ATOM      1  C   UNL d   1       2.227   0.107  -0.147  0.00  0.00     0.080 C 
ATOM      2  C   UNL d   1      -0.224   0.541  -0.098  0.00  0.00     0.031 C 
ATOM      3  C   UNL d   1       1.955  -1.185   0.140  0.00  0.00     0.138 C 
ATOM      4  C   UNL d   1      -0.413  -0.770   0.121  0.00  0.00     0.066 C 
ATOM      5  C   UNL d   1       1.116   1.067  -0.539  0.00  0.00     0.105 C 
ATOM      6  O   UNL d   1       0.645  -1.669   0.080  0.00  0.00    -0.301 OA
ATOM      7  C   UNL d   1      -1.343   1.490   0.136  0.00  0.00     0.159 C 
ATOM      8  C   UNL d   1       3.551   0.621  -0.068  0.00  0.00     0.100 C 
ATOM      9  N   UNL d   1       4.634   1.036  -0.008  0.00  0.00    -0.191 NA
ATOM     10  C   UNL d   1      -1.751  -1.397   0.381  0.00  0.00     0.075 C 
ATOM     11  C   UNL d   1      -2.936  -0.478   0.002  0.00  0.00    -0.035 C 
ATOM     12  C   UNL d   1      -2.683   0.927   0.578  0.00  0.00     0.092 C 
ATOM     13  O   UNL d   1      -1.152   2.702   0.059  0.00  0.00    -0.293 OA
ATOM     14  C   UNL d   1      -4.228  -1.063   0.596  0.00  0.00     0.015 C 
ATOM     15  C   UNL d   1      -3.115  -0.391  -1.530  0.00  0.00     0.015 C 
ENDROOT
BRANCH   3  16
ATOM     16  N   UNL d   1       2.869  -2.148   0.487  0.00  0.00    -0.282 NA
ATOM     17  H   UNL d   1       3.828  -1.974   0.196  0.00  0.00     0.126 HD
ATOM     18  H   UNL d   1       2.546  -3.087   0.269  0.00  0.00     0.126 HD
ENDBRANCH   3  16
BRANCH   5  19
ATOM     19  C   UNL d   1       1.124   1.315  -2.054  0.00  0.00    -0.044 A 
ATOM     20  C   UNL d   1       1.323   2.605  -2.563  0.00  0.00     0.009 A 
ATOM     21  C   UNL d   1       1.326   2.834  -3.944  0.00  0.00     0.017 A 
ATOM     22  C   UNL d   1       1.125   1.780  -4.847  0.00  0.00     0.047 A 
ATOM     23  C   UNL d   1       0.925   0.490  -4.342  0.00  0.00     0.017 A 
ATOM     24  C   UNL d   1       0.925   0.261  -2.966  0.00  0.00     0.009 A 
BRANCH  22  25
ATOM     25  C   UNL d   1       1.118   2.006  -6.339  0.00  0.00     0.417 C 
ATOM     26  F   UNL d   1       1.303   3.306  -6.700  0.00  0.00    -0.166 F 
ATOM     27  F   UNL d   1       2.094   1.299  -6.976  0.00  0.00    -0.166 F 
ATOM     28  F   UNL d   1      -0.055   1.621  -6.916  0.00  0.00    -0.166 F 
ENDBRANCH  22  25
ENDBRANCH   5  19
TORSDOF 3
