REMARK  4 active torsions:
REMARK  status: ('A' for Active; 'I' for Inactive)
REMARK    1  A    between atoms: S_3  and  C_1 
REMARK       I    between atoms: N_8  and  C_1 
REMARK    2  A    between atoms: C_2  and  S_3 
REMARK    3  A    between atoms: C_14  and  N_8 
REMARK    4  A    between atoms: C_15  and  N_8 
ROOT
ATOM      1  C   UNL d   1       3.271  -1.637  -0.196  0.00  0.00     0.044 A 
ATOM      2  C   UNL d   1       3.779  -2.720  -0.945  0.00  0.00     0.030 A 
ATOM      3  C   UNL d   1       3.388  -1.701   1.209  0.00  0.00     0.030 A 
ATOM      4  C   UNL d   1       4.386  -3.816  -0.317  0.00  0.00     0.039 A 
ATOM      5  C   UNL d   1       3.988  -2.804   1.835  0.00  0.00     0.039 A 
ATOM      6  C   UNL d   1       4.489  -3.849   1.068  0.00  0.00     0.013 A 
ATOM      7 BR   UNL d   1       3.723  -2.789  -2.852  0.00  0.00    -0.050 Br
ATOM      8 BR   UNL d   1       2.817  -0.302   2.375  0.00  0.00    -0.050 Br
ATOM      9 BR   UNL d   1       5.343  -5.308   1.913  0.00  0.00    -0.051 Br
ENDROOT
BRANCH   1  10
ATOM     10  S   UNL d   1       2.645  -0.177  -1.032  0.00  0.00    -0.027 SA
BRANCH  10  11
ATOM     11  C   UNL d   1       0.946  -0.140  -0.547  0.00  0.00     0.286 C 
ATOM     12  N   UNL d   1       0.340   1.131  -0.529  0.00  0.00    -0.343 N 
ATOM     13  O   UNL d   1       0.359  -1.181  -0.280  0.00  0.00    -0.260 OA
BRANCH  12  14
ATOM     14  C   UNL d   1       1.037   2.344  -0.989  0.00  0.00     0.122 C 
ATOM     15  C   UNL d   1       0.358   3.681  -0.743  0.00  0.00     0.026 C 
ENDBRANCH  12  14
BRANCH  12  16
ATOM     16  C   UNL d   1      -1.115   1.164  -0.352  0.00  0.00     0.122 C 
ATOM     17  C   UNL d   1      -1.865   1.134  -1.676  0.00  0.00     0.026 C 
ENDBRANCH  12  16
ENDBRANCH  10  11
ENDBRANCH   1  10
TORSDOF 4
