REMARK  2 active torsions:
REMARK  status: ('A' for Active; 'I' for Inactive)
REMARK    1  A    between atoms: C_9  and  N_6 
REMARK    2  A    between atoms: O_16  and  C_10 
ROOT
ATOM      1  C   UNL d   1      -1.250   0.791  -0.194  0.00  0.00     0.114 C 
ATOM      2  C   UNL d   1       0.282   0.601  -0.275  0.00  0.00     0.273 C 
ATOM      3  N   UNL d   1       0.473  -0.750  -0.488  0.00  0.00    -0.321 N 
ATOM      4  C   UNL d   1      -1.822  -0.524  -0.538  0.00  0.00     0.023 A 
ATOM      5  C   UNL d   1      -0.741  -1.408  -0.622  0.00  0.00     0.047 A 
ATOM      6  N   UNL d   1      -1.732   1.930   0.193  0.00  0.00    -0.351 N 
ATOM      7  HN  UNL d   1      -1.075   2.686   0.387  1.00  0.00     0.166 HD
ATOM      8  O   UNL d   1       1.130   1.456  -0.170  0.00  0.00    -0.266 OA
ATOM      9  C   UNL d   1      -3.111  -0.984  -0.741  0.00  0.00     0.016 A 
ATOM     10  C   UNL d   1      -0.910  -2.764  -0.820  0.00  0.00     0.030 A 
ATOM     11  C   UNL d   1      -3.307  -2.361  -0.909  0.00  0.00     0.001 A 
ATOM     12  C   UNL d   1      -2.217  -3.244  -0.936  0.00  0.00     0.002 A 
ATOM     13  H   UNL d   1       1.390  -1.162  -0.566  0.00  0.00     0.169 HD
ENDROOT
BRANCH   6  14
ATOM     14  C   UNL d   1      -3.097   2.188   0.360  0.00  0.00     0.032 C 
ATOM     15  C   UNL d   1      -3.948   1.374   1.114  0.00  0.00     0.032 C 
ATOM     16  C   UNL d   1      -5.324   1.607   1.140  0.00  0.00     0.039 C 
ATOM     17  C   UNL d   1      -5.856   2.727   0.501  0.00  0.00     0.068 C 
ATOM     18  C   UNL d   1      -4.990   3.632  -0.111  0.00  0.00     0.039 C 
ATOM     19  C   UNL d   1      -3.622   3.358  -0.191  0.00  0.00     0.032 C 
BRANCH  17  20
ATOM     20  O   UNL d   1      -7.183   3.047   0.432  0.00  0.00    -0.356 OA
ATOM     21  C   UNL d   1      -8.097   1.999   0.732  0.00  0.00     0.210 C 
ENDBRANCH  17  20
ENDBRANCH   6  14
TORSDOF 2
