REMARK  7 active torsions:
REMARK  status: ('A' for Active; 'I' for Inactive)
REMARK    1  A    between atoms: C_3  and  C_1 
REMARK    2  A    between atoms: S_5  and  C_2 
REMARK       I    between atoms: N_11  and  C_3 
REMARK    3  A    between atoms: C_10  and  S_5 
REMARK    4  A    between atoms: C_7  and  C_10 
REMARK    5  A    between atoms: O_14  and  C_7 
REMARK    6  A    between atoms: O_15  and  C_12 
REMARK    7  A    between atoms: C_16  and  O_15 
ROOT
ATOM      1  C   UNL d   1       1.460  -0.213   0.038  0.00  0.00     0.048 A 
ATOM      2  C   UNL d   1       0.644  -1.356  -0.081  0.00  0.00     0.019 A 
ATOM      3  C   UNL d   1       0.854   1.056   0.092  0.00  0.00     0.021 A 
ATOM      4  C   UNL d   1      -0.761  -1.192  -0.122  0.00  0.00     0.056 A 
ATOM      5  C   UNL d   1      -1.349   0.074  -0.068  0.00  0.00     0.070 A 
ATOM      6  C   UNL d   1      -0.533   1.196   0.025  0.00  0.00     0.038 A 
ENDROOT
BRANCH   2   7
ATOM      7  S   UNL d   1       1.205  -3.045  -0.344  0.00  0.00    -0.118 SA
BRANCH   7   8
ATOM      8  C   UNL d   1       1.967  -3.458   1.276  0.00  0.00     0.189 C 
BRANCH   8   9
ATOM      9  C   UNL d   1       2.459  -4.896   1.306  0.00  0.00     0.149 C 
ATOM     10  O   UNL d   1       3.119  -5.353   2.233  0.00  0.00    -0.649 OA
BRANCH   9  11
ATOM     11  O   UNL d   1       2.105  -5.666   0.251  0.00  0.00    -0.776 OA
ATOM     12  H   UNL d   1       1.587  -5.159  -0.406  0.00  0.00     0.167 HD
ENDBRANCH   9  11
ENDBRANCH   8   9
ENDBRANCH   7   8
ENDBRANCH   2   7
BRANCH   1  13
ATOM     13  C   UNL d   1       2.949  -0.191   0.110  0.00  0.00     0.250 C 
ATOM     14  O   UNL d   1       3.545   0.715   0.681  0.00  0.00    -0.268 OA
ATOM     15  N   UNL d   1       3.650  -1.188  -0.502  0.00  0.00    -0.366 N 
ATOM     16  H   UNL d   1       3.211  -1.914  -1.050  0.00  0.00     0.159 HD
ATOM     17  H   UNL d   1       4.659  -1.133  -0.473  0.00  0.00     0.159 HD
ENDBRANCH   1  13
BRANCH   5  18
ATOM     18  O   UNL d   1      -2.685   0.354  -0.121  0.00  0.00    -0.351 OA
BRANCH  18  19
ATOM     19  C   UNL d   1      -3.596  -0.744  -0.135  0.00  0.00     0.171 C 
ATOM     20  C   UNL d   1      -5.006  -0.178  -0.140  0.00  0.00     0.034 C 
ENDBRANCH  18  19
ENDBRANCH   5  18
TORSDOF 7
