REMARK  3 active torsions:
REMARK  status: ('A' for Active; 'I' for Inactive)
REMARK    1  A    between atoms: C_6  and  N_1 
REMARK    2  A    between atoms: C_9  and  C_5 
REMARK    3  A    between atoms: C_15  and  C_10 
ROOT
ATOM      1  N   UNL d   1       0.408  -1.003  -0.117  0.00  0.00    -0.242 N 
ATOM      2  C   UNL d   1      -0.728  -0.441  -0.664  0.00  0.00     0.294 C 
ATOM      3  C   UNL d   1       1.296  -0.117   0.483  0.00  0.00     0.250 C 
ATOM      4  S   UNL d   1      -0.730   1.302  -0.497  0.00  0.00    -0.049 SA
ATOM      5  C   UNL d   1       0.767   1.298   0.498  0.00  0.00     0.182 C 
ATOM      6  O   UNL d   1      -1.685  -0.990  -1.181  0.00  0.00    -0.259 OA
ATOM      7  O   UNL d   1       2.418  -0.373   0.917  0.00  0.00    -0.271 OA
ENDROOT
BRANCH   1   8
ATOM      8  C   UNL d   1       0.685  -2.408  -0.203  0.00  0.00     0.046 A 
ATOM      9  C   UNL d   1       0.133  -3.199  -1.222  0.00  0.00     0.031 A 
ATOM     10  C   UNL d   1       0.433  -4.561  -1.332  0.00  0.00     0.010 A 
ATOM     11  C   UNL d   1       1.277  -5.190  -0.413  0.00  0.00    -0.055 A 
ATOM     12  C   UNL d   1       1.826  -4.416   0.612  0.00  0.00     0.010 A 
ATOM     13  C   UNL d   1       1.531  -3.050   0.715  0.00  0.00     0.031 A 
BRANCH  11  14
ATOM     14  C   UNL d   1       1.576  -6.675  -0.493  0.00  0.00     0.010 C 
ATOM     15  C   UNL d   1       0.290  -7.498  -0.374  0.00  0.00     0.015 C 
ATOM     16  C   UNL d   1       2.337  -7.041  -1.769  0.00  0.00     0.015 C 
ENDBRANCH  11  14
ENDBRANCH   1   8
BRANCH   5  17
ATOM     17  C   UNL d   1       0.550   1.836   1.895  0.00  0.00    -0.035 A 
ATOM     18  C   UNL d   1       1.284   2.953   2.325  0.00  0.00     0.009 A 
ATOM     19  C   UNL d   1       1.061   3.507   3.585  0.00  0.00     0.001 A 
ATOM     20  C   UNL d   1       0.109   2.949   4.435  0.00  0.00     0.000 A 
ATOM     21  C   UNL d   1      -0.599   1.818   4.039  0.00  0.00     0.001 A 
ATOM     22  C   UNL d   1      -0.376   1.257   2.781  0.00  0.00     0.009 A 
ENDBRANCH   5  17
TORSDOF 3
