REMARK  5 active torsions:
REMARK  status: ('A' for Active; 'I' for Inactive)
REMARK       I    between atoms: N_2  and  C_1 
REMARK       I    between atoms: N_3  and  C_1 
REMARK    1  A    between atoms: C_6  and  N_3 
REMARK    2  A    between atoms: C_5  and  N_4 
REMARK    3  A    between atoms: C_13  and  C_5 
REMARK    4  A    between atoms: C_14  and  C_5 
REMARK    5  A    between atoms: O_15  and  C_12 
ROOT
ATOM      1  C   UNL d   1       1.098   0.267   0.537  0.00  0.00     0.323 C 
ATOM      2  N   UNL d   1       0.387   1.348   0.036  0.00  0.00    -0.331 N 
ATOM      3  N   UNL d   1       0.446  -0.416   1.534  0.00  0.00    -0.306 N 
ATOM      4  N   UNL d   1      -0.399   4.117  -0.650  0.00  0.00     0.105 N 
ATOM      5  O   UNL d   1       2.187  -0.069   0.076  0.00  0.00    -0.247 OA
ATOM      6  C   UNL d   1       0.808   1.945  -1.233  0.00  0.00     0.158 C 
ATOM      7  C   UNL d   1      -0.790   1.959   0.661  0.00  0.00     0.158 C 
ATOM      8  C   UNL d   1       0.840   3.479  -1.163  0.00  0.00     0.293 C 
ATOM      9  C   UNL d   1      -0.691   3.499   0.671  0.00  0.00     0.293 C 
ATOM     10  H   UNL d   1      -0.559  -0.424   1.452  0.00  0.00     0.171 HD
ENDROOT
BRANCH   4  11
ATOM     11  C   UNL d   1      -1.560   4.015  -1.585  0.00  0.00     0.289 C 
BRANCH  11  12
ATOM     12  C   UNL d   1      -2.816   4.684  -1.008  0.00  0.00    -0.021 A 
ATOM     13  C   UNL d   1      -2.817   6.043  -0.647  0.00  0.00     0.010 A 
ATOM     14  C   UNL d   1      -3.954   6.636  -0.100  0.00  0.00     0.001 A 
ATOM     15  C   UNL d   1      -5.107   5.880   0.102  0.00  0.00     0.000 A 
ATOM     16  C   UNL d   1      -5.124   4.531  -0.248  0.00  0.00     0.001 A 
ATOM     17  C   UNL d   1      -3.989   3.937  -0.804  0.00  0.00     0.010 A 
ENDBRANCH  11  12
BRANCH  11  18
ATOM     18  C   UNL d   1      -1.295   4.547  -3.001  0.00  0.00    -0.021 A 
ATOM     19  C   UNL d   1      -1.901   3.913  -4.101  0.00  0.00     0.010 A 
ATOM     20  C   UNL d   1      -1.694   4.379  -5.400  0.00  0.00     0.001 A 
ATOM     21  C   UNL d   1      -0.878   5.486  -5.622  0.00  0.00     0.000 A 
ATOM     22  C   UNL d   1      -0.283   6.138  -4.544  0.00  0.00     0.001 A 
ATOM     23  C   UNL d   1      -0.500   5.680  -3.243  0.00  0.00     0.010 A 
ENDBRANCH  11  18
ENDBRANCH   4  11
BRANCH   3  24
ATOM     24  C   UNL d   1       0.990  -1.527   2.206  0.00  0.00     0.069 A 
ATOM     25  C   UNL d   1       0.187  -2.645   2.469  0.00  0.00     0.095 A 
ATOM     26  C   UNL d   1       0.675  -3.678   3.272  0.00  0.00     0.039 A 
ATOM     27  C   UNL d   1       1.970  -3.615   3.789  0.00  0.00     0.003 A 
ATOM     28  C   UNL d   1       2.784  -2.520   3.500  0.00  0.00     0.002 A 
ATOM     29  C   UNL d   1       2.300  -1.481   2.701  0.00  0.00     0.032 A 
BRANCH  25  30
ATOM     30  O   UNL d   1      -1.101  -2.787   2.013  0.00  0.00    -0.354 OA
ATOM     31  C   UNL d   1      -1.239  -2.670   0.594  0.00  0.00     0.210 C 
ENDBRANCH  25  30
ENDBRANCH   3  24
TORSDOF 5
