REMARK  5 active torsions:
REMARK  status: ('A' for Active; 'I' for Inactive)
REMARK    1  A    between atoms: C_2  and  C_1 
REMARK    2  A    between atoms: N_3  and  C_1 
REMARK    3  A    between atoms: C_5  and  C_1 
REMARK    4  A    between atoms: O_8  and  C_2 
REMARK       I    between atoms: C_4  and  N_3 
REMARK    5  A    between atoms: C_9  and  C_5 
ROOT
ATOM      1  C   UNL d   1       0.990  -0.106  -0.044  0.00  0.00     0.188 C 
ENDROOT
BRANCH   1   2
ATOM      2  C   UNL d   1       0.569  -0.809  -1.337  0.00  0.00     0.281 C 
ATOM      3  O   UNL d   1       1.025  -1.878  -1.723  0.00  0.00    -0.263 OA
BRANCH   2   4
ATOM      4  O   UNL d   1      -0.442  -0.124  -1.942  0.00  0.00    -0.325 OA
ATOM      5  C   UNL d   1      -1.000  -0.765  -3.089  0.00  0.00     0.213 C 
ENDBRANCH   2   4
ENDBRANCH   1   2
BRANCH   1   6
ATOM      6  N   UNL d   1       0.461  -0.863   1.093  0.00  0.00    -0.347 N 
ATOM      7  C   UNL d   1      -0.746  -0.538   1.657  0.00  0.00     0.214 C 
ATOM      8  O   UNL d   1      -1.454   0.382   1.262  0.00  0.00    -0.274 OA
ATOM      9  C   UNL d   1      -1.141  -1.405   2.821  0.00  0.00     0.117 C 
ATOM     10  H   UNL d   1       0.903  -1.744   1.325  0.00  0.00     0.163 HD
ENDBRANCH   1   6
BRANCH   1  11
ATOM     11  C   UNL d   1       2.526  -0.007   0.010  0.00  0.00     0.074 C 
BRANCH  11  12
ATOM     12  C   UNL d   1       3.033   0.639   1.283  0.00  0.00    -0.056 A 
ATOM     13  C   UNL d   1       3.893  -0.062   2.141  0.00  0.00     0.007 A 
ATOM     14  C   UNL d   1       4.317   0.510   3.342  0.00  0.00     0.001 A 
ATOM     15  C   UNL d   1       3.891   1.788   3.696  0.00  0.00     0.000 A 
ATOM     16  C   UNL d   1       3.056   2.503   2.841  0.00  0.00     0.001 A 
ATOM     17  C   UNL d   1       2.636   1.936   1.637  0.00  0.00     0.007 A 
ENDBRANCH  11  12
ENDBRANCH   1  11
TORSDOF 5
