REMARK  8 active torsions:
REMARK  status: ('A' for Active; 'I' for Inactive)
REMARK    1  A    between atoms: N_4  and  S_1 
REMARK    2  A    between atoms: C_5  and  S_1 
REMARK    3  A    between atoms: C_9  and  C_2 
REMARK    4  A    between atoms: C_3  and  O_10 
REMARK    5  A    between atoms: C_6  and  N_4 
REMARK    6  A    between atoms: C_7  and  C_13 
REMARK    7  A    between atoms: O_26  and  C_9 
REMARK    8  A    between atoms: O_10  and  C_12 
ROOT
ATOM      1  C   UNL d   1       0.857  -0.816  -2.442  0.00  0.00     0.057 A 
ATOM      2  C   UNL d   1       2.147  -0.401  -2.818  0.00  0.00     0.098 A 
ATOM      3  C   UNL d   1       0.203  -0.861  -4.809  0.00  0.00     0.049 A 
ATOM      4  C   UNL d   1      -0.120  -1.001  -3.443  0.00  0.00     0.043 A 
ATOM      5  C   UNL d   1       2.470  -0.302  -4.182  0.00  0.00     0.040 A 
ATOM      6  C   UNL d   1       1.510  -0.513  -5.165  0.00  0.00     0.019 A 
ENDROOT
BRANCH   1   7
ATOM      7  N   UNL d   1       0.518  -1.114  -1.058  0.00  0.00    -0.179 NA
ATOM      8  H   UNL d   1      -0.170  -1.872  -1.035  0.00  0.00     0.146 HD
BRANCH   7   9
ATOM      9  S   UNL d   1      -0.185   0.162  -0.169  0.00  0.00     0.246 S 
ATOM     10  O   UNL d   1      -1.592   0.122  -0.509  0.00  0.00    -0.206 OA
ATOM     11  O   UNL d   1       0.589   1.373  -0.321  0.00  0.00    -0.206 OA
BRANCH   9  12
ATOM     12  C   UNL d   1      -0.029  -0.382   1.550  0.00  0.00     0.082 A 
ATOM     13  C   UNL d   1       1.216  -0.612   2.180  0.00  0.00    -0.017 A 
ATOM     14  C   UNL d   1       1.209  -1.026   3.534  0.00  0.00     0.041 A 
ATOM     15  C   UNL d   1       2.538  -0.452   1.486  0.00  0.00     0.052 C 
ATOM     16 CL   UNL d   1       2.677  -1.385   4.388  0.00  0.00    -0.084 Cl
ATOM     17  C   UNL d   1       0.019  -1.163   4.252  0.00  0.00     0.024 A 
ATOM     18  C   UNL d   1      -1.196  -0.904   3.631  0.00  0.00     0.003 A 
ATOM     19  C   UNL d   1      -1.222  -0.523   2.288  0.00  0.00     0.025 A 
ENDBRANCH   9  12
ENDBRANCH   7   9
ENDBRANCH   1   7
BRANCH   2  20
ATOM     20  O   UNL d   1       3.126  -0.182  -1.865  0.00  0.00    -0.307 OA
BRANCH  20  21
ATOM     21  C   UNL d   1       4.079   0.777  -2.062  0.00  0.00     0.099 A 
ATOM     22  C   UNL d   1       5.381   0.649  -1.604  0.00  0.00     0.114 A 
ATOM     23  S   UNL d   1       6.347   1.981  -2.132  0.00  0.00    -0.093 SA
ATOM     24  C   UNL d   1       5.027   2.753  -2.876  0.00  0.00     0.053 A 
ATOM     25  C   UNL d   1       3.869   2.026  -2.736  0.00  0.00     0.046 A 
BRANCH  22  26
ATOM     26  C   UNL d   1       6.055  -0.371  -0.814  0.00  0.00     0.302 C 
ATOM     27  O   UNL d   1       7.248  -0.379  -0.535  0.00  0.00    -0.259 OA
BRANCH  26  28
ATOM     28  O   UNL d   1       5.176  -1.318  -0.378  0.00  0.00    -0.322 OA
ATOM     29  C   UNL d   1       5.764  -2.277   0.506  0.00  0.00     0.213 C 
ENDBRANCH  26  28
ENDBRANCH  22  26
ENDBRANCH  20  21
ENDBRANCH   2  20
BRANCH   3  30
ATOM     30  C   UNL d   1      -0.786  -1.135  -5.920  0.00  0.00     0.417 C 
ATOM     31  F   UNL d   1      -2.018  -1.509  -5.479  0.00  0.00    -0.166 F 
ATOM     32  F   UNL d   1      -0.981  -0.056  -6.727  0.00  0.00    -0.166 F 
ATOM     33  F   UNL d   1      -0.362  -2.138  -6.739  0.00  0.00    -0.166 F 
ENDBRANCH   3  30
TORSDOF 8
