REMARK  2 active torsions:
REMARK  status: ('A' for Active; 'I' for Inactive)
REMARK    1  A    between atoms: C_4  and  N_1 
REMARK    2  A    between atoms: C_7  and  C_6 
ROOT
ATOM      1  C   UNL d   1       1.304   2.178  -1.120  0.00  0.00     0.045 A 
ATOM      2  C   UNL d   1       2.475   4.144  -2.814  0.00  0.00     0.009 A 
ATOM      3  C   UNL d   1       1.916   1.836  -2.341  0.00  0.00     0.031 A 
ATOM      4  C   UNL d   1       1.344   3.535  -0.753  0.00  0.00     0.031 A 
ATOM      5  C   UNL d   1       1.917   4.505  -1.587  0.00  0.00     0.017 A 
ATOM      6  C   UNL d   1       2.487   2.801  -3.182  0.00  0.00     0.017 A 
ENDROOT
BRANCH   1   7
ATOM      7  N   UNL d   1       0.798   1.160  -0.221  0.00  0.00    -0.251 N 
ATOM      8  C   UNL d   1       0.034   1.522   0.893  0.00  0.00     0.240 C 
ATOM      9  O   UNL d   1      -0.710   2.502   0.953  0.00  0.00    -0.272 OA
ATOM     10  C   UNL d   1       0.198   0.637   2.118  0.00  0.00     0.178 C 
ATOM     11  S   UNL d   1      -0.107  -1.101   1.762  0.00  0.00    -0.150 SA
ATOM     12  C   UNL d   1       0.994  -1.216   0.344  0.00  0.00     0.178 C 
ATOM     13  C   UNL d   1       0.654  -0.153  -0.680  0.00  0.00     0.240 C 
ATOM     14  O   UNL d   1       0.310  -0.479  -1.817  0.00  0.00    -0.272 OA
ENDBRANCH   1   7
BRANCH   2  15
ATOM     15  C   UNL d   1       3.066   5.203  -3.673  0.00  0.00     0.155 C 
ATOM     16  O   UNL d   1       3.489   6.234  -3.155  0.00  0.00    -0.293 OA
ATOM     17  C   UNL d   1       3.129   4.994  -5.164  0.00  0.00     0.096 C 
ENDBRANCH   2  15
TORSDOF 2
