REMARK  1 active torsions:
REMARK  status: ('A' for Active; 'I' for Inactive)
REMARK    1  A    between atoms: C_9  and  N_6 
ROOT
ATOM      1  C   UNL d   1      -1.270   0.774  -0.099  0.00  0.00     0.114 A 
ATOM      2  C   UNL d   1       0.260   0.591  -0.240  0.00  0.00     0.273 A 
ATOM      3  N   UNL d   1       0.444  -0.736  -0.567  0.00  0.00    -0.321 N 
ATOM      4  C   UNL d   1      -1.837  -0.582  -0.234  0.00  0.00     0.023 A 
ATOM      5  C   UNL d   1      -0.768  -1.415  -0.574  0.00  0.00     0.047 A 
ATOM      6  N   UNL d   1      -1.766   1.964   0.032  0.00  0.00    -0.351 N 
ATOM      7  HN  UNL d   1      -1.111   2.742   0.105  1.00  0.00     0.166 HD
ATOM      8  O   UNL d   1       1.107   1.441  -0.091  0.00  0.00    -0.266 OA
ATOM      9  C   UNL d   1      -3.115  -1.094  -0.107  0.00  0.00     0.016 A 
ATOM     10  C   UNL d   1      -0.944  -2.754  -0.865  0.00  0.00     0.030 A 
ATOM     11  C   UNL d   1      -3.317  -2.444  -0.421  0.00  0.00     0.001 A 
ATOM     12  C   UNL d   1      -2.244  -3.263  -0.806  0.00  0.00     0.002 A 
ATOM     13  H   UNL d   1       1.353  -1.132  -0.731  0.00  0.00     0.169 HD
ENDROOT
BRANCH   6  14
ATOM     14  C   UNL d   1      -3.129   2.258   0.079  0.00  0.00     0.032 A 
ATOM     15  C   UNL d   1      -3.582   3.111   1.093  0.00  0.00     0.032 A 
ATOM     16  C   UNL d   1      -4.929   3.471   1.179  0.00  0.00     0.044 A 
ATOM     17  C   UNL d   1      -5.827   2.967   0.248  0.00  0.00     0.116 A 
ATOM     18  C   UNL d   1      -5.394   2.158  -0.794  0.00  0.00     0.044 A 
ATOM     19  F   UNL d   1      -7.127   3.275   0.348  0.00  0.00    -0.206 F 
ATOM     20  C   UNL d   1      -4.037   1.842  -0.901  0.00  0.00     0.032 A 
ENDBRANCH   6  14
TORSDOF 1
