REMARK  3 active torsions:
REMARK  status: ('A' for Active; 'I' for Inactive)
REMARK    1  A    between atoms: S_2  and  C_1 
REMARK    2  A    between atoms: C_9  and  S_2 
REMARK    3  A    between atoms: C_6  and  C_4 
REMARK       I    between atoms: N_5  and  C_6 
ROOT
ATOM      1  C   UNL d   1       0.655   1.266   0.007  0.00  0.00     0.078 C 
ATOM      2  C   UNL d   1       1.227  -0.064  -0.061  0.00  0.00    -0.017 C 
ATOM      3  C   UNL d   1       0.224  -1.046  -0.062  0.00  0.00     0.080 C 
ATOM      4  S   UNL d   1      -1.318  -0.358   0.220  0.00  0.00    -0.094 SA
ATOM      5  C   UNL d   1      -0.722   1.227   0.078  0.00  0.00     0.075 C 
ATOM      6  C   UNL d   1       2.687  -0.415  -0.096  0.00  0.00     0.051 C 
ENDROOT
BRANCH   1   7
ATOM      7  S   UNL d   1       1.504   2.795   0.038  0.00  0.00     0.207 S 
ATOM      8  O   UNL d   1       0.550   3.735   0.593  0.00  0.00    -0.217 OA
ATOM      9  O   UNL d   1       2.775   2.539   0.680  0.00  0.00    -0.217 OA
BRANCH   7  10
ATOM     10  C   UNL d   1       1.784   3.234  -1.659  0.00  0.00     0.064 A 
ATOM     11  C   UNL d   1       0.865   4.060  -2.318  0.00  0.00     0.025 A 
ATOM     12  C   UNL d   1       1.110   4.454  -3.635  0.00  0.00     0.025 A 
ATOM     13  C   UNL d   1       2.272   4.034  -4.281  0.00  0.00     0.034 A 
ATOM     14  C   UNL d   1       3.201   3.232  -3.616  0.00  0.00     0.025 A 
ATOM     15 CL   UNL d   1       2.569   4.516  -5.906  0.00  0.00    -0.084 Cl
ATOM     16  C   UNL d   1       2.964   2.837  -2.297  0.00  0.00     0.025 A 
ENDBRANCH   7  10
ENDBRANCH   1   7
BRANCH   3  17
ATOM     17  C   UNL d   1       0.432  -2.500  -0.061  0.00  0.00     0.261 C 
ATOM     18  N   UNL d   1      -0.405  -3.360  -0.783  0.00  0.00    -0.343 N 
ATOM     19  C   UNL d   1      -1.465  -3.021  -1.740  0.00  0.00     0.157 C 
ATOM     20  C   UNL d   1      -0.112  -4.800  -0.772  0.00  0.00     0.157 C 
ATOM     21  C   UNL d   1      -2.722  -3.864  -1.445  0.00  0.00     0.136 C 
ATOM     22  C   UNL d   1      -3.816  -3.601  -2.469  0.00  0.00     0.041 C 
ATOM     23  O   UNL d   1      -2.405  -5.270  -1.494  0.00  0.00    -0.378 OA
ATOM     24  C   UNL d   1      -1.396  -5.610  -0.524  0.00  0.00     0.136 C 
ATOM     25  C   UNL d   1      -1.128  -7.104  -0.630  0.00  0.00     0.041 C 
ATOM     26  O   UNL d   1       1.382  -2.979   0.560  0.00  0.00    -0.267 OA
ENDBRANCH   3  17
TORSDOF 3
