REMARK  1 active torsions:
REMARK  status: ('A' for Active; 'I' for Inactive)
REMARK    1  A    between atoms: C_8  and  C_1 
ROOT
ATOM      1  C   UNL d   1       0.361   1.112   0.009  0.00  0.00     0.144 A 
ATOM      2  N   UNL d   1       0.205  -0.957  -0.626  0.00  0.00    -0.005 NA
ATOM      3  N   UNL d   1       0.737   0.211  -0.960  0.00  0.00    -0.266 N 
ATOM      4  HN  UNL d   1       1.314   0.404  -1.779  1.00  0.00     0.186 HD
ATOM      5  N   UNL d   1      -0.402   0.549   0.963  0.00  0.00    -0.271 N 
ATOM      6  HN  UNL d   1      -0.820   0.964   1.796  1.00  0.00     0.190 HD
ATOM      7  N   UNL d   1      -0.457  -0.712   0.509  0.00  0.00    -0.225 N 
ATOM      8  H   UNL d   1      -0.972  -1.440   0.995  0.00  0.00     0.205 HD
ENDROOT
BRANCH   1   9
ATOM      9  C   UNL d   1       0.751   2.516  -0.016  0.00  0.00     0.012 A 
ATOM     10  C   UNL d   1       0.349   3.387   1.009  0.00  0.00     0.041 A 
ATOM     11  C   UNL d   1       0.718   4.736   0.986  0.00  0.00     0.056 A 
ATOM     12 CL   UNL d   1       0.185   5.735   2.291  0.00  0.00    -0.083 Cl
ATOM     13  C   UNL d   1       1.491   5.231  -0.069  0.00  0.00     0.055 A 
ATOM     14  C   UNL d   1       1.896   4.371  -1.094  0.00  0.00     0.026 A 
ATOM     15 CL   UNL d   1       1.976   6.886  -0.169  0.00  0.00    -0.083 Cl
ATOM     16  C   UNL d   1       1.530   3.021  -1.066  0.00  0.00     0.017 A 
ENDBRANCH   1   9
TORSDOF 1
