REMARK  2 active torsions:
REMARK  status: ('A' for Active; 'I' for Inactive)
REMARK    1  A    between atoms: C_7  and  C_2 
REMARK    2  A    between atoms: C_12  and  C_6 
ROOT
ATOM      1  C   UNL d   1      -0.471  -0.400  -0.010  0.00  0.00     0.123 A 
ATOM      2  C   UNL d   1       0.281  -1.526  -0.042  0.00  0.00     0.003 A 
ATOM      3  C   UNL d   1       0.214   0.929   0.020  0.00  0.00     0.267 A 
ATOM      4  N   UNL d   1       1.587   0.911   0.048  0.00  0.00    -0.322 N 
ATOM      5  C   UNL d   1       1.739  -1.425  -0.021  0.00  0.00     0.044 A 
ATOM      6  C   UNL d   1       2.342  -0.229   0.031  0.00  0.00     0.046 A 
ATOM      7  C   UNL d   1      -1.894  -0.406   0.005  0.00  0.00     0.106 C 
ATOM      8  N   UNL d   1      -3.054  -0.468   0.024  0.00  0.00    -0.191 NA
ATOM      9  O   UNL d   1      -0.402   1.989   0.022  0.00  0.00    -0.266 OA
ATOM     10  H   UNL d   1       2.042   1.817   0.078  0.00  0.00     0.169 HD
ENDROOT
BRANCH   2  11
ATOM     11  C   UNL d   1      -0.363  -2.857  -0.082  0.00  0.00    -0.022 A 
ATOM     12  C   UNL d   1      -0.653  -3.537   1.108  0.00  0.00     0.038 A 
ATOM     13  C   UNL d   1      -1.235  -4.810   1.071  0.00  0.00     0.056 A 
ATOM     14 CL   UNL d   1      -1.560  -5.586   2.580  0.00  0.00    -0.083 Cl
ATOM     15  C   UNL d   1      -1.524  -5.411  -0.159  0.00  0.00     0.055 A 
ATOM     16  C   UNL d   1      -1.239  -4.732  -1.347  0.00  0.00     0.026 A 
ATOM     17 CL   UNL d   1      -2.217  -6.989  -0.281  0.00  0.00    -0.083 Cl
ATOM     18  C   UNL d   1      -0.659  -3.461  -1.310  0.00  0.00     0.014 A 
ENDBRANCH   2  11
BRANCH   6  19
ATOM     19  C   UNL d   1       3.800  -0.093   0.081  0.00  0.00    -0.009 A 
ATOM     20  C   UNL d   1       4.542   0.023  -1.101  0.00  0.00     0.015 A 
ATOM     21  C   UNL d   1       5.931   0.171  -1.048  0.00  0.00     0.024 A 
ATOM     22  C   UNL d   1       6.578   0.203   0.187  0.00  0.00     0.034 A 
ATOM     23  C   UNL d   1       5.850   0.084   1.369  0.00  0.00     0.024 A 
ATOM     24 CL   UNL d   1       8.286   0.396   0.252  0.00  0.00    -0.084 Cl
ATOM     25  C   UNL d   1       4.461  -0.064   1.316  0.00  0.00     0.015 A 
ENDBRANCH   6  19
TORSDOF 2
