REMARK  1 active torsions:
REMARK  status: ('A' for Active; 'I' for Inactive)
REMARK    1  A    between atoms: C_3  and  C_1 
REMARK       I    between atoms: N_6  and  C_3 
ROOT
ATOM      1  C   UNL d   1      -1.569  -1.418  -0.246  0.00  0.00     0.108 C 
ATOM      2  C   UNL d   1      -1.920   0.035  -0.225  0.00  0.00     0.304 C 
ATOM      3  C   UNL d   1      -0.274  -1.767  -0.121  0.00  0.00     0.037 C 
ATOM      4  O   UNL d   1      -0.848   0.943  -0.279  0.00  0.00    -0.274 OA
ATOM      5  C   UNL d   1       0.742  -0.802   0.217  0.00  0.00    -0.001 A 
ATOM      6  C   UNL d   1       0.463   0.541   0.028  0.00  0.00     0.089 A 
ATOM      7  O   UNL d   1      -3.073   0.448  -0.182  0.00  0.00    -0.259 OA
ATOM      8  C   UNL d   1       1.999  -1.195   0.675  0.00  0.00     0.014 A 
ATOM      9  C   UNL d   1       1.452   1.506   0.186  0.00  0.00     0.038 A 
ATOM     10  C   UNL d   1       2.988  -0.236   0.881  0.00  0.00     0.001 A 
ATOM     11  C   UNL d   1       2.725   1.110   0.607  0.00  0.00     0.003 A 
ENDROOT
BRANCH   1  12
ATOM     12  C   UNL d   1      -2.590  -2.443  -0.641  0.00  0.00     0.259 C 
ATOM     13  N   UNL d   1      -2.555  -3.751  -0.115  0.00  0.00    -0.348 N 
ATOM     14  C   UNL d   1      -1.548  -4.272   0.818  0.00  0.00     0.126 C 
ATOM     15  C   UNL d   1      -3.275  -4.755  -0.908  0.00  0.00     0.126 C 
ATOM     16  C   UNL d   1      -1.974  -5.511   1.596  0.00  0.00     0.020 C 
ATOM     17  C   UNL d   1      -2.510  -6.577   0.655  0.00  0.00     0.003 C 
ATOM     18  C   UNL d   1      -3.679  -6.003  -0.129  0.00  0.00     0.020 C 
ATOM     19  O   UNL d   1      -3.430  -2.120  -1.484  0.00  0.00    -0.267 OA
ENDBRANCH   1  12
TORSDOF 1
