REMARK  6 active torsions:
REMARK  status: ('A' for Active; 'I' for Inactive)
REMARK    1  A    between atoms: O_16  and  C_1 
REMARK       I    between atoms: C_2  and  N_10 
REMARK    2  A    between atoms: C_5  and  C_2 
REMARK    3  A    between atoms: O_18  and  C_3 
REMARK    4  A    between atoms: O_17  and  C_4 
REMARK    5  A    between atoms: N_10  and  N_6 
REMARK    6  A    between atoms: C_15  and  C_11 
ROOT
ATOM      1  N   UNL d   1      -3.280   1.688  -0.310  0.00  0.00    -0.308 N 
ATOM      2  HN  UNL d   1      -2.656   2.493  -0.366  1.00  0.00     0.186 HD
ATOM      3  C   UNL d   1      -2.829   0.482  -0.193  0.00  0.00     0.118 C 
ENDROOT
BRANCH   1   4
ATOM      4  N   UNL d   1      -4.635   1.825  -0.355  0.00  0.00    -0.266 N 
ATOM      5  C   UNL d   1      -5.178   3.099  -0.446  0.00  0.00     0.271 C 
ATOM      6  O   UNL d   1      -4.540   4.146  -0.435  0.00  0.00    -0.266 OA
ATOM      7  H   UNL d   1      -5.219   1.007  -0.240  0.00  0.00     0.190 HD
BRANCH   5   8
ATOM      8  C   UNL d   1      -6.654   3.168  -0.544  0.00  0.00     0.049 A 
ATOM      9  C   UNL d   1      -7.295   4.310  -0.077  0.00  0.00     0.104 A 
ATOM     10  N   UNL d   1      -8.639   4.497  -0.127  0.00  0.00    -0.374 N 
ATOM     11  C   UNL d   1      -9.370   3.510  -0.689  0.00  0.00     0.087 A 
ATOM     12  HN  UNL d   1      -9.075   5.341   0.243  1.00  0.00     0.164 HD
ATOM     13  C   UNL d   1      -8.819   2.344  -1.199  0.00  0.00     0.018 A 
ATOM     14  C   UNL d   1      -7.437   2.168  -1.126  0.00  0.00     0.020 A 
ENDBRANCH   5   8
ENDBRANCH   1   4
BRANCH   3  15
ATOM     15  C   UNL d   1      -1.380   0.206  -0.141  0.00  0.00    -0.014 A 
ATOM     16  C   UNL d   1      -0.452   1.246  -0.158  0.00  0.00     0.052 A 
ATOM     17  C   UNL d   1       0.920   0.974  -0.131  0.00  0.00     0.105 A 
ATOM     18  C   UNL d   1       1.363  -0.359  -0.064  0.00  0.00     0.135 A 
ATOM     19  C   UNL d   1       0.415  -1.404   0.040  0.00  0.00     0.105 A 
ATOM     20  C   UNL d   1      -0.952  -1.118  -0.047  0.00  0.00     0.052 A 
BRANCH  17  21
ATOM     21  O   UNL d   1       1.691   2.106  -0.093  0.00  0.00    -0.353 OA
ATOM     22  C   UNL d   1       2.934   2.059  -0.777  0.00  0.00     0.210 C 
ENDBRANCH  17  21
BRANCH  18  23
ATOM     23  O   UNL d   1       2.708  -0.606   0.063  0.00  0.00    -0.351 OA
ATOM     24  C   UNL d   1       3.238  -1.492  -0.924  0.00  0.00     0.210 C 
ENDBRANCH  18  23
BRANCH  19  25
ATOM     25  O   UNL d   1       0.901  -2.673   0.243  0.00  0.00    -0.353 OA
ATOM     26  C   UNL d   1       0.006  -3.624   0.809  0.00  0.00     0.210 C 
ENDBRANCH  19  25
ENDBRANCH   3  15
TORSDOF 6
