REMARK  6 active torsions:
REMARK  status: ('A' for Active; 'I' for Inactive)
REMARK    1  A    between atoms: C_8  and  C_3 
REMARK    2  A    between atoms: C_15  and  C_6 
REMARK    3  A    between atoms: C_9  and  C_20 
REMARK    4  A    between atoms: O_16  and  C_9 
REMARK    5  A    between atoms: S_13  and  C_15 
REMARK    6  A    between atoms: C_20  and  S_13 
ROOT
ATOM      1  N   UNL d   1       1.309   0.180  -0.177  0.00  0.00    -0.322 N 
ATOM      2  HN  UNL d   1       2.297   0.344  -0.373  1.00  0.00     0.169 HD
ATOM      3  C   UNL d   1       0.284   1.103  -0.025  0.00  0.00     0.137 A 
ATOM      4  N   UNL d   1      -0.919   0.545   0.183  0.00  0.00    -0.242 N 
ATOM      5  HN  UNL d   1      -1.817   1.015   0.300  1.00  0.00     0.196 HD
ATOM      6  C   UNL d   1       0.677  -0.964  -0.004  0.00  0.00     0.157 A 
ATOM      7  O   UNL d   1      -0.660  -0.822   0.201  0.00  0.00    -0.222 OA
ENDROOT
BRANCH   3   8
ATOM      8  C   UNL d   1       0.518   2.542  -0.089  0.00  0.00     0.010 A 
ATOM      9  C   UNL d   1       1.823   3.036  -0.241  0.00  0.00     0.017 A 
ATOM     10  C   UNL d   1       2.064   4.412  -0.308  0.00  0.00     0.025 A 
ATOM     11  C   UNL d   1       1.000   5.306  -0.220  0.00  0.00     0.034 A 
ATOM     12  C   UNL d   1      -0.302   4.837  -0.061  0.00  0.00     0.025 A 
ATOM     13 CL   UNL d   1       1.298   6.997  -0.308  0.00  0.00    -0.084 Cl
ATOM     14  C   UNL d   1      -0.542   3.459   0.004  0.00  0.00     0.017 A 
ENDBRANCH   3   8
BRANCH   6  15
ATOM     15  C   UNL d   1       1.221  -2.342  -0.039  0.00  0.00     0.161 C 
BRANCH  15  16
ATOM     16  S   UNL d   1       1.296  -3.011  -1.735  0.00  0.00    -0.150 SA
BRANCH  16  17
ATOM     17  C   UNL d   1       2.347  -1.775  -2.567  0.00  0.00     0.184 C 
BRANCH  17  18
ATOM     18  C   UNL d   1       3.723  -1.675  -1.946  0.00  0.00     0.149 C 
ATOM     19  O   UNL d   1       4.658  -2.406  -2.232  0.00  0.00    -0.649 OA
BRANCH  18  20
ATOM     20  O   UNL d   1       3.832  -0.707  -1.004  0.00  0.00    -0.776 OA
ATOM     21  H   UNL d   1       3.008  -0.198  -0.829  0.00  0.00     0.167 HD
ENDBRANCH  18  20
ENDBRANCH  17  18
ENDBRANCH  16  17
ENDBRANCH  15  16
ENDBRANCH   6  15
TORSDOF 6
