REMARK  3 active torsions:
REMARK  status: ('A' for Active; 'I' for Inactive)
REMARK    1  A    between atoms: C_2  and  C_1 
REMARK    2  A    between atoms: O_3  and  C_1 
REMARK    3  A    between atoms: C_7  and  O_3 
ROOT
ATOM      1  N   UNL d   1      -1.229  -2.018   0.205  0.00  0.00    -0.357 N 
ATOM      2  HN  UNL d   1      -0.212  -2.073   0.260  1.00  0.00     0.166 HD
ATOM      3  C   UNL d   1      -1.880  -0.925   0.660  0.00  0.00     0.077 A 
ATOM      4  C   UNL d   1      -1.175   0.173   1.158  0.00  0.00     0.107 A 
ATOM      5  C   UNL d   1      -3.287  -0.852   0.678  0.00  0.00    -0.007 A 
ATOM      6  C   UNL d   1      -1.940  -3.036  -0.323  0.00  0.00     0.005 A 
ATOM      7  C   UNL d   1      -4.004  -1.924   0.133  0.00  0.00     0.016 A 
ATOM      8  C   UNL d   1      -3.324  -3.021  -0.388  0.00  0.00     0.025 A 
ATOM      9  C   UNL d   1      -1.807   1.278   1.735  0.00  0.00     0.040 A 
ATOM     10  C   UNL d   1      -3.197   1.319   1.778  0.00  0.00     0.004 A 
ATOM     11  C   UNL d   1      -3.936   0.265   1.240  0.00  0.00     0.014 A 
ATOM     12  C   UNL d   1      -1.158  -4.191  -0.864  0.00  0.00     0.068 C 
ENDROOT
BRANCH   4  13
ATOM     13  O   UNL d   1       0.233   0.119   1.242  0.00  0.00    -0.272 OA
BRANCH  13  14
ATOM     14  C   UNL d   1       0.920  -0.153   0.064  0.00  0.00     0.303 C 
ATOM     15  O   UNL d   1       0.634   0.263  -1.044  0.00  0.00    -0.259 OA
BRANCH  14  16
ATOM     16  C   UNL d   1       2.044  -1.069   0.397  0.00  0.00     0.100 A 
ATOM     17  C   UNL d   1       2.662  -0.974   1.649  0.00  0.00     0.134 A 
ATOM     18  F   UNL d   1       2.367   0.029   2.491  0.00  0.00    -0.205 F 
ATOM     19  C   UNL d   1       3.617  -1.899   2.070  0.00  0.00     0.043 A 
ATOM     20  C   UNL d   1       3.987  -2.941   1.234  0.00  0.00     0.005 A 
ATOM     21  C   UNL d   1       3.430  -3.023  -0.043  0.00  0.00     0.025 A 
ATOM     22  C   UNL d   1       2.474  -2.084  -0.472  0.00  0.00     0.053 A 
ATOM     23 CL   UNL d   1       1.899  -2.274  -2.091  0.00  0.00    -0.083 Cl
ENDBRANCH  14  16
ENDBRANCH  13  14
ENDBRANCH   4  13
TORSDOF 3
