REMARK  4 active torsions:
REMARK  status: ('A' for Active; 'I' for Inactive)
REMARK    1  A    between atoms: N_2  and  C_1 
REMARK    2  A    between atoms: N_5  and  N_2 
REMARK    3  A    between atoms: C_6  and  N_4 
REMARK    4  A    between atoms: C_8  and  C_6 
ROOT
ATOM      1  C   UNL d   1       1.015  -0.004  -0.013  0.00  0.00     0.182 C 
ATOM      2  S   UNL d   1       0.278   1.210  -0.898  0.00  0.00    -0.040 SA
ATOM      3  N   UNL d   1       2.360  -0.166  -0.180  0.00  0.00    -0.362 N 
ATOM      4  H   UNL d   1       2.759   0.479  -0.852  0.00  0.00     0.162 HD
ENDROOT
BRANCH   3   5
ATOM      5  C   UNL d   1       3.292  -0.889   0.662  0.00  0.00     0.160 C 
BRANCH   5   6
ATOM      6  C   UNL d   1       3.706  -2.198   0.037  0.00  0.00    -0.040 A 
ATOM      7  C   UNL d   1       4.289  -2.224  -1.240  0.00  0.00     0.012 A 
ATOM      8  C   UNL d   1       4.708  -3.431  -1.804  0.00  0.00     0.043 A 
ATOM      9  C   UNL d   1       4.550  -4.609  -1.087  0.00  0.00     0.116 A 
ATOM     10  C   UNL d   1       3.978  -4.608   0.179  0.00  0.00     0.043 A 
ATOM     11  F   UNL d   1       4.962  -5.766  -1.623  0.00  0.00    -0.206 F 
ATOM     12  C   UNL d   1       3.558  -3.401   0.745  0.00  0.00     0.012 A 
ENDBRANCH   5   6
ENDBRANCH   3   5
BRANCH   1  13
ATOM     13  N   UNL d   1       0.412  -0.838   0.901  0.00  0.00    -0.296 N 
ATOM     14  H   UNL d   1       0.843  -1.734   1.101  0.00  0.00     0.183 HD
BRANCH  13  15
ATOM     15  N   UNL d   1      -0.858  -0.557   1.434  0.00  0.00    -0.238 NA
ATOM     16  C   UNL d   1      -1.880  -1.491   0.967  0.00  0.00     0.135 C 
ATOM     17  C   UNL d   1      -0.811  -0.508   2.894  0.00  0.00     0.135 C 
ENDBRANCH  13  15
ENDBRANCH   1  13
TORSDOF 4
