REMARK  6 active torsions:
REMARK  status: ('A' for Active; 'I' for Inactive)
REMARK    1  A    between atoms: N_3  and  S_1 
REMARK    2  A    between atoms: C_10  and  S_1 
REMARK    3  A    between atoms: S_2  and  N_8 
REMARK    4  A    between atoms: C_11  and  S_2 
REMARK    5  A    between atoms: C_4  and  N_3 
REMARK    6  A    between atoms: N_8  and  C_21 
ROOT
ATOM      1  C   UNL d   1       0.489   0.757  -1.531  0.00  0.00     0.075 A 
ATOM      2  C   UNL d   1      -0.293   0.022  -2.430  0.00  0.00     0.027 A 
ATOM      3  C   UNL d   1       0.776   2.104  -1.769  0.00  0.00     0.027 A 
ATOM      4  C   UNL d   1      -0.402   1.951  -3.874  0.00  0.00     0.042 A 
ATOM      5  C   UNL d   1      -0.736   0.623  -3.610  0.00  0.00     0.031 A 
ATOM      6  C   UNL d   1       0.339   2.695  -2.954  0.00  0.00     0.031 A 
ENDROOT
BRANCH   1   7
ATOM      7  S   UNL d   1       1.118  -0.024  -0.071  0.00  0.00     0.247 S 
ATOM      8  O   UNL d   1       1.366   1.005   0.914  0.00  0.00    -0.205 OA
ATOM      9  O   UNL d   1       0.287  -1.165   0.252  0.00  0.00    -0.205 OA
BRANCH   7  10
ATOM     10  N   UNL d   1       2.644  -0.555  -0.562  0.00  0.00    -0.165 NA
ATOM     11  H   UNL d   1       3.306  -0.342   0.180  0.00  0.00     0.147 HD
BRANCH  10  12
ATOM     12  C   UNL d   1       2.730  -1.813  -1.143  0.00  0.00     0.117 A 
ATOM     13  N   UNL d   1       2.535  -2.010  -2.448  0.00  0.00    -0.249 N 
ATOM     14  O   UNL d   1       2.737  -3.366  -2.653  0.00  0.00    -0.241 OA
ATOM     15  HN  UNL d   1       2.289  -1.310  -3.148  1.00  0.00     0.196 HD
ATOM     16  C   UNL d   1       3.043  -3.959  -1.468  0.00  0.00     0.075 A 
ATOM     17  C   UNL d   1       3.071  -3.006  -0.479  0.00  0.00     0.079 A 
ATOM     18  C   UNL d   1       3.260  -5.416  -1.499  0.00  0.00     0.079 C 
ENDBRANCH  10  12
ENDBRANCH   7  10
ENDBRANCH   1   7
BRANCH   4  19
ATOM     19  N   UNL d   1      -0.688   2.522  -5.133  0.00  0.00    -0.281 N 
ATOM     20  H   UNL d   1       0.016   2.516  -5.868  0.00  0.00     0.179 HD
BRANCH  19  21
ATOM     21  S   UNL d   1      -2.143   3.255  -5.477  0.00  0.00     0.263 S 
ATOM     22  O   UNL d   1      -2.014   3.796  -6.812  0.00  0.00    -0.200 OA
ATOM     23  O   UNL d   1      -3.225   2.351  -5.138  0.00  0.00    -0.200 OA
BRANCH  21  24
ATOM     24  C   UNL d   1      -2.195   4.630  -4.348  0.00  0.00     0.080 A 
ATOM     25  C   UNL d   1      -1.607   5.851  -4.706  0.00  0.00     0.028 A 
ATOM     26  C   UNL d   1      -1.706   6.939  -3.835  0.00  0.00     0.044 A 
ATOM     27  C   UNL d   1      -2.393   6.800  -2.632  0.00  0.00     0.116 A 
ATOM     28  C   UNL d   1      -2.985   5.591  -2.277  0.00  0.00     0.044 A 
ATOM     29  F   UNL d   1      -2.496   7.850  -1.807  0.00  0.00    -0.206 F 
ATOM     30  C   UNL d   1      -2.891   4.499  -3.141  0.00  0.00     0.028 A 
ENDBRANCH  21  24
ENDBRANCH  19  21
ENDBRANCH   4  19
TORSDOF 6
