REMARK  3 active torsions:
REMARK  status: ('A' for Active; 'I' for Inactive)
REMARK    1  A    between atoms: C_3  and  C_1 
REMARK    2  A    between atoms: O_11  and  C_1 
REMARK    3  A    between atoms: C_2  and  C_4 
ROOT
ATOM      1  C   UNL d   1       0.347  -0.930  -0.911  0.00  0.00     0.037 A 
ATOM      2  C   UNL d   1      -0.916  -2.752  -2.689  0.00  0.00    -0.023 A 
ATOM      3  C   UNL d   1       0.812  -2.241  -1.026  0.00  0.00     0.019 A 
ATOM      4  C   UNL d   1      -0.739  -0.518  -1.685  0.00  0.00     0.019 A 
ATOM      5  C   UNL d   1      -1.371  -1.428  -2.542  0.00  0.00     0.013 A 
ATOM      6  C   UNL d   1       0.190  -3.136  -1.905  0.00  0.00     0.013 A 
ENDROOT
BRANCH   2   7
ATOM      7  C   UNL d   1      -1.553  -3.691  -3.649  0.00  0.00     0.013 A 
ATOM      8  C   UNL d   1      -2.102  -3.258  -4.871  0.00  0.00     0.127 A 
ATOM      9  F   UNL d   1      -2.060  -1.962  -5.221  0.00  0.00    -0.205 F 
ATOM     10  C   UNL d   1      -2.693  -4.139  -5.778  0.00  0.00     0.043 A 
ATOM     11  C   UNL d   1      -2.740  -5.499  -5.494  0.00  0.00     0.003 A 
ATOM     12  C   UNL d   1      -2.205  -5.966  -4.298  0.00  0.00     0.001 A 
ATOM     13  C   UNL d   1      -1.626  -5.074  -3.385  0.00  0.00     0.015 A 
ENDBRANCH   2   7
BRANCH   1  14
ATOM     14  C   UNL d   1       1.063  -0.002  -0.003  0.00  0.00     0.176 C 
ATOM     15  O   UNL d   1       2.256  -0.098   0.237  0.00  0.00    -0.646 OA
BRANCH  14  16
ATOM     16  O   UNL d   1       0.269   0.928   0.567  0.00  0.00    -0.773 OA
ATOM     17  H   UNL d   1      -0.687   0.791   0.434  0.00  0.00     0.167 HD
ENDBRANCH  14  16
ENDBRANCH   1  14
TORSDOF 3
