REMARK  2 active torsions:
REMARK  status: ('A' for Active; 'I' for Inactive)
REMARK    1  A    between atoms: C_4  and  C_2 
REMARK    2  A    between atoms: N_3  and  C_5 
ROOT
ATOM      1  C   UNL d   1      -0.208  -1.008  -1.220  0.00  0.00     0.125 C 
ATOM      2  C   UNL d   1      -0.103  -1.976  -0.290  0.00  0.00     0.047 C 
ATOM      3  N   UNL d   1       1.719  -0.374  -2.822  0.00  0.00    -0.191 NA
ATOM      4  N   UNL d   1      -2.439   0.286  -1.380  0.00  0.00    -0.191 NA
ATOM      5  C   UNL d   1       0.865  -0.657  -2.085  0.00  0.00     0.111 C 
ATOM      6  C   UNL d   1      -1.433  -0.293  -1.331  0.00  0.00     0.111 C 
ENDROOT
BRANCH   2   7
ATOM      7  C   UNL d   1       1.138  -2.699   0.023  0.00  0.00    -0.007 A 
ATOM      8  C   UNL d   1       2.128  -2.147   0.878  0.00  0.00     0.040 A 
ATOM      9  C   UNL d   1       3.320  -2.876   1.029  0.00  0.00     0.030 A 
ATOM     10  C   UNL d   1       3.532  -4.087   0.361  0.00  0.00     0.002 A 
ATOM     11  C   UNL d   1       2.552  -4.607  -0.476  0.00  0.00     0.001 A 
ATOM     12  C   UNL d   1       1.354  -3.920  -0.642  0.00  0.00     0.014 A 
BRANCH   8  13
ATOM     13  N   UNL d   1       1.955  -0.894   1.461  0.00  0.00    -0.376 N 
ATOM     14  C   UNL d   1       3.121  -0.057   1.805  0.00  0.00     0.149 C 
ATOM     15  C   UNL d   1       2.672   1.417   1.811  0.00  0.00     0.187 C 
ATOM     16  O   UNL d   1       1.568   1.641   2.708  0.00  0.00    -0.388 OA
ATOM     17  C   UNL d   1       0.454   0.795   2.366  0.00  0.00     0.187 C 
ATOM     18  C   UNL d   1       0.853  -0.690   2.425  0.00  0.00     0.149 C 
ENDBRANCH   8  13
ENDBRANCH   2   7
TORSDOF 2
