REMARK  4 active torsions:
REMARK  status: ('A' for Active; 'I' for Inactive)
REMARK    1  A    between atoms: C_4  and  C_1 
REMARK    2  A    between atoms: C_10  and  C_3 
REMARK       I    between atoms: N_8  and  C_4 
REMARK    3  A    between atoms: N_6  and  C_9 
REMARK    4  A    between atoms: C_16  and  N_8 
ROOT
ATOM      1  C   UNL d   1      -2.779  -1.258  -0.020  0.00  0.00     0.258 C 
ATOM      2  N   UNL d   1      -3.959  -0.529   0.020  0.00  0.00    -0.323 N 
ATOM      3  O   UNL d   1      -2.747  -2.485  -0.132  0.00  0.00    -0.267 OA
ATOM      4  H   UNL d   1      -3.892   0.471  -0.102  0.00  0.00     0.169 HD
ENDROOT
BRANCH   1   5
ATOM      5  C   UNL d   1      -1.512  -0.536   0.039  0.00  0.00     0.064 A 
ATOM      6  C   UNL d   1      -0.236  -1.174  -0.194  0.00  0.00     0.053 A 
ATOM      7  C   UNL d   1       0.751  -0.236  -0.008  0.00  0.00     0.062 A 
ATOM      8  O   UNL d   1       0.168   0.949   0.318  0.00  0.00    -0.318 OA
ATOM      9  C   UNL d   1      -1.182   0.767   0.387  0.00  0.00     0.065 A 
ATOM     10  C   UNL d   1      -1.882   1.984   0.849  0.00  0.00     0.077 C 
BRANCH   7  11
ATOM     11  C   UNL d   1       2.256  -0.230  -0.060  0.00  0.00    -0.002 C 
ATOM     12  C   UNL d   1       2.819  -1.641  -0.303  0.00  0.00     0.021 C 
ATOM     13  C   UNL d   1       2.720   0.694  -1.200  0.00  0.00     0.021 C 
ATOM     14  C   UNL d   1       2.816   0.295   1.277  0.00  0.00     0.021 C 
ENDBRANCH   7  11
ENDBRANCH   1   5
BRANCH   2  15
ATOM     15  C   UNL d   1      -5.257  -1.064   0.247  0.00  0.00     0.035 A 
ATOM     16  C   UNL d   1      -5.481  -2.397   0.624  0.00  0.00     0.032 A 
ATOM     17  C   UNL d   1      -6.744  -2.834   1.038  0.00  0.00     0.038 A 
ATOM     18  C   UNL d   1      -7.809  -1.933   1.063  0.00  0.00     0.103 A 
ATOM     19  C   UNL d   1      -7.635  -0.630   0.582  0.00  0.00     0.038 A 
ATOM     20  C   UNL d   1      -6.359  -0.201   0.180  0.00  0.00     0.032 A 
BRANCH  18  21
ATOM     21  N   UNL d   1      -9.081  -2.334   1.679  0.00  0.00    -0.116 N 
ATOM     22  O   UNL d   1      -9.138  -3.454   2.207  0.00  0.00    -0.532 OA
ATOM     23  O   UNL d   1     -10.010  -1.514   1.667  0.00  0.00    -0.532 OA
ENDBRANCH  18  21
ENDBRANCH   2  15
TORSDOF 4
