REMARK  2 active torsions:
REMARK  status: ('A' for Active; 'I' for Inactive)
REMARK    1  A    between atoms: C_12  and  C_5 
REMARK    2  A    between atoms: N_13  and  C_9 
ROOT
ATOM      1  C   UNL d   1       1.566  -0.949  -0.088  0.00  0.00     0.156 A 
ATOM      2  N   UNL d   1       0.898   0.254  -0.017  0.00  0.00    -0.221 N 
ATOM      3  N   UNL d   1       0.921  -2.152  -0.155  0.00  0.00    -0.329 N 
ATOM      4  HN  UNL d   1       1.441  -3.027  -0.214  1.00  0.00     0.168 HD
ATOM      5  C   UNL d   1       2.895  -0.570  -0.032  0.00  0.00     0.102 A 
ATOM      6  N   UNL d   1       1.750   1.296   0.072  0.00  0.00    -0.013 NA
ATOM      7  N   UNL d   1       2.983   0.798   0.081  0.00  0.00    -0.279 N 
ATOM      8  HN  UNL d   1       3.845   1.338   0.158  1.00  0.00     0.184 HD
ATOM      9  C   UNL d   1      -0.385  -2.142  -0.141  0.00  0.00     0.092 A 
ATOM     10  C   UNL d   1      -1.187  -0.877  -0.078  0.00  0.00     0.030 A 
ATOM     11  C   UNL d   1      -0.498   0.341  -0.012  0.00  0.00     0.070 A 
ATOM     12  C   UNL d   1      -2.582  -0.875  -0.095  0.00  0.00     0.017 A 
ATOM     13  C   UNL d   1      -1.175   1.559   0.051  0.00  0.00     0.032 A 
ATOM     14  C   UNL d   1      -3.271   0.340  -0.031  0.00  0.00     0.001 A 
ATOM     15  C   UNL d   1      -2.571   1.549   0.043  0.00  0.00     0.002 A 
ENDROOT
BRANCH   5  16
ATOM     16  C   UNL d   1       4.032  -1.471  -0.014  0.00  0.00    -0.004 A 
ATOM     17  C   UNL d   1       3.986  -2.708  -0.678  0.00  0.00     0.015 A 
ATOM     18  C   UNL d   1       5.042  -3.615  -0.580  0.00  0.00     0.020 A 
ATOM     19  C   UNL d   1       6.161  -3.286   0.179  0.00  0.00     0.011 A 
ATOM     20  C   UNL d   1       6.243  -2.049   0.816  0.00  0.00     0.020 A 
ATOM     21 BR   UNL d   1       7.567  -4.536   0.359  0.00  0.00    -0.051 Br
ATOM     22  C   UNL d   1       5.183  -1.141   0.714  0.00  0.00     0.015 A 
ENDBRANCH   5  16
BRANCH   9  23
ATOM     23  N   UNL d   1      -1.004  -3.362  -0.175  0.00  0.00    -0.288 NA
ATOM     24  H   UNL d   1      -0.330  -4.113  -0.037  0.00  0.00     0.125 HD
ATOM     25  H   UNL d   1      -1.805  -3.474   0.434  0.00  0.00     0.125 HD
ENDBRANCH   9  23
TORSDOF 2
