REMARK  6 active torsions:
REMARK  status: ('A' for Active; 'I' for Inactive)
REMARK       I    between atoms: C_3  and  N_5 
REMARK    1  A    between atoms: C_17  and  C_3 
REMARK    2  A    between atoms: N_5  and  C_8 
REMARK    3  A    between atoms: C_9  and  C_18 
REMARK    4  A    between atoms: O_16  and  C_9 
REMARK    5  A    between atoms: O_15  and  C_17 
REMARK    6  A    between atoms: C_18  and  O_15 
ROOT
ATOM      1  C   UNL d   1       4.783  -0.598  -0.078  0.00  0.00     0.245 C 
ATOM      2  N   UNL d   1       3.530  -1.183   0.004  0.00  0.00    -0.325 N 
ATOM      3  O   UNL d   1       5.027   0.608  -0.053  0.00  0.00    -0.271 OA
ATOM      4  H   UNL d   1       3.505  -2.183   0.156  0.00  0.00     0.169 HD
ENDROOT
BRANCH   2   5
ATOM      5  C   UNL d   1       2.294  -0.505  -0.013  0.00  0.00     0.037 A 
ATOM      6  C   UNL d   1       2.170   0.825  -0.427  0.00  0.00     0.069 A 
ATOM      7  C   UNL d   1       0.916   1.395  -0.418  0.00  0.00     0.107 A 
ATOM      8  C   UNL d   1      -0.196   0.700  -0.011  0.00  0.00     0.105 A 
ATOM      9  O   UNL d   1       0.625   2.666  -0.804  0.00  0.00    -0.323 OA
ATOM     10  O   UNL d   1      -1.327   1.452  -0.074  0.00  0.00    -0.323 OA
ATOM     11  C   UNL d   1      -0.116  -0.613   0.399  0.00  0.00     0.042 A 
ATOM     12  C   UNL d   1      -0.802   2.689  -0.604  0.00  0.00     0.352 A 
ATOM     13  C   UNL d   1       1.144  -1.224   0.382  0.00  0.00     0.032 A 
ENDBRANCH   2   5
BRANCH   1  14
ATOM     14  C   UNL d   1       5.917  -1.615  -0.127  0.00  0.00     0.271 C 
BRANCH  14  15
ATOM     15  O   UNL d   1       5.736  -2.550  -1.195  0.00  0.00    -0.372 OA
BRANCH  15  16
ATOM     16  C   UNL d   1       6.931  -3.304  -1.423  0.00  0.00     0.277 C 
BRANCH  16  17
ATOM     17  C   UNL d   1       7.062  -4.395  -0.376  0.00  0.00     0.164 C 
ATOM     18  O   UNL d   1       8.082  -4.648   0.247  0.00  0.00    -0.648 OA
BRANCH  17  19
ATOM     19  O   UNL d   1       5.891  -5.055  -0.186  0.00  0.00    -0.775 OA
ATOM     20  H   UNL d   1       5.196  -4.684  -0.769  0.00  0.00     0.167 HD
ENDBRANCH  17  19
ENDBRANCH  16  17
ENDBRANCH  15  16
ENDBRANCH  14  15
ENDBRANCH   1  14
TORSDOF 6
