REMARK  4 active torsions:
REMARK  status: ('A' for Active; 'I' for Inactive)
REMARK    1  A    between atoms: C_7  and  C_1 
REMARK    2  A    between atoms: C_2  and  C_7 
REMARK       I    between atoms: N_6  and  C_2 
REMARK    3  A    between atoms: C_15  and  N_6 
REMARK    4  A    between atoms: C_18  and  C_15 
ROOT
ATOM      1  C   UNL d   1       1.019   1.330   3.732  0.00  0.00     0.218 C 
ATOM      2  N   UNL d   1       1.429   0.253   4.483  0.00  0.00    -0.357 N 
ATOM      3  O   UNL d   1       0.351   2.255   4.200  0.00  0.00    -0.274 OA
ATOM      4  H   UNL d   1       2.128  -0.367   4.096  0.00  0.00     0.162 HD
ENDROOT
BRANCH   1   5
ATOM      5  C   UNL d   1       1.496   1.373   2.295  0.00  0.00     0.112 C 
BRANCH   5   6
ATOM      6  C   UNL d   1       0.810   0.456   1.262  0.00  0.00    -0.031 C 
ATOM      7  C   UNL d   1      -0.728   0.649   1.275  0.00  0.00     0.014 C 
ATOM      8  C   UNL d   1      -1.388  -0.162   0.148  0.00  0.00    -0.013 C 
ATOM      9  C   UNL d   1      -0.821   0.293  -1.207  0.00  0.00     0.009 C 
ATOM     10  C   UNL d   1      -1.081  -1.654   0.358  0.00  0.00     0.009 C 
ATOM     11  C   UNL d   1       0.693   0.041  -1.254  0.00  0.00    -0.013 C 
ATOM     12  C   UNL d   1       1.362   0.854  -0.139  0.00  0.00     0.014 C 
ATOM     13  C   UNL d   1       0.981  -1.450  -1.028  0.00  0.00     0.009 C 
ATOM     14  C   UNL d   1       0.439  -1.885   0.343  0.00  0.00    -0.013 C 
ATOM     15  C   UNL d   1       1.106  -1.050   1.460  0.00  0.00     0.014 C 
ENDBRANCH   5   6
ENDBRANCH   1   5
BRANCH   2  16
ATOM     16  C   UNL d   1       1.329   0.329   5.927  0.00  0.00     0.161 C 
BRANCH  16  17
ATOM     17  C   UNL d   1       1.083  -0.985   6.625  0.00  0.00    -0.039 A 
ATOM     18  C   UNL d   1       1.599  -1.178   7.919  0.00  0.00     0.032 A 
ATOM     19  C   UNL d   1       1.232  -2.295   8.670  0.00  0.00     0.034 A 
ATOM     20 CL   UNL d   1       1.835  -2.484  10.271  0.00  0.00    -0.084 Cl
ATOM     21  C   UNL d   1       0.353  -3.239   8.146  0.00  0.00     0.024 A 
ATOM     22  C   UNL d   1      -0.150  -3.070   6.856  0.00  0.00     0.002 A 
ATOM     23  C   UNL d   1       0.208  -1.948   6.102  0.00  0.00     0.009 A 
ENDBRANCH  16  17
ENDBRANCH   2  16
TORSDOF 4
