REMARK  6 active torsions:
REMARK  status: ('A' for Active; 'I' for Inactive)
REMARK    1  A    between atoms: C_3  and  C_1 
REMARK    2  A    between atoms: N_4  and  C_2 
REMARK    3  A    between atoms: O_21  and  C_3 
REMARK       I    between atoms: C_6  and  N_12 
REMARK    4  A    between atoms: C_10  and  C_6 
REMARK    5  A    between atoms: C_11  and  C_10 
REMARK    6  A    between atoms: N_12  and  C_13 
ROOT
ATOM      1  C   UNL d   1       1.496  -0.141   0.097  0.00  0.00     0.066 A 
ATOM      2  C   UNL d   1       0.752  -1.302  -0.218  0.00  0.00     0.047 A 
ATOM      3  C   UNL d   1       0.852   1.109   0.231  0.00  0.00     0.050 A 
ATOM      4  C   UNL d   1      -0.607  -1.111  -0.531  0.00  0.00     0.033 A 
ATOM      5  C   UNL d   1      -0.504   1.265  -0.045  0.00  0.00     0.036 A 
ATOM      6  C   UNL d   1      -1.223   0.148  -0.464  0.00  0.00     0.032 A 
ENDROOT
BRANCH   5   7
ATOM      7  N   UNL d   1      -1.201   2.481   0.147  0.00  0.00    -0.324 N 
ATOM      8  C   UNL d   1      -0.632   3.701   0.459  0.00  0.00     0.245 C 
ATOM      9  O   UNL d   1       0.559   3.979   0.381  0.00  0.00    -0.268 OA
ATOM     10  H   UNL d   1      -2.209   2.432   0.079  0.00  0.00     0.169 HD
BRANCH   8  11
ATOM     11  C   UNL d   1      -1.629   4.702   0.939  0.00  0.00     0.075 C 
BRANCH  11  12
ATOM     12  C   UNL d   1      -1.194   5.929   1.272  0.00  0.00     0.024 C 
ATOM     13  C   UNL d   1      -2.032   6.920   1.867  0.00  0.00     0.004 A 
ATOM     14  S   UNL d   1      -1.394   8.515   2.069  0.00  0.00    -0.102 SA
ATOM     15  C   UNL d   1      -3.318   6.856   2.381  0.00  0.00     0.019 A 
ATOM     16  C   UNL d   1      -2.800   9.069   2.860  0.00  0.00     0.050 A 
ATOM     17  C   UNL d   1      -3.755   8.086   2.961  0.00  0.00     0.008 A 
ENDBRANCH  11  12
ENDBRANCH   8  11
ENDBRANCH   5   7
BRANCH   1  18
ATOM     18  C   UNL d   1       2.958  -0.173   0.399  0.00  0.00     0.178 C 
ATOM     19  O   UNL d   1       3.537  -1.065   1.000  0.00  0.00    -0.646 OA
BRANCH  18  20
ATOM     20  O   UNL d   1       3.626   0.890  -0.114  0.00  0.00    -0.773 OA
ATOM     21  H   UNL d   1       3.090   1.530  -0.620  0.00  0.00     0.167 HD
ENDBRANCH  18  20
ENDBRANCH   1  18
BRANCH   2  22
ATOM     22  N   UNL d   1       1.280  -2.583  -0.161  0.00  0.00    -0.376 N 
ATOM     23  C   UNL d   1       0.473  -3.723   0.308  0.00  0.00     0.149 C 
ATOM     24  C   UNL d   1       1.407  -4.797   0.898  0.00  0.00     0.187 C 
ATOM     25  O   UNL d   1       2.405  -5.208  -0.053  0.00  0.00    -0.388 OA
ATOM     26  C   UNL d   1       3.208  -4.075  -0.442  0.00  0.00     0.187 C 
ATOM     27  C   UNL d   1       2.344  -2.983  -1.099  0.00  0.00     0.149 C 
ENDBRANCH   2  22
TORSDOF 6
