REMARK  5 active torsions:
REMARK  status: ('A' for Active; 'I' for Inactive)
REMARK    1  A    between atoms: C_2  and  C_1 
REMARK    2  A    between atoms: C_3  and  C_2 
REMARK    3  A    between atoms: N_10  and  N_4 
REMARK    4  A    between atoms: C_13  and  N_10 
REMARK    5  A    between atoms: O_23  and  C_14 
ROOT
ATOM      1  C   UNL d   1       0.890  -3.832   0.003  0.00  0.00     0.179 C 
ATOM      2  N   UNL d   1       0.263  -4.972   0.120  0.00  0.00    -0.287 N 
ATOM      3  HN  UNL d   1       0.782  -5.844   0.221  1.00  0.00     0.188 HD
ATOM      4  C   UNL d   1       0.108  -2.623  -0.131  0.00  0.00     0.123 C 
ATOM      5  N   UNL d   1      -0.559  -1.681  -0.281  0.00  0.00    -0.190 NA
ENDROOT
BRANCH   1   6
ATOM      6  C   UNL d   1       2.391  -3.777   0.028  0.00  0.00     0.222 C 
ATOM      7  O   UNL d   1       2.893  -2.735   0.428  0.00  0.00    -0.284 OA
BRANCH   6   8
ATOM      8  C   UNL d   1       3.223  -4.901  -0.480  0.00  0.00     0.037 A 
ATOM      9  C   UNL d   1       4.487  -5.192   0.060  0.00  0.00     0.025 A 
ATOM     10  C   UNL d   1       5.271  -6.206  -0.504  0.00  0.00     0.023 A 
ATOM     11 BR   UNL d   1       5.222  -4.327   1.585  0.00  0.00    -0.050 Br
ATOM     12  C   UNL d   1       4.797  -6.936  -1.592  0.00  0.00     0.038 A 
ATOM     13  C   UNL d   1       3.540  -6.668  -2.132  0.00  0.00     0.069 A 
ATOM     14  C   UNL d   1       2.760  -5.647  -1.582  0.00  0.00     0.053 A 
BRANCH  13  15
ATOM     15  O   UNL d   1       3.200  -7.459  -3.193  0.00  0.00    -0.356 OA
ATOM     16  C   UNL d   1       1.915  -7.263  -3.769  0.00  0.00     0.210 C 
ENDBRANCH  13  15
ENDBRANCH   6   8
ENDBRANCH   1   6
BRANCH   2  17
ATOM     17  N   UNL d   1      -1.102  -4.970   0.104  0.00  0.00    -0.300 N 
ATOM     18  H   UNL d   1      -1.613  -4.508  -0.652  0.00  0.00     0.187 HD
BRANCH  17  19
ATOM     19  C   UNL d   1      -1.790  -6.070   0.658  0.00  0.00     0.048 A 
ATOM     20  C   UNL d   1      -1.134  -7.068   1.393  0.00  0.00     0.034 A 
ATOM     21  C   UNL d   1      -1.853  -8.087   2.023  0.00  0.00     0.044 A 
ATOM     22  C   UNL d   1      -3.238  -8.099   1.940  0.00  0.00     0.116 A 
ATOM     23  C   UNL d   1      -3.917  -7.110   1.240  0.00  0.00     0.044 A 
ATOM     24  F   UNL d   1      -3.929  -9.067   2.554  0.00  0.00    -0.206 F 
ATOM     25  C   UNL d   1      -3.194  -6.094   0.608  0.00  0.00     0.034 A 
ENDBRANCH  17  19
ENDBRANCH   2  17
TORSDOF 5
