REMARK  3 active torsions:
REMARK  status: ('A' for Active; 'I' for Inactive)
REMARK    1  A    between atoms: C_4  and  C_1 
REMARK       I    between atoms: C_2  and  N_3 
REMARK    2  A    between atoms: C_7  and  C_2 
REMARK    3  A    between atoms: C_11  and  C_4 
ROOT
ATOM      1  C   UNL d   1       2.901  -6.319  -2.076  0.00  0.00     0.260 C 
ATOM      2  N   UNL d   1       2.864  -5.037  -1.478  0.00  0.00    -0.347 N 
ATOM      3  C   UNL d   1       2.585  -2.635   0.052  0.00  0.00     0.064 C 
ATOM      4  C   UNL d   1       3.567  -4.907  -0.193  0.00  0.00     0.127 C 
ATOM      5  O   UNL d   1       3.490  -7.249  -1.531  0.00  0.00    -0.267 OA
ATOM      6  C   UNL d   1       1.721  -4.133  -1.680  0.00  0.00     0.127 C 
ATOM      7  C   UNL d   1       2.098  -2.682  -1.389  0.00  0.00     0.032 C 
ATOM      8  C   UNL d   1       3.872  -3.450   0.171  0.00  0.00     0.032 C 
ENDROOT
BRANCH   3   9
ATOM      9  C   UNL d   1       2.653  -1.232   0.639  0.00  0.00     0.164 C 
ATOM     10  O   UNL d   1       3.688  -0.573   0.669  0.00  0.00    -0.292 OA
BRANCH   9  11
ATOM     11  C   UNL d   1       1.363  -0.654   1.153  0.00  0.00     0.022 A 
ATOM     12  C   UNL d   1       0.566  -1.373   2.079  0.00  0.00    -0.047 A 
ATOM     13  C   UNL d   1      -0.705  -0.880   2.417  0.00  0.00     0.014 A 
ATOM     14  C   UNL d   1       0.975  -2.657   2.756  0.00  0.00     0.049 C 
ATOM     15  C   UNL d   1      -1.162   0.345   1.935  0.00  0.00    -0.061 A 
ATOM     16  C   UNL d   1      -0.339   1.085   1.085  0.00  0.00     0.014 A 
ATOM     17  C   UNL d   1      -2.523   0.834   2.334  0.00  0.00     0.048 C 
ATOM     18  C   UNL d   1       0.917   0.599   0.670  0.00  0.00    -0.047 A 
ATOM     19  C   UNL d   1       1.736   1.492  -0.224  0.00  0.00     0.049 C 
ENDBRANCH   9  11
ENDBRANCH   3   9
BRANCH   1  20
ATOM     20  C   UNL d   1       2.226  -6.468  -3.360  0.00  0.00     0.072 A 
ATOM     21  S   UNL d   1       1.329  -7.893  -3.680  0.00  0.00    -0.097 SA
ATOM     22  C   UNL d   1       0.808  -7.301  -5.199  0.00  0.00     0.050 A 
ATOM     23  C   UNL d   1       1.345  -6.065  -5.484  0.00  0.00     0.009 A 
ATOM     24  C   UNL d   1       2.204  -5.610  -4.445  0.00  0.00     0.025 A 
ENDBRANCH   1  20
TORSDOF 3
