REMARK  5 active torsions:
REMARK  status: ('A' for Active; 'I' for Inactive)
REMARK    1  A    between atoms: C_6  and  C_1 
REMARK    2  A    between atoms: N_7  and  C_2 
REMARK    3  A    between atoms: N_4  and  C_3 
REMARK    4  A    between atoms: N_8  and  C_5 
REMARK    5  A    between atoms: O_14  and  C_6 
ROOT
ATOM      1  C   UNL d   1       1.502  -0.128   0.093  0.00  0.00     0.093 A 
ATOM      2  C   UNL d   1       0.728  -1.351   0.153  0.00  0.00     0.083 A 
ATOM      3  C   UNL d   1      -0.666  -1.161   0.023  0.00  0.00     0.130 A 
ATOM      4  C   UNL d   1       0.934   1.177  -0.090  0.00  0.00     0.049 A 
ATOM      5  C   UNL d   1      -1.263   0.101  -0.077  0.00  0.00     0.041 A 
ATOM      6  C   UNL d   1      -0.470   1.238  -0.120  0.00  0.00     0.033 A 
ENDROOT
BRANCH   2   7
ATOM      7  N   UNL d   1       1.365  -2.584   0.416  0.00  0.00    -0.378 N 
ATOM      8  C   UNL d   1       0.647  -3.742   0.993  0.00  0.00     0.123 C 
ATOM      9  C   UNL d   1       1.627  -4.649   1.740  0.00  0.00     0.020 C 
ATOM     10  C   UNL d   1       2.832  -5.043   0.888  0.00  0.00     0.003 C 
ATOM     11  C   UNL d   1       3.459  -3.825   0.215  0.00  0.00     0.020 C 
ATOM     12  C   UNL d   1       2.398  -3.035  -0.557  0.00  0.00     0.123 C 
ENDBRANCH   2   7
BRANCH   1  13
ATOM     13  C   UNL d   1       2.976  -0.238   0.259  0.00  0.00     0.180 C 
ATOM     14  O   UNL d   1       3.799   0.068  -0.582  0.00  0.00    -0.646 OA
BRANCH  13  15
ATOM     15  O   UNL d   1       3.302  -0.706   1.485  0.00  0.00    -0.773 OA
ATOM     16  H   UNL d   1       2.546  -1.172   1.899  0.00  0.00     0.167 HD
ENDBRANCH  13  15
ENDBRANCH   1  13
BRANCH   3  17
ATOM     17  N   UNL d   1      -1.603  -2.261  -0.092  0.00  0.00    -0.113 N 
ATOM     18  O   UNL d   1      -1.577  -2.918  -1.141  0.00  0.00    -0.532 OA
ATOM     19  O   UNL d   1      -2.389  -2.428   0.846  0.00  0.00    -0.532 OA
ENDBRANCH   3  17
BRANCH   4  20
ATOM     20  N   UNL d   1       1.648   2.359  -0.272  0.00  0.00    -0.380 N 
ATOM     21  C   UNL d   1       1.096   3.455  -1.085  0.00  0.00     0.123 C 
ATOM     22  C   UNL d   1       2.178   4.004  -2.013  0.00  0.00     0.020 C 
ATOM     23  C   UNL d   1       3.434   4.409  -1.247  0.00  0.00     0.003 C 
ATOM     24  C   UNL d   1       3.921   3.270  -0.352  0.00  0.00     0.020 C 
ATOM     25  C   UNL d   1       2.797   2.756   0.554  0.00  0.00     0.123 C 
ENDBRANCH   4  20
TORSDOF 5
