REMARK  2 active torsions:
REMARK  status: ('A' for Active; 'I' for Inactive)
REMARK    1  A    between atoms: S_3  and  C_1 
REMARK    2  A    between atoms: C_9  and  S_3 
ROOT
ATOM      1  C   UNL d   1      -0.976  -1.494   0.084  0.00  0.00     0.096 A 
ATOM      2  C   UNL d   1       0.086  -0.589   0.049  0.00  0.00     0.065 A 
ATOM      3  N   UNL d   1      -2.245  -1.028   0.041  0.00  0.00    -0.345 N 
ATOM      4  HN  UNL d   1      -3.040  -1.667   0.031  1.00  0.00     0.167 HD
ATOM      5  S   UNL d   1       1.794  -0.832   0.035  0.00  0.00    -0.097 SA
ATOM      6  C   UNL d   1      -0.215   0.771   0.013  0.00  0.00     0.053 A 
ATOM      7  C   UNL d   1       2.113   0.844  -0.004  0.00  0.00     0.053 A 
ATOM      8  C   UNL d   1       0.955   1.587  -0.015  0.00  0.00     0.038 A 
ATOM      9  N   UNL d   1      -1.485   1.246  -0.002  0.00  0.00    -0.351 N 
ATOM     10  HN  UNL d   1      -1.703   2.242  -0.024  1.00  0.00     0.166 HD
ATOM     11  C   UNL d   1      -2.425   0.298   0.013  0.00  0.00     0.181 A 
ENDROOT
BRANCH   1  12
ATOM     12  S   UNL d   1      -0.734  -3.245   0.073  0.00  0.00    -0.053 SA
BRANCH  12  13
ATOM     13  C   UNL d   1      -0.575  -3.599   1.814  0.00  0.00     0.075 A 
ATOM     14  N   UNL d   1      -0.141  -2.623   2.643  0.00  0.00    -0.360 N 
ATOM     15  C   UNL d   1      -0.003  -2.934   3.951  0.00  0.00     0.089 A 
ATOM     16  HN  UNL d   1       0.074  -1.688   2.296  1.00  0.00     0.166 HD
ATOM     17  C   UNL d   1      -0.271  -4.185   4.479  0.00  0.00     0.017 A 
ATOM     18  C   UNL d   1      -0.708  -5.180   3.614  0.00  0.00     0.004 A 
ATOM     19  C   UNL d   1      -0.861  -4.886   2.261  0.00  0.00     0.037 A 
ENDBRANCH  12  13
ENDBRANCH   1  12
TORSDOF 2
