REMARK  4 active torsions:
REMARK  status: ('A' for Active; 'I' for Inactive)
REMARK    1  A    between atoms: N_3  and  C_1 
REMARK    2  A    between atoms: C_2  and  N_3 
REMARK    3  A    between atoms: N_8  and  C_2 
REMARK    4  A    between atoms: N_6  and  N_8 
ROOT
ATOM      1  C   UNL d   1       3.598   0.221   0.493  0.00  0.00     0.191 C 
ATOM      2  S   UNL d   1       4.787  -0.183  -0.611  0.00  0.00    -0.039 SA
ENDROOT
BRANCH   1   3
ATOM      3  N   UNL d   1       2.465  -0.550   0.719  0.00  0.00    -0.331 N 
ATOM      4  H   UNL d   1       1.774  -0.338   0.013  0.00  0.00     0.168 HD
BRANCH   3   5
ATOM      5  C   UNL d   1       2.470  -1.901   1.165  0.00  0.00     0.046 A 
ATOM      6  C   UNL d   1       3.316  -2.321   2.219  0.00  0.00    -0.034 A 
ATOM      7  C   UNL d   1       3.268  -3.659   2.654  0.00  0.00     0.015 A 
ATOM      8  C   UNL d   1       4.249  -1.408   2.970  0.00  0.00     0.050 C 
ATOM      9  C   UNL d   1       2.344  -4.562   2.133  0.00  0.00    -0.061 A 
ATOM     10  C   UNL d   1       1.480  -4.130   1.129  0.00  0.00     0.015 A 
ATOM     11  C   UNL d   1       2.253  -5.947   2.700  0.00  0.00     0.048 C 
ATOM     12  C   UNL d   1       1.531  -2.813   0.626  0.00  0.00    -0.034 A 
ATOM     13  C   UNL d   1       0.521  -2.487  -0.445  0.00  0.00     0.050 C 
ENDBRANCH   3   5
ENDBRANCH   1   3
BRANCH   1  14
ATOM     14  N   UNL d   1       3.512   1.425   1.181  0.00  0.00    -0.276 N 
ATOM     15  H   UNL d   1       2.746   1.488   1.843  0.00  0.00     0.189 HD
BRANCH  14  16
ATOM     16  N   UNL d   1       3.864   2.598   0.590  0.00  0.00    -0.307 N 
ATOM     17  C   UNL d   1       4.282   3.556   1.370  0.00  0.00     0.004 C 
ATOM     18  C   UNL d   1       4.448   4.926   0.742  0.00  0.00     0.054 C 
ATOM     19  C   UNL d   1       4.641   3.402   2.838  0.00  0.00     0.054 C 
ATOM     20  C   UNL d   1       3.276   5.804   1.168  0.00  0.00     0.006 C 
ATOM     21  C   UNL d   1       3.496   6.553   2.483  0.00  0.00     0.000 C 
ATOM     22  C   UNL d   1       4.267   5.816   3.579  0.00  0.00     0.000 C 
ATOM     23  C   UNL d   1       3.881   4.350   3.765  0.00  0.00     0.006 C 
ATOM     24  HN  UNL d   1       3.805   2.723  -0.420  1.00  0.00     0.186 HD
ENDBRANCH  14  16
ENDBRANCH   1  14
TORSDOF 4
