REMARK  5 active torsions:
REMARK  status: ('A' for Active; 'I' for Inactive)
REMARK    1  A    between atoms: O_6  and  C_1 
REMARK    2  A    between atoms: C_8  and  C_1 
REMARK    3  A    between atoms: C_3  and  S_5 
REMARK    4  A    between atoms: C_7  and  C_4 
REMARK    5  A    between atoms: S_5  and  C_8 
ROOT
ATOM      1  C   UNL d   1       4.843  -1.577  -0.672  0.00  0.00     0.046 C 
ATOM      2  C   UNL d   1       5.616  -2.497  -1.264  0.00  0.00     0.018 C 
ENDROOT
BRANCH   1   3
ATOM      3  S   UNL d   1       3.116  -1.637  -0.816  0.00  0.00    -0.131 SA
BRANCH   3   4
ATOM      4  C   UNL d   1       2.606  -0.728   0.678  0.00  0.00     0.188 C 
BRANCH   4   5
ATOM      5  C   UNL d   1       2.983   0.738   0.639  0.00  0.00     0.149 C 
ATOM      6  O   UNL d   1       3.146   1.412   1.647  0.00  0.00    -0.649 OA
BRANCH   5   7
ATOM      7  O   UNL d   1       3.074   1.273  -0.600  0.00  0.00    -0.776 OA
ATOM      8  H   UNL d   1       2.938   0.594  -1.295  0.00  0.00     0.167 HD
ENDBRANCH   5   7
ENDBRANCH   4   5
ENDBRANCH   3   4
ENDBRANCH   1   3
BRANCH   2   9
ATOM      9  C   UNL d   1       7.087  -2.487  -1.227  0.00  0.00    -0.036 A 
ATOM     10  C   UNL d   1       7.773  -3.708  -1.202  0.00  0.00     0.011 A 
ATOM     11  C   UNL d   1       9.170  -3.740  -1.219  0.00  0.00     0.001 A 
ATOM     12  C   UNL d   1       9.896  -2.552  -1.269  0.00  0.00     0.000 A 
ATOM     13  C   UNL d   1       9.225  -1.333  -1.305  0.00  0.00     0.001 A 
ATOM     14  C   UNL d   1       7.828  -1.299  -1.288  0.00  0.00     0.011 A 
ENDBRANCH   2   9
TORSDOF 5
