REMARK  3 active torsions:
REMARK  status: ('A' for Active; 'I' for Inactive)
REMARK    1  A    between atoms: C_9  and  N_2 
REMARK    2  A    between atoms: C_10  and  C_9 
REMARK    3  A    between atoms: C_11  and  C_10 
ROOT
ATOM      1  C   UNL d   1       1.345  -1.296   0.706  0.00  0.00     0.273 A 
ATOM      2  N   UNL d   1       2.382  -0.586   0.091  0.00  0.00    -0.257 N 
ATOM      3  N   UNL d   1       2.209   0.627  -0.545  0.00  0.00    -0.306 N 
ATOM      4  HN  UNL d   1       2.992   1.086  -1.011  1.00  0.00     0.186 HD
ATOM      5  C   UNL d   1       0.014  -0.661   0.699  0.00  0.00     0.045 A 
ATOM      6  C   UNL d   1       1.033   1.169  -0.537  0.00  0.00     0.119 A 
ATOM      7  C   UNL d   1      -0.143   0.564   0.072  0.00  0.00    -0.004 A 
ATOM      8  O   UNL d   1       1.474  -2.400   1.228  0.00  0.00    -0.266 OA
ATOM      9  C   UNL d   1      -1.094  -1.288   1.279  0.00  0.00     0.018 A 
ATOM     10  C   UNL d   1      -1.392   1.185   0.001  0.00  0.00     0.014 A 
ATOM     11  C   UNL d   1      -2.350  -0.679   1.212  0.00  0.00     0.001 A 
ATOM     12  C   UNL d   1      -2.498   0.553   0.571  0.00  0.00     0.001 A 
ENDROOT
BRANCH   2  13
ATOM     13  C   UNL d   1       3.679  -1.244  -0.079  0.00  0.00     0.157 C 
BRANCH  13  14
ATOM     14  C   UNL d   1       4.870  -0.285  -0.162  0.00  0.00     0.060 C 
BRANCH  14  15
ATOM     15  C   UNL d   1       6.176  -1.023  -0.336  0.00  0.00    -0.057 A 
ATOM     16  C   UNL d   1       6.653  -1.327  -1.619  0.00  0.00     0.007 A 
ATOM     17  C   UNL d   1       7.854  -2.020  -1.782  0.00  0.00     0.001 A 
ATOM     18  C   UNL d   1       8.587  -2.419  -0.666  0.00  0.00     0.000 A 
ATOM     19  C   UNL d   1       8.118  -2.128   0.614  0.00  0.00     0.001 A 
ATOM     20  C   UNL d   1       6.917  -1.436   0.780  0.00  0.00     0.007 A 
ENDBRANCH  14  15
ENDBRANCH  13  14
ENDBRANCH   2  13
TORSDOF 3
