REMARK  2 active torsions:
REMARK  status: ('A' for Active; 'I' for Inactive)
REMARK    1  A    between atoms: O_17  and  C_12 
REMARK    2  A    between atoms: O_18  and  C_13 
ROOT
ATOM      1  C   UNL d   1      -0.131   1.087  -0.001  0.00  0.00     0.112 A 
ATOM      2  C   UNL d   1      -0.409  -0.260   0.000  0.00  0.00     0.075 A 
ATOM      3  N   UNL d   1       1.093   1.611  -0.001  0.00  0.00    -0.347 N 
ATOM      4  HN  UNL d   1       1.255   2.618  -0.000  1.00  0.00     0.166 HD
ATOM      5  N   UNL d   1       0.558  -1.188  -0.003  0.00  0.00    -0.349 N 
ATOM      6  HN  UNL d   1       0.351  -2.187  -0.005  1.00  0.00     0.166 HD
ATOM      7  C   UNL d   1      -1.408   1.831  -0.000  0.00  0.00     0.211 A 
ATOM      8  C   UNL d   1       2.109   0.713  -0.002  0.00  0.00     0.096 A 
ATOM      9  C   UNL d   1       1.843  -0.707  -0.002  0.00  0.00     0.096 A 
ATOM     10  C   UNL d   1      -1.833  -0.464  -0.002  0.00  0.00     0.007 A 
ATOM     11  C   UNL d   1      -2.464   0.796   0.000  0.00  0.00     0.029 A 
ATOM     12  C   UNL d   1       2.935  -1.599  -0.003  0.00  0.00     0.097 A 
ATOM     13  C   UNL d   1       3.439   1.157  -0.001  0.00  0.00     0.097 A 
ATOM     14  O   UNL d   1      -1.583   3.034   0.002  0.00  0.00    -0.285 OA
ATOM     15  C   UNL d   1       4.249  -1.125  -0.002  0.00  0.00     0.042 A 
ATOM     16  C   UNL d   1       4.493   0.241  -0.002  0.00  0.00     0.042 A 
ATOM     17  C   UNL d   1      -2.598  -1.614  -0.002  0.00  0.00     0.015 A 
ATOM     18  C   UNL d   1      -3.834   0.959  -0.001  0.00  0.00     0.016 A 
ATOM     19  C   UNL d   1      -3.992  -1.475  -0.002  0.00  0.00     0.001 A 
ATOM     20  C   UNL d   1      -4.603  -0.204  -0.001  0.00  0.00     0.001 A 
ENDROOT
BRANCH  12  21
ATOM     21  O   UNL d   1       2.619  -2.942  -0.003  0.00  0.00    -0.354 OA
ATOM     22  C   UNL d   1       3.692  -3.877  -0.003  0.00  0.00     0.210 C 
ENDBRANCH  12  21
BRANCH  13  23
ATOM     23  O   UNL d   1       3.891   2.459  -0.001  0.00  0.00    -0.354 OA
ATOM     24  C   UNL d   1       2.935   3.515   0.002  0.00  0.00     0.210 C 
ENDBRANCH  13  23
TORSDOF 2
