REMARK  6 active torsions:
REMARK  status: ('A' for Active; 'I' for Inactive)
REMARK    1  A    between atoms: C_16  and  N_3 
REMARK    2  A    between atoms: C_12  and  C_5 
REMARK    3  A    between atoms: C_9  and  C_18 
REMARK    4  A    between atoms: C_25  and  C_16 
REMARK    5  A    between atoms: C_18  and  S_21 
REMARK    6  A    between atoms: S_21  and  C_25 
ROOT
ATOM      1  C   UNL d   1       0.089   0.734   0.005  0.00  0.00     0.070 A 
ATOM      2  C   UNL d   1       0.185  -0.666   0.054  0.00  0.00     0.026 A 
ATOM      3  N   UNL d   1       2.254   0.199   0.005  0.00  0.00    -0.348 N 
ATOM      4  C   UNL d   1       1.364   1.269   0.000  0.00  0.00     0.025 A 
ATOM      5  C   UNL d   1       1.530  -1.030   0.035  0.00  0.00     0.058 A 
ATOM      6  C   UNL d   1      -1.209   1.400  -0.023  0.00  0.00     0.273 A 
ATOM      7  N   UNL d   1      -2.200  -0.874   0.068  0.00  0.00    -0.308 N 
ATOM      8  HN  UNL d   1      -3.052  -1.434   0.091  1.00  0.00     0.186 HD
ATOM      9  N   UNL d   1      -2.269   0.507  -0.010  0.00  0.00    -0.266 N 
ATOM     10  C   UNL d   1      -1.028  -1.448   0.112  0.00  0.00     0.122 A 
ATOM     11  O   UNL d   1      -1.365   2.611  -0.063  0.00  0.00    -0.266 OA
ATOM     12  C   UNL d   1       1.638   2.737  -0.008  0.00  0.00     0.069 C 
ATOM     13  H   UNL d   1      -3.199   0.911  -0.030  0.00  0.00     0.190 HD
ENDROOT
BRANCH   3  14
ATOM     14  C   UNL d   1       3.719   0.227  -0.016  0.00  0.00     0.139 C 
BRANCH  14  15
ATOM     15  C   UNL d   1       4.494   1.527  -0.153  0.00  0.00     0.094 C 
BRANCH  15  16
ATOM     16  S   UNL d   1       6.292   1.206  -0.190  0.00  0.00    -0.163 SA
BRANCH  16  17
ATOM     17  C   UNL d   1       6.851   2.939  -0.205  0.00  0.00     0.116 C 
BRANCH  17  18
ATOM     18  C   UNL d   1       8.353   3.046  -0.127  0.00  0.00    -0.005 A 
ATOM     19  C   UNL d   1       9.146   3.067  -1.291  0.00  0.00     0.042 A 
ATOM     20 CL   UNL d   1       8.459   2.972  -2.877  0.00  0.00    -0.084 Cl
ATOM     21  C   UNL d   1      10.540   3.169  -1.215  0.00  0.00     0.024 A 
ATOM     22  C   UNL d   1      11.174   3.245   0.021  0.00  0.00     0.003 A 
ATOM     23  C   UNL d   1      10.412   3.211   1.185  0.00  0.00     0.024 A 
ATOM     24  C   UNL d   1       9.018   3.107   1.114  0.00  0.00     0.042 A 
ATOM     25 CL   UNL d   1       8.165   3.063   2.620  0.00  0.00    -0.084 Cl
ENDBRANCH  17  18
ENDBRANCH  16  17
ENDBRANCH  15  16
ENDBRANCH  14  15
ENDBRANCH   3  14
BRANCH   5  26
ATOM     26  C   UNL d   1       2.117  -2.406  -0.004  0.00  0.00    -0.008 A 
ATOM     27  C   UNL d   1       1.480  -3.431  -0.727  0.00  0.00     0.014 A 
ATOM     28  C   UNL d   1       1.997  -4.735  -0.772  0.00  0.00     0.001 A 
ATOM     29  C   UNL d   1       3.198  -5.033  -0.144  0.00  0.00     0.000 A 
ATOM     30  C   UNL d   1       3.856  -4.041   0.568  0.00  0.00     0.001 A 
ATOM     31  C   UNL d   1       3.294  -2.761   0.672  0.00  0.00     0.014 A 
ENDBRANCH   5  26
TORSDOF 6
