REMARK  4 active torsions:
REMARK  status: ('A' for Active; 'I' for Inactive)
REMARK    1  A    between atoms: C_2  and  S_1 
REMARK    2  A    between atoms: N_3  and  S_1 
REMARK    3  A    between atoms: C_4  and  C_5 
REMARK    4  A    between atoms: C_5  and  C_14 
ROOT
ATOM      1  N   UNL d   1       0.450  -1.413   0.517  0.00  0.00    -0.307 N 
ATOM      2  C   UNL d   1      -0.505  -4.186   0.483  0.00  0.00     0.064 C 
ATOM      3  C   UNL d   1       1.409  -2.504   0.217  0.00  0.00     0.136 C 
ATOM      4  C   UNL d   1      -0.978  -1.710   0.271  0.00  0.00     0.136 C 
ATOM      5  C   UNL d   1      -1.395  -3.027   0.925  0.00  0.00     0.033 C 
ATOM      6  C   UNL d   1       0.957  -3.843   0.785  0.00  0.00     0.033 C 
ENDROOT
BRANCH   1   7
ATOM      7  S   UNL d   1       0.989   0.153   0.069  0.00  0.00     0.263 S 
ATOM      8  O   UNL d   1      -0.128   1.074   0.091  0.00  0.00    -0.200 OA
ATOM      9  O   UNL d   1       2.162   0.418   0.877  0.00  0.00    -0.200 OA
BRANCH   7  10
ATOM     10  C   UNL d   1       1.561   0.019  -1.604  0.00  0.00     0.118 A 
ATOM     11  C   UNL d   1       0.687  -0.294  -2.641  0.00  0.00     0.142 A 
ATOM     12  C   UNL d   1       1.164  -0.459  -3.941  0.00  0.00     0.086 A 
ATOM     13  F   UNL d   1      -0.625  -0.444  -2.433  0.00  0.00    -0.204 F 
ATOM     14  C   UNL d   1       2.515  -0.265  -4.202  0.00  0.00     0.119 A 
ATOM     15  C   UNL d   1       3.397   0.093  -3.188  0.00  0.00     0.044 A 
ATOM     16  F   UNL d   1       2.976  -0.418  -5.449  0.00  0.00    -0.206 F 
ATOM     17  C   UNL d   1       2.922   0.232  -1.883  0.00  0.00     0.031 A 
ENDBRANCH   7  10
ENDBRANCH   1   7
BRANCH   2  18
ATOM     18  C   UNL d   1      -0.742  -4.510  -0.996  0.00  0.00     0.166 C 
ATOM     19  O   UNL d   1      -0.150  -3.892  -1.884  0.00  0.00    -0.292 OA
BRANCH  18  20
ATOM     20  C   UNL d   1      -1.695  -5.581  -1.421  0.00  0.00     0.049 A 
ATOM     21  C   UNL d   1      -2.516  -6.295  -0.545  0.00  0.00     0.133 A 
ATOM     22  C   UNL d   1      -3.301  -7.356  -0.996  0.00  0.00     0.085 A 
ATOM     23  F   UNL d   1      -2.596  -5.987   0.756  0.00  0.00    -0.205 F 
ATOM     24  C   UNL d   1      -3.291  -7.688  -2.342  0.00  0.00     0.119 A 
ATOM     25  C   UNL d   1      -2.533  -6.961  -3.249  0.00  0.00     0.043 A 
ATOM     26  F   UNL d   1      -4.024  -8.722  -2.773  0.00  0.00    -0.206 F 
ATOM     27  C   UNL d   1      -1.737  -5.908  -2.791  0.00  0.00     0.021 A 
ENDBRANCH  18  20
ENDBRANCH   2  18
TORSDOF 4
