REMARK  2 active torsions:
REMARK  status: ('A' for Active; 'I' for Inactive)
REMARK       I    between atoms: C_5  and  N_1 
REMARK    1  A    between atoms: C_11  and  C_5 
REMARK    2  A    between atoms: N_7  and  C_9 
ROOT
ATOM      1  N   UNL d   1       1.923  -0.004  -0.099  0.00  0.00    -0.208 N 
ATOM      2  C   UNL d   1       1.139   1.123   0.003  0.00  0.00     0.269 A 
ATOM      3  C   UNL d   1       1.153  -1.141  -0.019  0.00  0.00     0.268 A 
ATOM      4  C   UNL d   1      -0.247   0.678   0.032  0.00  0.00     0.051 A 
ATOM      5  C   UNL d   1       3.315  -0.033  -0.138  0.00  0.00     0.267 C 
ATOM      6  C   UNL d   1      -0.241  -0.702   0.046  0.00  0.00     0.049 A 
ATOM      7  C   UNL d   1      -1.415   1.419   0.022  0.00  0.00     0.054 A 
ATOM      8  C   UNL d   1      -2.617   0.697   0.029  0.00  0.00     0.103 A 
ATOM      9  C   UNL d   1      -1.415  -1.434   0.064  0.00  0.00     0.020 A 
ATOM     10  O   UNL d   1       1.440   2.300   0.082  0.00  0.00    -0.267 OA
ATOM     11  O   UNL d   1       1.449  -2.319  -0.067  0.00  0.00    -0.267 OA
ATOM     12  O   UNL d   1       3.995  -0.811   0.529  0.00  0.00    -0.267 OA
ATOM     13  C   UNL d   1      -2.622  -0.720   0.056  0.00  0.00     0.037 A 
ENDROOT
BRANCH   5  14
ATOM     14  C   UNL d   1       4.018   1.049  -0.895  0.00  0.00     0.033 A 
ATOM     15  C   UNL d   1       5.288   1.454  -0.459  0.00  0.00     0.018 A 
ATOM     16  C   UNL d   1       5.977   2.467  -1.131  0.00  0.00     0.025 A 
ATOM     17  C   UNL d   1       5.402   3.076  -2.244  0.00  0.00     0.034 A 
ATOM     18  C   UNL d   1       4.152   2.666  -2.703  0.00  0.00     0.025 A 
ATOM     19 CL   UNL d   1       6.241   4.334  -3.062  0.00  0.00    -0.084 Cl
ATOM     20  C   UNL d   1       3.467   1.641  -2.042  0.00  0.00     0.018 A 
ENDBRANCH   5  14
BRANCH   8  21
ATOM     21  N   UNL d   1      -3.893   1.427  -0.007  0.00  0.00    -0.116 N 
ATOM     22  O   UNL d   1      -3.844   2.662  -0.066  0.00  0.00    -0.532 OA
ATOM     23  O   UNL d   1      -4.936   0.760   0.017  0.00  0.00    -0.532 OA
ENDBRANCH   8  21
TORSDOF 2
