REMARK  4 active torsions:
REMARK  status: ('A' for Active; 'I' for Inactive)
REMARK    1  A    between atoms: C_10  and  C_1 
REMARK    2  A    between atoms: C_2  and  C_9 
REMARK    3  A    between atoms: C_12  and  C_3 
REMARK    4  A    between atoms: C_11  and  C_4 
REMARK       I    between atoms: C_9  and  N_13 
REMARK       I    between atoms: N_14  and  C_10 
ROOT
ATOM      1  C   UNL d   1      -3.587  -6.665   0.734  0.00  0.00     0.258 C 
ATOM      2  C   UNL d   1       0.130  -2.455  -0.021  0.00  0.00     0.258 C 
ATOM      3  N   UNL d   1      -2.581  -5.698   0.542  0.00  0.00    -0.345 N 
ATOM      4  N   UNL d   1      -0.648  -3.618   0.049  0.00  0.00    -0.345 N 
ATOM      5  O   UNL d   1      -4.462  -6.875  -0.097  0.00  0.00    -0.267 OA
ATOM      6  O   UNL d   1       1.042  -2.228   0.770  0.00  0.00    -0.267 OA
ATOM      7  C   UNL d   1      -2.684  -4.880  -0.672  0.00  0.00     0.146 C 
ATOM      8  C   UNL d   1      -0.487  -4.510   1.195  0.00  0.00     0.146 C 
ATOM      9  C   UNL d   1      -1.862  -5.027   1.646  0.00  0.00     0.146 C 
ATOM     10  C   UNL d   1      -1.343  -4.246  -1.090  0.00  0.00     0.146 C 
ENDROOT
BRANCH   1  11
ATOM     11  C   UNL d   1      -3.562  -7.419   1.975  0.00  0.00     0.092 C 
ATOM     12  C   UNL d   1      -4.626  -7.727   2.887  0.00  0.00     0.086 C 
ATOM     13  N   UNL d   1      -4.125  -8.397   3.942  0.00  0.00    -0.259 N 
ATOM     14  O   UNL d   1      -2.808  -8.659   3.667  0.00  0.00    -0.241 OA
ATOM     15  HN  UNL d   1      -4.631  -8.661   4.787  1.00  0.00     0.195 HD
ATOM     16  C   UNL d   1      -2.471  -8.100   2.481  0.00  0.00     0.090 C 
ATOM     17  C   UNL d   1      -1.081  -8.327   2.032  0.00  0.00     0.080 C 
BRANCH  12  18
ATOM     18  C   UNL d   1      -6.066  -7.404   2.853  0.00  0.00     0.037 A 
ATOM     19  C   UNL d   1      -7.035  -8.399   3.135  0.00  0.00     0.048 A 
ATOM     20 CL   UNL d   1      -6.645 -10.067   3.426  0.00  0.00    -0.083 Cl
ATOM     21  C   UNL d   1      -8.407  -8.095   3.179  0.00  0.00     0.025 A 
ATOM     22  C   UNL d   1      -8.852  -6.811   2.901  0.00  0.00     0.003 A 
ATOM     23  C   UNL d   1      -7.924  -5.822   2.601  0.00  0.00     0.025 A 
ATOM     24  C   UNL d   1      -6.545  -6.104   2.604  0.00  0.00     0.048 A 
ATOM     25 CL   UNL d   1      -5.516  -4.727   2.382  0.00  0.00    -0.083 Cl
ENDBRANCH  12  18
ENDBRANCH   1  11
BRANCH   2  26
ATOM     26  C   UNL d   1      -0.220  -1.483  -1.038  0.00  0.00     0.092 C 
ATOM     27  C   UNL d   1       0.608  -0.724  -1.935  0.00  0.00     0.086 C 
ATOM     28  N   UNL d   1      -0.175   0.028  -2.732  0.00  0.00    -0.259 N 
ATOM     29  O   UNL d   1      -1.461  -0.105  -2.278  0.00  0.00    -0.241 OA
ATOM     30  HN  UNL d   1       0.133   0.590  -3.526  1.00  0.00     0.195 HD
ATOM     31  C   UNL d   1      -1.492  -0.988  -1.255  0.00  0.00     0.090 C 
ATOM     32  C   UNL d   1      -2.816  -1.206  -0.639  0.00  0.00     0.080 C 
BRANCH  27  33
ATOM     33  C   UNL d   1       2.070  -0.682  -2.112  0.00  0.00     0.037 A 
ATOM     34  C   UNL d   1       2.853  -1.849  -2.199  0.00  0.00     0.048 A 
ATOM     35 CL   UNL d   1       2.182  -3.447  -2.246  0.00  0.00    -0.083 Cl
ATOM     36  C   UNL d   1       4.248  -1.782  -2.351  0.00  0.00     0.025 A 
ATOM     37  C   UNL d   1       4.891  -0.557  -2.486  0.00  0.00     0.003 A 
ATOM     38  C   UNL d   1       4.139   0.609  -2.456  0.00  0.00     0.025 A 
ATOM     39  C   UNL d   1       2.750   0.557  -2.249  0.00  0.00     0.048 A 
ATOM     40 CL   UNL d   1       1.967   2.105  -2.164  0.00  0.00    -0.083 Cl
ENDBRANCH  27  33
ENDBRANCH   2  26
TORSDOF 4
