REMARK  7 active torsions:
REMARK  status: ('A' for Active; 'I' for Inactive)
REMARK    1  A    between atoms: N_2  and  S_1 
REMARK    2  A    between atoms: C_5  and  S_1 
REMARK    3  A    between atoms: C_3  and  N_2 
REMARK    4  A    between atoms: C_17  and  C_3 
REMARK    5  A    between atoms: N_4  and  C_13 
REMARK    6  A    between atoms: O_14  and  C_6 
REMARK    7  A    between atoms: C_24  and  O_14 
ROOT
ATOM      1  C   UNL d   1       0.687  -1.575  -0.558  0.00  0.00     0.083 A 
ATOM      2  C   UNL d   1       0.086  -4.196  -1.381  0.00  0.00     0.119 A 
ATOM      3  C   UNL d   1       1.046  -3.964  -0.382  0.00  0.00     0.071 A 
ATOM      4  C   UNL d   1      -0.606  -3.091  -1.914  0.00  0.00     0.071 A 
ATOM      5  C   UNL d   1       1.374  -2.657  -0.006  0.00  0.00     0.052 A 
ATOM      6  C   UNL d   1      -0.317  -1.784  -1.503  0.00  0.00     0.052 A 
ATOM      7 CL   UNL d   1       1.798  -5.228   0.530  0.00  0.00    -0.081 Cl
ATOM      8 CL   UNL d   1      -1.885  -3.305  -3.061  0.00  0.00    -0.081 Cl
ENDROOT
BRANCH   1   9
ATOM      9  S   UNL d   1       0.988   0.055   0.084  0.00  0.00     0.264 S 
ATOM     10  O   UNL d   1      -0.259   0.488   0.672  0.00  0.00    -0.200 OA
ATOM     11  O   UNL d   1       2.221   0.006   0.839  0.00  0.00    -0.200 OA
BRANCH   9  12
ATOM     12  N   UNL d   1       1.299   0.962  -1.268  0.00  0.00    -0.264 N 
ATOM     13  H   UNL d   1       2.297   1.119  -1.438  0.00  0.00     0.180 HD
BRANCH  12  14
ATOM     14  C   UNL d   1       0.437   1.859  -1.921  0.00  0.00     0.135 C 
ATOM     15  N   UNL d   1      -0.816   1.966  -1.637  0.00  0.00    -0.383 N 
ATOM     16  H   UNL d   1      -1.044   1.381  -0.819  0.00  0.00     0.157 HD
ATOM     17  HN  UNL d   1      -1.484   2.545  -2.147  1.00  0.00     0.157 HD
BRANCH  14  18
ATOM     18  C   UNL d   1       1.092   2.680  -2.984  0.00  0.00     0.076 A 
ATOM     19  N   UNL d   1       2.435   2.506  -3.140  0.00  0.00    -0.363 N 
ATOM     20  C   UNL d   1       3.027   3.290  -4.073  0.00  0.00     0.088 A 
ATOM     21  HN  UNL d   1       2.961   1.828  -2.589  1.00  0.00     0.165 HD
ATOM     22  C   UNL d   1       2.351   4.223  -4.848  0.00  0.00     0.017 A 
ATOM     23  C   UNL d   1       0.980   4.373  -4.663  0.00  0.00     0.004 A 
ATOM     24  C   UNL d   1       0.334   3.591  -3.712  0.00  0.00     0.033 A 
ENDBRANCH  14  18
ENDBRANCH  12  14
ENDBRANCH   9  12
ENDBRANCH   1   9
BRANCH   2  25
ATOM     25  O   UNL d   1      -0.351  -5.442  -1.777  0.00  0.00    -0.307 OA
BRANCH  25  26
ATOM     26  C   UNL d   1       0.530  -6.438  -2.132  0.00  0.00     0.076 A 
ATOM     27  C   UNL d   1       0.011  -7.736  -2.048  0.00  0.00     0.040 A 
ATOM     28  C   UNL d   1       0.812  -8.845  -2.330  0.00  0.00     0.039 A 
ATOM     29  C   UNL d   1       2.147  -8.648  -2.701  0.00  0.00     0.103 A 
ATOM     30  C   UNL d   1       2.665  -7.351  -2.825  0.00  0.00     0.039 A 
ATOM     31  C   UNL d   1       1.844  -6.246  -2.569  0.00  0.00     0.040 A 
BRANCH  29  32
ATOM     32  N   UNL d   1       3.008  -9.807  -2.966  0.00  0.00    -0.116 N 
ATOM     33  O   UNL d   1       4.195  -9.590  -3.249  0.00  0.00    -0.532 OA
ATOM     34  O   UNL d   1       2.498 -10.934  -2.892  0.00  0.00    -0.532 OA
ENDBRANCH  29  32
ENDBRANCH  25  26
ENDBRANCH   2  25
TORSDOF 7
