REMARK  6 active torsions:
REMARK  status: ('A' for Active; 'I' for Inactive)
REMARK    1  A    between atoms: N_4  and  C_1 
REMARK    2  A    between atoms: N_5  and  C_2 
REMARK    3  A    between atoms: N_12  and  C_3 
REMARK    4  A    between atoms: C_6  and  C_7 
REMARK    5  A    between atoms: N_10  and  N_12 
REMARK    6  A    between atoms: C_23  and  C_17 
ROOT
ATOM      1  C   UNL d   1       1.400  -0.221   0.112  0.00  0.00     0.134 A 
ATOM      2  C   UNL d   1      -0.781  -1.151   0.029  0.00  0.00     0.134 A 
ATOM      3  C   UNL d   1       0.609  -1.384   0.043  0.00  0.00     0.114 A 
ATOM      4  C   UNL d   1      -0.523   1.272   0.183  0.00  0.00     0.052 A 
ATOM      5  C   UNL d   1       0.862   1.081   0.184  0.00  0.00     0.054 A 
ATOM      6  C   UNL d   1      -1.347   0.141   0.100  0.00  0.00     0.054 A 
ENDROOT
BRANCH   3   7
ATOM      7  N   UNL d   1       1.138  -2.675  -0.146  0.00  0.00    -0.296 N 
ATOM      8  H   UNL d   1       0.570  -3.486   0.120  0.00  0.00     0.187 HD
BRANCH   7   9
ATOM      9  N   UNL d   1       2.316  -2.794  -0.785  0.00  0.00    -0.309 N 
ATOM     10  C   UNL d   1       2.776  -3.997  -0.948  0.00  0.00     0.136 C 
ATOM     11  HN  UNL d   1       2.823  -1.978  -1.127  1.00  0.00     0.186 HD
BRANCH  10  12
ATOM     12  C   UNL d   1       4.077  -4.237  -1.610  0.00  0.00     0.049 A 
ATOM     13  N   UNL d   1       4.413  -5.540  -1.759  0.00  0.00    -0.365 N 
ATOM     14  C   UNL d   1       5.604  -5.780  -2.358  0.00  0.00     0.088 A 
ATOM     15  HN  UNL d   1       3.806  -6.295  -1.440  1.00  0.00     0.165 HD
ATOM     16  C   UNL d   1       6.463  -4.787  -2.806  0.00  0.00     0.017 A 
ATOM     17  C   UNL d   1       6.085  -3.459  -2.637  0.00  0.00     0.004 A 
ATOM     18  C   UNL d   1       4.868  -3.174  -2.028  0.00  0.00     0.031 A 
ENDBRANCH  10  12
ENDBRANCH   7   9
ENDBRANCH   3   7
BRANCH   2  19
ATOM     19  N   UNL d   1      -1.703  -2.273  -0.091  0.00  0.00    -0.113 N 
ATOM     20  O   UNL d   1      -1.483  -3.266   0.618  0.00  0.00    -0.532 OA
ATOM     21  O   UNL d   1      -2.643  -2.152  -0.886  0.00  0.00    -0.532 OA
ENDBRANCH   2  19
BRANCH   1  22
ATOM     22  N   UNL d   1       2.846  -0.308   0.221  0.00  0.00    -0.113 N 
ATOM     23  O   UNL d   1       3.307  -0.721   1.294  0.00  0.00    -0.532 OA
ATOM     24  O   UNL d   1       3.507   0.161  -0.719  0.00  0.00    -0.532 OA
ENDBRANCH   1  22
BRANCH   4  25
ATOM     25  C   UNL d   1      -1.124   2.655   0.281  0.00  0.00     0.417 C 
ATOM     26  F   UNL d   1      -0.193   3.640   0.389  0.00  0.00    -0.166 F 
ATOM     27  F   UNL d   1      -1.883   2.966  -0.802  0.00  0.00    -0.166 F 
ATOM     28  F   UNL d   1      -1.936   2.782   1.365  0.00  0.00    -0.166 F 
ENDBRANCH   4  25
TORSDOF 6
