REMARK  2 active torsions:
REMARK  status: ('A' for Active; 'I' for Inactive)
REMARK    1  A    between atoms: C_11  and  N_3 
REMARK    2  A    between atoms: C_12  and  C_11 
ROOT
ATOM      1  C   UNL d   1       0.216  -0.727  -0.010  0.00  0.00     0.069 A 
ATOM      2  C   UNL d   1       0.141   0.675  -0.032  0.00  0.00     0.021 A 
ATOM      3  N   UNL d   1       2.291   0.098  -0.014  0.00  0.00    -0.348 N 
ATOM      4  C   UNL d   1       1.555  -1.083  -0.006  0.00  0.00     0.025 A 
ATOM      5  C   UNL d   1       1.424   1.187  -0.055  0.00  0.00     0.021 A 
ATOM      6  C   UNL d   1      -0.991  -1.535   0.002  0.00  0.00     0.274 A 
ATOM      7  N   UNL d   1      -2.233   0.633  -0.018  0.00  0.00    -0.306 N 
ATOM      8  HN  UNL d   1      -3.138   1.105  -0.017  1.00  0.00     0.186 HD
ATOM      9  N   UNL d   1      -2.171  -0.769  -0.001  0.00  0.00    -0.262 N 
ATOM     10  C   UNL d   1      -1.137   1.329  -0.034  0.00  0.00     0.121 A 
ATOM     11  O   UNL d   1      -0.968  -2.763   0.017  0.00  0.00    -0.266 OA
ATOM     12  C   UNL d   1       2.139  -2.455   0.018  0.00  0.00     0.069 C 
ATOM     13  C   UNL d   1       1.876   2.605  -0.095  0.00  0.00     0.069 C 
ATOM     14  C   UNL d   1      -3.439  -1.464   0.005  0.00  0.00     0.181 C 
ENDROOT
BRANCH   3  15
ATOM     15  C   UNL d   1       3.755   0.181  -0.012  0.00  0.00     0.175 C 
BRANCH  15  16
ATOM     16  C   UNL d   1       4.348   0.044   1.361  0.00  0.00     0.001 A 
ATOM     17  S   UNL d   1       6.044  -0.209   1.496  0.00  0.00    -0.105 SA
ATOM     18  C   UNL d   1       5.962  -0.333   3.198  0.00  0.00     0.050 A 
ATOM     19  C   UNL d   1       4.681  -0.148   3.666  0.00  0.00     0.008 A 
ATOM     20  C   UNL d   1       3.753   0.087   2.610  0.00  0.00     0.017 A 
ENDBRANCH  15  16
ENDBRANCH   3  15
TORSDOF 2
