REMARK  1 active torsions:
REMARK  status: ('A' for Active; 'I' for Inactive)
REMARK    1  A    between atoms: C_12  and  C_4 
ROOT
ATOM      1  N   UNL d   1       0.718   0.245  -0.973  0.00  0.00    -0.317 N 
ATOM      2  HN  UNL d   1       1.301   0.457  -1.782  1.00  0.00     0.169 HD
ATOM      3  C   UNL d   1       0.211  -0.915  -0.610  0.00  0.00     0.208 A 
ATOM      4  C   UNL d   1       0.267   1.104   0.008  0.00  0.00     0.138 A 
ATOM      5  C   UNL d   1       0.418  -2.134  -1.321  0.00  0.00     0.153 A 
ATOM      6  N   UNL d   1      -0.488   0.507   0.943  0.00  0.00    -0.242 N 
ATOM      7  HN  UNL d   1      -0.929   0.929   1.761  1.00  0.00     0.196 HD
ATOM      8  O   UNL d   1      -0.530  -0.824   0.536  0.00  0.00    -0.215 OA
ATOM      9  N   UNL d   1       0.242  -4.328  -1.815  0.00  0.00    -0.272 N 
ATOM     10  HN  UNL d   1      -0.024  -5.312  -1.782  1.00  0.00     0.194 HD
ATOM     11  O   UNL d   1      -0.148  -3.322  -0.945  0.00  0.00    -0.234 OA
ATOM     12  C   UNL d   1       1.181  -2.362  -2.448  0.00  0.00     0.063 A 
ATOM     13  C   UNL d   1       1.039  -3.735  -2.704  0.00  0.00     0.117 A 
ENDROOT
BRANCH   4  14
ATOM     14  C   UNL d   1       0.593   2.527   0.004  0.00  0.00     0.010 A 
ATOM     15  C   UNL d   1       1.353   3.074  -1.043  0.00  0.00     0.022 A 
ATOM     16  C   UNL d   1       1.668   4.441  -1.070  0.00  0.00    -0.061 A 
ATOM     17  C   UNL d   1       2.476   5.024  -2.192  0.00  0.00     0.048 C 
ATOM     18  C   UNL d   1       1.219   5.264  -0.032  0.00  0.00     0.007 A 
ATOM     19  C   UNL d   1       0.467   4.733   1.015  0.00  0.00     0.002 A 
ATOM     20  C   UNL d   1       0.155   3.372   1.034  0.00  0.00     0.015 A 
ENDBRANCH   4  14
TORSDOF 1
