REMARK  5 active torsions:
REMARK  status: ('A' for Active; 'I' for Inactive)
REMARK    1  A    between atoms: N_2  and  S_1 
REMARK    2  A    between atoms: C_4  and  S_1 
REMARK    3  A    between atoms: C_11  and  C_3 
REMARK    4  A    between atoms: O_20  and  C_3 
REMARK    5  A    between atoms: C_12  and  C_13 
ROOT
ATOM      1  N   UNL d   1       0.474  -1.428   0.481  0.00  0.00    -0.206 NA
ATOM      2  C   UNL d   1       0.081  -4.254   1.097  0.00  0.00     0.087 C 
ATOM      3  C   UNL d   1       0.366  -3.197   2.183  0.00  0.00     0.058 C 
ATOM      4  C   UNL d   1      -0.470  -3.596  -0.183  0.00  0.00     0.058 C 
ATOM      5  C   UNL d   1       0.386  -2.414  -0.635  0.00  0.00     0.111 C 
ATOM      6  C   UNL d   1       1.197  -2.040   1.635  0.00  0.00     0.111 C 
ENDROOT
BRANCH   1   7
ATOM      7  S   UNL d   1       1.128   0.101   0.052  0.00  0.00     0.243 S 
ATOM      8  O   UNL d   1       2.352  -0.150  -0.683  0.00  0.00    -0.206 OA
ATOM      9  O   UNL d   1       1.129   0.932   1.237  0.00  0.00    -0.206 OA
BRANCH   7  10
ATOM     10  C   UNL d   1      -0.069   0.794  -1.061  0.00  0.00     0.074 A 
ATOM     11  C   UNL d   1      -1.333   1.141  -0.588  0.00  0.00     0.025 A 
ATOM     12  C   UNL d   1      -2.236   1.792  -1.438  0.00  0.00     0.009 A 
ATOM     13  C   UNL d   1      -1.896   2.116  -2.769  0.00  0.00    -0.051 A 
ATOM     14  C   UNL d   1      -0.617   1.739  -3.217  0.00  0.00     0.009 A 
ATOM     15  C   UNL d   1       0.291   1.087  -2.376  0.00  0.00     0.025 A 
BRANCH  13  16
ATOM     16  C   UNL d   1      -2.894   2.874  -3.667  0.00  0.00    -0.024 C 
ATOM     17  C   UNL d   1      -2.358   3.162  -5.089  0.00  0.00     0.019 C 
ATOM     18  C   UNL d   1      -4.188   2.048  -3.826  0.00  0.00     0.019 C 
ATOM     19  C   UNL d   1      -3.243   4.239  -3.033  0.00  0.00     0.019 C 
ENDBRANCH  13  16
ENDBRANCH   7  10
ENDBRANCH   1   7
BRANCH   2  20
ATOM     20  C   UNL d   1      -0.891  -5.330   1.602  0.00  0.00    -0.024 A 
ATOM     21  C   UNL d   1      -2.165  -4.966   2.083  0.00  0.00     0.012 A 
ATOM     22  C   UNL d   1      -3.078  -5.928   2.527  0.00  0.00     0.024 A 
ATOM     23  C   UNL d   1      -2.731  -7.274   2.500  0.00  0.00     0.034 A 
ATOM     24  C   UNL d   1      -1.482  -7.664   2.026  0.00  0.00     0.024 A 
ATOM     25 CL   UNL d   1      -3.854  -8.459   3.040  0.00  0.00    -0.084 Cl
ATOM     26  C   UNL d   1      -0.574  -6.700   1.573  0.00  0.00     0.012 A 
ENDBRANCH   2  20
BRANCH   2  27
ATOM     27  O   UNL d   1       1.339  -4.857   0.754  0.00  0.00    -0.385 OA
ATOM     28  H   UNL d   1       1.694  -5.270   1.562  0.00  0.00     0.211 HD
ENDBRANCH   2  27
TORSDOF 5
