REMARK  5 active torsions:
REMARK  status: ('A' for Active; 'I' for Inactive)
REMARK    1  A    between atoms: C_2  and  C_1 
REMARK    2  A    between atoms: C_16  and  C_7 
REMARK    3  A    between atoms: S_14  and  C_16 
REMARK    4  A    between atoms: C_15  and  S_14 
REMARK    5  A    between atoms: N_18  and  C_17 
ROOT
ATOM      1  C   UNL d   1       0.553  -1.025  -0.047  0.00  0.00     0.186 A 
ATOM      2  N   UNL d   1       1.214   0.039   0.358  0.00  0.00    -0.322 N 
ATOM      3  HN  UNL d   1       2.110   0.084   0.843  1.00  0.00     0.169 HD
ATOM      4  C   UNL d   1       0.398   1.079  -0.034  0.00  0.00     0.113 A 
ATOM      5  N   UNL d   1      -0.761   0.690  -0.582  0.00  0.00    -0.246 N 
ATOM      6  HN  UNL d   1      -1.532   1.272  -0.910  1.00  0.00     0.196 HD
ATOM      7  O   UNL d   1      -0.660  -0.700  -0.598  0.00  0.00    -0.217 OA
ENDROOT
BRANCH   4   8
ATOM      8  C   UNL d   1       0.763   2.519   0.123  0.00  0.00     0.158 C 
BRANCH   8   9
ATOM      9  S   UNL d   1       2.500   2.819  -0.388  0.00  0.00    -0.121 SA
BRANCH   9  10
ATOM     10  C   UNL d   1       2.664   4.549   0.053  0.00  0.00     0.021 A 
ATOM     11  C   UNL d   1       2.101   5.576  -0.735  0.00  0.00     0.022 A 
ATOM     12  C   UNL d   1       2.271   6.905  -0.332  0.00  0.00     0.024 A 
ATOM     13  C   UNL d   1       3.078   7.227   0.762  0.00  0.00     0.002 A 
ATOM     14  C   UNL d   1       3.681   6.211   1.501  0.00  0.00     0.001 A 
ATOM     15  C   UNL d   1       3.469   4.879   1.152  0.00  0.00     0.020 A 
BRANCH  11  16
ATOM     16  N   UNL d   1       1.211   5.289  -1.791  0.00  0.00    -0.302 NA
ATOM     17  H   UNL d   1       1.432   4.395  -2.226  0.00  0.00     0.124 HD
ATOM     18  H   UNL d   1       1.155   6.035  -2.478  0.00  0.00     0.124 HD
ENDBRANCH  11  16
ENDBRANCH   9  10
ENDBRANCH   8   9
ENDBRANCH   4   8
BRANCH   1  19
ATOM     19  C   UNL d   1       1.075  -2.407   0.048  0.00  0.00     0.073 A 
ATOM     20  C   UNL d   1       0.458  -3.543  -0.417  0.00  0.00     0.089 A 
ATOM     21  O   UNL d   1       1.260  -4.613  -0.164  0.00  0.00    -0.242 OA
ATOM     22  C   UNL d   1      -0.814  -3.833  -1.106  0.00  0.00     0.080 C 
ATOM     23  N   UNL d   1       2.413  -4.189   0.471  0.00  0.00    -0.265 N 
ATOM     24  C   UNL d   1       2.297  -2.860   0.595  0.00  0.00     0.045 A 
ATOM     25  HN  UNL d   1       3.192  -4.770   0.781  1.00  0.00     0.194 HD
ATOM     26  C   UNL d   1       3.376  -2.078   1.243  0.00  0.00     0.071 C 
ENDBRANCH   1  19
TORSDOF 5
