REMARK  5 active torsions:
REMARK  status: ('A' for Active; 'I' for Inactive)
REMARK    1  A    between atoms: C_2  and  C_1 
REMARK    2  A    between atoms: N_11  and  C_2 
REMARK    3  A    between atoms: O_6  and  N_3 
REMARK    4  A    between atoms: C_5  and  O_6 
REMARK    5  A    between atoms: C_7  and  C_5 
ROOT
ATOM      1  C   UNL d   1       0.043   2.217  -0.079  0.00  0.00     0.112 C 
ATOM      2  N   UNL d   1       1.124   2.925  -0.249  0.00  0.00    -0.246 N 
ATOM      3  HN  UNL d   1       1.131   3.923  -0.460  1.00  0.00     0.196 HD
ENDROOT
BRANCH   1   4
ATOM      4  C   UNL d   1      -1.300   2.896  -0.173  0.00  0.00     0.047 A 
ATOM      5  C   UNL d   1      -2.387   2.272  -0.821  0.00  0.00     0.049 A 
ATOM      6 CL   UNL d   1      -2.267   0.748  -1.641  0.00  0.00    -0.083 Cl
ATOM      7  C   UNL d   1      -3.651   2.881  -0.866  0.00  0.00     0.025 A 
ATOM      8  C   UNL d   1      -3.853   4.129  -0.290  0.00  0.00     0.003 A 
ATOM      9  C   UNL d   1      -2.789   4.769   0.338  0.00  0.00     0.025 A 
ATOM     10  C   UNL d   1      -1.523   4.160   0.409  0.00  0.00     0.049 A 
ATOM     11 CL   UNL d   1      -0.333   5.033   1.314  0.00  0.00    -0.083 Cl
ENDBRANCH   1   4
BRANCH   1  12
ATOM     12  N   UNL d   1       0.096   0.864   0.182  0.00  0.00    -0.286 NA
ATOM     13  H   UNL d   1      -0.659   0.307  -0.208  0.00  0.00     0.125 HD
ATOM     14  H   UNL d   1       1.004   0.471  -0.039  0.00  0.00     0.125 HD
ENDBRANCH   1  12
BRANCH   2  15
ATOM     15  O   UNL d   1       2.285   2.131  -0.105  0.00  0.00    -0.198 OA
BRANCH  15  16
ATOM     16  C   UNL d   1       3.407   2.919   0.001  0.00  0.00     0.288 C 
ATOM     17  O   UNL d   1       3.434   4.144   0.012  0.00  0.00    -0.262 OA
BRANCH  16  18
ATOM     18  C   UNL d   1       4.687   2.064   0.076  0.00  0.00     0.039 C 
ATOM     19  C   UNL d   1       4.418   0.552   0.140  0.00  0.00     0.025 C 
ATOM     20  C   UNL d   1       5.524   2.369  -1.174  0.00  0.00     0.025 C 
ATOM     21  C   UNL d   1       5.475   2.472   1.331  0.00  0.00     0.025 C 
ENDBRANCH  16  18
ENDBRANCH  15  16
ENDBRANCH   2  15
TORSDOF 5
