REMARK  6 active torsions:
REMARK  status: ('A' for Active; 'I' for Inactive)
REMARK    1  A    between atoms: N_2  and  S_1 
REMARK    2  A    between atoms: C_4  and  S_1 
REMARK    3  A    between atoms: C_3  and  C_6 
REMARK    4  A    between atoms: C_12  and  N_5 
REMARK    5  A    between atoms: C_18  and  C_12 
REMARK    6  A    between atoms: C_19  and  C_12 
ROOT
ATOM      1  N   UNL d   1       0.379   1.270   0.442  0.00  0.00    -0.203 NA
ATOM      2  N   UNL d   1       0.792   3.868  -1.034  0.00  0.00     0.104 N 
ATOM      3  C   UNL d   1      -0.599   1.792  -0.548  0.00  0.00     0.138 C 
ATOM      4  C   UNL d   1       1.109   2.410   1.088  0.00  0.00     0.138 C 
ATOM      5  C   UNL d   1       1.685   3.426   0.071  0.00  0.00     0.289 C 
ATOM      6  C   UNL d   1       0.115   2.674  -1.588  0.00  0.00     0.289 C 
ENDROOT
BRANCH   1   7
ATOM      7  S   UNL d   1       1.301  -0.076  -0.053  0.00  0.00     0.243 S 
ATOM      8  O   UNL d   1       2.449  -0.187   0.827  0.00  0.00    -0.206 OA
ATOM      9  O   UNL d   1       1.464  -0.062  -1.494  0.00  0.00    -0.206 OA
BRANCH   7  10
ATOM     10  C   UNL d   1       0.231  -1.460   0.323  0.00  0.00     0.075 A 
ATOM     11  C   UNL d   1       0.520  -2.275   1.426  0.00  0.00     0.041 A 
ATOM     12  C   UNL d   1      -0.241  -3.430   1.670  0.00  0.00     0.049 A 
ATOM     13  C   UNL d   1      -1.327  -3.721   0.828  0.00  0.00     0.016 A 
ATOM     14  C   UNL d   1      -1.599  -2.920  -0.284  0.00  0.00     0.002 A 
ATOM     15  C   UNL d   1      -0.802  -1.808  -0.556  0.00  0.00     0.025 A 
BRANCH  12  16
ATOM     16  C   UNL d   1       0.116  -4.377   2.790  0.00  0.00     0.417 C 
ATOM     17  F   UNL d   1       1.312  -4.101   3.377  0.00  0.00    -0.166 F 
ATOM     18  F   UNL d   1      -0.806  -4.375   3.792  0.00  0.00    -0.166 F 
ATOM     19  F   UNL d   1       0.202  -5.670   2.365  0.00  0.00    -0.166 F 
ENDBRANCH  12  16
ENDBRANCH   7  10
ENDBRANCH   1   7
BRANCH   2  20
ATOM     20  C   UNL d   1      -0.141   4.976  -0.676  0.00  0.00     0.289 C 
BRANCH  20  21
ATOM     21  C   UNL d   1       0.593   6.251  -0.236  0.00  0.00    -0.021 A 
ATOM     22  C   UNL d   1       1.528   6.883  -1.075  0.00  0.00     0.010 A 
ATOM     23  C   UNL d   1       2.166   8.061  -0.681  0.00  0.00     0.001 A 
ATOM     24  C   UNL d   1       1.889   8.621   0.563  0.00  0.00     0.000 A 
ATOM     25  C   UNL d   1       0.972   8.005   1.412  0.00  0.00     0.001 A 
ATOM     26  C   UNL d   1       0.325   6.832   1.016  0.00  0.00     0.010 A 
ENDBRANCH  20  21
BRANCH  20  27
ATOM     27  C   UNL d   1      -1.129   5.324  -1.811  0.00  0.00    -0.021 A 
ATOM     28  C   UNL d   1      -2.458   5.666  -1.511  0.00  0.00     0.010 A 
ATOM     29  C   UNL d   1      -3.382   5.896  -2.535  0.00  0.00     0.001 A 
ATOM     30  C   UNL d   1      -2.995   5.789  -3.870  0.00  0.00     0.000 A 
ATOM     31  C   UNL d   1      -1.674   5.492  -4.187  0.00  0.00     0.001 A 
ATOM     32  C   UNL d   1      -0.744   5.289  -3.167  0.00  0.00     0.010 A 
ENDBRANCH  20  27
ENDBRANCH   2  20
TORSDOF 6
