REMARK  5 active torsions:
REMARK  status: ('A' for Active; 'I' for Inactive)
REMARK    1  A    between atoms: N_5  and  C_1 
REMARK       I    between atoms: C_4  and  N_5 
REMARK       I    between atoms: N_9  and  C_4 
REMARK    2  A    between atoms: C_6  and  N_9 
REMARK    3  A    between atoms: O_17  and  C_10 
REMARK    4  A    between atoms: C_22  and  C_14 
REMARK    5  A    between atoms: O_20  and  C_22 
ROOT
ATOM      1  C   UNL d   1       3.120  -2.350   0.490  0.00  0.00     0.170 C 
ATOM      2  N   UNL d   1       1.798  -2.436   0.215  0.00  0.00    -0.166 N 
ATOM      3  N   UNL d   1       3.598  -3.114   1.520  0.00  0.00    -0.225 NA
ATOM      4  N   UNL d   1       3.996  -1.643  -0.157  0.00  0.00    -0.375 N 
ATOM      5  HN  UNL d   1       4.998  -1.606   0.032  1.00  0.00     0.158 HD
ATOM      6  H   UNL d   1       1.365  -3.328   0.412  0.00  0.00     0.187 HD
ATOM      7  H   UNL d   1       4.594  -2.915   1.612  0.00  0.00     0.137 HD
ATOM      8  H   UNL d   1       3.500  -1.126  -0.894  0.00  0.00     0.158 HD
ENDROOT
BRANCH   2   9
ATOM      9  C   UNL d   1       1.144  -1.812  -0.834  0.00  0.00     0.686 A 
ATOM     10  N   UNL d   1       1.448  -0.545  -1.155  0.00  0.00    -0.170 N 
ATOM     11  C   UNL d   1       0.759  -0.025  -2.173  0.00  0.00     0.157 A 
ATOM     12  HN  UNL d   1       2.159  -0.013  -0.653  1.00  0.00     0.186 HD
ATOM     13  C   UNL d   1      -0.156  -0.692  -2.932  0.00  0.00     0.084 A 
ATOM     14  C   UNL d   1      -0.376  -1.998  -2.558  0.00  0.00     0.054 A 
ATOM     15  N   UNL d   1       0.232  -2.551  -1.483  0.00  0.00    -0.193 N 
ATOM     16  HN  UNL d   1       0.005  -3.497  -1.176  1.00  0.00     0.184 HD
BRANCH  11  17
ATOM     17  O   UNL d   1       1.055   1.274  -2.436  0.00  0.00    -0.346 OA
ATOM     18  H   UNL d   1       1.713   1.457  -1.740  0.00  0.00     0.219 HD
ENDBRANCH  11  17
BRANCH  14  19
ATOM     19  C   UNL d   1      -1.224  -2.907  -3.413  0.00  0.00     0.224 C 
BRANCH  19  20
ATOM     20  O   UNL d   1      -0.573  -3.166  -4.661  0.00  0.00    -0.390 OA
ATOM     21  C   UNL d   1       0.356  -4.243  -4.575  0.00  0.00     0.201 C 
ENDBRANCH  19  20
ENDBRANCH  14  19
ENDBRANCH   2   9
BRANCH   3  22
ATOM     22  C   UNL d   1       3.004  -3.185   2.810  0.00  0.00     0.093 A 
ATOM     23  C   UNL d   1       1.665  -3.513   3.054  0.00  0.00     0.141 A 
ATOM     24  F   UNL d   1       0.856  -3.889   2.051  0.00  0.00    -0.204 F 
ATOM     25  C   UNL d   1       1.131  -3.513   4.346  0.00  0.00     0.044 A 
ATOM     26  C   UNL d   1       1.942  -3.209   5.437  0.00  0.00     0.006 A 
ATOM     27  C   UNL d   1       3.289  -2.924   5.231  0.00  0.00     0.044 A 
ATOM     28  C   UNL d   1       3.802  -2.918   3.934  0.00  0.00     0.141 A 
ATOM     29  F   UNL d   1       5.104  -2.638   3.760  0.00  0.00    -0.204 F 
ENDBRANCH   3  22
TORSDOF 5
