REMARK  3 active torsions:
REMARK  status: ('A' for Active; 'I' for Inactive)
REMARK    1  A    between atoms: C_2  and  N_1 
REMARK    2  A    between atoms: S_4  and  C_3 
REMARK    3  A    between atoms: C_9  and  S_4 
ROOT
ATOM      1  C   UNL d   1      -0.818  -0.563   1.351  0.00  0.00     0.136 A 
ATOM      2  C   UNL d   1      -0.744  -1.378   0.229  0.00  0.00     0.108 A 
ATOM      3  N   UNL d   1      -0.026  -2.534   0.259  0.00  0.00    -0.358 N 
ATOM      4  HN  UNL d   1       0.028  -3.137  -0.562  1.00  0.00     0.166 HD
ATOM      5  C   UNL d   1      -0.142  -0.909   2.528  0.00  0.00     0.040 A 
ATOM      6  C   UNL d   1       0.613  -2.865   1.406  0.00  0.00     0.089 A 
ATOM      7  C   UNL d   1       0.588  -2.091   2.554  0.00  0.00     0.020 A 
ENDROOT
BRANCH   2   8
ATOM      8  S   UNL d   1      -1.561  -1.064  -1.324  0.00  0.00    -0.070 SA
BRANCH   8   9
ATOM      9  C   UNL d   1      -0.317  -0.155  -2.221  0.00  0.00     0.007 A 
ATOM     10  C   UNL d   1       0.956  -0.685  -2.461  0.00  0.00     0.019 A 
ATOM     11  C   UNL d   1       1.896   0.040  -3.198  0.00  0.00     0.001 A 
ATOM     12  C   UNL d   1       1.567   1.294  -3.711  0.00  0.00     0.000 A 
ATOM     13  C   UNL d   1       0.295   1.821  -3.492  0.00  0.00     0.001 A 
ATOM     14  C   UNL d   1      -0.644   1.098  -2.753  0.00  0.00     0.019 A 
ENDBRANCH   8   9
ENDBRANCH   2   8
BRANCH   1  15
ATOM     15  N   UNL d   1      -1.603   0.644   1.350  0.00  0.00    -0.113 N 
ATOM     16  O   UNL d   1      -2.823   0.536   1.184  0.00  0.00    -0.532 OA
ATOM     17  O   UNL d   1      -1.001   1.700   1.594  0.00  0.00    -0.532 OA
ENDBRANCH   1  15
TORSDOF 3
