REMARK  6 active torsions:
REMARK  status: ('A' for Active; 'I' for Inactive)
REMARK    1  A    between atoms: C_5  and  N_1 
REMARK    2  A    between atoms: N_6  and  C_2 
REMARK    3  A    between atoms: C_3  and  C_7 
REMARK    4  A    between atoms: C_4  and  N_6 
REMARK    5  A    between atoms: N_11  and  C_4 
REMARK    6  A    between atoms: C_10  and  N_11 
ROOT
ATOM      1  C   UNL d   1       4.957   0.631   0.025  0.00  0.00     0.061 A 
ATOM      2  C   UNL d   1       3.701   1.004   0.584  0.00  0.00     0.057 A 
ATOM      3  C   UNL d   1       6.111   2.289   1.394  0.00  0.00     0.050 A 
ATOM      4  C   UNL d   1       6.138   1.278   0.422  0.00  0.00     0.048 A 
ATOM      5  C   UNL d   1       3.712   1.978   1.596  0.00  0.00     0.032 A 
ATOM      6  C   UNL d   1       4.891   2.614   1.991  0.00  0.00     0.018 A 
ENDROOT
BRANCH   1   7
ATOM      7  N   UNL d   1       4.963  -0.496  -0.830  0.00  0.00    -0.331 N 
ATOM      8  H   UNL d   1       4.072  -0.982  -0.817  0.00  0.00     0.168 HD
BRANCH   7   9
ATOM      9  C   UNL d   1       5.801  -0.869  -1.835  0.00  0.00     0.176 C 
ATOM     10  S   UNL d   1       6.832   0.132  -2.700  0.00  0.00    -0.041 SA
BRANCH   9  11
ATOM     11  N   UNL d   1       5.736  -2.167  -2.268  0.00  0.00    -0.333 N 
ATOM     12  H   UNL d   1       6.276  -2.291  -3.120  0.00  0.00     0.168 HD
BRANCH  11  13
ATOM     13  C   UNL d   1       5.169  -3.348  -1.738  0.00  0.00     0.037 A 
ATOM     14  C   UNL d   1       4.573  -3.467  -0.481  0.00  0.00     0.053 A 
ATOM     15  C   UNL d   1       4.052  -4.697  -0.061  0.00  0.00     0.037 A 
ATOM     16 CL   UNL d   1       3.291  -4.814   1.480  0.00  0.00    -0.084 Cl
ATOM     17  C   UNL d   1       4.147  -5.829  -0.862  0.00  0.00     0.048 A 
ATOM     18  C   UNL d   1       4.769  -5.722  -2.099  0.00  0.00     0.037 A 
ATOM     19  C   UNL d   1       5.271  -4.495  -2.539  0.00  0.00     0.053 A 
ATOM     20 CL   UNL d   1       4.933  -7.116  -3.095  0.00  0.00    -0.084 Cl
ENDBRANCH  11  13
ENDBRANCH   9  11
ENDBRANCH   7   9
ENDBRANCH   1   7
BRANCH   2  21
ATOM     21  N   UNL d   1       2.491   0.427   0.097  0.00  0.00    -0.374 N 
ATOM     22  C   UNL d   1       2.274   0.691  -1.356  0.00  0.00     0.162 C 
ATOM     23  C   UNL d   1       0.863   1.099  -1.727  0.00  0.00    -0.034 A 
ATOM     24  C   UNL d   1       0.632   1.813  -2.910  0.00  0.00     0.009 A 
ATOM     25  C   UNL d   1      -0.226   0.708  -0.934  0.00  0.00    -0.049 A 
ATOM     26  C   UNL d   1      -0.666   2.161  -3.280  0.00  0.00     0.001 A 
ATOM     27  C   UNL d   1      -1.744   1.782  -2.480  0.00  0.00     0.001 A 
ATOM     28  C   UNL d   1      -1.529   1.050  -1.314  0.00  0.00     0.008 A 
ATOM     29  C   UNL d   1       0.061  -0.057   0.329  0.00  0.00     0.059 C 
ATOM     30  C   UNL d   1       1.306   0.553   0.972  0.00  0.00     0.128 C 
ENDBRANCH   2  21
BRANCH   3  31
ATOM     31  C   UNL d   1       7.359   3.010   1.833  0.00  0.00     0.417 C 
ATOM     32  F   UNL d   1       8.479   2.643   1.150  0.00  0.00    -0.166 F 
ATOM     33  F   UNL d   1       7.259   4.362   1.686  0.00  0.00    -0.166 F 
ATOM     34  F   UNL d   1       7.641   2.802   3.150  0.00  0.00    -0.166 F 
ENDBRANCH   3  31
TORSDOF 6
