REMARK  4 active torsions:
REMARK  status: ('A' for Active; 'I' for Inactive)
REMARK       I    between atoms: N_2  and  C_1 
REMARK    1  A    between atoms: C_3  and  C_1 
REMARK    2  A    between atoms: C_13  and  N_2 
REMARK    3  A    between atoms: C_4  and  C_6 
REMARK    4  A    between atoms: C_5  and  C_7 
ROOT
ATOM      1  C   UNL d   1       1.105  -0.072   0.002  0.00  0.00     0.256 C 
ATOM      2  N   UNL d   1       0.521  -0.854  -0.974  0.00  0.00    -0.323 N 
ATOM      3  O   UNL d   1       2.290  -0.052   0.320  0.00  0.00    -0.267 OA
ATOM      4  H   UNL d   1      -0.416  -0.609  -1.265  0.00  0.00     0.169 HD
ENDROOT
BRANCH   1   5
ATOM      5  C   UNL d   1       0.191   0.887   0.664  0.00  0.00     0.032 A 
ATOM      6  C   UNL d   1      -1.141   0.574   0.944  0.00  0.00     0.017 A 
ATOM      7  C   UNL d   1      -1.956   1.521   1.570  0.00  0.00     0.009 A 
ATOM      8  C   UNL d   1      -1.462   2.791   1.932  0.00  0.00    -0.051 A 
ATOM      9  C   UNL d   1      -0.113   3.069   1.655  0.00  0.00     0.009 A 
ATOM     10  C   UNL d   1       0.706   2.129   1.033  0.00  0.00     0.017 A 
BRANCH   8  11
ATOM     11  C   UNL d   1      -2.387   3.825   2.596  0.00  0.00    -0.024 C 
ATOM     12  C   UNL d   1      -1.676   5.158   2.921  0.00  0.00     0.019 C 
ATOM     13  C   UNL d   1      -3.561   4.145   1.646  0.00  0.00     0.019 C 
ATOM     14  C   UNL d   1      -2.945   3.268   3.922  0.00  0.00     0.019 C 
ENDBRANCH   8  11
ENDBRANCH   1   5
BRANCH   2  15
ATOM     15  C   UNL d   1       1.165  -1.854  -1.723  0.00  0.00     0.035 A 
ATOM     16  C   UNL d   1       2.409  -2.379  -1.389  0.00  0.00     0.030 A 
ATOM     17  C   UNL d   1       3.002  -3.360  -2.186  0.00  0.00     0.010 A 
ATOM     18  C   UNL d   1       2.372  -3.848  -3.340  0.00  0.00    -0.051 A 
ATOM     19  C   UNL d   1       1.109  -3.320  -3.656  0.00  0.00     0.010 A 
ATOM     20  C   UNL d   1       0.508  -2.345  -2.852  0.00  0.00     0.030 A 
BRANCH  18  21
ATOM     21  C   UNL d   1       3.065  -4.918  -4.197  0.00  0.00    -0.024 C 
ATOM     22  C   UNL d   1       2.236  -5.349  -5.425  0.00  0.00     0.019 C 
ATOM     23  C   UNL d   1       4.415  -4.376  -4.713  0.00  0.00     0.019 C 
ATOM     24  C   UNL d   1       3.321  -6.180  -3.345  0.00  0.00     0.019 C 
ENDBRANCH  18  21
ENDBRANCH   2  15
TORSDOF 4
