REMARK  7 active torsions:
REMARK  status: ('A' for Active; 'I' for Inactive)
REMARK    1  A    between atoms: C_2  and  C_1 
REMARK    2  A    between atoms: C_3  and  C_1 
REMARK    3  A    between atoms: N_4  and  C_1 
REMARK    4  A    between atoms: O_6  and  C_1 
REMARK       I    between atoms: C_5  and  N_4 
REMARK    5  A    between atoms: C_14  and  C_5 
REMARK    6  A    between atoms: C_15  and  O_6 
REMARK    7  A    between atoms: C_16  and  C_15 
ROOT
ATOM      1  C   UNL d   1       0.884   0.021  -0.012  0.00  0.00     0.336 C 
ENDROOT
BRANCH   1   2
ATOM      2  C   UNL d   1       0.386   1.494  -0.141  0.00  0.00     0.447 C 
ATOM      3  F   UNL d   1      -0.746   1.682  -0.844  0.00  0.00    -0.166 F 
ATOM      4  F   UNL d   1       0.164   2.028   1.096  0.00  0.00    -0.166 F 
ATOM      5  F   UNL d   1       1.337   2.282  -0.711  0.00  0.00    -0.166 F 
ENDBRANCH   1   2
BRANCH   1   6
ATOM      6  C   UNL d   1       0.530  -0.695  -1.359  0.00  0.00     0.447 C 
ATOM      7  F   UNL d   1      -0.203   0.012  -2.238  0.00  0.00    -0.166 F 
ATOM      8  F   UNL d   1       1.657  -1.069  -2.027  0.00  0.00    -0.166 F 
ATOM      9  F   UNL d   1      -0.142  -1.860  -1.130  0.00  0.00    -0.166 F 
ENDBRANCH   1   6
BRANCH   1  10
ATOM     10  N   UNL d   1       0.389  -0.708   1.176  0.00  0.00    -0.314 N 
ATOM     11  C   UNL d   1      -0.939  -0.797   1.465  0.00  0.00     0.220 C 
ATOM     12  O   UNL d   1      -1.796  -0.270   0.757  0.00  0.00    -0.274 OA
ATOM     13  H   UNL d   1       1.024  -1.383   1.580  0.00  0.00     0.166 HD
BRANCH  11  14
ATOM     14  C   UNL d   1      -1.249  -1.560   2.726  0.00  0.00     0.098 C 
ATOM     15  C   UNL d   1      -0.685  -0.847   3.945  0.00  0.00     0.014 C 
ENDBRANCH  11  14
ENDBRANCH   1  10
BRANCH   1  16
ATOM     16  O   UNL d   1       2.342  -0.052   0.159  0.00  0.00    -0.346 OA
BRANCH  16  17
ATOM     17  C   UNL d   1       2.884   0.655   1.275  0.00  0.00     0.171 C 
BRANCH  17  18
ATOM     18  C   UNL d   1       4.407   0.545   1.246  0.00  0.00     0.022 C 
ATOM     19  C   UNL d   1       5.021   1.238   0.038  0.00  0.00     0.007 C 
ENDBRANCH  17  18
ENDBRANCH  16  17
ENDBRANCH   1  16
TORSDOF 7
