REMARK  5 active torsions:
REMARK  status: ('A' for Active; 'I' for Inactive)
REMARK    1  A    between atoms: N_7  and  S_1 
REMARK    2  A    between atoms: C_8  and  S_1 
REMARK    3  A    between atoms: C_10  and  N_7 
REMARK    4  A    between atoms: C_11  and  C_12 
REMARK    5  A    between atoms: O_24  and  C_11 
ROOT
ATOM      1  S   UNL d   1       1.117  -0.035  -0.141  0.00  0.00     0.245 S 
ATOM      2  O   UNL d   1       0.359   0.681  -1.148  0.00  0.00    -0.206 OA
ATOM      3  O   UNL d   1       2.556   0.045  -0.080  0.00  0.00    -0.206 OA
ENDROOT
BRANCH   1   4
ATOM      4  N   UNL d   1       0.635  -1.675  -0.202  0.00  0.00    -0.181 NA
ATOM      5  H   UNL d   1      -0.346  -1.770   0.061  0.00  0.00     0.146 HD
BRANCH   4   6
ATOM      6  C   UNL d   1       0.951  -2.329  -1.452  0.00  0.00     0.029 A 
ATOM      7  C   UNL d   1       0.023  -2.279  -2.506  0.00  0.00     0.042 A 
ATOM      8  C   UNL d   1       0.352  -2.799  -3.771  0.00  0.00     0.041 A 
ATOM      9  C   UNL d   1       1.601  -3.398  -3.962  0.00  0.00     0.018 A 
ATOM     10  C   UNL d   1       2.516  -3.459  -2.912  0.00  0.00     0.009 A 
ATOM     11  C   UNL d   1       2.209  -2.915  -1.653  0.00  0.00    -0.040 A 
ATOM     12  C   UNL d   1       3.267  -2.988  -0.588  0.00  0.00     0.050 C 
BRANCH   8  13
ATOM     13  C   UNL d   1      -0.552  -2.703  -4.952  0.00  0.00     0.293 C 
ATOM     14  O   UNL d   1      -0.285  -3.175  -6.046  0.00  0.00    -0.259 OA
BRANCH  13  15
ATOM     15  O   UNL d   1      -1.669  -2.001  -4.643  0.00  0.00    -0.323 OA
ATOM     16  C   UNL d   1      -2.537  -1.768  -5.753  0.00  0.00     0.213 C 
ENDBRANCH  13  15
ENDBRANCH   8  13
ENDBRANCH   4   6
ENDBRANCH   1   4
BRANCH   1  17
ATOM     17  C   UNL d   1       0.486   0.494   1.446  0.00  0.00     0.075 A 
ATOM     18  C   UNL d   1      -0.780   1.071   1.510  0.00  0.00     0.043 A 
ATOM     19  C   UNL d   1      -1.192   1.584   2.735  0.00  0.00     0.051 A 
ATOM     20  C   UNL d   1      -2.479   2.244   2.972  0.00  0.00     0.241 A 
ATOM     21  C   UNL d   1      -0.408   1.556   3.903  0.00  0.00     0.055 A 
ATOM     22  S   UNL d   1      -2.532   2.752   4.662  0.00  0.00     0.032 SA
ATOM     23  O   UNL d   1      -3.360   2.406   2.148  0.00  0.00    -0.278 OA
ATOM     24  N   UNL d   1      -1.014   2.121   5.016  0.00  0.00    -0.318 N 
ATOM     25  C   UNL d   1      -0.436   2.303   6.331  0.00  0.00     0.165 C 
ATOM     26  C   UNL d   1       0.856   0.980   3.814  0.00  0.00     0.032 A 
ATOM     27  C   UNL d   1       1.308   0.458   2.586  0.00  0.00     0.027 A 
ENDBRANCH   1  17
TORSDOF 5
