REMARK  6 active torsions:
REMARK  status: ('A' for Active; 'I' for Inactive)
REMARK       I    between atoms: N_2  and  C_1 
REMARK    1  A    between atoms: C_5  and  C_1 
REMARK    2  A    between atoms: C_3  and  N_2 
REMARK    3  A    between atoms: O_16  and  C_4 
REMARK    4  A    between atoms: S_8  and  C_14 
REMARK    5  A    between atoms: C_12  and  S_8 
REMARK    6  A    between atoms: C_14  and  C_15 
ROOT
ATOM      1  C   UNL d   1       0.259   0.792   0.946  0.00  0.00     0.032 A 
ATOM      2  C   UNL d   1       0.689   2.069   1.335  0.00  0.00     0.017 A 
ATOM      3  C   UNL d   1      -1.026   0.378   1.313  0.00  0.00     0.017 A 
ATOM      4  C   UNL d   1      -1.378   2.446   2.560  0.00  0.00    -0.049 A 
ATOM      5  C   UNL d   1      -0.119   2.887   2.133  0.00  0.00     0.009 A 
ATOM      6  C   UNL d   1      -1.836   1.202   2.101  0.00  0.00     0.009 A 
ENDROOT
BRANCH   1   7
ATOM      7  C   UNL d   1       1.206  -0.054   0.151  0.00  0.00     0.256 C 
ATOM      8  N   UNL d   1       0.842  -1.372  -0.049  0.00  0.00    -0.321 N 
ATOM      9  H   UNL d   1      -0.035  -1.712   0.315  0.00  0.00     0.169 HD
ATOM     10  O   UNL d   1       2.218   0.469  -0.305  0.00  0.00    -0.267 OA
BRANCH   8  11
ATOM     11  C   UNL d   1       1.581  -2.342  -0.758  0.00  0.00     0.068 A 
ATOM     12  C   UNL d   1       0.868  -3.425  -1.293  0.00  0.00     0.092 A 
ATOM     13  C   UNL d   1       1.513  -4.446  -1.985  0.00  0.00     0.045 A 
ATOM     14  C   UNL d   1       2.900  -4.399  -2.159  0.00  0.00    -0.059 A 
ATOM     15  C   UNL d   1       3.619  -3.323  -1.619  0.00  0.00     0.009 A 
ATOM     16  C   UNL d   1       3.587  -5.456  -2.970  0.00  0.00     0.048 C 
ATOM     17  C   UNL d   1       2.963  -2.298  -0.925  0.00  0.00     0.033 A 
BRANCH  12  18
ATOM     18  O   UNL d   1      -0.497  -3.455  -1.234  0.00  0.00    -0.358 OA
ATOM     19  H   UNL d   1      -0.780  -2.552  -1.471  0.00  0.00     0.217 HD
ENDBRANCH  12  18
ENDBRANCH   8  11
ENDBRANCH   1   7
BRANCH   4  20
ATOM     20  C   UNL d   1      -2.230   3.313   3.465  0.00  0.00     0.117 C 
BRANCH  20  21
ATOM     21  S   UNL d   1      -2.869   2.373   4.899  0.00  0.00    -0.125 SA
BRANCH  21  22
ATOM     22  C   UNL d   1      -3.981   3.510   5.708  0.00  0.00     0.000 A 
ATOM     23  C   UNL d   1      -3.985   4.894   5.529  0.00  0.00     0.019 A 
ATOM     24  C   UNL d   1      -4.845   5.706   6.279  0.00  0.00     0.008 A 
ATOM     25  C   UNL d   1      -5.717   5.147   7.221  0.00  0.00    -0.062 A 
ATOM     26  C   UNL d   1      -5.730   3.761   7.388  0.00  0.00     0.008 A 
ATOM     27  C   UNL d   1      -6.596   6.030   8.055  0.00  0.00     0.048 C 
ATOM     28  C   UNL d   1      -4.870   2.954   6.638  0.00  0.00     0.019 A 
ENDBRANCH  21  22
ENDBRANCH  20  21
ENDBRANCH   4  20
TORSDOF 6
