REMARK  9 active torsions:
REMARK  status: ('A' for Active; 'I' for Inactive)
REMARK    1  A    between atoms: C_8  and  C_1 
REMARK    2  A    between atoms: C_3  and  C_2 
REMARK    3  A    between atoms: C_6  and  C_15 
REMARK    4  A    between atoms: O_16  and  C_7 
REMARK    5  A    between atoms: O_30  and  C_8 
REMARK    6  A    between atoms: N_9  and  O_16 
REMARK    7  A    between atoms: C_17  and  C_13 
REMARK    8  A    between atoms: N_29  and  C_13 
REMARK    9  A    between atoms: C_31  and  O_30 
ROOT
ATOM      1  C   UNL d   1      -2.428  -1.302  -0.041  0.00  0.00     0.086 A 
ATOM      2  C   UNL d   1      -3.560  -0.508  -0.039  0.00  0.00     0.137 A 
ATOM      3  N   UNL d   1      -3.458   0.868  -0.042  0.00  0.00    -0.316 N 
ATOM      4  HN  UNL d   1      -4.293   1.453  -0.051  1.00  0.00     0.169 HD
ATOM      5  C   UNL d   1      -2.229   1.419  -0.034  0.00  0.00     0.247 A 
ATOM      6  N   UNL d   1      -1.088   0.718  -0.036  0.00  0.00    -0.330 N 
ATOM      7  HN  UNL d   1      -0.175   1.173  -0.035  1.00  0.00     0.168 HD
ATOM      8  C   UNL d   1      -1.216  -0.624  -0.039  0.00  0.00     0.111 A 
ENDROOT
BRANCH   5   9
ATOM      9  O   UNL d   1      -2.217   2.812  -0.036  0.00  0.00    -0.199 OA
BRANCH   9  10
ATOM     10  N   UNL d   1      -0.903   3.325   0.021  0.00  0.00    -0.246 N 
ATOM     11  C   UNL d   1      -0.919   4.622   0.111  0.00  0.00     0.109 C 
ATOM     12  HN  UNL d   1      -0.057   2.756  -0.005  1.00  0.00     0.196 HD
BRANCH  11  13
ATOM     13  C   UNL d   1       0.392   5.340   0.191  0.00  0.00     0.004 A 
ATOM     14  C   UNL d   1       1.532   4.782  -0.396  0.00  0.00     0.015 A 
ATOM     15  C   UNL d   1       2.752   5.464  -0.346  0.00  0.00     0.017 A 
ATOM     16  C   UNL d   1       2.851   6.705   0.300  0.00  0.00     0.048 A 
ATOM     17  C   UNL d   1       1.705   7.251   0.901  0.00  0.00     0.017 A 
ATOM     18  C   UNL d   1       0.482   6.574   0.845  0.00  0.00     0.015 A 
BRANCH  16  19
ATOM     19  C   UNL d   1       4.162   7.454   0.363  0.00  0.00     0.417 C 
ATOM     20  F   UNL d   1       5.185   6.820  -0.275  0.00  0.00    -0.166 F 
ATOM     21  F   UNL d   1       4.079   8.690  -0.204  0.00  0.00    -0.166 F 
ATOM     22  F   UNL d   1       4.586   7.657   1.641  0.00  0.00    -0.166 F 
ENDBRANCH  16  19
ENDBRANCH  11  13
BRANCH  11  23
ATOM     23  N   UNL d   1      -2.074   5.374   0.120  0.00  0.00    -0.286 NA
ATOM     24  H   UNL d   1      -2.884   4.843  -0.187  0.00  0.00     0.125 HD
ATOM     25  H   UNL d   1      -2.012   6.276  -0.340  0.00  0.00     0.125 HD
ENDBRANCH  11  23
ENDBRANCH   9  10
ENDBRANCH   5   9
BRANCH   2  26
ATOM     26  C   UNL d   1      -4.985  -1.028   0.006  0.00  0.00     0.433 C 
ATOM     27  F   UNL d   1      -5.146  -2.371   0.115  0.00  0.00    -0.165 F 
ATOM     28  F   UNL d   1      -5.663  -0.522   1.081  0.00  0.00    -0.165 F 
ATOM     29  F   UNL d   1      -5.709  -0.651  -1.088  0.00  0.00    -0.165 F 
ENDBRANCH   2  26
BRANCH   1  30
ATOM     30  C   UNL d   1      -2.402  -2.774  -0.111  0.00  0.00     0.296 C 
ATOM     31  O   UNL d   1      -3.181  -3.442  -0.760  0.00  0.00    -0.259 OA
BRANCH  30  32
ATOM     32  O   UNL d   1      -1.339  -3.230   0.597  0.00  0.00    -0.318 OA
BRANCH  32  33
ATOM     33  C   UNL d   1      -1.109  -4.649   0.583  0.00  0.00     0.174 C 
ATOM     34  C   UNL d   1      -0.446  -5.085  -0.712  0.00  0.00     0.034 C 
ENDBRANCH  32  33
ENDBRANCH  30  32
ENDBRANCH   1  30
TORSDOF 9
