REMARK  1 active torsions:
REMARK  status: ('A' for Active; 'I' for Inactive)
REMARK    1  A    between atoms: N_10  and  C_2 
ROOT
ATOM      1  C   UNL d   1       0.006  -0.761  -0.024  0.00  0.00     0.067 A 
ATOM      2  C   UNL d   1       1.254  -1.394  -0.037  0.00  0.00     0.094 A 
ATOM      3  N   UNL d   1       2.414  -0.723   0.003  0.00  0.00    -0.343 N 
ATOM      4  HN  UNL d   1       3.315  -1.201  -0.001  1.00  0.00     0.167 HD
ATOM      5  N   UNL d   1       1.188   1.326   0.044  0.00  0.00    -0.351 N 
ATOM      6  HN  UNL d   1       1.199   2.346   0.073  1.00  0.00     0.166 HD
ATOM      7  C   UNL d   1       2.320   0.611   0.048  0.00  0.00     0.182 A 
ATOM      8  C   UNL d   1      -1.247  -1.413  -0.031  0.00  0.00     0.132 A 
ATOM      9  C   UNL d   1       0.042   0.638   0.001  0.00  0.00     0.049 A 
ATOM     10  F   UNL d   1      -1.317  -2.753   0.021  0.00  0.00    -0.205 F 
ATOM     11  C   UNL d   1      -2.397   0.686  -0.062  0.00  0.00     0.005 A 
ATOM     12  C   UNL d   1      -2.440  -0.701  -0.053  0.00  0.00     0.043 A 
ATOM     13  C   UNL d   1      -1.161   1.337  -0.025  0.00  0.00     0.030 A 
ENDROOT
BRANCH   2  14
ATOM     14  N   UNL d   1       1.384  -2.772  -0.204  0.00  0.00    -0.288 NA
ATOM     15  H   UNL d   1       0.747  -3.309   0.374  0.00  0.00     0.125 HD
ATOM     16  H   UNL d   1       2.360  -3.030  -0.097  0.00  0.00     0.125 HD
ENDBRANCH   2  14
TORSDOF 1
