REMARK  5 active torsions:
REMARK  status: ('A' for Active; 'I' for Inactive)
REMARK    1  A    between atoms: N_4  and  C_1 
REMARK    2  A    between atoms: N_5  and  C_2 
REMARK    3  A    between atoms: O_10  and  C_3 
REMARK    4  A    between atoms: C_6  and  C_7 
REMARK    5  A    between atoms: C_18  and  O_10 
ROOT
ATOM      1  C   UNL d   1       1.397  -0.062  -0.027  0.00  0.00     0.140 A 
ATOM      2  C   UNL d   1      -0.753  -1.087  -0.003  0.00  0.00     0.140 A 
ATOM      3  C   UNL d   1       0.641  -1.244  -0.091  0.00  0.00     0.142 A 
ATOM      4  C   UNL d   1      -0.602   1.335   0.155  0.00  0.00     0.052 A 
ATOM      5  C   UNL d   1      -1.377   0.171   0.118  0.00  0.00     0.055 A 
ATOM      6  C   UNL d   1       0.791   1.207   0.068  0.00  0.00     0.055 A 
ENDROOT
BRANCH   3   7
ATOM      7  O   UNL d   1       1.105  -2.540  -0.115  0.00  0.00    -0.306 OA
BRANCH   7   8
ATOM      8  C   UNL d   1       2.212  -2.892  -0.845  0.00  0.00     0.076 C 
ATOM      9  C   UNL d   1       2.977  -3.936  -0.316  0.00  0.00     0.038 C 
ATOM     10  C   UNL d   1       4.204  -4.269  -0.893  0.00  0.00     0.021 C 
ATOM     11  C   UNL d   1       4.659  -3.551  -1.997  0.00  0.00     0.006 C 
ATOM     12  C   UNL d   1       3.856  -2.572  -2.581  0.00  0.00     0.021 C 
ATOM     13  I   UNL d   1       6.559  -3.912  -2.756  0.00  0.00    -0.045 I 
ATOM     14  C   UNL d   1       2.606  -2.277  -2.032  0.00  0.00     0.038 C 
ENDBRANCH   7   8
ENDBRANCH   3   7
BRANCH   2  15
ATOM     15  N   UNL d   1      -1.620  -2.255  -0.020  0.00  0.00    -0.113 N 
ATOM     16  O   UNL d   1      -1.565  -2.985  -1.019  0.00  0.00    -0.532 OA
ATOM     17  O   UNL d   1      -2.384  -2.394   0.943  0.00  0.00    -0.532 OA
ENDBRANCH   2  15
BRANCH   1  18
ATOM     18  N   UNL d   1       2.848  -0.057   0.003  0.00  0.00    -0.113 N 
ATOM     19  O   UNL d   1       3.399  -0.627   0.948  0.00  0.00    -0.532 OA
ATOM     20  O   UNL d   1       3.412   0.601  -0.892  0.00  0.00    -0.532 OA
ENDBRANCH   1  18
BRANCH   4  21
ATOM     21  C   UNL d   1      -1.216   2.706   0.320  0.00  0.00     0.417 C 
ATOM     22  F   UNL d   1      -2.569   2.681   0.436  0.00  0.00    -0.166 F 
ATOM     23  F   UNL d   1      -0.749   3.340   1.430  0.00  0.00    -0.166 F 
ATOM     24  F   UNL d   1      -0.935   3.521  -0.729  0.00  0.00    -0.166 F 
ENDBRANCH   4  21
TORSDOF 5
