REMARK  6 active torsions:
REMARK  status: ('A' for Active; 'I' for Inactive)
REMARK    1  A    between atoms: N_2  and  C_1 
REMARK    2  A    between atoms: C_3  and  C_1 
REMARK    3  A    between atoms: C_4  and  C_1 
REMARK    4  A    between atoms: N_6  and  C_1 
REMARK       I    between atoms: C_5  and  N_2 
REMARK    5  A    between atoms: C_7  and  C_5 
REMARK    6  A    between atoms: C_16  and  N_6 
ROOT
ATOM      1  C   UNL d   1       0.842   0.050  -0.159  0.00  0.00     0.306 C 
ENDROOT
BRANCH   1   2
ATOM      2  N   UNL d   1       0.608   1.419  -0.680  0.00  0.00    -0.315 N 
ATOM      3  C   UNL d   1       1.050   2.567  -0.071  0.00  0.00     0.254 C 
ATOM      4  O   UNL d   1       1.546   2.566   1.046  0.00  0.00    -0.268 OA
ATOM      5  H   UNL d   1       0.408   1.465  -1.667  0.00  0.00     0.165 HD
BRANCH   3   6
ATOM      6  C   UNL d   1       0.876   3.837  -0.855  0.00  0.00     0.037 A 
ATOM      7  C   UNL d   1       1.726   4.948  -0.668  0.00  0.00    -0.046 A 
ATOM      8  C   UNL d   1       2.884   4.955   0.294  0.00  0.00     0.049 C 
ATOM      9  C   UNL d   1       1.463   6.134  -1.381  0.00  0.00     0.007 A 
ATOM     10  C   UNL d   1       0.411   6.210  -2.292  0.00  0.00     0.001 A 
ATOM     11  C   UNL d   1      -0.410   5.109  -2.496  0.00  0.00     0.001 A 
ATOM     12  C   UNL d   1      -0.189   3.935  -1.773  0.00  0.00     0.017 A 
ENDBRANCH   3   6
ENDBRANCH   1   2
BRANCH   1  13
ATOM     13  C   UNL d   1      -0.276  -0.922  -0.652  0.00  0.00     0.441 C 
ATOM     14  F   UNL d   1      -0.580  -0.696  -1.960  0.00  0.00    -0.166 F 
ATOM     15  F   UNL d   1       0.070  -2.225  -0.552  0.00  0.00    -0.166 F 
ATOM     16  F   UNL d   1      -1.440  -0.754   0.019  0.00  0.00    -0.166 F 
ENDBRANCH   1  13
BRANCH   1  17
ATOM     17  C   UNL d   1       0.728  -0.139   1.397  0.00  0.00     0.441 C 
ATOM     18  F   UNL d   1      -0.301   0.552   1.935  0.00  0.00    -0.166 F 
ATOM     19  F   UNL d   1       0.548  -1.442   1.735  0.00  0.00    -0.166 F 
ATOM     20  F   UNL d   1       1.868   0.231   2.036  0.00  0.00    -0.166 F 
ENDBRANCH   1  17
BRANCH   1  21
ATOM     21  N   UNL d   1       2.227  -0.276  -0.631  0.00  0.00    -0.349 N 
ATOM     22  H   UNL d   1       2.881  -0.407   0.143  0.00  0.00     0.162 HD
BRANCH  21  23
ATOM     23  C   UNL d   1       2.645  -0.745  -1.854  0.00  0.00     0.030 A 
ATOM     24  C   UNL d   1       2.013  -0.459  -3.069  0.00  0.00     0.031 A 
ATOM     25  C   UNL d   1       2.472  -0.990  -4.278  0.00  0.00     0.026 A 
ATOM     26  C   UNL d   1       3.580  -1.828  -4.293  0.00  0.00     0.034 A 
ATOM     27  C   UNL d   1       4.236  -2.125  -3.105  0.00  0.00     0.026 A 
ATOM     28 CL   UNL d   1       4.136  -2.493  -5.778  0.00  0.00    -0.084 Cl
ATOM     29  C   UNL d   1       3.771  -1.584  -1.903  0.00  0.00     0.031 A 
ENDBRANCH  21  23
ENDBRANCH   1  21
TORSDOF 6
