REMARK  3 active torsions:
REMARK  status: ('A' for Active; 'I' for Inactive)
REMARK    1  A    between atoms: C_2  and  N_1 
REMARK    2  A    between atoms: O_6  and  C_5 
REMARK    3  A    between atoms: C_8  and  O_6 
ROOT
ATOM      1  C   UNL d   1       0.524  -1.008   1.038  0.00  0.00     0.118 A 
ATOM      2  N   UNL d   1      -0.554  -1.959   2.974  0.00  0.00    -0.344 N 
ATOM      3  HN  UNL d   1      -0.792  -1.920   3.965  1.00  0.00     0.167 HD
ATOM      4  C   UNL d   1      -0.993  -2.963   2.177  0.00  0.00     0.148 A 
ATOM      5  C   UNL d   1       0.216  -1.008   2.391  0.00  0.00     0.126 A 
ATOM      6  C   UNL d   1       0.008  -2.018   0.222  0.00  0.00     0.041 A 
ATOM      7  C   UNL d   1      -0.772  -3.015   0.806  0.00  0.00     0.059 A 
ENDROOT
BRANCH   4   8
ATOM      8  O   UNL d   1      -1.734  -3.999   2.725  0.00  0.00    -0.291 OA
BRANCH   8   9
ATOM      9  C   UNL d   1      -1.394  -4.411   3.994  0.00  0.00     0.116 A 
ATOM     10  C   UNL d   1      -0.079  -4.570   4.442  0.00  0.00     0.150 A 
ATOM     11  F   UNL d   1       0.963  -4.330   3.631  0.00  0.00    -0.203 F 
ATOM     12  C   UNL d   1       0.183  -5.019   5.734  0.00  0.00     0.045 A 
ATOM     13  C   UNL d   1      -0.875  -5.350   6.580  0.00  0.00     0.003 A 
ATOM     14  C   UNL d   1      -2.190  -5.238   6.126  0.00  0.00     0.003 A 
ATOM     15  C   UNL d   1      -2.450  -4.772   4.834  0.00  0.00     0.040 A 
ENDBRANCH   8   9
ENDBRANCH   4   8
BRANCH   1  16
ATOM     16  N   UNL d   1       1.387   0.028   0.492  0.00  0.00    -0.114 N 
ATOM     17  O   UNL d   1       1.868   0.855   1.280  0.00  0.00    -0.532 OA
ATOM     18  O   UNL d   1       1.593   0.020  -0.730  0.00  0.00    -0.532 OA
ENDBRANCH   1  16
TORSDOF 3
