REMARK  1 active torsions:
REMARK  status: ('A' for Active; 'I' for Inactive)
REMARK    1  A    between atoms: C_8  and  N_6 
ROOT
ATOM      1  C   UNL d   1      -0.726  -1.107  -0.089  0.00  0.00     0.146 C 
ATOM      2  S   UNL d   1      -1.558   0.390   0.360  0.00  0.00    -0.057 SA
ATOM      3  N   UNL d   1       0.586  -1.035   0.302  0.00  0.00    -0.357 N 
ATOM      4  C   UNL d   1      -0.224   0.891   1.379  0.00  0.00     0.004 C 
ATOM      5  C   UNL d   1       0.853  -0.185   1.462  0.00  0.00     0.058 C 
ATOM      6  N   UNL d   1      -1.413  -2.033  -0.654  0.00  0.00    -0.337 N 
ATOM      7  HN  UNL d   1      -2.391  -1.849  -0.877  1.00  0.00     0.168 HD
ATOM      8  C   UNL d   1      -0.210   2.107   1.943  0.00  0.00     0.029 C 
ATOM      9  C   UNL d   1       2.282   0.349   1.373  0.00  0.00     0.044 C 
ATOM     10  C   UNL d   1       0.677  -1.030   2.734  0.00  0.00     0.044 C 
ATOM     11  H   UNL d   1       1.159  -1.858   0.188  0.00  0.00     0.162 HD
ENDROOT
BRANCH   6  12
ATOM     12  C   UNL d   1      -0.875  -3.287  -0.977  0.00  0.00     0.035 A 
ATOM     13  C   UNL d   1      -0.098  -4.046  -0.096  0.00  0.00     0.053 A 
ATOM     14  C   UNL d   1       0.381  -5.300  -0.475  0.00  0.00     0.036 A 
ATOM     15 CL   UNL d   1       1.399  -6.180   0.598  0.00  0.00    -0.084 Cl
ATOM     16  C   UNL d   1       0.042  -5.845  -1.711  0.00  0.00     0.024 A 
ATOM     17  C   UNL d   1      -0.781  -5.126  -2.574  0.00  0.00     0.004 A 
ATOM     18  C   UNL d   1      -1.229  -3.853  -2.208  0.00  0.00     0.029 A 
ENDBRANCH   6  12
TORSDOF 1
