REMARK  5 active torsions:
REMARK  status: ('A' for Active; 'I' for Inactive)
REMARK    1  A    between atoms: CA_2  and  C_1 
REMARK    2  A    between atoms: OXT_6  and  C_1 
REMARK    3  A    between atoms: CB_4  and  CA_2 
REMARK    4  A    between atoms: CA_2  and  N_5 
REMARK    5  A    between atoms: CG_7  and  CB_4 
ROOT
ATOM      1  CA  PHE d   1       0.274  -0.839  -0.846  0.00  0.00     0.318 C 
ENDROOT
BRANCH   1   2
ATOM      2  C   PHE d   1       1.313  -1.665  -1.624  0.00  0.00     0.174 C 
ATOM      3  O   PHE d   1       1.997  -1.255  -2.547  0.00  0.00    -0.648 OA
BRANCH   2   4
ATOM      4  OXT PHE d   1       1.389  -2.935  -1.145  0.00  0.00    -0.775 OA
ATOM      5  HXT PHE d   1       0.745  -2.973  -0.392  0.00  0.00     0.167 HD
ENDBRANCH   2   4
ENDBRANCH   1   2
BRANCH   1   6
ATOM      6  CB  PHE d   1      -0.628  -0.102  -1.848  0.00  0.00     0.085 C 
BRANCH   6   7
ATOM      7  CG  PHE d   1      -1.673   0.780  -1.204  0.00  0.00    -0.056 A 
ATOM      8  CD1 PHE d   1      -1.368   2.103  -0.856  0.00  0.00     0.007 A 
ATOM      9  CE1 PHE d   1      -2.340   2.925  -0.284  0.00  0.00     0.001 A 
ATOM     10  CZ  PHE d   1      -3.622   2.432  -0.045  0.00  0.00     0.000 A 
ATOM     11  CE2 PHE d   1      -3.932   1.115  -0.376  0.00  0.00     0.001 A 
ATOM     12  CD2 PHE d   1      -2.964   0.293  -0.955  0.00  0.00     0.007 A 
ENDBRANCH   6   7
ENDBRANCH   1   6
BRANCH   1  13
ATOM     13  N   PHE d   1      -0.479  -1.771   0.059  0.00  0.00     0.093 N 
ATOM     14  H1  PHE d   1      -1.275  -2.147  -0.468  0.00  0.00     0.314 HD
ATOM     15  H2  PHE d   1      -0.929  -1.183   0.771  0.00  0.00     0.314 HD
ENDBRANCH   1  13
TORSDOF 5
