REMARK  4 active torsions:
REMARK  status: ('A' for Active; 'I' for Inactive)
REMARK    1  A    between atoms: C_9  and  C_1 
REMARK    2  A    between atoms: C_10  and  C_1 
REMARK    3  A    between atoms: N_11  and  C_4 
REMARK    4  A    between atoms: C_5  and  N_11 
ROOT
ATOM      1  N   UNL d   1       0.841   0.907  -2.260  0.00  0.00    -0.350 N 
ATOM      2  H   UNL d   1       1.790   0.547  -2.418  0.00  0.00     0.166 HD
ENDROOT
BRANCH   1   3
ATOM      3  C   UNL d   1       0.170   1.291  -3.368  0.00  0.00     0.121 A 
ATOM      4  N   UNL d   1       0.616   1.080  -4.611  0.00  0.00    -0.284 N 
ATOM      5  N   UNL d   1      -0.360   1.559  -5.399  0.00  0.00    -0.306 N 
ATOM      6  HN  UNL d   1       1.497   0.652  -4.895  1.00  0.00     0.188 HD
ATOM      7  C   UNL d   1      -0.269   1.413  -6.834  0.00  0.00     0.177 C 
ATOM      8  C   UNL d   1      -1.385   2.135  -4.714  0.00  0.00     0.113 A 
ATOM      9  C   UNL d   1      -1.073   1.969  -3.386  0.00  0.00     0.068 A 
ENDBRANCH   1   3
BRANCH   1  10
ATOM     10  C   UNL d   1       0.332   0.578  -1.016  0.00  0.00     0.108 C 
ATOM     11  C   UNL d   1       0.967   0.072   0.061  0.00  0.00     0.070 C 
BRANCH  11  12
ATOM     12  C   UNL d   1       0.169  -0.346   1.258  0.00  0.00     0.160 C 
ATOM     13  O   UNL d   1       0.684  -0.412   2.373  0.00  0.00    -0.293 OA
ATOM     14  C   UNL d   1      -1.286  -0.733   1.105  0.00  0.00     0.097 C 
ENDBRANCH  11  12
BRANCH  11  15
ATOM     15  C   UNL d   1       2.461  -0.049  -0.002  0.00  0.00     0.160 C 
ATOM     16  O   UNL d   1       3.018  -0.238  -1.090  0.00  0.00    -0.293 OA
ATOM     17  C   UNL d   1       3.308   0.108   1.236  0.00  0.00     0.097 C 
ENDBRANCH  11  15
ENDBRANCH   1  10
TORSDOF 4
