REMARK  8 active torsions:
REMARK  status: ('A' for Active; 'I' for Inactive)
REMARK    1  A    between atoms: S_2  and  N_1 
REMARK    2  A    between atoms: C_8  and  S_2 
REMARK    3  A    between atoms: C_15  and  C_6 
REMARK    4  A    between atoms: C_20  and  C_15 
REMARK    5  A    between atoms: C_23  and  C_20 
REMARK    6  A    between atoms: C_21  and  C_22 
REMARK    7  A    between atoms: C_22  and  C_24 
REMARK    8  A    between atoms: C_24  and  C_23 
ROOT
ATOM      1  N   UNL d   1       0.617   1.219  -0.112  0.00  0.00    -0.141 N 
ATOM      2  N   UNL d   1      -0.841   1.233  -0.143  0.00  0.00    -0.289 N 
ATOM      3  HN  UNL d   1      -1.445   2.051  -0.217  1.00  0.00     0.187 HD
ATOM      4  C   UNL d   1       1.116  -0.090   0.045  0.00  0.00     0.262 A 
ATOM      5  C   UNL d   1      -0.088  -1.002   0.135  0.00  0.00     0.127 A 
ATOM      6  C   UNL d   1      -1.214  -0.007  -0.059  0.00  0.00     0.014 A 
ATOM      7  O   UNL d   1       2.285  -0.428   0.119  0.00  0.00    -0.270 OA
ATOM      8  C   UNL d   1      -2.645  -0.413  -0.178  0.00  0.00     0.066 C 
ENDROOT
BRANCH   1   9
ATOM      9  S   UNL d   1       1.501   2.630   0.150  0.00  0.00     0.285 S 
ATOM     10  O   UNL d   1       0.795   3.761  -0.417  0.00  0.00    -0.198 OA
ATOM     11  O   UNL d   1       1.932   2.641   1.535  0.00  0.00    -0.198 OA
BRANCH   9  12
ATOM     12  C   UNL d   1       2.936   2.385  -0.874  0.00  0.00     0.081 A 
ATOM     13  C   UNL d   1       2.765   2.293  -2.262  0.00  0.00     0.027 A 
ATOM     14  C   UNL d   1       3.875   2.067  -3.074  0.00  0.00     0.025 A 
ATOM     15  C   UNL d   1       5.144   1.946  -2.498  0.00  0.00     0.034 A 
ATOM     16  C   UNL d   1       5.310   2.059  -1.117  0.00  0.00     0.025 A 
ATOM     17 CL   UNL d   1       6.509   1.653  -3.501  0.00  0.00    -0.084 Cl
ATOM     18  C   UNL d   1       4.203   2.280  -0.298  0.00  0.00     0.027 A 
ENDBRANCH   9  12
ENDBRANCH   1   9
BRANCH   5  19
ATOM     19  C   UNL d   1      -0.076  -1.679   1.508  0.00  0.00     0.020 C 
BRANCH  19  20
ATOM     20  C   UNL d   1      -1.131  -2.766   1.736  0.00  0.00     0.001 C 
BRANCH  20  21
ATOM     21  C   UNL d   1      -1.160  -3.874   0.683  0.00  0.00     0.000 C 
BRANCH  21  22
ATOM     22  C   UNL d   1       0.127  -4.693   0.701  0.00  0.00     0.000 C 
BRANCH  22  23
ATOM     23  C   UNL d   1       0.114  -5.802  -0.346  0.00  0.00    -0.000 C 
BRANCH  23  24
ATOM     24  C   UNL d   1       1.402  -6.617  -0.261  0.00  0.00    -0.005 C 
ATOM     25  C   UNL d   1       1.426  -7.729  -1.294  0.00  0.00     0.005 C 
ENDBRANCH  23  24
ENDBRANCH  22  23
ENDBRANCH  21  22
ENDBRANCH  20  21
ENDBRANCH  19  20
ENDBRANCH   5  19
TORSDOF 8
