REMARK  0 active torsions:
REMARK  status: ('A' for Active; 'I' for Inactive)
ROOT
ATOM      1  C   UNL d   1       0.024  -0.793   0.000  0.00  0.00     0.046 A 
ATOM      2  C   UNL d   1       0.004   0.558   0.047  0.00  0.00     0.072 A 
ATOM      3  C   UNL d   1       1.316  -1.471  -0.007  0.00  0.00    -0.040 A 
ATOM      4  C   UNL d   1      -1.310  -1.487  -0.034  0.00  0.00     0.163 C 
ATOM      5  O   UNL d   1       1.197   1.324   0.092  0.00  0.00    -0.279 OA
ATOM      6  C   UNL d   1       2.423   0.733   0.080  0.00  0.00     0.288 A 
ATOM      7  C   UNL d   1       2.441  -0.735   0.030  0.00  0.00     0.090 A 
ATOM      8  C   UNL d   1      -1.230   1.423   0.033  0.00  0.00     0.075 C 
ATOM      9  C   UNL d   1      -2.497   0.682  -0.432  0.00  0.00    -0.035 C 
ATOM     10  C   UNL d   1      -2.542  -0.668   0.291  0.00  0.00     0.093 C 
ATOM     11  O   UNL d   1      -1.423  -2.681  -0.305  0.00  0.00    -0.292 OA
ATOM     12  O   UNL d   1       3.469   1.370   0.109  0.00  0.00    -0.260 OA
ATOM     13  C   UNL d   1       1.463  -2.968  -0.055  0.00  0.00     0.049 C 
ATOM     14  C   UNL d   1      -2.483   0.479  -1.963  0.00  0.00     0.015 C 
ATOM     15  C   UNL d   1      -3.745   1.505  -0.073  0.00  0.00     0.015 C 
ENDROOT
TORSDOF 0
