REMARK  3 active torsions:
REMARK  status: ('A' for Active; 'I' for Inactive)
REMARK    1  A    between atoms: C_8  and  C_5 
REMARK    2  A    between atoms: N_20  and  C_6 
REMARK    3  A    between atoms: O_22  and  C_7 
ROOT
ATOM      1  C   UNL d   1       0.989  -0.397  -0.138  0.00  0.00     0.095 A 
ATOM      2  C   UNL d   1      -1.398  -0.102   0.095  0.00  0.00     0.108 A 
ATOM      3  N   UNL d   1       0.072   1.819   0.041  0.00  0.00    -0.325 N 
ATOM      4  HN  UNL d   1       0.199   2.831   0.074  1.00  0.00     0.169 HD
ATOM      5  C   UNL d   1      -0.301  -0.986  -0.050  0.00  0.00     0.023 A 
ATOM      6  C   UNL d   1       1.125   0.994  -0.055  0.00  0.00     0.101 A 
ATOM      7  C   UNL d   1      -1.161   1.271   0.090  0.00  0.00     0.165 A 
ATOM      8  C   UNL d   1       2.175  -1.182  -0.338  0.00  0.00     0.103 C 
ATOM      9  C   UNL d   1      -2.748  -0.561   0.261  0.00  0.00     0.104 C 
ATOM     10  N   UNL d   1      -3.836  -0.944   0.384  0.00  0.00    -0.191 NA
ATOM     11  N   UNL d   1       3.141  -1.799  -0.514  0.00  0.00    -0.191 NA
ENDROOT
BRANCH   5  12
ATOM     12  C   UNL d   1      -0.489  -2.467  -0.107  0.00  0.00    -0.020 A 
ATOM     13  C   UNL d   1      -1.413  -3.053  -0.996  0.00  0.00     0.052 A 
ATOM     14  C   UNL d   1      -1.569  -4.427  -0.995  0.00  0.00     0.105 A 
ATOM     15  O   UNL d   1      -2.450  -5.125  -1.760  0.00  0.00    -0.323 OA
ATOM     16  C   UNL d   1      -0.819  -5.243  -0.187  0.00  0.00     0.105 A 
ATOM     17  C   UNL d   1      -2.207  -6.469  -1.294  0.00  0.00     0.352 A 
ATOM     18  O   UNL d   1      -1.121  -6.557  -0.349  0.00  0.00    -0.323 OA
ATOM     19  C   UNL d   1       0.116  -4.729   0.678  0.00  0.00     0.040 A 
ATOM     20  C   UNL d   1       0.259  -3.336   0.733  0.00  0.00     0.015 A 
ENDBRANCH   5  12
BRANCH   6  21
ATOM     21  N   UNL d   1       2.357   1.632   0.027  0.00  0.00    -0.287 NA
ATOM     22  H   UNL d   1       2.207   2.638   0.054  0.00  0.00     0.125 HD
ATOM     23  H   UNL d   1       3.029   1.363  -0.686  0.00  0.00     0.125 HD
ENDBRANCH   6  21
BRANCH   7  24
ATOM     24  O   UNL d   1      -2.249   2.120   0.150  0.00  0.00    -0.340 OA
ATOM     25  C   UNL d   1      -1.932   3.477  -0.151  0.00  0.00     0.211 C 
ENDBRANCH   7  24
TORSDOF 3
