REMARK  5 active torsions:
REMARK  status: ('A' for Active; 'I' for Inactive)
REMARK    1  A    between atoms: C_9  and  N_1 
REMARK    2  A    between atoms: C_14  and  C_9 
REMARK    3  A    between atoms: O_16  and  C_10 
REMARK    4  A    between atoms: O_17  and  C_11 
REMARK    5  A    between atoms: O_22  and  C_15 
ROOT
ATOM      1  N   UNL d   1       2.379   0.637   0.075  0.00  0.00    -0.261 N 
ATOM      2  C   UNL d   1       1.216   1.398  -0.009  0.00  0.00     0.264 A 
ATOM      3  C   UNL d   1       2.397  -0.746   0.151  0.00  0.00     0.330 A 
ATOM      4  C   UNL d   1      -0.063   0.662  -0.009  0.00  0.00     0.062 A 
ATOM      5  C   UNL d   1      -0.035  -0.722   0.010  0.00  0.00     0.054 A 
ATOM      6  N   UNL d   1       1.188  -1.382   0.074  0.00  0.00    -0.307 N 
ATOM      7  C   UNL d   1      -1.290   1.328   0.005  0.00  0.00     0.059 A 
ATOM      8  C   UNL d   1      -1.225  -1.454   0.007  0.00  0.00     0.070 A 
ATOM      9  C   UNL d   1      -2.496   0.610   0.057  0.00  0.00     0.102 A 
ATOM     10  C   UNL d   1      -2.468  -0.799   0.045  0.00  0.00     0.103 A 
ATOM     11  O   UNL d   1       3.410  -1.423   0.297  0.00  0.00    -0.246 OA
ATOM     12  O   UNL d   1       1.196   2.628  -0.062  0.00  0.00    -0.267 OA
ATOM     13  H   UNL d   1       1.230  -2.392   0.129  0.00  0.00     0.170 HD
ENDROOT
BRANCH   1  14
ATOM     14  C   UNL d   1       3.659   1.335   0.102  0.00  0.00     0.175 C 
BRANCH  14  15
ATOM     15  C   UNL d   1       4.212   1.559  -1.290  0.00  0.00    -0.040 A 
ATOM     16  C   UNL d   1       3.877   2.715  -2.005  0.00  0.00     0.011 A 
ATOM     17  C   UNL d   1       4.298   2.876  -3.326  0.00  0.00     0.037 A 
ATOM     18  C   UNL d   1       5.073   1.900  -3.954  0.00  0.00     0.068 A 
ATOM     19  C   UNL d   1       5.444   0.762  -3.238  0.00  0.00     0.037 A 
ATOM     20  C   UNL d   1       5.011   0.591  -1.915  0.00  0.00     0.011 A 
BRANCH  18  21
ATOM     21  O   UNL d   1       5.339   2.147  -5.271  0.00  0.00    -0.356 OA
ATOM     22  C   UNL d   1       6.451   1.475  -5.846  0.00  0.00     0.210 C 
ENDBRANCH  18  21
ENDBRANCH  14  15
ENDBRANCH   1  14
BRANCH   9  23
ATOM     23  O   UNL d   1      -3.583   1.443   0.121  0.00  0.00    -0.353 OA
ATOM     24  C   UNL d   1      -4.875   0.888   0.309  0.00  0.00     0.210 C 
ENDBRANCH   9  23
BRANCH  10  25
ATOM     25  O   UNL d   1      -3.660  -1.471   0.080  0.00  0.00    -0.353 OA
ATOM     26  C   UNL d   1      -3.646  -2.892   0.132  0.00  0.00     0.210 C 
ENDBRANCH  10  25
TORSDOF 5
