REMARK  4 active torsions:
REMARK  status: ('A' for Active; 'I' for Inactive)
REMARK    1  A    between atoms: C_2  and  N_1 
REMARK    2  A    between atoms: O_5  and  C_8 
REMARK    3  A    between atoms: C_9  and  O_5 
REMARK    4  A    between atoms: O_17  and  C_10 
ROOT
ATOM      1  C   UNL d   1      -0.624  -5.752  -1.484  0.00  0.00     0.103 A 
ATOM      2  C   UNL d   1       0.235  -5.889  -0.386  0.00  0.00     0.039 A 
ATOM      3  C   UNL d   1      -1.853  -5.089  -1.349  0.00  0.00     0.039 A 
ATOM      4  C   UNL d   1      -1.393  -4.755   1.007  0.00  0.00     0.076 A 
ATOM      5  C   UNL d   1      -0.143  -5.367   0.854  0.00  0.00     0.040 A 
ATOM      6  C   UNL d   1      -2.230  -4.589  -0.100  0.00  0.00     0.040 A 
ENDROOT
BRANCH   4   7
ATOM      7  O   UNL d   1      -1.845  -4.235   2.200  0.00  0.00    -0.311 OA
BRANCH   7   8
ATOM      8  C   UNL d   1      -1.600  -4.922   3.368  0.00  0.00     0.076 A 
ATOM      9  C   UNL d   1      -1.459  -4.151   4.523  0.00  0.00     0.040 A 
ATOM     10  C   UNL d   1      -1.195  -4.763   5.755  0.00  0.00     0.039 A 
ATOM     11  C   UNL d   1      -1.074  -6.151   5.831  0.00  0.00     0.068 A 
ATOM     12  C   UNL d   1      -1.273  -6.922   4.686  0.00  0.00     0.039 A 
ATOM     13  C   UNL d   1      -1.552  -6.315   3.460  0.00  0.00     0.040 A 
BRANCH  11  14
ATOM     14  O   UNL d   1      -0.818  -6.862   6.971  0.00  0.00    -0.356 OA
ATOM     15  C   UNL d   1      -0.040  -6.191   7.956  0.00  0.00     0.210 C 
ENDBRANCH  11  14
ENDBRANCH   7   8
ENDBRANCH   4   7
BRANCH   1  16
ATOM     16  N   UNL d   1      -0.234  -6.303  -2.787  0.00  0.00    -0.116 N 
ATOM     17  O   UNL d   1       0.849  -6.907  -2.856  0.00  0.00    -0.532 OA
ATOM     18  O   UNL d   1      -1.006  -6.137  -3.740  0.00  0.00    -0.532 OA
ENDBRANCH   1  16
TORSDOF 4
