REMARK  6 active torsions:
REMARK  status: ('A' for Active; 'I' for Inactive)
REMARK    1  A    between atoms: N_2  and  C_1 
REMARK    2  A    between atoms: N_5  and  N_2 
REMARK    3  A    between atoms: C_7  and  O_17 
REMARK    4  A    between atoms: C_14  and  C_7 
REMARK    5  A    between atoms: O_17  and  N_10 
REMARK    6  A    between atoms: C_15  and  C_12 
ROOT
ATOM      1  N   UNL d   1      -0.249   3.752  -0.042  0.00  0.00    -0.303 N 
ATOM      2  HN  UNL d   1       0.456   3.016  -0.083  1.00  0.00     0.186 HD
ATOM      3  C   UNL d   1       0.099   5.002  -0.107  0.00  0.00     0.039 C 
ATOM      4  C   UNL d   1      -0.797   6.211  -0.115  0.00  0.00     0.071 C 
ENDROOT
BRANCH   3   5
ATOM      5  C   UNL d   1       1.586   5.257  -0.165  0.00  0.00     0.140 C 
ATOM      6  N   UNL d   1       2.057   6.378   0.266  0.00  0.00    -0.267 N 
ATOM      7  HN  UNL d   1       1.491   7.148   0.622  1.00  0.00     0.194 HD
BRANCH   6   8
ATOM      8  O   UNL d   1       3.467   6.388   0.174  0.00  0.00    -0.195 OA
BRANCH   8   9
ATOM      9  C   UNL d   1       3.944   7.542   0.740  0.00  0.00     0.315 C 
ATOM     10  O   UNL d   1       3.282   8.447   1.236  0.00  0.00    -0.257 OA
BRANCH   9  11
ATOM     11  C   UNL d   1       5.434   7.598   0.700  0.00  0.00     0.041 A 
ATOM     12  C   UNL d   1       6.057   8.711   1.294  0.00  0.00     0.021 A 
ATOM     13  C   UNL d   1       7.447   8.837   1.291  0.00  0.00     0.043 A 
ATOM     14  C   UNL d   1       8.220   7.850   0.692  0.00  0.00     0.116 A 
ATOM     15  C   UNL d   1       7.625   6.740   0.097  0.00  0.00     0.043 A 
ATOM     16  F   UNL d   1       9.553   7.969   0.683  0.00  0.00    -0.206 F 
ATOM     17  C   UNL d   1       6.230   6.609   0.100  0.00  0.00     0.021 A 
ENDBRANCH   9  11
ENDBRANCH   8   9
ENDBRANCH   6   8
ENDBRANCH   3   5
BRANCH   1  18
ATOM     18  N   UNL d   1      -1.564   3.438   0.081  0.00  0.00    -0.297 N 
ATOM     19  H   UNL d   1      -2.244   3.992  -0.446  0.00  0.00     0.187 HD
BRANCH  18  20
ATOM     20  C   UNL d   1      -1.924   2.058   0.070  0.00  0.00     0.091 A 
ATOM     21  C   UNL d   1      -1.135   1.015   0.605  0.00  0.00     0.065 A 
ATOM     22  C   UNL d   1      -1.570  -0.318   0.556  0.00  0.00     0.050 A 
ATOM     23 CL   UNL d   1       0.380   1.271   1.411  0.00  0.00    -0.082 Cl
ATOM     24  C   UNL d   1      -2.806  -0.632   0.003  0.00  0.00     0.037 A 
ATOM     25  C   UNL d   1      -3.628   0.370  -0.493  0.00  0.00     0.050 A 
ATOM     26 CL   UNL d   1      -3.327  -2.270  -0.050  0.00  0.00    -0.084 Cl
ATOM     27  C   UNL d   1      -3.191   1.697  -0.450  0.00  0.00     0.065 A 
ATOM     28 CL   UNL d   1      -4.258   2.909  -1.085  0.00  0.00    -0.082 Cl
ENDBRANCH  18  20
ENDBRANCH   1  18
TORSDOF 6
