REMARK  8 active torsions:
REMARK  status: ('A' for Active; 'I' for Inactive)
REMARK    1  A    between atoms: C_4  and  C_9 
REMARK    2  A    between atoms: C_5  and  C_8 
REMARK    3  A    between atoms: C_20  and  C_6 
REMARK    4  A    between atoms: C_21  and  C_7 
REMARK    5  A    between atoms: C_30  and  C_13 
REMARK    6  A    between atoms: C_31  and  C_30 
REMARK    7  A    between atoms: C_33  and  C_31 
REMARK    8  A    between atoms: C_32  and  C_33 
ROOT
ATOM      1  C   UNL d   1      -1.276  -0.087   0.158  0.00  0.00    -0.006 C 
ATOM      2  C   UNL d   1       1.276  -0.014   0.211  0.00  0.00    -0.006 C 
ATOM      3  C   UNL d   1       0.026  -0.815   0.019  0.00  0.00     0.184 C 
ATOM      4  C   UNL d   1      -2.365  -0.860   0.336  0.00  0.00     0.022 C 
ATOM      5  C   UNL d   1       2.435  -0.699   0.281  0.00  0.00     0.022 C 
ATOM      6  C   UNL d   1       1.173   1.480   0.302  0.00  0.00     0.047 C 
ATOM      7  C   UNL d   1      -1.306   1.416   0.095  0.00  0.00     0.047 C 
ATOM      8  O   UNL d   1       0.067  -2.018  -0.231  0.00  0.00    -0.287 OA
ATOM      9  C   UNL d   1      -0.023   2.027  -0.485  0.00  0.00    -0.006 C 
ENDROOT
BRANCH   4  10
ATOM     10  C   UNL d   1      -3.724  -0.349   0.525  0.00  0.00    -0.036 A 
ATOM     11  C   UNL d   1      -4.562  -0.159  -0.576  0.00  0.00     0.012 A 
ATOM     12  C   UNL d   1      -5.862   0.320  -0.395  0.00  0.00     0.017 A 
ATOM     13  C   UNL d   1      -6.344   0.613   0.891  0.00  0.00     0.048 A 
ATOM     14  C   UNL d   1      -5.494   0.422   1.991  0.00  0.00     0.017 A 
ATOM     15  C   UNL d   1      -4.193  -0.054   1.809  0.00  0.00     0.012 A 
BRANCH  13  16
ATOM     16  C   UNL d   1      -7.755   1.117   1.068  0.00  0.00     0.417 C 
ATOM     17  F   UNL d   1      -8.096   1.342   2.368  0.00  0.00    -0.166 F 
ATOM     18  F   UNL d   1      -7.972   2.294   0.418  0.00  0.00    -0.166 F 
ATOM     19  F   UNL d   1      -8.684   0.246   0.584  0.00  0.00    -0.166 F 
ENDBRANCH  13  16
ENDBRANCH   4  10
BRANCH   9  20
ATOM     20  C   UNL d   1      -0.094   3.568  -0.434  0.00  0.00     0.005 C 
BRANCH  20  21
ATOM     21  C   UNL d   1       1.124   4.243  -1.073  0.00  0.00     0.000 C 
BRANCH  21  22
ATOM     22  C   UNL d   1       1.036   5.767  -1.017  0.00  0.00    -0.000 C 
BRANCH  22  23
ATOM     23  C   UNL d   1       2.293   6.396  -1.618  0.00  0.00    -0.005 C 
ATOM     24  C   UNL d   1       2.247   7.914  -1.553  0.00  0.00     0.005 C 
ENDBRANCH  22  23
ENDBRANCH  21  22
ENDBRANCH  20  21
ENDBRANCH   9  20
BRANCH   5  25
ATOM     25  C   UNL d   1       3.740  -0.083   0.543  0.00  0.00    -0.036 A 
ATOM     26  C   UNL d   1       4.180   0.063   1.862  0.00  0.00     0.012 A 
ATOM     27  C   UNL d   1       5.418   0.650   2.133  0.00  0.00     0.017 A 
ATOM     28  C   UNL d   1       6.236   1.105   1.088  0.00  0.00     0.048 A 
ATOM     29  C   UNL d   1       5.782   0.967  -0.234  0.00  0.00     0.017 A 
ATOM     30  C   UNL d   1       4.543   0.376  -0.505  0.00  0.00     0.012 A 
BRANCH  28  31
ATOM     31  C   UNL d   1       7.585   1.723   1.365  0.00  0.00     0.417 C 
ATOM     32  F   UNL d   1       7.891   1.793   2.691  0.00  0.00    -0.166 F 
ATOM     33  F   UNL d   1       8.604   1.032   0.784  0.00  0.00    -0.166 F 
ATOM     34  F   UNL d   1       7.681   2.998   0.895  0.00  0.00    -0.166 F 
ENDBRANCH  28  31
ENDBRANCH   5  25
TORSDOF 8
