REMARK  4 active torsions:
REMARK  status: ('A' for Active; 'I' for Inactive)
REMARK    1  A    between atoms: C_6  and  N_1 
REMARK    2  A    between atoms: N_8  and  C_6 
REMARK    3  A    between atoms: C_13  and  C_7 
REMARK    4  A    between atoms: O_18  and  C_7 
ROOT
ATOM      1  C   UNL d   1       4.647   4.093   0.343  0.00  0.00     0.088 C 
ATOM      2  N   UNL d   1       4.042   1.240  -0.060  0.00  0.00     0.106 N 
ATOM      3  C   UNL d   1       4.568   3.082   1.502  0.00  0.00     0.073 C 
ATOM      4  C   UNL d   1       4.915   3.365  -0.981  0.00  0.00     0.073 C 
ATOM      5  C   UNL d   1       3.957   2.188  -1.185  0.00  0.00     0.278 C 
ATOM      6  C   UNL d   1       3.636   1.913   1.184  0.00  0.00     0.278 C 
ENDROOT
BRANCH   2   7
ATOM      7  C   UNL d   1       3.193   0.057  -0.277  0.00  0.00     0.408 C 
BRANCH   7   8
ATOM      8  N   UNL d   1       3.755  -0.785  -1.305  0.00  0.00    -0.252 N 
ATOM      9  C   UNL d   1       4.664  -1.779  -1.064  0.00  0.00     0.263 A 
ATOM     10  C   UNL d   1       4.930  -2.417  -2.353  0.00  0.00     0.048 A 
ATOM     11  O   UNL d   1       5.156  -2.150  -0.016  0.00  0.00    -0.267 OA
ATOM     12  C   UNL d   1       5.773  -3.462  -2.679  0.00  0.00     0.018 A 
ATOM     13  C   UNL d   1       4.130  -1.803  -3.297  0.00  0.00     0.048 A 
ATOM     14  C   UNL d   1       5.792  -3.876  -4.015  0.00  0.00     0.001 A 
ATOM     15  C   UNL d   1       4.976  -3.248  -4.978  0.00  0.00     0.001 A 
ATOM     16  C   UNL d   1       4.128  -2.194  -4.622  0.00  0.00     0.018 A 
ATOM     17  C   UNL d   1       3.357  -0.766  -2.615  0.00  0.00     0.263 A 
ATOM     18  O   UNL d   1       2.528  -0.068  -3.163  0.00  0.00    -0.267 OA
ENDBRANCH   7   8
ENDBRANCH   2   7
BRANCH   1  19
ATOM     19  C   UNL d   1       5.717   5.155   0.634  0.00  0.00    -0.024 A 
ATOM     20  C   UNL d   1       7.061   4.777   0.827  0.00  0.00     0.012 A 
ATOM     21  C   UNL d   1       8.040   5.715   1.168  0.00  0.00     0.024 A 
ATOM     22  C   UNL d   1       7.692   7.053   1.315  0.00  0.00     0.034 A 
ATOM     23  C   UNL d   1       6.380   7.461   1.101  0.00  0.00     0.024 A 
ATOM     24 CL   UNL d   1       8.886   8.205   1.766  0.00  0.00    -0.084 Cl
ATOM     25  C   UNL d   1       5.403   6.521   0.753  0.00  0.00     0.012 A 
ENDBRANCH   1  19
BRANCH   1  26
ATOM     26  O   UNL d   1       3.357   4.717   0.223  0.00  0.00    -0.385 OA
ATOM     27  H   UNL d   1       3.154   5.125   1.081  0.00  0.00     0.211 HD
ENDBRANCH   1  26
TORSDOF 4
