REMARK  6 active torsions:
REMARK  status: ('A' for Active; 'I' for Inactive)
REMARK    1  A    between atoms: C_4  and  S_1 
REMARK    2  A    between atoms: C_9  and  S_1 
REMARK    3  A    between atoms: C_6  and  C_2 
REMARK       I    between atoms: C_3  and  N_5 
REMARK    4  A    between atoms: C_7  and  C_3 
REMARK       I    between atoms: N_5  and  C_8 
REMARK       I    between atoms: C_8  and  N_10 
REMARK    5  A    between atoms: C_24  and  C_9 
REMARK    6  A    between atoms: N_10  and  C_18 
ROOT
ATOM      1  C   UNL d   1       1.097   2.140   2.328  0.00  0.00     0.071 C 
ATOM      2  C   UNL d   1       0.942   0.873   1.740  0.00  0.00     0.074 C 
ATOM      3  C   UNL d   1       0.652   2.327   3.673  0.00  0.00     0.047 C 
ATOM      4  C   UNL d   1       0.219  -0.107   2.449  0.00  0.00     0.026 C 
ATOM      5  C   UNL d   1      -0.070   1.348   4.367  0.00  0.00     0.036 C 
ATOM      6  C   UNL d   1      -0.299   0.136   3.728  0.00  0.00     0.031 C 
ENDROOT
BRANCH   5   7
ATOM      7  N   UNL d   1      -0.566   1.647   5.657  0.00  0.00    -0.313 N 
ATOM      8  C   UNL d   1      -1.651   1.052   6.255  0.00  0.00     0.305 C 
ATOM      9  N   UNL d   1      -2.079   1.674   7.400  0.00  0.00    -0.175 NA
ATOM     10  O   UNL d   1      -2.370   0.184   5.761  0.00  0.00    -0.253 OA
ATOM     11  C   UNL d   1      -1.571   1.264   8.625  0.00  0.00     0.242 C 
ATOM     12  H   UNL d   1      -3.083   1.534   7.394  0.00  0.00     0.141 HD
ATOM     13  O   UNL d   1      -0.384   1.249   8.937  0.00  0.00    -0.273 OA
ATOM     14  H   UNL d   1      -0.239   2.491   6.118  0.00  0.00     0.170 HD
BRANCH  11  15
ATOM     15  C   UNL d   1      -2.640   1.016   9.630  0.00  0.00     0.070 A 
ATOM     16  C   UNL d   1      -3.440  -0.131   9.511  0.00  0.00     0.051 A 
ATOM     17 CL   UNL d   1      -2.978  -1.479   8.538  0.00  0.00    -0.083 Cl
ATOM     18  C   UNL d   1      -4.664  -0.209  10.182  0.00  0.00     0.025 A 
ATOM     19  C   UNL d   1      -5.074   0.832  11.012  0.00  0.00     0.003 A 
ATOM     20  C   UNL d   1      -4.234   1.927  11.216  0.00  0.00     0.025 A 
ATOM     21  C   UNL d   1      -3.016   2.022  10.530  0.00  0.00     0.051 A 
ATOM     22 CL   UNL d   1      -2.057   3.431  10.798  0.00  0.00    -0.083 Cl
ENDBRANCH  11  15
ENDBRANCH   5   7
BRANCH   1  23
ATOM     23  C   UNL d   1       1.640   3.357   1.629  0.00  0.00     0.419 C 
ATOM     24  F   UNL d   1       1.458   3.360   0.285  0.00  0.00    -0.166 F 
ATOM     25  F   UNL d   1       1.078   4.518   2.067  0.00  0.00    -0.166 F 
ATOM     26  F   UNL d   1       2.979   3.496   1.828  0.00  0.00    -0.166 F 
ENDBRANCH   1  23
BRANCH   2  27
ATOM     27  S   UNL d   1       1.347   0.415   0.039  0.00  0.00     0.180 S 
ATOM     28  O   UNL d   1       0.300   1.068  -0.731  0.00  0.00    -0.222 OA
ATOM     29  O   UNL d   1       1.406  -1.036   0.031  0.00  0.00    -0.222 OA
BRANCH  27  30
ATOM     30  C   UNL d   1       2.891   1.063  -0.547  0.00  0.00     0.184 C 
BRANCH  30  31
ATOM     31  C   UNL d   1       4.177   0.256  -0.517  0.00  0.00    -0.044 A 
ATOM     32  C   UNL d   1       4.290  -1.131  -0.670  0.00  0.00     0.010 A 
ATOM     33  C   UNL d   1       5.543  -1.740  -0.861  0.00  0.00     0.024 A 
ATOM     34  C   UNL d   1       6.699  -0.969  -0.935  0.00  0.00     0.034 A 
ATOM     35  C   UNL d   1       6.619   0.409  -0.795  0.00  0.00     0.024 A 
ATOM     36 CL   UNL d   1       8.217  -1.713  -1.250  0.00  0.00    -0.084 Cl
ATOM     37  C   UNL d   1       5.374   1.009  -0.586  0.00  0.00     0.010 A 
ENDBRANCH  30  31
ENDBRANCH  27  30
ENDBRANCH   2  27
TORSDOF 6
