REMARK  6 active torsions:
REMARK  status: ('A' for Active; 'I' for Inactive)
REMARK    1  A    between atoms: C_2  and  S_1 
REMARK    2  A    between atoms: N_8  and  S_1 
REMARK    3  A    between atoms: C_7  and  C_3 
REMARK       I    between atoms: N_12  and  C_7 
REMARK    4  A    between atoms: C_16  and  N_12 
REMARK    5  A    between atoms: C_17  and  C_16 
REMARK    6  A    between atoms: C_18  and  C_17 
ROOT
ATOM      1  C   UNL d   1       0.419   1.752  -0.075  0.00  0.00     0.186 A 
ATOM      2  C   UNL d   1       0.273   4.033  -0.190  0.00  0.00     0.064 A 
ATOM      3  C   UNL d   1       1.119   2.928   0.131  0.00  0.00     0.070 A 
ATOM      4  O   UNL d   1      -0.837   2.096  -0.523  0.00  0.00    -0.301 OA
ATOM      5  C   UNL d   1      -0.923   3.457  -0.583  0.00  0.00     0.066 A 
ATOM      6  C   UNL d   1      -2.232   3.969  -1.047  0.00  0.00     0.078 C 
ENDROOT
BRANCH   2   7
ATOM      7  C   UNL d   1       0.686   5.429  -0.096  0.00  0.00     0.254 C 
ATOM      8  O   UNL d   1       1.831   5.722   0.238  0.00  0.00    -0.268 OA
ATOM      9  N   UNL d   1      -0.247   6.392  -0.398  0.00  0.00    -0.357 N 
ATOM     10  H   UNL d   1      -1.170   6.136  -0.705  0.00  0.00     0.162 HD
BRANCH   9  11
ATOM     11  C   UNL d   1       0.086   7.802  -0.373  0.00  0.00     0.123 C 
BRANCH  11  12
ATOM     12  C   UNL d   1       0.670   8.293  -1.698  0.00  0.00     0.019 C 
BRANCH  12  13
ATOM     13  C   UNL d   1      -0.316   8.131  -2.856  0.00  0.00    -0.003 C 
ATOM     14  C   UNL d   1       0.266   8.638  -4.166  0.00  0.00     0.005 C 
ENDBRANCH  12  13
ENDBRANCH  11  12
ENDBRANCH   9  11
ENDBRANCH   2   7
BRANCH   1  15
ATOM     15  S   UNL d   1       0.931   0.037   0.115  0.00  0.00     0.265 S 
ATOM     16  O   UNL d   1      -0.023  -0.541   1.033  0.00  0.00    -0.204 OA
ATOM     17  O   UNL d   1       2.344   0.115   0.430  0.00  0.00    -0.204 OA
BRANCH  15  18
ATOM     18  N   UNL d   1       0.768  -0.718  -1.407  0.00  0.00    -0.213 NA
ATOM     19  C   UNL d   1      -0.617  -0.940  -1.858  0.00  0.00     0.129 C 
ATOM     20  C   UNL d   1       1.647  -0.191  -2.466  0.00  0.00     0.129 C 
ENDBRANCH  15  18
ENDBRANCH   1  15
TORSDOF 6
