REMARK  6 active torsions:
REMARK  status: ('A' for Active; 'I' for Inactive)
REMARK    1  A    between atoms: C_13  and  C_5 
REMARK    2  A    between atoms: N_7  and  C_9 
REMARK    3  A    between atoms: N_8  and  C_14 
REMARK       I    between atoms: N_23  and  C_13 
REMARK    4  A    between atoms: C_25  and  N_23 
REMARK    5  A    between atoms: O_24  and  C_26 
REMARK    6  A    between atoms: C_26  and  C_25 
ROOT
ATOM      1  C   UNL d   1      -0.681   0.841   0.018  0.00  0.00     0.005 A 
ATOM      2  C   UNL d   1      -1.151  -0.492  -0.042  0.00  0.00     0.029 A 
ATOM      3  C   UNL d   1       1.210  -0.549  -0.039  0.00  0.00     0.028 A 
ATOM      4  C   UNL d   1       0.784   0.795  -0.003  0.00  0.00    -0.010 A 
ATOM      5  C   UNL d   1      -1.634   1.862   0.068  0.00  0.00     0.046 A 
ATOM      6  C   UNL d   1       0.010  -1.400  -0.059  0.00  0.00     0.194 A 
ATOM      7  C   UNL d   1      -3.415   0.165  -0.061  0.00  0.00     0.104 A 
ATOM      8  C   UNL d   1      -2.482  -0.867  -0.082  0.00  0.00     0.052 A 
ATOM      9  C   UNL d   1      -3.005   1.516   0.020  0.00  0.00     0.054 A 
ATOM     10  C   UNL d   1       2.530  -0.962  -0.086  0.00  0.00     0.052 A 
ATOM     11  C   UNL d   1       3.493   0.047  -0.101  0.00  0.00     0.103 A 
ATOM     12  C   UNL d   1       1.760   1.780  -0.032  0.00  0.00     0.016 A 
ATOM     13  O   UNL d   1      -0.022  -2.610  -0.096  0.00  0.00    -0.287 OA
ATOM     14  C   UNL d   1       3.116   1.409  -0.071  0.00  0.00     0.037 A 
ENDROOT
BRANCH   5  15
ATOM     15  C   UNL d   1      -1.283   3.291   0.288  0.00  0.00     0.252 C 
ATOM     16  O   UNL d   1      -0.364   3.589   1.039  0.00  0.00    -0.268 OA
ATOM     17  N   UNL d   1      -2.063   4.228  -0.354  0.00  0.00    -0.355 N 
ATOM     18  H   UNL d   1      -2.704   3.959  -1.091  0.00  0.00     0.162 HD
BRANCH  17  19
ATOM     19  C   UNL d   1      -1.771   5.652  -0.260  0.00  0.00     0.148 C 
BRANCH  19  20
ATOM     20  C   UNL d   1      -0.852   6.110  -1.391  0.00  0.00     0.183 C 
BRANCH  20  21
ATOM     21  O   UNL d   1      -1.531   5.968  -2.640  0.00  0.00    -0.399 OA
ATOM     22  H   UNL d   1      -0.937   6.323  -3.324  0.00  0.00     0.209 HD
ENDBRANCH  20  21
ENDBRANCH  19  20
ENDBRANCH  17  19
ENDBRANCH   5  15
BRANCH   7  23
ATOM     23  N   UNL d   1      -4.848  -0.157  -0.111  0.00  0.00    -0.116 N 
ATOM     24  O   UNL d   1      -5.170  -1.351  -0.120  0.00  0.00    -0.532 OA
ATOM     25  O   UNL d   1      -5.644   0.792  -0.150  0.00  0.00    -0.532 OA
ENDBRANCH   7  23
BRANCH  11  26
ATOM     26  N   UNL d   1       4.916  -0.308  -0.173  0.00  0.00    -0.116 N 
ATOM     27  O   UNL d   1       5.205  -1.510  -0.247  0.00  0.00    -0.532 OA
ATOM     28  O   UNL d   1       5.742   0.616  -0.165  0.00  0.00    -0.532 OA
ENDBRANCH  11  26
TORSDOF 6
