REMARK  4 active torsions:
REMARK  status: ('A' for Active; 'I' for Inactive)
REMARK    1  A    between atoms: C_9  and  C_3 
REMARK    2  A    between atoms: O_12  and  C_4 
REMARK    3  A    between atoms: N_11  and  C_5 
REMARK    4  A    between atoms: C_10  and  C_9 
ROOT
ATOM      1  N   UNL d   1      -0.530   1.247  -0.235  0.00  0.00    -0.313 N 
ATOM      2  HN  UNL d   1      -0.972   2.155  -0.377  1.00  0.00     0.170 HD
ATOM      3  C   UNL d   1      -0.708  -1.157   0.004  0.00  0.00     0.019 A 
ATOM      4  C   UNL d   1      -1.230   0.108  -0.159  0.00  0.00     0.150 A 
ATOM      5  C   UNL d   1       0.787   1.103  -0.110  0.00  0.00     0.157 A 
ATOM      6  N   UNL d   1       1.426  -0.069  -0.046  0.00  0.00    -0.336 N 
ATOM      7  HN  UNL d   1       2.445  -0.115  -0.030  1.00  0.00     0.168 HD
ATOM      8  C   UNL d   1       0.673  -1.196  -0.004  0.00  0.00     0.018 A 
ATOM      9  C   UNL d   1       1.428  -2.490   0.005  0.00  0.00     0.069 C 
ENDROOT
BRANCH   3  10
ATOM     10  C   UNL d   1      -1.595  -2.361   0.136  0.00  0.00     0.078 C 
BRANCH  10  11
ATOM     11  C   UNL d   1      -2.092  -3.010  -1.139  0.00  0.00    -0.089 C 
ATOM     12  C   UNL d   1      -1.798  -2.615  -2.390  0.00  0.00     0.014 C 
ATOM     13  C   UNL d   1      -3.016  -4.180  -0.922  0.00  0.00     0.043 C 
ENDBRANCH  10  11
ENDBRANCH   3  10
BRANCH   4  14
ATOM     14  O   UNL d   1      -2.572   0.272  -0.333  0.00  0.00    -0.346 OA
ATOM     15  H   UNL d   1      -2.601   1.163  -0.724  0.00  0.00     0.219 HD
ENDBRANCH   4  14
BRANCH   5  16
ATOM     16  N   UNL d   1       1.565   2.240  -0.069  0.00  0.00    -0.274 NA
ATOM     17  H   UNL d   1       1.084   3.030  -0.482  0.00  0.00     0.127 HD
ATOM     18  H   UNL d   1       2.504   2.037  -0.376  0.00  0.00     0.127 HD
ENDBRANCH   5  16
TORSDOF 4
