REMARK  6 active torsions:
REMARK  status: ('A' for Active; 'I' for Inactive)
REMARK    1  A    between atoms: C_2  and  S_1 
REMARK    2  A    between atoms: C_8  and  S_1 
REMARK    3  A    between atoms: C_3  and  C_2 
REMARK       I    between atoms: N_7  and  C_3 
REMARK    4  A    between atoms: C_6  and  C_11 
REMARK    5  A    between atoms: O_12  and  C_6 
REMARK    6  A    between atoms: C_11  and  N_7 
ROOT
ATOM      1  C   UNL d   1       0.927   0.204  -2.658  0.00  0.00     0.232 C 
ATOM      2  N   UNL d   1       1.389   1.473  -2.428  0.00  0.00    -0.351 N 
ATOM      3  O   UNL d   1       0.869  -0.252  -3.805  0.00  0.00    -0.273 OA
ATOM      4  H   UNL d   1       1.285   1.897  -1.509  0.00  0.00     0.163 HD
ENDROOT
BRANCH   1   5
ATOM      5  C   UNL d   1       0.353  -0.605  -1.522  0.00  0.00     0.243 C 
BRANCH   5   6
ATOM      6  S   UNL d   1       1.071  -0.278   0.057  0.00  0.00     0.156 S 
ATOM      7  O   UNL d   1       0.717   1.086   0.415  0.00  0.00    -0.227 OA
ATOM      8  O   UNL d   1       2.461  -0.676  -0.002  0.00  0.00    -0.227 OA
BRANCH   6   9
ATOM      9  C   UNL d   1       0.236  -1.409   1.207  0.00  0.00     0.101 C 
ATOM     10  C   UNL d   1       0.813  -1.241   2.613  0.00  0.00     0.026 C 
ATOM     11  C   UNL d   1      -1.277  -1.218   1.244  0.00  0.00     0.026 C 
ENDBRANCH   6   9
ENDBRANCH   5   6
ENDBRANCH   1   5
BRANCH   2  12
ATOM     12  C   UNL d   1       1.791   2.355  -3.532  0.00  0.00     0.233 C 
BRANCH  12  13
ATOM     13  C   UNL d   1       0.699   3.290  -4.057  0.00  0.00     0.276 C 
ATOM     14  O   UNL d   1       0.883   4.099  -4.961  0.00  0.00    -0.263 OA
BRANCH  13  15
ATOM     15  O   UNL d   1      -0.474   3.134  -3.385  0.00  0.00    -0.325 OA
ATOM     16  C   UNL d   1      -1.533   3.978  -3.841  0.00  0.00     0.213 C 
ENDBRANCH  13  15
ENDBRANCH  12  13
ENDBRANCH   2  12
TORSDOF 6
