REMARK  1 active torsions:
REMARK  status: ('A' for Active; 'I' for Inactive)
REMARK    1  A    between atoms: C_8  and  C_1 
ROOT
ATOM      1  C   UNL d   1       2.262   0.782  -0.038  0.00  0.00     0.164 A 
ATOM      2  N   UNL d   1       1.148   1.427  -0.120  0.00  0.00    -0.335 N 
ATOM      3  HN  UNL d   1       1.131   2.442  -0.215  1.00  0.00     0.168 HD
ATOM      4  O   UNL d   1       2.402  -0.560   0.066  0.00  0.00    -0.256 OA
ATOM      5  C   UNL d   1       1.304  -1.352   0.059  0.00  0.00     0.302 A 
ATOM      6  C   UNL d   1      -0.008  -0.696   0.004  0.00  0.00     0.067 A 
ATOM      7  C   UNL d   1      -0.027   0.688  -0.073  0.00  0.00     0.050 A 
ATOM      8  C   UNL d   1      -1.195  -1.438   0.030  0.00  0.00     0.038 A 
ATOM      9  O   UNL d   1       1.391  -2.573   0.103  0.00  0.00    -0.259 OA
ATOM     10  C   UNL d   1      -1.254   1.351  -0.103  0.00  0.00     0.032 A 
ATOM     11  C   UNL d   1      -2.415  -0.765  -0.012  0.00  0.00     0.007 A 
ATOM     12  C   UNL d   1      -2.450   0.628  -0.073  0.00  0.00     0.020 A 
ATOM     13  I   UNL d   1      -4.192  -1.840   0.013  0.00  0.00    -0.045 I 
ENDROOT
BRANCH   1  14
ATOM     14  C   UNL d   1       3.595   1.430  -0.050  0.00  0.00     0.037 A 
ATOM     15  C   UNL d   1       3.826   2.681   0.543  0.00  0.00     0.048 A 
ATOM     16 CL   UNL d   1       2.632   3.557   1.436  0.00  0.00    -0.083 Cl
ATOM     17  C   UNL d   1       5.098   3.264   0.469  0.00  0.00     0.025 A 
ATOM     18  C   UNL d   1       6.143   2.608  -0.183  0.00  0.00     0.002 A 
ATOM     19  C   UNL d   1       5.924   1.364  -0.766  0.00  0.00     0.001 A 
ATOM     20  C   UNL d   1       4.657   0.778  -0.705  0.00  0.00     0.017 A 
ENDBRANCH   1  14
TORSDOF 1
