REMARK  6 active torsions:
REMARK  status: ('A' for Active; 'I' for Inactive)
REMARK    1  A    between atoms: C_4  and  C_1 
REMARK    2  A    between atoms: O_10  and  C_1 
REMARK    3  A    between atoms: N_18  and  C_2 
REMARK    4  A    between atoms: C_3  and  C_5 
REMARK    5  A    between atoms: N_19  and  C_5 
REMARK    6  A    between atoms: N_6  and  O_10 
ROOT
ATOM      1  C   UNL d   1      -1.752   1.391  -1.715  0.00  0.00     0.109 C 
ATOM      2  N   UNL d   1      -1.070   0.598  -0.946  0.00  0.00    -0.246 N 
ATOM      3  HN  UNL d   1      -0.077   0.401  -1.069  1.00  0.00     0.196 HD
ENDROOT
BRANCH   1   4
ATOM      4  C   UNL d   1      -1.023   2.093  -2.822  0.00  0.00     0.007 A 
ATOM      5  C   UNL d   1       0.120   1.525  -3.392  0.00  0.00     0.040 A 
ATOM      6  C   UNL d   1       0.772   2.178  -4.446  0.00  0.00     0.057 A 
ATOM      7 CL   UNL d   1       2.172   1.424  -5.132  0.00  0.00    -0.082 Cl
ATOM      8  C   UNL d   1       0.291   3.394  -4.969  0.00  0.00     0.050 A 
ATOM      9  C   UNL d   1      -0.820   3.977  -4.331  0.00  0.00     0.057 A 
ATOM     10  C   UNL d   1      -1.484   3.330  -3.284  0.00  0.00     0.040 A 
ATOM     11 CL   UNL d   1      -1.431   5.511  -4.853  0.00  0.00    -0.082 Cl
BRANCH   8  12
ATOM     12  N   UNL d   1       1.023   4.110  -5.942  0.00  0.00    -0.300 NA
ATOM     13  H   UNL d   1       0.467   4.791  -6.453  0.00  0.00     0.124 HD
ATOM     14  H   UNL d   1       1.593   3.516  -6.541  0.00  0.00     0.124 HD
ENDBRANCH   8  12
ENDBRANCH   1   4
BRANCH   1  15
ATOM     15  N   UNL d   1      -3.103   1.612  -1.581  0.00  0.00    -0.286 NA
ATOM     16  H   UNL d   1      -3.615   1.783  -2.440  0.00  0.00     0.125 HD
ATOM     17  H   UNL d   1      -3.558   0.917  -0.998  0.00  0.00     0.125 HD
ENDBRANCH   1  15
BRANCH   2  18
ATOM     18  O   UNL d   1      -1.867   0.037   0.086  0.00  0.00    -0.193 OA
BRANCH  18  19
ATOM     19  C   UNL d   1      -1.096  -0.810   0.860  0.00  0.00     0.322 C 
ATOM     20  O   UNL d   1       0.080  -1.098   0.630  0.00  0.00    -0.257 OA
BRANCH  19  21
ATOM     21  C   UNL d   1      -1.835  -1.355   1.990  0.00  0.00     0.082 A 
ATOM     22  S   UNL d   1      -3.442  -0.912   2.383  0.00  0.00    -0.096 SA
ATOM     23  C   UNL d   1      -3.472  -1.941   3.753  0.00  0.00     0.050 A 
ATOM     24  C   UNL d   1      -2.286  -2.621   3.913  0.00  0.00     0.009 A 
ATOM     25  C   UNL d   1      -1.345  -2.281   2.901  0.00  0.00     0.026 A 
ENDBRANCH  19  21
ENDBRANCH  18  19
ENDBRANCH   2  18
TORSDOF 6
