REMARK  4 active torsions:
REMARK  status: ('A' for Active; 'I' for Inactive)
REMARK    1  A    between atoms: N_2  and  S_1 
REMARK    2  A    between atoms: C_7  and  S_1 
REMARK    3  A    between atoms: N_3  and  N_2 
REMARK    4  A    between atoms: N_9  and  C_8 
ROOT
ATOM      1  S   UNL d   1       1.040  -0.034   0.043  0.00  0.00     0.276 S 
ATOM      2  O   UNL d   1       0.383   1.257   0.043  0.00  0.00    -0.199 OA
ATOM      3  O   UNL d   1       2.461  -0.160   0.295  0.00  0.00    -0.199 OA
ENDROOT
BRANCH   1   4
ATOM      4  N   UNL d   1       0.662  -0.852  -1.398  0.00  0.00    -0.222 N 
ATOM      5  H   UNL d   1       0.012  -1.635  -1.345  0.00  0.00     0.200 HD
BRANCH   4   6
ATOM      6  N   UNL d   1       1.032  -0.234  -2.639  0.00  0.00    -0.287 N 
ATOM      7  C   UNL d   1       0.679  -0.856  -3.716  0.00  0.00     0.195 C 
ATOM      8  HN  UNL d   1       1.546   0.647  -2.670  1.00  0.00     0.188 HD
BRANCH   7   9
ATOM      9  N   UNL d   1       0.909  -0.434  -5.003  0.00  0.00    -0.385 N 
ATOM     10  C   UNL d   1       1.618   0.810  -5.275  0.00  0.00     0.149 C 
ATOM     11  C   UNL d   1       0.549  -1.225  -6.164  0.00  0.00     0.149 C 
ENDBRANCH   7   9
ENDBRANCH   4   6
ENDBRANCH   1   4
BRANCH   1  12
ATOM     12  C   UNL d   1       0.205  -1.041   1.253  0.00  0.00     0.081 A 
ATOM     13  C   UNL d   1       0.877  -2.122   1.831  0.00  0.00     0.025 A 
ATOM     14  C   UNL d   1       0.258  -2.854   2.843  0.00  0.00     0.002 A 
ATOM     15  C   UNL d   1      -1.021  -2.501   3.279  0.00  0.00     0.000 A 
ATOM     16  C   UNL d   1      -1.687  -1.419   2.701  0.00  0.00     0.002 A 
ATOM     17  C   UNL d   1      -1.075  -0.682   1.687  0.00  0.00     0.025 A 
ENDBRANCH   1  12
TORSDOF 4
