REMARK  6 active torsions:
REMARK  status: ('A' for Active; 'I' for Inactive)
REMARK    1  A    between atoms: C_10  and  C_3 
REMARK    2  A    between atoms: O_18  and  C_4 
REMARK    3  A    between atoms: S_13  and  C_5 
REMARK    4  A    between atoms: C_8  and  C_10 
REMARK    5  A    between atoms: C_9  and  C_12 
REMARK    6  A    between atoms: C_12  and  S_13 
ROOT
ATOM      1  N   UNL d   1      -0.553   1.299  -0.054  0.00  0.00    -0.317 N 
ATOM      2  HN  UNL d   1      -1.010   2.211  -0.078  1.00  0.00     0.170 HD
ATOM      3  C   UNL d   1      -0.713  -1.129   0.001  0.00  0.00     0.019 A 
ATOM      4  C   UNL d   1      -1.252   0.151  -0.014  0.00  0.00     0.150 A 
ATOM      5  C   UNL d   1       0.773   1.171  -0.060  0.00  0.00     0.146 A 
ATOM      6  N   UNL d   1       1.412  -0.009  -0.018  0.00  0.00    -0.340 N 
ATOM      7  HN  UNL d   1       2.431  -0.050  -0.002  1.00  0.00     0.167 HD
ATOM      8  C   UNL d   1       0.676  -1.140   0.003  0.00  0.00     0.018 A 
ATOM      9  C   UNL d   1       1.490  -2.398   0.001  0.00  0.00     0.069 C 
ENDROOT
BRANCH   5  10
ATOM     10  S   UNL d   1       1.836   2.589  -0.142  0.00  0.00    -0.089 SA
BRANCH  10  11
ATOM     11  C   UNL d   1       0.633   3.953  -0.220  0.00  0.00     0.124 C 
BRANCH  11  12
ATOM     12  C   UNL d   1       1.349   5.293  -0.266  0.00  0.00    -0.005 A 
ATOM     13  C   UNL d   1       1.673   5.919  -1.487  0.00  0.00     0.042 A 
ATOM     14 CL   UNL d   1       1.260   5.222  -3.017  0.00  0.00    -0.084 Cl
ATOM     15  C   UNL d   1       2.358   7.141  -1.522  0.00  0.00     0.024 A 
ATOM     16  C   UNL d   1       2.750   7.764  -0.342  0.00  0.00     0.003 A 
ATOM     17  C   UNL d   1       2.456   7.161   0.876  0.00  0.00     0.024 A 
ATOM     18  C   UNL d   1       1.766   5.940   0.916  0.00  0.00     0.042 A 
ATOM     19 CL   UNL d   1       1.467   5.274   2.486  0.00  0.00    -0.084 Cl
ENDBRANCH  11  12
ENDBRANCH  10  11
ENDBRANCH   5  10
BRANCH   4  20
ATOM     20  O   UNL d   1      -2.603   0.348  -0.023  0.00  0.00    -0.346 OA
ATOM     21  H   UNL d   1      -2.977  -0.215   0.676  0.00  0.00     0.219 HD
ENDBRANCH   4  20
BRANCH   3  22
ATOM     22  C   UNL d   1      -1.554  -2.386  -0.058  0.00  0.00     0.088 C 
BRANCH  22  23
ATOM     23  C   UNL d   1      -1.803  -3.077   1.268  0.00  0.00     0.007 A 
ATOM     24  C   UNL d   1      -2.646  -2.462   2.205  0.00  0.00     0.124 A 
ATOM     25  F   UNL d   1      -3.264  -1.315   1.885  0.00  0.00    -0.205 F 
ATOM     26  C   UNL d   1      -2.896  -3.009   3.462  0.00  0.00     0.043 A 
ATOM     27  C   UNL d   1      -2.301  -4.212   3.818  0.00  0.00     0.005 A 
ATOM     28  C   UNL d   1      -1.497  -4.875   2.894  0.00  0.00     0.024 A 
ATOM     29  C   UNL d   1      -1.266  -4.326   1.623  0.00  0.00     0.043 A 
ATOM     30 CL   UNL d   1      -0.346  -5.292   0.524  0.00  0.00    -0.084 Cl
ENDBRANCH  22  23
ENDBRANCH   3  22
TORSDOF 6
