REMARK  3 active torsions:
REMARK  status: ('A' for Active; 'I' for Inactive)
REMARK    1  A    between atoms: C_4  and  C_2 
REMARK    2  A    between atoms: C_8  and  C_11 
REMARK    3  A    between atoms: O_25  and  C_9 
ROOT
ATOM      1  N   UNL d   1       0.938   0.523   0.002  0.00  0.00    -0.322 N 
ATOM      2  C   UNL d   1       1.073  -1.925  -0.257  0.00  0.00     0.146 C 
ATOM      3  C   UNL d   1       1.741  -0.599  -0.090  0.00  0.00     0.039 A 
ATOM      4  N   UNL d   1      -0.247  -1.972   0.383  0.00  0.00    -0.277 NA
ATOM      5  C   UNL d   1      -1.044  -0.836   0.140  0.00  0.00     0.037 A 
ATOM      6  C   UNL d   1      -0.475   0.446   0.015  0.00  0.00     0.060 A 
ATOM      7  C   UNL d   1      -3.261   0.183   0.064  0.00  0.00     0.049 A 
ATOM      8  C   UNL d   1      -2.437  -0.948   0.195  0.00  0.00     0.042 A 
ATOM      9  C   UNL d   1       1.746   1.632   0.073  0.00  0.00     0.097 A 
ATOM     10  C   UNL d   1      -1.279   1.585  -0.087  0.00  0.00     0.032 A 
ATOM     11  C   UNL d   1       3.060  -0.192  -0.040  0.00  0.00     0.029 A 
ATOM     12  C   UNL d   1       3.061   1.216   0.073  0.00  0.00     0.020 A 
ATOM     13  C   UNL d   1      -2.667   1.447  -0.073  0.00  0.00     0.018 A 
ATOM     14  H   UNL d   1      -0.735  -2.842   0.185  0.00  0.00     0.129 HD
ENDROOT
BRANCH   2  15
ATOM     15  C   UNL d   1       1.877  -3.099   0.275  0.00  0.00     0.002 A 
ATOM     16  C   UNL d   1       2.182  -3.267   1.641  0.00  0.00     0.095 A 
ATOM     17  C   UNL d   1       2.913  -4.381   2.076  0.00  0.00     0.069 A 
ATOM     18 CL   UNL d   1       3.298  -4.609   3.745  0.00  0.00    -0.081 Cl
ATOM     19  C   UNL d   1       3.332  -5.352   1.168  0.00  0.00     0.050 A 
ATOM     20  C   UNL d   1       3.024  -5.202  -0.180  0.00  0.00     0.036 A 
ATOM     21  C   UNL d   1       2.312  -4.088  -0.627  0.00  0.00     0.036 A 
ATOM     22 CL   UNL d   1       3.517  -6.406  -1.306  0.00  0.00    -0.084 Cl
BRANCH  16  23
ATOM     23  O   UNL d   1       1.758  -2.358   2.575  0.00  0.00    -0.358 OA
ATOM     24  H   UNL d   1       1.085  -1.775   2.173  0.00  0.00     0.217 HD
ENDBRANCH  16  23
ENDBRANCH   2  15
BRANCH   7  25
ATOM     25  C   UNL d   1      -4.765   0.055   0.078  0.00  0.00     0.417 C 
ATOM     26  F   UNL d   1      -5.203  -1.231   0.183  0.00  0.00    -0.166 F 
ATOM     27  F   UNL d   1      -5.337   0.732   1.111  0.00  0.00    -0.166 F 
ATOM     28  F   UNL d   1      -5.336   0.549  -1.056  0.00  0.00    -0.166 F 
ENDBRANCH   7  25
TORSDOF 3
