REMARK  4 active torsions:
REMARK  status: ('A' for Active; 'I' for Inactive)
REMARK    1  A    between atoms: C_9  and  C_3 
REMARK    2  A    between atoms: O_14  and  C_4 
REMARK    3  A    between atoms: S_13  and  C_5 
REMARK    4  A    between atoms: C_8  and  C_9 
ROOT
ATOM      1  N   UNL d   1       0.548   0.725  -0.802  0.00  0.00    -0.317 N 
ATOM      2  HN  UNL d   1       0.944   1.211  -1.607  1.00  0.00     0.170 HD
ATOM      3  C   UNL d   1      -0.731  -1.118   0.115  0.00  0.00     0.019 A 
ATOM      4  C   UNL d   1      -0.172  -0.395  -0.928  0.00  0.00     0.150 A 
ATOM      5  C   UNL d   1       0.715   1.164   0.445  0.00  0.00     0.143 A 
ATOM      6  N   UNL d   1       0.212   0.578   1.538  0.00  0.00    -0.340 N 
ATOM      7  HN  UNL d   1       0.357   0.976   2.466  1.00  0.00     0.167 HD
ATOM      8  C   UNL d   1      -0.497  -0.562   1.368  0.00  0.00     0.018 A 
ATOM      9  C   UNL d   1      -0.972  -1.194   2.642  0.00  0.00     0.069 C 
ENDROOT
BRANCH   3  10
ATOM     10  C   UNL d   1      -1.421  -2.443  -0.102  0.00  0.00     0.088 C 
BRANCH  10  11
ATOM     11  C   UNL d   1      -2.933  -2.438  -0.180  0.00  0.00     0.007 A 
ATOM     12  C   UNL d   1      -3.764  -3.098   0.742  0.00  0.00     0.043 A 
ATOM     13 CL   UNL d   1      -3.142  -3.942   2.117  0.00  0.00    -0.084 Cl
ATOM     14  C   UNL d   1      -5.156  -3.140   0.565  0.00  0.00     0.024 A 
ATOM     15  C   UNL d   1      -5.748  -2.537  -0.543  0.00  0.00     0.005 A 
ATOM     16  C   UNL d   1      -4.947  -1.885  -1.470  0.00  0.00     0.043 A 
ATOM     17  C   UNL d   1      -3.568  -1.841  -1.281  0.00  0.00     0.124 A 
ATOM     18  F   UNL d   1      -2.831  -1.236  -2.225  0.00  0.00    -0.205 F 
ENDBRANCH  10  11
ENDBRANCH   3  10
BRANCH   4  19
ATOM     19  O   UNL d   1      -0.280  -0.819  -2.221  0.00  0.00    -0.346 OA
ATOM     20  H   UNL d   1      -1.233  -0.896  -2.399  0.00  0.00     0.219 HD
ENDBRANCH   4  19
BRANCH   5  21
ATOM     21  S   UNL d   1       1.701   2.613   0.661  0.00  0.00    -0.107 SA
ATOM     22  H   UNL d   1       2.000   2.703  -0.640  0.00  0.00     0.110 HD
ENDBRANCH   5  21
TORSDOF 4
