REMARK  4 active torsions:
REMARK  status: ('A' for Active; 'I' for Inactive)
REMARK    1  A    between atoms: S_10  and  C_2 
REMARK    2  A    between atoms: C_16  and  C_6 
REMARK    3  A    between atoms: N_7  and  C_12 
REMARK    4  A    between atoms: C_18  and  S_10 
ROOT
ATOM      1  N   UNL d   1      -0.207  -0.792   0.004  0.00  0.00    -0.149 N 
ATOM      2  C   UNL d   1      -1.493  -1.301   0.019  0.00  0.00     0.126 A 
ATOM      3  C   UNL d   1      -0.308   0.592   0.151  0.00  0.00     0.689 A 
ATOM      4  N   UNL d   1      -1.568   0.955   0.229  0.00  0.00    -0.188 N 
ATOM      5  HN  UNL d   1      -1.922   1.902   0.360  1.00  0.00     0.184 HD
ATOM      6  C   UNL d   1      -2.321  -0.194   0.100  0.00  0.00     0.094 A 
ATOM      7  N   UNL d   1       0.804   1.385   0.184  0.00  0.00    -0.201 N 
ATOM      8  HN  UNL d   1       0.740   2.396   0.302  1.00  0.00     0.183 HD
ATOM      9  C   UNL d   1       1.036  -1.417  -0.120  0.00  0.00     0.117 A 
ATOM     10  C   UNL d   1       2.154  -0.683  -0.103  0.00  0.00     0.036 A 
ATOM     11  C   UNL d   1       1.944   0.781   0.058  0.00  0.00     0.107 A 
ENDROOT
BRANCH   2  12
ATOM     12  S   UNL d   1      -1.777  -3.010  -0.143  0.00  0.00    -0.069 SA
BRANCH  12  13
ATOM     13  C   UNL d   1      -2.122  -3.496   1.542  0.00  0.00     0.007 A 
ATOM     14  C   UNL d   1      -3.129  -4.449   1.750  0.00  0.00     0.021 A 
ATOM     15  C   UNL d   1      -3.358  -4.992   3.019  0.00  0.00     0.037 A 
ATOM     16  C   UNL d   1      -2.567  -4.579   4.096  0.00  0.00     0.102 A 
ATOM     17  C   UNL d   1      -1.573  -3.609   3.912  0.00  0.00     0.037 A 
ATOM     18  C   UNL d   1      -1.353  -3.075   2.635  0.00  0.00     0.021 A 
BRANCH  16  19
ATOM     19  N   UNL d   1      -2.754  -5.193   5.417  0.00  0.00    -0.116 N 
ATOM     20  O   UNL d   1      -2.002  -4.830   6.332  0.00  0.00    -0.532 OA
ATOM     21  O   UNL d   1      -3.644  -6.049   5.535  0.00  0.00    -0.532 OA
ENDBRANCH  16  19
ENDBRANCH  12  13
ENDBRANCH   2  12
BRANCH   6  22
ATOM     22  C   UNL d   1      -3.777  -0.125   0.064  0.00  0.00    -0.006 A 
ATOM     23  C   UNL d   1      -4.418   0.940   0.717  0.00  0.00     0.014 A 
ATOM     24  C   UNL d   1      -5.809   1.079   0.676  0.00  0.00     0.001 A 
ATOM     25  C   UNL d   1      -6.579   0.154  -0.022  0.00  0.00     0.000 A 
ATOM     26  C   UNL d   1      -5.959  -0.899  -0.689  0.00  0.00     0.001 A 
ATOM     27  C   UNL d   1      -4.566  -1.032  -0.655  0.00  0.00     0.014 A 
ENDBRANCH   6  22
TORSDOF 4
