REMARK  6 active torsions:
REMARK  status: ('A' for Active; 'I' for Inactive)
REMARK    1  A    between atoms: C_17  and  C_3 
REMARK    2  A    between atoms: C_4  and  C_9 
REMARK    3  A    between atoms: C_5  and  C_10 
REMARK    4  A    between atoms: C_13  and  C_8 
REMARK    5  A    between atoms: N_14  and  C_17 
REMARK    6  A    between atoms: C_16  and  C_15 
ROOT
ATOM      1  C   UNL d   1       0.466   2.584  -0.002  0.00  0.00     0.051 C 
ATOM      2  C   UNL d   1      -0.403   3.608  -0.003  0.00  0.00     0.015 C 
ENDROOT
BRANCH   1   3
ATOM      3  C   UNL d   1       0.128   1.201   0.002  0.00  0.00     0.127 A 
ATOM      4  N   UNL d   1      -1.097   0.655  -0.013  0.00  0.00    -0.243 N 
ATOM      5  O   UNL d   1      -0.838  -0.720  -0.025  0.00  0.00    -0.221 OA
ATOM      6  HN  UNL d   1      -2.000   1.128  -0.015  1.00  0.00     0.196 HD
ATOM      7  C   UNL d   1       0.520  -0.854  -0.007  0.00  0.00     0.177 A 
ATOM      8  N   UNL d   1       1.157   0.296   0.025  0.00  0.00    -0.322 N 
ATOM      9  HN  UNL d   1       2.162   0.470   0.058  1.00  0.00     0.169 HD
BRANCH   7  10
ATOM     10  C   UNL d   1       1.075  -2.241  -0.013  0.00  0.00     0.358 C 
BRANCH  10  11
ATOM     11  N   UNL d   1       1.329  -2.800  -1.365  0.00  0.00     0.096 N 
ATOM     12  C   UNL d   1       2.294  -1.971  -2.111  0.00  0.00     0.273 C 
ATOM     13  C   UNL d   1       2.629  -2.563  -3.481  0.00  0.00     0.030 C 
ATOM     14  C   UNL d   1       3.143  -3.989  -3.352  0.00  0.00     0.003 C 
ATOM     15  C   UNL d   1       2.138  -4.829  -2.577  0.00  0.00     0.030 C 
ATOM     16  C   UNL d   1       1.809  -4.187  -1.228  0.00  0.00     0.273 C 
ENDBRANCH  10  11
ENDBRANCH   7  10
ENDBRANCH   1   3
BRANCH   2  17
ATOM     17  C   UNL d   1       0.077   4.989  -0.021  0.00  0.00    -0.035 A 
ATOM     18  C   UNL d   1       0.292   5.638  -1.242  0.00  0.00     0.027 A 
ATOM     19  C   UNL d   1       0.824   6.937  -1.279  0.00  0.00     0.049 A 
ATOM     20  C   UNL d   1       1.129   7.582  -0.069  0.00  0.00     0.032 A 
ATOM     21  C   UNL d   1       0.927   6.940   1.164  0.00  0.00     0.049 A 
ATOM     22  C   UNL d   1       0.392   5.641   1.175  0.00  0.00     0.027 A 
BRANCH  19  23
ATOM     23  C   UNL d   1       1.097   7.600  -2.609  0.00  0.00     0.417 C 
ATOM     24  F   UNL d   1       1.643   8.842  -2.493  0.00  0.00    -0.166 F 
ATOM     25  F   UNL d   1       1.963   6.882  -3.375  0.00  0.00    -0.166 F 
ATOM     26  F   UNL d   1      -0.029   7.755  -3.357  0.00  0.00    -0.166 F 
ENDBRANCH  19  23
BRANCH  21  27
ATOM     27  C   UNL d   1       1.311   7.607   2.463  0.00  0.00     0.417 C 
ATOM     28  F   UNL d   1       1.881   8.832   2.296  0.00  0.00    -0.166 F 
ATOM     29  F   UNL d   1       0.246   7.799   3.288  0.00  0.00    -0.166 F 
ATOM     30  F   UNL d   1       2.210   6.872   3.174  0.00  0.00    -0.166 F 
ENDBRANCH  21  27
ENDBRANCH   2  17
TORSDOF 6
