REMARK  4 active torsions:
REMARK  status: ('A' for Active; 'I' for Inactive)
REMARK    1  A    between atoms: C_23  and  N_11 
REMARK    2  A    between atoms: N_12  and  C_22 
REMARK    3  A    between atoms: C_21  and  C_23 
REMARK    4  A    between atoms: C_22  and  C_21 
ROOT
ATOM      1  C   UNL d   1       0.064  -0.721   0.084  0.00  0.00     0.101 A 
ATOM      2  C   UNL d   1       0.058   0.622   0.103  0.00  0.00     0.077 A 
ATOM      3  N   UNL d   1       1.269  -1.386  -0.041  0.00  0.00    -0.293 N 
ATOM      4  N   UNL d   1       2.472   0.649   0.008  0.00  0.00    -0.270 N 
ATOM      5  C   UNL d   1       2.507  -0.733  -0.076  0.00  0.00     0.332 A 
ATOM      6  C   UNL d   1       1.315   1.386   0.068  0.00  0.00     0.262 A 
ATOM      7  N   UNL d   1      -1.156  -1.384   0.184  0.00  0.00    -0.252 NA
ATOM      8  C   UNL d   1      -1.206   1.432   0.117  0.00  0.00     0.321 C 
ATOM      9  N   UNL d   1      -2.397   0.681  -0.328  0.00  0.00     0.105 N 
ATOM     10  C   UNL d   1      -2.380  -0.612   0.345  0.00  0.00     0.368 C 
ATOM     11  O   UNL d   1       3.565  -1.359  -0.174  0.00  0.00    -0.246 OA
ATOM     12  O   UNL d   1       1.289   2.615   0.102  0.00  0.00    -0.267 OA
ATOM     13  C   UNL d   1       1.333  -2.839  -0.085  0.00  0.00     0.162 C 
ATOM     14  C   UNL d   1       3.720   1.391   0.019  0.00  0.00     0.164 C 
ATOM     15  H   UNL d   1      -1.246  -2.098  -0.532  0.00  0.00     0.130 HD
ENDROOT
BRANCH   9  16
ATOM     16  C   UNL d   1      -3.641   1.417  -0.089  0.00  0.00     0.276 C 
BRANCH  16  17
ATOM     17  C   UNL d   1      -3.703   2.755  -0.840  0.00  0.00     0.050 C 
BRANCH  17  18
ATOM     18  C   UNL d   1      -3.540   2.593  -2.352  0.00  0.00     0.131 C 
BRANCH  18  19
ATOM     19  N   UNL d   1      -3.533   3.877  -3.023  0.00  0.00    -0.352 N 
ATOM     20  C   UNL d   1      -4.630   4.542  -3.490  0.00  0.00     0.182 A 
ATOM     21  N   UNL d   1      -4.299   5.696  -4.024  0.00  0.00    -0.361 N 
ATOM     22  C   UNL d   1      -2.934   5.770  -3.906  0.00  0.00     0.106 A 
ATOM     23  HN  UNL d   1      -4.923   6.388  -4.439  1.00  0.00     0.166 HD
ATOM     24  C   UNL d   1      -2.435   4.645  -3.293  0.00  0.00     0.108 A 
ENDBRANCH  18  19
ENDBRANCH  17  18
ENDBRANCH  16  17
ENDBRANCH   9  16
TORSDOF 4
