REMARK  5 active torsions:
REMARK  status: ('A' for Active; 'I' for Inactive)
REMARK    1  A    between atoms: C_9  and  C_3 
REMARK    2  A    between atoms: C_13  and  C_4 
REMARK    3  A    between atoms: C_5  and  C_7 
REMARK    4  A    between atoms: C_14  and  O_19 
REMARK    5  A    between atoms: O_19  and  C_25 
ROOT
ATOM      1  C   UNL d   1      -0.088  -2.590  -0.034  0.00  0.00    -0.002 A 
ATOM      2  C   UNL d   1       0.495  -3.366   0.976  0.00  0.00     0.017 A 
ATOM      3  C   UNL d   1      -0.831  -3.239  -1.034  0.00  0.00     0.017 A 
ATOM      4  C   UNL d   1      -0.413  -5.389  -0.000  0.00  0.00     0.077 A 
ATOM      5  C   UNL d   1       0.310  -4.749   1.011  0.00  0.00     0.038 A 
ATOM      6  C   UNL d   1      -0.998  -4.629  -1.011  0.00  0.00     0.038 A 
ENDROOT
BRANCH   1   7
ATOM      7  C   UNL d   1       0.136  -1.138  -0.018  0.00  0.00     0.084 C 
ATOM      8  N   UNL d   1       1.213  -0.572   0.486  0.00  0.00    -0.349 N 
ATOM      9  C   UNL d   1       1.195   0.794   0.278  0.00  0.00     0.050 C 
ATOM     10  HN  UNL d   1       1.961  -1.074   0.965  1.00  0.00     0.166 HD
ATOM     11  C   UNL d   1       0.015   1.268  -0.264  0.00  0.00     0.082 C 
ATOM     12  S   UNL d   1      -1.043  -0.034  -0.611  0.00  0.00    -0.081 SA
BRANCH   9  13
ATOM     13  C   UNL d   1       2.341   1.641   0.612  0.00  0.00    -0.003 A 
ATOM     14  C   UNL d   1       3.678   1.209   0.464  0.00  0.00    -0.049 A 
ATOM     15  C   UNL d   1       4.725   2.091   0.812  0.00  0.00     0.014 A 
ATOM     16  C   UNL d   1       4.097  -0.147  -0.044  0.00  0.00     0.049 C 
ATOM     17  C   UNL d   1       4.475   3.385   1.279  0.00  0.00    -0.061 A 
ATOM     18  C   UNL d   1       3.155   3.809   1.410  0.00  0.00     0.007 A 
ATOM     19  C   UNL d   1       5.618   4.290   1.629  0.00  0.00     0.048 C 
ATOM     20  C   UNL d   1       2.104   2.946   1.088  0.00  0.00     0.015 A 
ENDBRANCH   9  13
ENDBRANCH   1   7
BRANCH   4  21
ATOM     21  O   UNL d   1      -0.637  -6.746  -0.051  0.00  0.00    -0.294 OA
BRANCH  21  22
ATOM     22  C   UNL d   1       0.359  -7.578   0.452  0.00  0.00     0.147 A 
ATOM     23  N   UNL d   1       1.650  -7.197   0.343  0.00  0.00    -0.346 N 
ATOM     24  C   UNL d   1       2.570  -7.944   0.980  0.00  0.00     0.106 A 
ATOM     25  HN  UNL d   1       1.916  -6.375  -0.200  1.00  0.00     0.167 HD
ATOM     26  C   UNL d   1       2.271  -9.092   1.695  0.00  0.00     0.063 A 
ATOM     27  C   UNL d   1       0.936  -9.514   1.709  0.00  0.00     0.022 A 
ATOM     28  C   UNL d   1      -0.042  -8.748   1.077  0.00  0.00     0.057 A 
BRANCH  26  29
ATOM     29  C   UNL d   1       3.349  -9.817   2.438  0.00  0.00     0.418 C 
ATOM     30  F   UNL d   1       4.572  -9.222   2.345  0.00  0.00    -0.166 F 
ATOM     31  F   UNL d   1       3.085  -9.911   3.771  0.00  0.00    -0.166 F 
ATOM     32  F   UNL d   1       3.520 -11.094   2.000  0.00  0.00    -0.166 F 
ENDBRANCH  26  29
ENDBRANCH  21  22
ENDBRANCH   4  21
TORSDOF 5
