REMARK  1 active torsions:
REMARK  status: ('A' for Active; 'I' for Inactive)
REMARK    1  A    between atoms: N_5  and  C_9 
ROOT
ATOM      1  C   UNL d   1      -1.228  -0.766  -0.002  0.00  0.00     0.051 A 
ATOM      2  C   UNL d   1       0.026  -1.520  -0.001  0.00  0.00     0.199 A 
ATOM      3  C   UNL d   1       1.264  -0.750  -0.001  0.00  0.00     0.066 A 
ATOM      4  C   UNL d   1       1.200   0.634  -0.001  0.00  0.00     0.162 A 
ATOM      5  O   UNL d   1       0.011   1.334  -0.001  0.00  0.00    -0.292 OA
ATOM      6  C   UNL d   1      -1.166   0.626  -0.001  0.00  0.00     0.092 A 
ATOM      7  C   UNL d   1      -2.452  -1.442  -0.002  0.00  0.00     0.054 A 
ATOM      8  C   UNL d   1      -3.633  -0.698  -0.002  0.00  0.00     0.104 A 
ATOM      9  N   UNL d   1       2.309   1.410  -0.001  0.00  0.00    -0.346 N 
ATOM     10  HN  UNL d   1       2.247   2.428  -0.001  1.00  0.00     0.167 HD
ATOM     11  O   UNL d   1       0.031  -2.743  -0.001  0.00  0.00    -0.286 OA
ATOM     12  C   UNL d   1      -2.354   1.364  -0.001  0.00  0.00     0.041 A 
ATOM     13  C   UNL d   1      -3.591   0.705  -0.001  0.00  0.00     0.039 A 
ATOM     14  C   UNL d   1       2.506  -1.384   0.000  0.00  0.00     0.021 A 
ATOM     15  C   UNL d   1       3.506   0.774  -0.000  0.00  0.00     0.090 A 
ATOM     16  C   UNL d   1       3.654  -0.605   0.000  0.00  0.00     0.018 A 
ENDROOT
BRANCH   8  17
ATOM     17  N   UNL d   1      -4.925  -1.396  -0.004  0.00  0.00    -0.116 N 
ATOM     18  O   UNL d   1      -4.910  -2.635  -0.005  0.00  0.00    -0.532 OA
ATOM     19  O   UNL d   1      -5.951  -0.703  -0.004  0.00  0.00    -0.532 OA
ENDBRANCH   8  17
TORSDOF 1
