REMARK  5 active torsions:
REMARK  status: ('A' for Active; 'I' for Inactive)
REMARK    1  A    between atoms: C_12  and  C_3 
REMARK    2  A    between atoms: C_13  and  C_6 
REMARK    3  A    between atoms: C_7  and  C_9 
REMARK    4  A    between atoms: C_25  and  C_24 
REMARK    5  A    between atoms: C_26  and  C_25 
ROOT
ATOM      1  N   UNL d   1       0.766   0.067   0.733  0.00  0.00    -0.317 N 
ATOM      2  HN  UNL d   1       1.390   0.118   1.539  1.00  0.00     0.169 HD
ATOM      3  C   UNL d   1      -0.033   1.060   0.197  0.00  0.00     0.154 A 
ATOM      4  N   UNL d   1      -0.734   0.666  -0.882  0.00  0.00    -0.241 N 
ATOM      5  HN  UNL d   1      -1.382   1.214  -1.446  1.00  0.00     0.196 HD
ATOM      6  C   UNL d   1       0.522  -0.958  -0.052  0.00  0.00     0.182 A 
ATOM      7  O   UNL d   1      -0.366  -0.669  -1.048  0.00  0.00    -0.217 OA
ENDROOT
BRANCH   3   8
ATOM      8  C   UNL d   1      -0.090   2.399   0.789  0.00  0.00     0.078 A 
ATOM      9  N   UNL d   1      -0.962   3.296   0.258  0.00  0.00    -0.362 N 
ATOM     10  C   UNL d   1      -1.024   4.524   0.825  0.00  0.00     0.104 A 
ATOM     11  HN  UNL d   1      -1.549   3.053  -0.540  1.00  0.00     0.165 HD
ATOM     12  C   UNL d   1      -0.254   4.918   1.909  0.00  0.00     0.063 A 
ATOM     13  C   UNL d   1       0.641   3.985   2.437  0.00  0.00     0.020 A 
ATOM     14  C   UNL d   1       0.725   2.713   1.874  0.00  0.00     0.034 A 
BRANCH  12  15
ATOM     15  C   UNL d   1      -0.385   6.292   2.490  0.00  0.00     0.418 C 
ATOM     16  F   UNL d   1      -1.308   7.068   1.860  0.00  0.00    -0.166 F 
ATOM     17  F   UNL d   1      -0.751   6.267   3.801  0.00  0.00    -0.166 F 
ATOM     18  F   UNL d   1       0.784   6.989   2.443  0.00  0.00    -0.166 F 
ENDBRANCH  12  15
ENDBRANCH   3   8
BRANCH   6  19
ATOM     19  C   UNL d   1       1.052  -2.312   0.014  0.00  0.00     0.017 A 
ATOM     20  C   UNL d   1       1.910  -2.659   1.068  0.00  0.00     0.016 A 
ATOM     21  C   UNL d   1       2.445  -3.946   1.166  0.00  0.00     0.008 A 
ATOM     22  C   UNL d   1       2.137  -4.915   0.206  0.00  0.00    -0.058 A 
ATOM     23  C   UNL d   1       1.268  -4.579  -0.839  0.00  0.00     0.008 A 
ATOM     24  C   UNL d   1       0.735  -3.289  -0.938  0.00  0.00     0.016 A 
BRANCH  22  25
ATOM     25  C   UNL d   1       2.737  -6.297   0.303  0.00  0.00     0.038 C 
BRANCH  25  26
ATOM     26  C   UNL d   1       3.607  -6.684  -0.898  0.00  0.00     0.000 C 
ATOM     27  C   UNL d   1       4.823  -5.785  -1.074  0.00  0.00     0.005 C 
ENDBRANCH  25  26
ENDBRANCH  22  25
ENDBRANCH   6  19
TORSDOF 5
