REMARK  6 active torsions:
REMARK  status: ('A' for Active; 'I' for Inactive)
REMARK    1  A    between atoms: N_5  and  S_1 
REMARK    2  A    between atoms: C_6  and  S_1 
REMARK    3  A    between atoms: N_2  and  C_3 
REMARK    4  A    between atoms: C_4  and  O_8 
REMARK    5  A    between atoms: C_13  and  N_5 
REMARK    6  A    between atoms: O_8  and  C_18 
ROOT
ATOM      1  C   UNL d   1       1.871  -1.840  -2.779  0.00  0.00    -0.086 C 
ATOM      2  C   UNL d   1       1.504  -2.981  -2.876  0.00  0.00     0.015 C 
ATOM      3  C   UNL d   1       2.299  -0.442  -2.609  0.00  0.00     0.096 C 
ATOM      4  C   UNL d   1       1.391   0.519  -3.378  0.00  0.00     0.053 C 
ATOM      5  C   UNL d   1       3.727  -0.307  -3.172  0.00  0.00     0.053 C 
ENDROOT
BRANCH   3   6
ATOM      6  N   UNL d   1       2.368  -0.093  -1.176  0.00  0.00    -0.295 N 
ATOM      7  H   UNL d   1       3.177  -0.453  -0.673  0.00  0.00     0.174 HD
BRANCH   6   8
ATOM      8  S   UNL d   1       1.024  -0.067  -0.167  0.00  0.00     0.260 S 
ATOM      9  O   UNL d   1       1.554  -0.107   1.183  0.00  0.00    -0.200 OA
ATOM     10  O   UNL d   1       0.049  -1.030  -0.618  0.00  0.00    -0.200 OA
BRANCH   8  11
ATOM     11  C   UNL d   1       0.347   1.559  -0.385  0.00  0.00     0.079 C 
ATOM     12  C   UNL d   1      -0.988   1.707  -0.776  0.00  0.00     0.028 C 
ATOM     13  C   UNL d   1      -1.506   2.984  -1.000  0.00  0.00     0.039 C 
ATOM     14  C   UNL d   1      -0.666   4.095  -0.904  0.00  0.00     0.076 C 
ATOM     15  C   UNL d   1       0.640   3.946  -0.424  0.00  0.00     0.039 C 
ATOM     16  C   UNL d   1       1.153   2.676  -0.161  0.00  0.00     0.028 C 
BRANCH  14  17
ATOM     17  O   UNL d   1      -1.017   5.373  -1.268  0.00  0.00    -0.307 OA
BRANCH  17  18
ATOM     18  C   UNL d   1      -1.875   5.601  -2.322  0.00  0.00     0.130 A 
ATOM     19  C   UNL d   1      -1.928   4.902  -3.537  0.00  0.00     0.138 A 
ATOM     20  C   UNL d   1      -2.880   5.204  -4.528  0.00  0.00     0.039 A 
ATOM     21  C   UNL d   1      -3.756   6.268  -4.340  0.00  0.00     0.004 A 
ATOM     22  C   UNL d   1      -3.670   7.030  -3.178  0.00  0.00     0.027 A 
ATOM     23  C   UNL d   1      -2.740   6.701  -2.180  0.00  0.00     0.070 A 
ATOM     24 CL   UNL d   1      -2.688   7.713  -0.777  0.00  0.00    -0.081 Cl
BRANCH  19  25
ATOM     25  N   UNL d   1      -0.966   3.871  -3.880  0.00  0.00    -0.113 N 
ATOM     26  O   UNL d   1       0.231   4.185  -3.889  0.00  0.00    -0.532 OA
ATOM     27  O   UNL d   1      -1.424   2.764  -4.198  0.00  0.00    -0.532 OA
ENDBRANCH  19  25
ENDBRANCH  17  18
ENDBRANCH  14  17
ENDBRANCH   8  11
ENDBRANCH   6   8
ENDBRANCH   3   6
TORSDOF 6
