REMARK  4 active torsions:
REMARK  status: ('A' for Active; 'I' for Inactive)
REMARK    1  A    between atoms: C_4  and  C_1 
REMARK    2  A    between atoms: N_2  and  C_3 
REMARK       I    between atoms: N_9  and  C_4 
REMARK    3  A    between atoms: N_5  and  N_9 
REMARK    4  A    between atoms: C_16  and  C_15 
ROOT
ATOM      1  C   UNL d   1       2.846  -0.227  -0.135  0.00  0.00     0.272 C 
ATOM      2  N   UNL d   1       3.643   0.542   0.713  0.00  0.00    -0.266 N 
ATOM      3  O   UNL d   1       3.387  -0.941  -0.979  0.00  0.00    -0.266 OA
ATOM      4  H   UNL d   1       4.609   0.563   0.395  0.00  0.00     0.190 HD
ENDROOT
BRANCH   1   5
ATOM      5  C   UNL d   1       1.369  -0.176  -0.081  0.00  0.00     0.060 A 
ATOM      6  C   UNL d   1       0.536  -1.317  -0.055  0.00  0.00     0.054 A 
ATOM      7  C   UNL d   1      -0.863  -1.134  -0.066  0.00  0.00     0.031 A 
ATOM      8  C   UNL d   1      -1.426   0.143  -0.108  0.00  0.00     0.002 A 
ATOM      9  C   UNL d   1      -0.606   1.259  -0.191  0.00  0.00     0.001 A 
ATOM     10  C   UNL d   1       0.778   1.097  -0.209  0.00  0.00     0.019 A 
BRANCH   6  11
ATOM     11  N   UNL d   1       1.018  -2.664  -0.021  0.00  0.00    -0.332 N 
ATOM     12  C   UNL d   1       2.169  -3.147   0.570  0.00  0.00     0.096 A 
ATOM     13  C   UNL d   1       2.262  -4.505   0.349  0.00  0.00     0.019 A 
ATOM     14  C   UNL d   1       1.113  -4.894  -0.366  0.00  0.00     0.019 A 
ATOM     15  C   UNL d   1       0.356  -3.760  -0.555  0.00  0.00     0.096 A 
ENDBRANCH   6  11
ENDBRANCH   1   5
BRANCH   2  16
ATOM     16  N   UNL d   1       3.306   1.599   1.513  0.00  0.00    -0.308 N 
ATOM     17  C   UNL d   1       2.318   1.469   2.340  0.00  0.00     0.120 C 
ATOM     18  HN  UNL d   1       3.824   2.475   1.460  1.00  0.00     0.186 HD
BRANCH  17  19
ATOM     19  C   UNL d   1       1.868   2.596   3.172  0.00  0.00    -0.004 A 
ATOM     20  C   UNL d   1       0.613   2.546   3.762  0.00  0.00     0.100 A 
ATOM     21  N   UNL d   1       0.123   3.518   4.569  0.00  0.00    -0.374 N 
ATOM     22  C   UNL d   1       0.927   4.581   4.795  0.00  0.00     0.087 A 
ATOM     23  HN  UNL d   1      -0.805   3.450   4.986  1.00  0.00     0.164 HD
ATOM     24  C   UNL d   1       2.186   4.730   4.233  0.00  0.00     0.018 A 
ATOM     25  C   UNL d   1       2.661   3.720   3.397  0.00  0.00     0.015 A 
ENDBRANCH  17  19
ENDBRANCH   2  16
TORSDOF 4
