REMARK  4 active torsions:
REMARK  status: ('A' for Active; 'I' for Inactive)
REMARK    1  A    between atoms: C_3  and  C_1 
REMARK    2  A    between atoms: C_7  and  C_2 
REMARK       I    between atoms: N_8  and  C_3 
REMARK    3  A    between atoms: C_11  and  C_6 
REMARK    4  A    between atoms: C_13  and  N_9 
ROOT
ATOM      1  N   UNL d   1      11.846  -4.021   1.202  0.00  0.00    -0.191 NA
ATOM      2  C   UNL d   1      10.802  -3.513   1.132  0.00  0.00     0.099 C 
ATOM      3  C   UNL d   1       6.972  -1.655   0.862  0.00  0.00     0.030 A 
ATOM      4  C   UNL d   1       7.520  -2.020   2.099  0.00  0.00     0.031 A 
ATOM      5  C   UNL d   1       7.744  -1.922  -0.280  0.00  0.00     0.031 A 
ATOM      6  C   UNL d   1       9.518  -2.890   1.043  0.00  0.00     0.044 A 
ATOM      7  C   UNL d   1       9.002  -2.532  -0.200  0.00  0.00     0.025 A 
ATOM      8  C   UNL d   1       8.776  -2.633   2.194  0.00  0.00     0.025 A 
ENDROOT
BRANCH   3   9
ATOM      9  N   UNL d   1       5.747  -1.034   0.756  0.00  0.00    -0.378 N 
ATOM     10  C   UNL d   1       5.185  -0.184   1.822  0.00  0.00     0.143 C 
ATOM     11  C   UNL d   1       4.579   1.097   1.204  0.00  0.00     0.146 C 
ATOM     12  N   UNL d   1       3.672   0.792   0.088  0.00  0.00    -0.345 N 
ATOM     13  C   UNL d   1       2.434   1.423   0.037  0.00  0.00     0.256 C 
ATOM     14  C   UNL d   1       4.293  -0.051  -0.951  0.00  0.00     0.146 C 
ATOM     15  O   UNL d   1       2.078   2.230   0.890  0.00  0.00    -0.267 OA
ATOM     16  C   UNL d   1       4.815  -1.359  -0.334  0.00  0.00     0.143 C 
BRANCH  13  17
ATOM     17  C   UNL d   1       1.533   1.074  -1.048  0.00  0.00     0.073 A 
ATOM     18  C   UNL d   1       0.710   1.953  -1.737  0.00  0.00     0.175 A 
ATOM     19  O   UNL d   1       0.015   1.269  -2.707  0.00  0.00    -0.304 OA
ATOM     20  C   UNL d   1       0.331  -0.052  -2.595  0.00  0.00     0.087 A 
ATOM     21  C   UNL d   1       1.216  -0.218  -1.555  0.00  0.00     0.058 A 
BRANCH  18  22
ATOM     22  C   UNL d   1       0.445   3.415  -1.649  0.00  0.00     0.440 C 
ATOM     23  F   UNL d   1       1.182   4.058  -0.713  0.00  0.00    -0.164 F 
ATOM     24  F   UNL d   1       0.713   4.038  -2.829  0.00  0.00    -0.164 F 
ATOM     25  F   UNL d   1      -0.860   3.671  -1.366  0.00  0.00    -0.164 F 
ENDBRANCH  18  22
BRANCH  20  26
ATOM     26  C   UNL d   1      -0.327  -0.989  -3.498  0.00  0.00    -0.002 A 
ATOM     27  C   UNL d   1       0.033  -2.348  -3.474  0.00  0.00     0.016 A 
ATOM     28  C   UNL d   1      -0.654  -3.289  -4.245  0.00  0.00     0.024 A 
ATOM     29  C   UNL d   1      -1.701  -2.876  -5.061  0.00  0.00     0.034 A 
ATOM     30  C   UNL d   1      -2.043  -1.527  -5.137  0.00  0.00     0.024 A 
ATOM     31 CL   UNL d   1      -2.588  -4.041  -5.962  0.00  0.00    -0.084 Cl
ATOM     32  C   UNL d   1      -1.354  -0.586  -4.363  0.00  0.00     0.016 A 
ENDBRANCH  20  26
ENDBRANCH  13  17
ENDBRANCH   3   9
TORSDOF 4
