REMARK  6 active torsions:
REMARK  status: ('A' for Active; 'I' for Inactive)
REMARK    1  A    between atoms: N_3  and  S_1 
REMARK    2  A    between atoms: C_10  and  S_1 
REMARK    3  A    between atoms: S_2  and  N_8 
REMARK    4  A    between atoms: C_11  and  S_2 
REMARK    5  A    between atoms: C_4  and  N_3 
REMARK    6  A    between atoms: N_8  and  C_23 
ROOT
ATOM      1  C   UNL d   1      -3.091   0.106   5.579  0.00  0.00     0.080 A 
ATOM      2  N   UNL d   1      -5.549  -4.609   4.701  0.00  0.00    -0.191 NA
ATOM      3  C   UNL d   1      -5.026  -3.591   4.885  0.00  0.00     0.099 C 
ATOM      4  C   UNL d   1      -3.145  -0.850   6.599  0.00  0.00     0.027 A 
ATOM      5  C   UNL d   1      -3.694  -0.139   4.342  0.00  0.00     0.027 A 
ATOM      6  C   UNL d   1      -4.374  -2.334   5.120  0.00  0.00     0.044 A 
ATOM      7  C   UNL d   1      -3.784  -2.072   6.366  0.00  0.00     0.024 A 
ATOM      8  C   UNL d   1      -4.328  -1.364   4.113  0.00  0.00     0.024 A 
ENDROOT
BRANCH   1   9
ATOM      9  S   UNL d   1      -2.292   1.671   5.876  0.00  0.00     0.263 S 
ATOM     10  O   UNL d   1      -2.325   1.906   7.305  0.00  0.00    -0.200 OA
ATOM     11  O   UNL d   1      -2.832   2.638   4.944  0.00  0.00    -0.200 OA
BRANCH   9  12
ATOM     12  N   UNL d   1      -0.696   1.358   5.491  0.00  0.00    -0.281 N 
ATOM     13  H   UNL d   1      -0.020   1.347   6.250  0.00  0.00     0.179 HD
BRANCH  12  14
ATOM     14  C   UNL d   1      -0.311   1.069   4.164  0.00  0.00     0.042 A 
ATOM     15  C   UNL d   1      -0.009   2.109   3.284  0.00  0.00     0.031 A 
ATOM     16  C   UNL d   1       0.385   1.821   1.975  0.00  0.00     0.027 A 
ATOM     17  C   UNL d   1       0.462   0.490   1.555  0.00  0.00     0.075 A 
ATOM     18  C   UNL d   1       0.186  -0.553   2.446  0.00  0.00     0.027 A 
ATOM     19  C   UNL d   1      -0.194  -0.260   3.757  0.00  0.00     0.031 A 
BRANCH  17  20
ATOM     20  S   UNL d   1       1.033   0.101  -0.079  0.00  0.00     0.247 S 
ATOM     21  O   UNL d   1       1.745   1.256  -0.587  0.00  0.00    -0.205 OA
ATOM     22  O   UNL d   1       1.671  -1.198  -0.052  0.00  0.00    -0.205 OA
BRANCH  20  23
ATOM     23  N   UNL d   1      -0.391   0.020  -0.982  0.00  0.00    -0.165 NA
ATOM     24  H   UNL d   1      -0.232   0.531  -1.849  0.00  0.00     0.147 HD
BRANCH  23  25
ATOM     25  C   UNL d   1      -0.999  -1.224  -1.098  0.00  0.00     0.117 A 
ATOM     26  N   UNL d   1      -1.920  -1.642  -0.228  0.00  0.00    -0.249 N 
ATOM     27  O   UNL d   1      -2.298  -2.901  -0.664  0.00  0.00    -0.241 OA
ATOM     28  HN  UNL d   1      -2.272  -1.140   0.587  1.00  0.00     0.196 HD
ATOM     29  C   UNL d   1      -1.592  -3.222  -1.782  0.00  0.00     0.075 A 
ATOM     30  C   UNL d   1      -0.771  -2.172  -2.115  0.00  0.00     0.079 A 
ATOM     31  C   UNL d   1      -1.838  -4.561  -2.347  0.00  0.00     0.079 C 
ENDBRANCH  23  25
ENDBRANCH  20  23
ENDBRANCH  17  20
ENDBRANCH  12  14
ENDBRANCH   9  12
ENDBRANCH   1   9
TORSDOF 6
