REMARK  3 active torsions:
REMARK  status: ('A' for Active; 'I' for Inactive)
REMARK       I    between atoms: N_2  and  C_1 
REMARK    1  A    between atoms: C_3  and  C_1 
REMARK    2  A    between atoms: C_5  and  C_10 
REMARK    3  A    between atoms: O_16  and  C_12 
ROOT
ATOM      1  C   UNL d   1       0.956   0.125  -0.455  0.00  0.00     0.260 C 
ATOM      2  N   UNL d   1       0.037   0.519   0.545  0.00  0.00    -0.347 N 
ATOM      3  C   UNL d   1      -1.209  -0.194   0.828  0.00  0.00     0.127 C 
ATOM      4  O   UNL d   1       2.038   0.711  -0.564  0.00  0.00    -0.267 OA
ATOM      5  C   UNL d   1       0.546   1.404   1.589  0.00  0.00     0.127 C 
ATOM      6  C   UNL d   1      -1.764   1.558   2.662  0.00  0.00     0.024 C 
ATOM      7  C   UNL d   1      -2.273   0.611   1.568  0.00  0.00     0.029 C 
ATOM      8  C   UNL d   1      -0.524   2.315   2.171  0.00  0.00     0.029 C 
ENDROOT
BRANCH   6   9
ATOM      9  C   UNL d   1      -1.578   0.963   4.053  0.00  0.00    -0.021 A 
ATOM     10  C   UNL d   1      -2.068   1.616   5.203  0.00  0.00     0.074 A 
ATOM     11  C   UNL d   1      -1.922   1.048   6.476  0.00  0.00     0.037 A 
ATOM     12  C   UNL d   1      -1.267  -0.169   6.635  0.00  0.00     0.003 A 
ATOM     13  C   UNL d   1      -0.763  -0.825   5.519  0.00  0.00     0.001 A 
ATOM     14  C   UNL d   1      -0.912  -0.261   4.247  0.00  0.00     0.010 A 
BRANCH  10  15
ATOM     15  O   UNL d   1      -2.831   2.755   5.154  0.00  0.00    -0.355 OA
ATOM     16  C   UNL d   1      -2.091   3.926   4.814  0.00  0.00     0.210 C 
ENDBRANCH  10  15
ENDBRANCH   6   9
BRANCH   1  17
ATOM     17  C   UNL d   1       0.601  -0.971  -1.351  0.00  0.00     0.072 A 
ATOM     18  S   UNL d   1       0.903  -0.777  -3.032  0.00  0.00    -0.097 SA
ATOM     19  C   UNL d   1       0.270  -2.322  -3.396  0.00  0.00     0.050 A 
ATOM     20  C   UNL d   1      -0.134  -2.995  -2.267  0.00  0.00     0.009 A 
ATOM     21  C   UNL d   1       0.095  -2.231  -1.084  0.00  0.00     0.025 A 
ENDBRANCH   1  17
TORSDOF 3
