REMARK  4 active torsions:
REMARK  status: ('A' for Active; 'I' for Inactive)
REMARK    1  A    between atoms: C_2  and  S_1 
REMARK    2  A    between atoms: N_7  and  S_1 
REMARK    3  A    between atoms: C_8  and  C_3 
REMARK    4  A    between atoms: O_15  and  C_8 
ROOT
ATOM      1  C   UNL d   1       0.618  -1.504   1.014  0.00  0.00     0.186 A 
ATOM      2  C   UNL d   1      -0.358  -2.883   2.545  0.00  0.00     0.072 A 
ATOM      3  C   UNL d   1      -0.175  -1.528   2.151  0.00  0.00     0.071 A 
ATOM      4  O   UNL d   1       0.913  -2.810   0.685  0.00  0.00    -0.301 OA
ATOM      5  C   UNL d   1       0.330  -3.627   1.604  0.00  0.00     0.067 A 
ATOM      6  C   UNL d   1       0.557  -5.077   1.419  0.00  0.00     0.078 C 
ENDROOT
BRANCH   1   7
ATOM      7  S   UNL d   1       1.235  -0.120   0.056  0.00  0.00     0.266 S 
ATOM      8  O   UNL d   1       2.673  -0.271   0.047  0.00  0.00    -0.204 OA
ATOM      9  O   UNL d   1       0.607   1.038   0.657  0.00  0.00    -0.204 OA
BRANCH   7  10
ATOM     10  N   UNL d   1       0.647  -0.268  -1.534  0.00  0.00    -0.201 NA
ATOM     11  C   UNL d   1       1.190  -1.401  -2.347  0.00  0.00     0.134 C 
ATOM     12  C   UNL d   1       2.555  -1.063  -2.962  0.00  0.00     0.183 C 
ATOM     13  O   UNL d   1       2.506   0.157  -3.717  0.00  0.00    -0.389 OA
ATOM     14  C   UNL d   1       2.085   1.252  -2.889  0.00  0.00     0.183 C 
ATOM     15  C   UNL d   1       0.682   0.996  -2.334  0.00  0.00     0.134 C 
ENDBRANCH   7  10
ENDBRANCH   1   7
BRANCH   2  16
ATOM     16  C   UNL d   1      -1.091  -3.403   3.685  0.00  0.00     0.295 C 
ATOM     17  O   UNL d   1      -1.193  -4.595   3.943  0.00  0.00    -0.259 OA
BRANCH  16  18
ATOM     18  O   UNL d   1      -1.641  -2.400   4.428  0.00  0.00    -0.322 OA
ATOM     19  C   UNL d   1      -2.362  -2.841   5.578  0.00  0.00     0.213 C 
ENDBRANCH  16  18
ENDBRANCH   2  16
TORSDOF 4
