REMARK  2 active torsions:
REMARK  status: ('A' for Active; 'I' for Inactive)
REMARK    1  A    between atoms: N_5  and  C_3 
REMARK    2  A    between atoms: C_4  and  N_5 
ROOT
ATOM      1  C   UNL d   1      -1.126   0.017   0.027  0.00  0.00     0.184 A 
ATOM      2  C   UNL d   1       0.131   0.614   0.029  0.00  0.00     0.195 A 
ATOM      3  C   UNL d   1      -1.270  -1.379   0.033  0.00  0.00     0.076 A 
ATOM      4  C   UNL d   1       1.264  -0.181   0.010  0.00  0.00     0.158 A 
ATOM      5  C   UNL d   1      -0.114  -2.166  -0.021  0.00  0.00     0.036 A 
ATOM      6  C   UNL d   1       1.153  -1.568  -0.024  0.00  0.00     0.048 A 
ATOM      7  F   UNL d   1      -2.225   0.789   0.043  0.00  0.00    -0.200 F 
ATOM      8  F   UNL d   1       0.241   1.948   0.051  0.00  0.00    -0.199 F 
ATOM      9  F   UNL d   1       2.482   0.378   0.015  0.00  0.00    -0.203 F 
ENDROOT
BRANCH   3  10
ATOM     10  N   UNL d   1      -2.590  -1.886   0.058  0.00  0.00    -0.331 N 
ATOM     11  H   UNL d   1      -3.301  -1.171  -0.064  0.00  0.00     0.168 HD
BRANCH  10  12
ATOM     12  C   UNL d   1      -3.083  -3.113   0.424  0.00  0.00     0.170 C 
ATOM     13  S   UNL d   1      -2.327  -4.413   1.136  0.00  0.00    -0.041 SA
ATOM     14  N   UNL d   1      -4.420  -3.230   0.175  0.00  0.00    -0.376 N 
ATOM     15  H   UNL d   1      -4.992  -2.494  -0.212  0.00  0.00     0.158 HD
ATOM     16  H   UNL d   1      -4.877  -4.099   0.428  0.00  0.00     0.158 HD
ENDBRANCH  10  12
ENDBRANCH   3  10
TORSDOF 2
