REMARK  2 active torsions:
REMARK  status: ('A' for Active; 'I' for Inactive)
REMARK    1  A    between atoms: C_5  and  C_1 
REMARK    2  A    between atoms: S_9  and  C_6 
ROOT
ATOM      1  C   UNL d   1      -0.305   1.015  -0.003  0.00  0.00     0.207 A 
ATOM      2  N   UNL d   1      -1.118  -0.090  -0.003  0.00  0.00    -0.317 N 
ATOM      3  N   UNL d   1       0.953   0.613   0.007  0.00  0.00    -0.280 N 
ATOM      4  HN  UNL d   1       1.775   1.216   0.010  1.00  0.00     0.188 HD
ATOM      5  C   UNL d   1      -0.286  -1.164   0.006  0.00  0.00     0.160 A 
ATOM      6  N   UNL d   1       0.961  -0.766   0.013  0.00  0.00    -0.278 N 
ATOM      7  HN  UNL d   1       1.786  -1.366   0.020  1.00  0.00     0.189 HD
ATOM      8  H   UNL d   1      -2.128  -0.111  -0.009  0.00  0.00     0.169 HD
ENDROOT
BRANCH   1   9
ATOM      9  C   UNL d   1      -0.848   2.392  -0.014  0.00  0.00     0.450 C 
ATOM     10  F   UNL d   1      -2.210   2.378   0.003  0.00  0.00    -0.163 F 
ATOM     11  F   UNL d   1      -0.459   3.116   1.065  0.00  0.00    -0.163 F 
ATOM     12  F   UNL d   1      -0.485   3.086  -1.121  0.00  0.00    -0.163 F 
ENDBRANCH   1   9
BRANCH   5  13
ATOM     13  S   UNL d   1      -0.912  -2.764   0.006  0.00  0.00    -0.097 SA
ATOM     14  C   UNL d   1       0.626  -3.716   0.009  0.00  0.00     0.099 C 
ENDBRANCH   5  13
TORSDOF 2
