REMARK  6 active torsions:
REMARK  status: ('A' for Active; 'I' for Inactive)
REMARK    1  A    between atoms: N_2  and  C_1 
REMARK    2  A    between atoms: N_3  and  C_8 
REMARK    3  A    between atoms: C_4  and  C_6 
REMARK       I    between atoms: C_6  and  N_9 
REMARK    4  A    between atoms: S_10  and  C_7 
REMARK    5  A    between atoms: N_9  and  C_11 
REMARK    6  A    between atoms: C_12  and  S_10 
ROOT
ATOM      1  C   UNL d   1       3.627   1.273  -1.567  0.00  0.00     0.052 A 
ATOM      2  C   UNL d   1       3.611   1.738  -0.236  0.00  0.00     0.032 A 
ATOM      3  C   UNL d   1       4.851   0.929  -2.150  0.00  0.00     0.031 A 
ATOM      4  C   UNL d   1       4.817   1.940   0.450  0.00  0.00     0.021 A 
ATOM      5  C   UNL d   1       6.030   1.618  -0.152  0.00  0.00     0.002 A 
ATOM      6  C   UNL d   1       6.044   1.094  -1.441  0.00  0.00     0.002 A 
ENDROOT
BRANCH   2   7
ATOM      7  S   UNL d   1       2.098   1.964   0.696  0.00  0.00    -0.086 SA
BRANCH   7   8
ATOM      8  C   UNL d   1       1.276   0.366   0.607  0.00  0.00     0.038 A 
ATOM      9  C   UNL d   1       1.841  -0.922   0.658  0.00  0.00     0.122 A 
ATOM     10  C   UNL d   1       1.062  -2.090   0.565  0.00  0.00     0.073 A 
ATOM     11  C   UNL d   1      -0.324  -1.972   0.450  0.00  0.00     0.105 A 
ATOM     12  C   UNL d   1      -0.922  -0.709   0.410  0.00  0.00     0.037 A 
ATOM     13  C   UNL d   1      -0.125   0.443   0.483  0.00  0.00     0.024 A 
BRANCH   9  14
ATOM     14  N   UNL d   1       3.257  -1.139   0.879  0.00  0.00    -0.114 N 
ATOM     15  O   UNL d   1       3.865  -1.789   0.022  0.00  0.00    -0.532 OA
ATOM     16  O   UNL d   1       3.723  -0.728   1.950  0.00  0.00    -0.532 OA
ENDBRANCH   9  14
BRANCH  11  17
ATOM     17  N   UNL d   1      -1.159  -3.180   0.410  0.00  0.00    -0.116 N 
ATOM     18  O   UNL d   1      -0.587  -4.274   0.506  0.00  0.00    -0.532 OA
ATOM     19  O   UNL d   1      -2.383  -3.029   0.297  0.00  0.00    -0.532 OA
ENDBRANCH  11  17
ENDBRANCH   7   8
ENDBRANCH   2   7
BRANCH   1  20
ATOM     20  N   UNL d   1       2.407   1.211  -2.278  0.00  0.00    -0.322 N 
ATOM     21  C   UNL d   1       2.135   0.458  -3.419  0.00  0.00     0.277 C 
ATOM     22  O   UNL d   1       2.887  -0.432  -3.821  0.00  0.00    -0.268 OA
ATOM     23  H   UNL d   1       1.646   1.751  -1.873  0.00  0.00     0.169 HD
BRANCH  21  24
ATOM     24  C   UNL d   1       0.752   0.727  -4.066  0.00  0.00     0.269 C 
ATOM     25 CL   UNL d   1       0.280   2.440  -3.846  0.00  0.00    -0.073 Cl
ATOM     26 CL   UNL d   1       0.799   0.351  -5.801  0.00  0.00    -0.073 Cl
ATOM     27 CL   UNL d   1      -0.437  -0.311  -3.231  0.00  0.00    -0.073 Cl
ENDBRANCH  21  24
ENDBRANCH   1  20
TORSDOF 6
