REMARK  6 active torsions:
REMARK  status: ('A' for Active; 'I' for Inactive)
REMARK    1  A    between atoms: C_2  and  S_1 
REMARK    2  A    between atoms: N_7  and  S_1 
REMARK    3  A    between atoms: C_3  and  C_5 
REMARK    4  A    between atoms: C_4  and  C_6 
REMARK    5  A    between atoms: C_21  and  N_7 
REMARK    6  A    between atoms: N_14  and  C_13 
ROOT
ATOM      1  C   UNL d   1       0.750   1.308   0.969  0.00  0.00     0.081 A 
ATOM      2  C   UNL d   1      -0.609   2.343   2.697  0.00  0.00     0.050 A 
ATOM      3  C   UNL d   1       1.667   3.149   2.260  0.00  0.00     0.050 A 
ATOM      4  C   UNL d   1      -0.450   1.379   1.688  0.00  0.00     0.041 A 
ATOM      5  C   UNL d   1       1.803   2.186   1.250  0.00  0.00     0.041 A 
ATOM      6  C   UNL d   1       0.454   3.224   2.969  0.00  0.00     0.032 A 
ENDROOT
BRANCH   1   7
ATOM      7  S   UNL d   1       1.002  -0.010  -0.206  0.00  0.00     0.263 S 
ATOM      8  O   UNL d   1       0.222  -1.139   0.258  0.00  0.00    -0.200 OA
ATOM      9  O   UNL d   1       2.421  -0.139  -0.452  0.00  0.00    -0.200 OA
BRANCH   7  10
ATOM     10  N   UNL d   1       0.234   0.552  -1.583  0.00  0.00    -0.281 N 
ATOM     11  H   UNL d   1      -0.334  -0.152  -2.053  0.00  0.00     0.179 HD
BRANCH  10  12
ATOM     12  C   UNL d   1       0.826   1.567  -2.373  0.00  0.00     0.042 A 
ATOM     13  C   UNL d   1       1.851   1.297  -3.269  0.00  0.00     0.032 A 
ATOM     14  C   UNL d   1       2.337   2.317  -4.106  0.00  0.00     0.031 A 
ATOM     15  C   UNL d   1       1.809   3.620  -4.078  0.00  0.00     0.029 A 
ATOM     16  C   UNL d   1       0.779   3.850  -3.149  0.00  0.00     0.031 A 
ATOM     17  C   UNL d   1       0.291   2.844  -2.309  0.00  0.00     0.032 A 
BRANCH  15  18
ATOM     18  N   UNL d   1       2.233   4.619  -4.937  0.00  0.00    -0.390 N 
ATOM     19  C   UNL d   1       2.245   6.021  -4.528  0.00  0.00     0.149 C 
ATOM     20  C   UNL d   1       2.910   4.334  -6.197  0.00  0.00     0.149 C 
ENDBRANCH  15  18
ENDBRANCH  10  12
ENDBRANCH   7  10
ENDBRANCH   1   7
BRANCH   2  21
ATOM     21  C   UNL d   1      -1.878   2.423   3.518  0.00  0.00     0.417 C 
ATOM     22  F   UNL d   1      -2.807   1.486   3.181  0.00  0.00    -0.166 F 
ATOM     23  F   UNL d   1      -1.644   2.258   4.848  0.00  0.00    -0.166 F 
ATOM     24  F   UNL d   1      -2.499   3.628   3.394  0.00  0.00    -0.166 F 
ENDBRANCH   2  21
BRANCH   3  25
ATOM     25  C   UNL d   1       2.812   4.067   2.624  0.00  0.00     0.417 C 
ATOM     26  F   UNL d   1       3.942   3.845   1.899  0.00  0.00    -0.166 F 
ATOM     27  F   UNL d   1       2.501   5.380   2.445  0.00  0.00    -0.166 F 
ATOM     28  F   UNL d   1       3.174   3.942   3.930  0.00  0.00    -0.166 F 
ENDBRANCH   3  25
TORSDOF 6
