REMARK  5 active torsions:
REMARK  status: ('A' for Active; 'I' for Inactive)
REMARK    1  A    between atoms: C_9  and  N_1 
REMARK    2  A    between atoms: C_12  and  C_4 
REMARK    3  A    between atoms: N_8  and  C_11 
REMARK    4  A    between atoms: C_10  and  C_9 
REMARK    5  A    between atoms: C_16  and  C_10 
ROOT
ATOM      1  N   UNL d   1      -0.235  -1.136  -0.292  0.00  0.00    -0.209 N 
ATOM      2  N   UNL d   1       0.921  -0.622  -0.758  0.00  0.00    -0.268 N 
ATOM      3  HN  UNL d   1       1.638  -1.053  -1.342  1.00  0.00     0.190 HD
ATOM      4  C   UNL d   1       0.868   0.619  -0.239  0.00  0.00     0.144 A 
ATOM      5  N   UNL d   1      -0.305   0.857   0.432  0.00  0.00    -0.266 N 
ATOM      6  HN  UNL d   1      -0.587   1.734   0.871  1.00  0.00     0.186 HD
ATOM      7  N   UNL d   1      -1.001  -0.272   0.400  0.00  0.00    -0.002 NA
ENDROOT
BRANCH   1   8
ATOM      8  C   UNL d   1      -0.358  -2.565  -0.106  0.00  0.00     0.251 C 
BRANCH   8   9
ATOM      9  C   UNL d   1      -1.120  -3.216  -1.215  0.00  0.00     0.180 C 
ATOM     10  O   UNL d   1      -2.342  -3.353  -1.134  0.00  0.00    -0.290 OA
BRANCH   9  11
ATOM     11  C   UNL d   1      -0.429  -3.718  -2.443  0.00  0.00     0.012 A 
ATOM     12  C   UNL d   1       0.949  -3.585  -2.662  0.00  0.00     0.017 A 
ATOM     13  C   UNL d   1       1.513  -4.006  -3.874  0.00  0.00     0.025 A 
ATOM     14  C   UNL d   1       0.709  -4.566  -4.865  0.00  0.00     0.034 A 
ATOM     15  C   UNL d   1      -0.652  -4.747  -4.643  0.00  0.00     0.025 A 
ATOM     16 CL   UNL d   1       1.396  -5.009  -6.378  0.00  0.00    -0.084 Cl
ATOM     17  C   UNL d   1      -1.216  -4.330  -3.434  0.00  0.00     0.017 A 
ENDBRANCH   9  11
ENDBRANCH   8   9
ENDBRANCH   1   8
BRANCH   4  18
ATOM     18  C   UNL d   1       2.010   1.525  -0.218  0.00  0.00     0.013 A 
ATOM     19  C   UNL d   1       3.203   1.151  -0.857  0.00  0.00     0.051 A 
ATOM     20  C   UNL d   1       4.354   1.935  -0.709  0.00  0.00     0.103 A 
ATOM     21  C   UNL d   1       4.324   3.108   0.052  0.00  0.00     0.036 A 
ATOM     22  C   UNL d   1       3.130   3.503   0.658  0.00  0.00     0.003 A 
ATOM     23  C   UNL d   1       1.979   2.717   0.522  0.00  0.00     0.015 A 
BRANCH  20  24
ATOM     24  N   UNL d   1       5.609   1.487  -1.325  0.00  0.00    -0.116 N 
ATOM     25  O   UNL d   1       5.596   0.425  -1.959  0.00  0.00    -0.532 OA
ATOM     26  O   UNL d   1       6.609   2.203  -1.167  0.00  0.00    -0.532 OA
ENDBRANCH  20  24
ENDBRANCH   4  18
TORSDOF 5
