REMARK  4 active torsions:
REMARK  status: ('A' for Active; 'I' for Inactive)
REMARK    1  A    between atoms: C_7  and  N_1 
REMARK    2  A    between atoms: C_9  and  N_4 
REMARK    3  A    between atoms: C_10  and  C_7 
REMARK    4  A    between atoms: C_11  and  C_9 
ROOT
ATOM      1  N   UNL d   1       0.756   1.009  -0.456  0.00  0.00    -0.337 N 
ATOM      2  C   UNL d   1       1.572   0.073   0.144  0.00  0.00     0.140 C 
ATOM      3  S   UNL d   1       1.004  -1.545  -0.169  0.00  0.00    -0.070 SA
ATOM      4  N   UNL d   1      -1.349  -0.087  -0.163  0.00  0.00     0.119 N 
ATOM      5  C   UNL d   1      -0.585   1.122   0.071  0.00  0.00     0.400 C 
ATOM      6  C   UNL d   1      -0.714  -1.316   0.286  0.00  0.00     0.356 C 
ATOM      7  S   UNL d   1       3.003   0.374   0.955  0.00  0.00    -0.053 SA
ENDROOT
BRANCH   1   8
ATOM      8  C   UNL d   1       1.305   2.183  -1.139  0.00  0.00     0.164 C 
BRANCH   8   9
ATOM      9  C   UNL d   1       0.918   2.167  -2.600  0.00  0.00    -0.040 A 
ATOM     10  C   UNL d   1       0.191   3.220  -3.171  0.00  0.00     0.009 A 
ATOM     11  C   UNL d   1      -0.168   3.175  -4.519  0.00  0.00     0.007 A 
ATOM     12  C   UNL d   1       0.195   2.090  -5.322  0.00  0.00    -0.062 A 
ATOM     13  C   UNL d   1       0.931   1.046  -4.764  0.00  0.00     0.007 A 
ATOM     14  C   UNL d   1      -0.226   2.046  -6.763  0.00  0.00     0.048 C 
ATOM     15  C   UNL d   1       1.294   1.091  -3.416  0.00  0.00     0.009 A 
ENDBRANCH   8   9
ENDBRANCH   1   8
BRANCH   4  16
ATOM     16  C   UNL d   1      -2.721   0.036   0.387  0.00  0.00     0.314 C 
BRANCH  16  17
ATOM     17  C   UNL d   1      -2.832   0.279   1.888  0.00  0.00    -0.030 A 
ATOM     18  C   UNL d   1      -2.868   1.584   2.404  0.00  0.00     0.009 A 
ATOM     19  C   UNL d   1      -2.879   1.810   3.784  0.00  0.00     0.007 A 
ATOM     20  C   UNL d   1      -2.866   0.738   4.682  0.00  0.00    -0.062 A 
ATOM     21  C   UNL d   1      -2.864  -0.565   4.175  0.00  0.00     0.007 A 
ATOM     22  C   UNL d   1      -2.853   0.994   6.160  0.00  0.00     0.048 C 
ATOM     23  C   UNL d   1      -2.858  -0.791   2.795  0.00  0.00     0.009 A 
ENDBRANCH  16  17
ENDBRANCH   4  16
TORSDOF 4
