REMARK  4 active torsions:
REMARK  status: ('A' for Active; 'I' for Inactive)
REMARK    1  A    between atoms: C_3  and  C_1 
REMARK    2  A    between atoms: O_4  and  C_2 
REMARK    3  A    between atoms: O_9  and  C_3 
REMARK    4  A    between atoms: C_5  and  O_4 
ROOT
ATOM      1  C   UNL d   1       1.036  -0.142  -0.263  0.00  0.00     0.072 A 
ATOM      2  C   UNL d   1       0.439   1.132  -0.206  0.00  0.00     0.102 A 
ATOM      3  C   UNL d   1      -0.952   1.269  -0.058  0.00  0.00    -0.027 A 
ATOM      4  C   UNL d   1       0.233  -1.284  -0.170  0.00  0.00     0.021 A 
ATOM      5  C   UNL d   1      -1.147  -1.160  -0.017  0.00  0.00     0.002 A 
ATOM      6  C   UNL d   1      -1.734   0.106   0.032  0.00  0.00     0.009 A 
ATOM      7  C   UNL d   1      -1.644   2.601  -0.030  0.00  0.00     0.051 C 
ENDROOT
BRANCH   1   8
ATOM      8  C   UNL d   1       2.501  -0.292  -0.399  0.00  0.00     0.179 C 
ATOM      9  O   UNL d   1       3.358   0.448   0.048  0.00  0.00    -0.646 OA
BRANCH   8  10
ATOM     10  O   UNL d   1       2.816  -1.344  -1.177  0.00  0.00    -0.773 OA
ATOM     11  H   UNL d   1       3.780  -1.256  -1.321  0.00  0.00     0.167 HD
ENDBRANCH   8  10
ENDBRANCH   1   8
BRANCH   2  12
ATOM     12  O   UNL d   1       1.220   2.302  -0.187  0.00  0.00    -0.278 OA
BRANCH  12  13
ATOM     13  C   UNL d   1       1.947   2.568  -1.344  0.00  0.00     0.260 C 
ATOM     14  O   UNL d   1       1.825   2.004  -2.422  0.00  0.00    -0.265 OA
ATOM     15  C   UNL d   1       2.902   3.692  -1.070  0.00  0.00     0.126 C 
ENDBRANCH  12  13
ENDBRANCH   2  12
TORSDOF 4
