REMARK  5 active torsions:
REMARK  status: ('A' for Active; 'I' for Inactive)
REMARK    1  A    between atoms: N_6  and  C_1 
REMARK    2  A    between atoms: S_2  and  N_6 
REMARK    3  A    between atoms: C_10  and  S_2 
REMARK    4  A    between atoms: C_11  and  N_3 
REMARK    5  A    between atoms: C_9  and  C_8 
ROOT
ATOM      1  C   UNL d   1      -0.465  -1.162  -0.204  0.00  0.00     0.119 C 
ATOM      2  N   UNL d   1       0.848  -0.787   0.064  0.00  0.00    -0.244 N 
ATOM      3  N   UNL d   1       0.922   0.551   0.322  0.00  0.00    -0.291 N 
ATOM      4  HN  UNL d   1       1.720   1.072   0.686  1.00  0.00     0.187 HD
ATOM      5  C   UNL d   1      -1.181  -0.002  -0.353  0.00  0.00     0.077 C 
ATOM      6  C   UNL d   1      -0.286   1.029  -0.007  0.00  0.00     0.069 C 
ENDROOT
BRANCH   1   7
ATOM      7  N   UNL d   1      -1.096  -2.457  -0.222  0.00  0.00    -0.165 NA
ATOM      8  H   UNL d   1      -0.549  -3.231  -0.600  0.00  0.00     0.147 HD
BRANCH   7   9
ATOM      9  S   UNL d   1      -1.500  -3.009   1.360  0.00  0.00     0.247 S 
ATOM     10  O   UNL d   1      -1.960  -4.372   1.196  0.00  0.00    -0.205 OA
ATOM     11  O   UNL d   1      -0.396  -2.700   2.244  0.00  0.00    -0.205 OA
BRANCH   9  12
ATOM     12  C   UNL d   1      -2.896  -2.013   1.808  0.00  0.00     0.077 A 
ATOM     13  C   UNL d   1      -4.160  -2.330   1.307  0.00  0.00     0.067 A 
ATOM     14  C   UNL d   1      -5.245  -1.558   1.700  0.00  0.00     0.117 A 
ATOM     15  F   UNL d   1      -6.464  -1.848   1.226  0.00  0.00    -0.206 F 
ATOM     16  C   UNL d   1      -5.094  -0.490   2.582  0.00  0.00     0.042 A 
ATOM     17  C   UNL d   1      -3.831  -0.186   3.088  0.00  0.00     0.005 A 
ATOM     18  C   UNL d   1      -2.728  -0.951   2.707  0.00  0.00     0.025 A 
ENDBRANCH   9  12
ENDBRANCH   7   9
ENDBRANCH   1   7
BRANCH   2  19
ATOM     19  C   UNL d   1       2.022  -1.589   0.074  0.00  0.00     0.058 A 
ATOM     20  C   UNL d   1       2.115  -2.738  -0.726  0.00  0.00     0.034 A 
ATOM     21  C   UNL d   1       3.289  -3.498  -0.722  0.00  0.00     0.044 A 
ATOM     22  C   UNL d   1       4.357  -3.115   0.080  0.00  0.00     0.116 A 
ATOM     23  C   UNL d   1       4.285  -1.973   0.868  0.00  0.00     0.044 A 
ATOM     24  F   UNL d   1       5.478  -3.849   0.078  0.00  0.00    -0.206 F 
ATOM     25  C   UNL d   1       3.120  -1.196   0.856  0.00  0.00     0.034 A 
ENDBRANCH   2  19
BRANCH   6  26
ATOM     26  C   UNL d   1      -0.631   2.489   0.041  0.00  0.00     0.033 A 
ATOM     27  S   UNL d   1      -2.163   3.118  -0.396  0.00  0.00    -0.100 SA
ATOM     28  C   UNL d   1      -1.682   4.719  -0.043  0.00  0.00     0.050 A 
ATOM     29  C   UNL d   1      -0.379   4.778   0.399  0.00  0.00     0.008 A 
ATOM     30  C   UNL d   1       0.233   3.488   0.441  0.00  0.00     0.021 A 
ENDBRANCH   6  26
TORSDOF 5
