REMARK  6 active torsions:
REMARK  status: ('A' for Active; 'I' for Inactive)
REMARK    1  A    between atoms: C_12  and  N_6 
REMARK    2  A    between atoms: N_8  and  C_11 
REMARK       I    between atoms: C_9  and  N_8 
REMARK    3  A    between atoms: C_13  and  C_9 
REMARK    4  A    between atoms: C_11  and  N_17 
REMARK    5  A    between atoms: C_14  and  C_12 
REMARK       I    between atoms: N_18  and  C_14 
REMARK    6  A    between atoms: N_17  and  N_18 
ROOT
ATOM      1  C   UNL d   1       2.540   0.690   0.083  0.00  0.00     0.257 C 
ATOM      2  N   UNL d   1       2.587  -0.653  -0.155  0.00  0.00    -0.266 N 
ATOM      3  O   UNL d   1       3.622   1.296   0.112  0.00  0.00    -0.270 OA
ATOM      4  H   UNL d   1       3.509  -1.083  -0.157  0.00  0.00     0.190 HD
ENDROOT
BRANCH   1   5
ATOM      5  C   UNL d   1       1.263   1.489   0.173  0.00  0.00     0.272 C 
BRANCH   5   6
ATOM      6  N   UNL d   1       0.073   0.862   0.705  0.00  0.00    -0.194 N 
ATOM      7  N   UNL d   1      -1.141   1.367   0.387  0.00  0.00    -0.115 N 
ATOM      8  C   UNL d   1      -1.891   0.863   1.371  0.00  0.00     0.709 A 
ATOM      9  HN  UNL d   1      -1.411   1.969  -0.391  1.00  0.00     0.207 HD
ATOM     10  N   UNL d   1      -1.168   0.046   2.206  0.00  0.00    -0.113 N 
ATOM     11  N   UNL d   1      -3.178   1.165   1.644  0.00  0.00    -0.211 N 
ATOM     12  N   UNL d   1       0.095   0.106   1.815  0.00  0.00     0.011 NA
ATOM     13  HN  UNL d   1      -1.535  -0.504   2.982  1.00  0.00     0.203 HD
ATOM     14  C   UNL d   1      -4.009   1.937   0.723  0.00  0.00     0.167 C 
ATOM     15  C   UNL d   1      -3.905   0.492   2.720  0.00  0.00     0.167 C 
ATOM     16  C   UNL d   1      -4.945   2.866   1.516  0.00  0.00     0.188 C 
ATOM     17  O   UNL d   1      -5.702   2.148   2.506  0.00  0.00    -0.388 OA
ATOM     18  C   UNL d   1      -4.815   1.502   3.433  0.00  0.00     0.188 C 
ENDBRANCH   5   6
ENDBRANCH   1   5
BRANCH   2  19
ATOM     19  N   UNL d   1       1.496  -1.482  -0.233  0.00  0.00    -0.273 N 
ATOM     20  H   UNL d   1       0.786  -1.313  -0.954  0.00  0.00     0.189 HD
BRANCH  19  21
ATOM     21  C   UNL d   1       1.349  -2.604   0.568  0.00  0.00     0.193 C 
ATOM     22  S   UNL d   1       2.418  -3.096   1.764  0.00  0.00    -0.039 SA
BRANCH  21  23
ATOM     23  N   UNL d   1       0.248  -3.395   0.297  0.00  0.00    -0.302 N 
ATOM     24  C   UNL d   1      -0.604  -3.217  -0.770  0.00  0.00     0.228 C 
ATOM     25  O   UNL d   1      -0.762  -2.148  -1.353  0.00  0.00    -0.273 OA
ATOM     26  H   UNL d   1       0.212  -4.248   0.828  0.00  0.00     0.171 HD
BRANCH  24  27
ATOM     27  C   UNL d   1      -1.339  -4.413  -1.262  0.00  0.00     0.078 A 
ATOM     28  C   UNL d   1      -2.221  -5.267  -0.391  0.00  0.00     0.015 A 
ATOM     29  C   UNL d   1      -0.933  -5.832  -0.924  0.00  0.00     0.015 A 
ENDBRANCH  24  27
ENDBRANCH  21  23
ENDBRANCH  19  21
ENDBRANCH   2  19
TORSDOF 6
