REMARK  5 active torsions:
REMARK  status: ('A' for Active; 'I' for Inactive)
REMARK    1  A    between atoms: C_2  and  S_1 
REMARK    2  A    between atoms: N_5  and  S_1 
REMARK    3  A    between atoms: C_6  and  C_4 
REMARK       I    between atoms: N_9  and  C_6 
REMARK    4  A    between atoms: C_16  and  N_9 
REMARK    5  A    between atoms: O_22  and  C_17 
ROOT
ATOM      1  C   UNL d   1       0.678   0.664  -2.076  0.00  0.00     0.185 A 
ATOM      2  O   UNL d   1       0.190   1.914  -2.428  0.00  0.00    -0.292 OA
ATOM      3  C   UNL d   1      -0.030   1.915  -3.779  0.00  0.00     0.144 A 
ATOM      4  C   UNL d   1       0.752  -0.106  -3.232  0.00  0.00     0.054 A 
ATOM      5  C   UNL d   1       0.280   0.675  -4.302  0.00  0.00     0.046 A 
ENDROOT
BRANCH   3   6
ATOM      6  C   UNL d   1      -0.488   3.107  -4.473  0.00  0.00     0.280 C 
ATOM      7  N   UNL d   1      -0.543   4.244  -3.688  0.00  0.00    -0.321 N 
ATOM      8  H   UNL d   1      -0.336   4.112  -2.705  0.00  0.00     0.169 HD
ATOM      9  O   UNL d   1      -0.770   3.058  -5.667  0.00  0.00    -0.265 OA
BRANCH   7  10
ATOM     10  C   UNL d   1      -0.770   5.569  -4.131  0.00  0.00     0.035 A 
ATOM     11  C   UNL d   1      -0.955   5.921  -5.471  0.00  0.00     0.032 A 
ATOM     12  C   UNL d   1      -1.103   7.261  -5.855  0.00  0.00     0.039 A 
ATOM     13  C   UNL d   1      -1.071   8.273  -4.901  0.00  0.00     0.068 A 
ATOM     14  C   UNL d   1      -0.921   7.927  -3.557  0.00  0.00     0.039 A 
ATOM     15  C   UNL d   1      -0.768   6.587  -3.173  0.00  0.00     0.032 A 
BRANCH  13  16
ATOM     16  O   UNL d   1      -1.174   9.613  -5.153  0.00  0.00    -0.356 OA
ATOM     17  C   UNL d   1      -1.164  10.008  -6.521  0.00  0.00     0.210 C 
ENDBRANCH  13  16
ENDBRANCH   7  10
ENDBRANCH   3   6
BRANCH   1  18
ATOM     18  S   UNL d   1       1.149   0.232  -0.395  0.00  0.00     0.266 S 
ATOM     19  O   UNL d   1       1.270   1.487   0.312  0.00  0.00    -0.204 OA
ATOM     20  O   UNL d   1       2.285  -0.649  -0.564  0.00  0.00    -0.204 OA
BRANCH  18  21
ATOM     21  N   UNL d   1      -0.114  -0.662   0.323  0.00  0.00    -0.201 NA
ATOM     22  C   UNL d   1      -0.598  -1.883  -0.390  0.00  0.00     0.134 C 
ATOM     23  C   UNL d   1       0.319  -3.088  -0.157  0.00  0.00     0.183 C 
ATOM     24  O   UNL d   1       0.467  -3.359   1.243  0.00  0.00    -0.389 OA
ATOM     25  C   UNL d   1       1.015  -2.224   1.930  0.00  0.00     0.183 C 
ATOM     26  C   UNL d   1       0.116  -0.990   1.770  0.00  0.00     0.134 C 
ENDBRANCH  18  21
ENDBRANCH   1  18
TORSDOF 5
