REMARK  6 active torsions:
REMARK  status: ('A' for Active; 'I' for Inactive)
REMARK    1  A    between atoms: C_3  and  S_1 
REMARK    2  A    between atoms: N_4  and  S_1 
REMARK    3  A    between atoms: C_2  and  C_6 
REMARK    4  A    between atoms: C_6  and  N_4 
REMARK    5  A    between atoms: O_17  and  C_7 
REMARK    6  A    between atoms: O_18  and  C_12 
ROOT
ATOM      1  S   UNL d   1       0.987   0.029   0.018  0.00  0.00     0.241 S 
ATOM      2  O   UNL d   1       1.563  -0.589   1.190  0.00  0.00    -0.206 OA
ATOM      3  O   UNL d   1      -0.145   0.924   0.100  0.00  0.00    -0.206 OA
ENDROOT
BRANCH   1   4
ATOM      4  C   UNL d   1       0.567  -1.291  -1.105  0.00  0.00     0.077 A 
ATOM      5  C   UNL d   1       1.183  -2.540  -0.948  0.00  0.00     0.064 A 
ATOM      6  C   UNL d   1       0.789  -3.634  -1.728  0.00  0.00     0.102 A 
ATOM      7  C   UNL d   1      -0.218  -3.452  -2.695  0.00  0.00     0.101 A 
ATOM      8  C   UNL d   1      -0.835  -2.198  -2.830  0.00  0.00     0.041 A 
ATOM      9  C   UNL d   1      -0.453  -1.117  -2.037  0.00  0.00     0.028 A 
BRANCH   6  10
ATOM     10  O   UNL d   1       1.306  -4.894  -1.572  0.00  0.00    -0.353 OA
ATOM     11  C   UNL d   1       2.233  -5.116  -0.516  0.00  0.00     0.210 C 
ENDBRANCH   6  10
BRANCH   7  12
ATOM     12  O   UNL d   1      -0.759  -4.402  -3.524  0.00  0.00    -0.353 OA
ATOM     13  C   UNL d   1       0.087  -5.468  -3.933  0.00  0.00     0.210 C 
ENDBRANCH   7  12
ENDBRANCH   1   4
BRANCH   1  14
ATOM     14  N   UNL d   1       2.247   0.816  -0.786  0.00  0.00    -0.211 NA
ATOM     15  H   UNL d   1       2.943   0.149  -1.121  0.00  0.00     0.140 HD
BRANCH  14  16
ATOM     16  C   UNL d   1       1.851   1.811  -1.796  0.00  0.00     0.147 C 
BRANCH  16  17
ATOM     17  C   UNL d   1       3.036   2.412  -2.506  0.00  0.00     0.016 A 
ATOM     18  C   UNL d   1       3.350   3.763  -2.314  0.00  0.00     0.125 A 
ATOM     19  F   UNL d   1       2.608   4.513  -1.486  0.00  0.00    -0.205 F 
ATOM     20  C   UNL d   1       4.418   4.372  -2.972  0.00  0.00     0.043 A 
ATOM     21  C   UNL d   1       5.203   3.630  -3.848  0.00  0.00     0.005 A 
ATOM     22  C   UNL d   1       4.916   2.281  -4.054  0.00  0.00     0.024 A 
ATOM     23  C   UNL d   1       3.843   1.677  -3.387  0.00  0.00     0.044 A 
ATOM     24 CL   UNL d   1       3.550  -0.001  -3.691  0.00  0.00    -0.084 Cl
ENDBRANCH  16  17
ENDBRANCH  14  16
ENDBRANCH   1  14
TORSDOF 6
