REMARK  7 active torsions:
REMARK  status: ('A' for Active; 'I' for Inactive)
REMARK    1  A    between atoms: C_9  and  C_1 
REMARK    2  A    between atoms: C_2  and  C_10 
REMARK       I    between atoms: C_3  and  N_4 
REMARK    3  A    between atoms: C_11  and  C_3 
REMARK    4  A    between atoms: N_4  and  C_6 
REMARK    5  A    between atoms: C_5  and  C_12 
REMARK    6  A    between atoms: O_7  and  C_5 
REMARK    7  A    between atoms: C_8  and  O_7 
ROOT
ATOM      1  C   UNL d   1      -3.787  -3.380  -0.651  0.00  0.00     0.069 A 
ATOM      2  C   UNL d   1      -3.343  -2.533   0.379  0.00  0.00     0.106 A 
ATOM      3  C   UNL d   1      -3.160  -4.617  -0.809  0.00  0.00     0.039 A 
ATOM      4  C   UNL d   1      -2.353  -2.935   1.274  0.00  0.00     0.040 A 
ATOM      5  C   UNL d   1      -2.112  -5.012   0.044  0.00  0.00    -0.060 A 
ATOM      6  C   UNL d   1      -1.732  -4.173   1.098  0.00  0.00     0.009 A 
ATOM      7  C   UNL d   1      -1.423  -6.325  -0.189  0.00  0.00     0.048 C 
ENDROOT
BRANCH   1   8
ATOM      8  N   UNL d   1      -4.808  -2.941  -1.526  0.00  0.00    -0.320 N 
ATOM      9  C   UNL d   1      -5.637  -3.750  -2.271  0.00  0.00     0.256 C 
ATOM     10  O   UNL d   1      -5.793  -4.956  -2.101  0.00  0.00    -0.267 OA
ATOM     11  H   UNL d   1      -5.015  -1.955  -1.520  0.00  0.00     0.169 HD
BRANCH   9  12
ATOM     12  C   UNL d   1      -6.424  -3.067  -3.340  0.00  0.00     0.032 A 
ATOM     13  C   UNL d   1      -5.953  -1.918  -3.990  0.00  0.00     0.018 A 
ATOM     14  C   UNL d   1      -6.630  -1.419  -5.109  0.00  0.00     0.017 A 
ATOM     15  C   UNL d   1      -7.778  -2.064  -5.598  0.00  0.00     0.048 A 
ATOM     16  C   UNL d   1      -8.277  -3.176  -4.904  0.00  0.00     0.017 A 
ATOM     17  C   UNL d   1      -7.604  -3.675  -3.786  0.00  0.00     0.018 A 
BRANCH  15  18
ATOM     18  C   UNL d   1      -8.442  -1.618  -6.880  0.00  0.00     0.417 C 
ATOM     19  F   UNL d   1      -7.789  -0.598  -7.503  0.00  0.00    -0.166 F 
ATOM     20  F   UNL d   1      -8.521  -2.623  -7.796  0.00  0.00    -0.166 F 
ATOM     21  F   UNL d   1      -9.718  -1.185  -6.687  0.00  0.00    -0.166 F 
ENDBRANCH  15  18
ENDBRANCH   9  12
ENDBRANCH   1   8
BRANCH   2  22
ATOM     22  O   UNL d   1      -4.011  -1.328   0.642  0.00  0.00    -0.273 OA
BRANCH  22  23
ATOM     23  C   UNL d   1      -3.713  -0.315  -0.246  0.00  0.00     0.298 C 
ATOM     24  O   UNL d   1      -2.767  -0.258  -1.015  0.00  0.00    -0.259 OA
BRANCH  23  25
ATOM     25  C   UNL d   1      -4.876   0.613  -0.312  0.00  0.00     0.040 A 
ATOM     26  C   UNL d   1      -5.896   0.616   0.647  0.00  0.00     0.018 A 
ATOM     27  C   UNL d   1      -7.044   1.390   0.448  0.00  0.00     0.017 A 
ATOM     28  C   UNL d   1      -7.190   2.169  -0.712  0.00  0.00     0.048 A 
ATOM     29  C   UNL d   1      -6.147   2.191  -1.649  0.00  0.00     0.017 A 
ATOM     30  C   UNL d   1      -4.998   1.421  -1.450  0.00  0.00     0.018 A 
BRANCH  28  31
ATOM     31  C   UNL d   1      -8.467   2.944  -0.946  0.00  0.00     0.417 C 
ATOM     32  F   UNL d   1      -8.489   3.607  -2.135  0.00  0.00    -0.166 F 
ATOM     33  F   UNL d   1      -9.564   2.137  -0.950  0.00  0.00    -0.166 F 
ATOM     34  F   UNL d   1      -8.693   3.881   0.013  0.00  0.00    -0.166 F 
ENDBRANCH  28  31
ENDBRANCH  23  25
ENDBRANCH  22  23
ENDBRANCH   2  22
TORSDOF 7
