REMARK  5 active torsions:
REMARK  status: ('A' for Active; 'I' for Inactive)
REMARK    1  A    between atoms: S_3  and  C_1 
REMARK    2  A    between atoms: C_7  and  C_2 
REMARK    3  A    between atoms: N_10  and  S_3 
REMARK    4  A    between atoms: O_12  and  C_7 
REMARK    5  A    between atoms: C_15  and  O_12 
ROOT
ATOM      1  C   UNL d   1       0.722   1.362   0.009  0.00  0.00     0.122 A 
ATOM      2  C   UNL d   1      -0.713   1.376  -0.000  0.00  0.00     0.094 A 
ATOM      3  C   UNL d   1       1.111   0.038   0.018  0.00  0.00     0.073 A 
ATOM      4  C   UNL d   1      -1.091   0.041  -0.007  0.00  0.00     0.067 A 
ATOM      5  O   UNL d   1       0.006  -0.759   0.011  0.00  0.00    -0.318 OA
ATOM      6  C   UNL d   1       2.387  -0.712   0.032  0.00  0.00     0.078 C 
ATOM      7  C   UNL d   1      -2.378  -0.693   0.015  0.00  0.00     0.078 C 
ENDROOT
BRANCH   1   8
ATOM      8  S   UNL d   1       1.719   2.763  -0.049  0.00  0.00     0.242 S 
ATOM      9  O   UNL d   1       3.076   2.284   0.082  0.00  0.00    -0.206 OA
ATOM     10  O   UNL d   1       1.247   3.474  -1.210  0.00  0.00    -0.206 OA
BRANCH   8  11
ATOM     11  N   UNL d   1       1.409   3.700   1.302  0.00  0.00    -0.225 NA
ATOM     12  H   UNL d   1       1.702   3.261   2.171  0.00  0.00     0.136 HD
ATOM     13  H   UNL d   1       0.449   4.068   1.290  0.00  0.00     0.136 HD
ENDBRANCH   8  11
ENDBRANCH   1   8
BRANCH   2  14
ATOM     14  C   UNL d   1      -1.607   2.520   0.062  0.00  0.00     0.297 C 
ATOM     15  O   UNL d   1      -1.299   3.563   0.625  0.00  0.00    -0.259 OA
BRANCH  14  16
ATOM     16  O   UNL d   1      -2.836   2.244  -0.457  0.00  0.00    -0.318 OA
BRANCH  16  17
ATOM     17  C   UNL d   1      -3.942   3.044  -0.017  0.00  0.00     0.174 C 
ATOM     18  C   UNL d   1      -4.513   3.847  -1.163  0.00  0.00     0.034 C 
ENDBRANCH  16  17
ENDBRANCH  14  16
ENDBRANCH   2  14
TORSDOF 5
