REMARK  6 active torsions:
REMARK  status: ('A' for Active; 'I' for Inactive)
REMARK    1  A    between atoms: C_6  and  C_1 
REMARK    2  A    between atoms: O_7  and  C_2 
REMARK       I    between atoms: C_3  and  N_4 
REMARK    3  A    between atoms: C_13  and  C_3 
REMARK    4  A    between atoms: N_4  and  C_5 
REMARK    5  A    between atoms: O_20  and  C_6 
REMARK    6  A    between atoms: C_9  and  O_7 
ROOT
ATOM      1  C   UNL d   1       2.961   3.471  -0.568  0.00  0.00     0.070 C 
ATOM      2  C   UNL d   1       2.040   3.215   0.459  0.00  0.00     0.103 C 
ATOM      3  C   UNL d   1       3.486   4.756  -0.728  0.00  0.00     0.056 C 
ATOM      4  C   UNL d   1       1.812   4.186   1.438  0.00  0.00     0.041 C 
ATOM      5  C   UNL d   1       3.145   5.755   0.182  0.00  0.00     0.036 C 
ATOM      6  C   UNL d   1       2.347   5.465   1.288  0.00  0.00     0.026 C 
ATOM      7 CL   UNL d   1       3.709   7.361  -0.060  0.00  0.00    -0.084 Cl
ENDROOT
BRANCH   1   8
ATOM      8  N   UNL d   1       3.346   2.429  -1.438  0.00  0.00    -0.320 N 
ATOM      9  C   UNL d   1       4.637   2.179  -1.856  0.00  0.00     0.256 C 
ATOM     10  O   UNL d   1       4.845   1.783  -3.002  0.00  0.00    -0.267 OA
ATOM     11  H   UNL d   1       2.654   2.188  -2.141  0.00  0.00     0.169 HD
BRANCH   9  12
ATOM     12  C   UNL d   1       5.776   2.296  -0.894  0.00  0.00     0.032 A 
ATOM     13  C   UNL d   1       5.614   2.160   0.498  0.00  0.00     0.018 A 
ATOM     14  C   UNL d   1       6.719   2.243   1.353  0.00  0.00     0.025 A 
ATOM     15  C   UNL d   1       7.995   2.428   0.826  0.00  0.00     0.034 A 
ATOM     16  C   UNL d   1       8.178   2.526  -0.552  0.00  0.00     0.025 A 
ATOM     17 CL   UNL d   1       9.352   2.514   1.879  0.00  0.00    -0.084 Cl
ATOM     18  C   UNL d   1       7.071   2.457  -1.408  0.00  0.00     0.018 A 
ENDBRANCH   9  12
ENDBRANCH   1   8
BRANCH   2  19
ATOM     19  O   UNL d   1       1.469   1.969   0.544  0.00  0.00    -0.307 OA
BRANCH  19  20
ATOM     20  C   UNL d   1       0.129   1.799   0.715  0.00  0.00     0.099 A 
ATOM     21  C   UNL d   1      -0.405   0.533   0.893  0.00  0.00     0.114 A 
ATOM     22  S   UNL d   1      -2.118   0.596   1.043  0.00  0.00    -0.093 SA
ATOM     23  C   UNL d   1      -2.145   2.293   0.894  0.00  0.00     0.053 A 
ATOM     24  C   UNL d   1      -0.887   2.808   0.684  0.00  0.00     0.046 A 
BRANCH  21  25
ATOM     25  C   UNL d   1       0.238  -0.765   0.966  0.00  0.00     0.302 C 
ATOM     26  O   UNL d   1      -0.309  -1.852   0.810  0.00  0.00    -0.259 OA
BRANCH  25  27
ATOM     27  O   UNL d   1       1.561  -0.622   1.267  0.00  0.00    -0.322 OA
ATOM     28  C   UNL d   1       2.276  -1.851   1.375  0.00  0.00     0.213 C 
ENDBRANCH  25  27
ENDBRANCH  21  25
ENDBRANCH  19  20
ENDBRANCH   2  19
TORSDOF 6
