REMARK  4 active torsions:
REMARK  status: ('A' for Active; 'I' for Inactive)
REMARK    1  A    between atoms: C_6  and  C_1 
REMARK    2  A    between atoms: C_7  and  C_3 
REMARK    3  A    between atoms: N_10  and  C_4 
REMARK    4  A    between atoms: C_8  and  C_9 
ROOT
ATOM      1  C   UNL d   1      -0.696   0.741  -0.631  0.00  0.00     0.077 A 
ATOM      2  S   UNL d   1       0.215  -0.481  -1.430  0.00  0.00    -0.084 SA
ATOM      3  C   UNL d   1       0.742  -1.196   0.034  0.00  0.00     0.018 A 
ATOM      4  C   UNL d   1      -0.578   0.612   0.743  0.00  0.00     0.048 A 
ATOM      5  C   UNL d   1       0.251  -0.487   1.111  0.00  0.00     0.050 A 
ENDROOT
BRANCH   3   6
ATOM      6  C   UNL d   1       1.597  -2.396   0.033  0.00  0.00    -0.019 A 
ATOM      7  C   UNL d   1       2.518  -2.610   1.065  0.00  0.00     0.013 A 
ATOM      8  C   UNL d   1       3.304  -3.771   1.106  0.00  0.00     0.009 A 
ATOM      9  C   UNL d   1       3.206  -4.761   0.113  0.00  0.00    -0.051 A 
ATOM     10  C   UNL d   1       2.286  -4.535  -0.922  0.00  0.00     0.009 A 
ATOM     11  C   UNL d   1       1.497  -3.378  -0.960  0.00  0.00     0.013 A 
BRANCH   9  12
ATOM     12  C   UNL d   1       4.085  -6.023   0.176  0.00  0.00    -0.024 C 
ATOM     13  C   UNL d   1       3.851  -6.996  -1.002  0.00  0.00     0.019 C 
ATOM     14  C   UNL d   1       5.574  -5.619   0.149  0.00  0.00     0.019 C 
ATOM     15  C   UNL d   1       3.798  -6.805   1.476  0.00  0.00     0.019 C 
ENDBRANCH   9  12
ENDBRANCH   3   6
BRANCH   1  16
ATOM     16  C   UNL d   1      -1.417   1.681  -1.481  0.00  0.00     0.164 C 
ATOM     17  O   UNL d   1      -1.825   1.404  -2.609  0.00  0.00    -0.292 OA
ATOM     18  C   UNL d   1      -1.669   3.079  -0.972  0.00  0.00     0.097 C 
ENDBRANCH   1  16
BRANCH   4  19
ATOM     19  N   UNL d   1      -1.173   1.370   1.686  0.00  0.00    -0.398 N 
ATOM     20  H   UNL d   1      -1.969   1.974   1.492  0.00  0.00     0.156 HD
ATOM     21  H   UNL d   1      -1.128   1.104   2.664  0.00  0.00     0.156 HD
ENDBRANCH   4  19
TORSDOF 4
