REMARK  1 active torsions:
REMARK  status: ('A' for Active; 'I' for Inactive)
REMARK    1  A    between atoms: C_6  and  C_1 
ROOT
ATOM      1  C   UNL d   1      -0.316   1.115  -0.011  0.00  0.00     0.142 A 
ATOM      2  N   UNL d   1       0.582  -0.809  -0.432  0.00  0.00    -0.007 NA
ATOM      3  N   UNL d   1       0.722   0.547  -0.601  0.00  0.00    -0.270 N 
ATOM      4  HN  UNL d   1       1.481   1.024  -1.087  1.00  0.00     0.185 HD
ATOM      5  N   UNL d   1      -0.531  -1.090   0.228  0.00  0.00    -0.007 NA
ATOM      6  N   UNL d   1      -1.091   0.099   0.479  0.00  0.00    -0.270 N 
ATOM      7  H   UNL d   1      -1.971   0.146   0.977  0.00  0.00     0.185 HD
ENDROOT
BRANCH   1   8
ATOM      8  C   UNL d   1      -0.630   2.542   0.046  0.00  0.00     0.027 A 
ATOM      9  C   UNL d   1      -1.361   3.167   1.073  0.00  0.00     0.025 A 
ATOM     10 BR   UNL d   1      -2.010   2.253   2.613  0.00  0.00    -0.050 Br
ATOM     11  C   UNL d   1      -1.625   4.545   1.025  0.00  0.00     0.020 A 
ATOM     12  C   UNL d   1      -1.162   5.316  -0.038  0.00  0.00     0.001 A 
ATOM     13  C   UNL d   1      -0.426   4.720  -1.054  0.00  0.00     0.001 A 
ATOM     14  C   UNL d   1      -0.161   3.348  -1.009  0.00  0.00     0.017 A 
ENDBRANCH   1   8
TORSDOF 1
