REMARK  6 active torsions:
REMARK  status: ('A' for Active; 'I' for Inactive)
REMARK    1  A    between atoms: C_8  and  C_1 
REMARK    2  A    between atoms: C_9  and  N_2 
REMARK    3  A    between atoms: S_10  and  C_5 
REMARK    4  A    between atoms: C_18  and  S_10 
REMARK    5  A    between atoms: C_12  and  C_13 
REMARK    6  A    between atoms: C_20  and  C_18 
ROOT
ATOM      1  C   UNL d   1      -0.176  -1.264   0.158  0.00  0.00     0.141 A 
ATOM      2  N   UNL d   1       1.105  -0.714   0.015  0.00  0.00    -0.275 N 
ATOM      3  N   UNL d   1      -1.048  -0.278   0.298  0.00  0.00    -0.282 N 
ATOM      4  HN  UNL d   1      -2.053  -0.391   0.428  1.00  0.00     0.188 HD
ATOM      5  C   UNL d   1       0.887   0.656   0.066  0.00  0.00     0.168 A 
ATOM      6  N   UNL d   1      -0.387   0.911   0.240  0.00  0.00    -0.278 N 
ATOM      7  HN  UNL d   1      -0.809   1.837   0.318  1.00  0.00     0.189 HD
ENDROOT
BRANCH   2   8
ATOM      8  C   UNL d   1       2.344  -1.408  -0.114  0.00  0.00     0.043 A 
ATOM      9  C   UNL d   1       2.432  -2.584  -0.862  0.00  0.00     0.031 A 
ATOM     10  C   UNL d   1       3.648  -3.277  -0.945  0.00  0.00     0.010 A 
ATOM     11  C   UNL d   1       4.813  -2.805  -0.310  0.00  0.00    -0.051 A 
ATOM     12  C   UNL d   1       4.700  -1.626   0.439  0.00  0.00     0.010 A 
ATOM     13  C   UNL d   1       3.485  -0.940   0.542  0.00  0.00     0.031 A 
BRANCH  11  14
ATOM     14  C   UNL d   1       6.140  -3.575  -0.440  0.00  0.00    -0.024 C 
ATOM     15  C   UNL d   1       7.347  -2.844   0.189  0.00  0.00     0.019 C 
ATOM     16  C   UNL d   1       6.007  -4.941   0.264  0.00  0.00     0.019 C 
ATOM     17  C   UNL d   1       6.476  -3.800  -1.931  0.00  0.00     0.019 C 
ENDBRANCH  11  14
ENDBRANCH   2   8
BRANCH   1  18
ATOM     18  C   UNL d   1      -0.541  -2.684   0.281  0.00  0.00     0.032 A 
ATOM     19  C   UNL d   1      -1.592  -3.253  -0.461  0.00  0.00     0.048 A 
ATOM     20 CL   UNL d   1      -2.504  -2.356  -1.629  0.00  0.00    -0.083 Cl
ATOM     21  C   UNL d   1      -1.925  -4.605  -0.307  0.00  0.00     0.025 A 
ATOM     22  C   UNL d   1      -1.215  -5.409   0.583  0.00  0.00     0.002 A 
ATOM     23  C   UNL d   1      -0.182  -4.859   1.335  0.00  0.00     0.001 A 
ATOM     24  C   UNL d   1       0.139  -3.506   1.201  0.00  0.00     0.017 A 
ENDBRANCH   1  18
BRANCH   5  25
ATOM     25  S   UNL d   1       2.080   1.887  -0.237  0.00  0.00    -0.087 SA
BRANCH  25  26
ATOM     26  C   UNL d   1       1.206   3.353   0.385  0.00  0.00     0.121 C 
BRANCH  26  27
ATOM     27  C   UNL d   1       2.021   4.630   0.415  0.00  0.00    -0.049 A 
ATOM     28  C   UNL d   1       2.915   4.993  -0.603  0.00  0.00     0.008 A 
ATOM     29  C   UNL d   1       3.567   6.231  -0.577  0.00  0.00     0.007 A 
ATOM     30  C   UNL d   1       3.322   7.146   0.452  0.00  0.00    -0.062 A 
ATOM     31  C   UNL d   1       2.433   6.793   1.470  0.00  0.00     0.007 A 
ATOM     32  C   UNL d   1       3.995   8.486   0.444  0.00  0.00     0.048 C 
ATOM     33  C   UNL d   1       1.789   5.553   1.449  0.00  0.00     0.008 A 
ENDBRANCH  26  27
ENDBRANCH  25  26
ENDBRANCH   5  25
TORSDOF 6
