REMARK  2 active torsions:
REMARK  status: ('A' for Active; 'I' for Inactive)
REMARK    1  A    between atoms: C_8  and  N_2 
REMARK    2  A    between atoms: C_9  and  N_4 
ROOT
ATOM      1  C   UNL d   1       1.592   0.392   0.054  0.00  0.00     0.119 C 
ATOM      2  N   UNL d   1       0.230   0.735  -0.009  0.00  0.00    -0.328 N 
ATOM      3  C   UNL d   1       1.642  -1.108   0.128  0.00  0.00     0.016 A 
ATOM      4  N   UNL d   1       2.563   1.247  -0.045  0.00  0.00    -0.342 N 
ATOM      5  HN  UNL d   1       2.298   2.231  -0.068  1.00  0.00     0.167 HD
ATOM      6  C   UNL d   1      -0.634  -0.436  -0.172  0.00  0.00     0.170 C 
ATOM      7  C   UNL d   1       0.343  -1.568  -0.109  0.00  0.00    -0.026 A 
ATOM      8  C   UNL d   1       2.667  -2.015   0.343  0.00  0.00     0.016 A 
ATOM      9  C   UNL d   1       0.069  -2.920  -0.268  0.00  0.00     0.010 A 
ATOM     10  C   UNL d   1       2.411  -3.378   0.152  0.00  0.00     0.001 A 
ATOM     11  C   UNL d   1       1.123  -3.826  -0.171  0.00  0.00     0.001 A 
ENDROOT
BRANCH   2  12
ATOM     12  C   UNL d   1      -0.343   2.016   0.039  0.00  0.00     0.036 A 
ATOM     13  C   UNL d   1      -1.611   2.279  -0.518  0.00  0.00     0.031 A 
ATOM     14  C   UNL d   1      -2.192   3.553  -0.471  0.00  0.00     0.026 A 
ATOM     15  C   UNL d   1      -1.517   4.597   0.147  0.00  0.00     0.034 A 
ATOM     16  C   UNL d   1      -0.268   4.375   0.713  0.00  0.00     0.026 A 
ATOM     17 CL   UNL d   1      -2.230   6.160   0.211  0.00  0.00    -0.084 Cl
ATOM     18  C   UNL d   1       0.307   3.098   0.655  0.00  0.00     0.031 A 
ENDBRANCH   2  12
BRANCH   4  19
ATOM     19  C   UNL d   1       3.931   0.972  -0.123  0.00  0.00     0.033 C 
ATOM     20  C   UNL d   1       4.481   0.035  -0.999  0.00  0.00     0.031 C 
ATOM     21  C   UNL d   1       5.852  -0.247  -0.978  0.00  0.00     0.026 C 
ATOM     22  C   UNL d   1       6.696   0.505  -0.168  0.00  0.00     0.034 C 
ATOM     23  C   UNL d   1       6.184   1.542   0.606  0.00  0.00     0.026 C 
ATOM     24 CL   UNL d   1       8.379   0.154  -0.132  0.00  0.00    -0.084 Cl
ATOM     25  C   UNL d   1       4.803   1.763   0.633  0.00  0.00     0.031 C 
ENDBRANCH   4  19
TORSDOF 2
