REMARK  1 active torsions:
REMARK  status: ('A' for Active; 'I' for Inactive)
REMARK    1  A    between atoms: C_4  and  C_2 
ROOT
ATOM      1  N   UNL d   1      -0.565  -1.167   0.070  0.00  0.00    -0.343 N 
ATOM      2  C   UNL d   1       0.832  -1.331  -0.197  0.00  0.00     0.187 C 
ATOM      3  S   UNL d   1       1.559   0.311  -0.039  0.00  0.00    -0.129 SA
ATOM      4  C   UNL d   1      -1.093   0.089  -0.059  0.00  0.00     0.228 C 
ATOM      5  C   UNL d   1      -0.033   1.149  -0.261  0.00  0.00     0.179 C 
ATOM      6  O   UNL d   1      -2.297   0.308  -0.025  0.00  0.00    -0.273 OA
ATOM      7  H   UNL d   1      -1.192  -1.956   0.135  0.00  0.00     0.164 HD
ENDROOT
BRANCH   2   8
ATOM      8  C   UNL d   1       1.400  -2.335   0.753  0.00  0.00     0.015 A 
ATOM      9  S   UNL d   1       2.153  -3.752   0.135  0.00  0.00    -0.103 SA
ATOM     10  C   UNL d   1       2.462  -4.357   1.702  0.00  0.00     0.050 A 
ATOM     11  C   UNL d   1       2.015  -3.503   2.684  0.00  0.00     0.008 A 
ATOM     12  C   UNL d   1       1.406  -2.336   2.138  0.00  0.00     0.018 A 
ENDBRANCH   2   8
TORSDOF 1
