REMARK  7 active torsions:
REMARK  status: ('A' for Active; 'I' for Inactive)
REMARK    1  A    between atoms: N_2  and  C_1 
REMARK    2  A    between atoms: C_3  and  N_2 
REMARK    3  A    between atoms: O_14  and  C_4 
REMARK    4  A    between atoms: O_15  and  C_8 
REMARK    5  A    between atoms: C_16  and  N_10 
REMARK    6  A    between atoms: C_12  and  C_17 
REMARK    7  A    between atoms: C_17  and  C_16 
ROOT
ATOM      1  C   UNL d   1       4.960  -0.533   0.627  0.00  0.00     0.058 C 
ENDROOT
BRANCH   1   2
ATOM      2  C   UNL d   1       5.629  -1.377   1.696  0.00  0.00    -0.054 A 
ATOM      3  C   UNL d   1       7.037  -1.388   1.768  0.00  0.00     0.046 A 
ATOM      4  C   UNL d   1       7.728  -2.176   2.706  0.00  0.00     0.102 A 
ATOM      5  C   UNL d   1       6.986  -2.960   3.605  0.00  0.00     0.101 A 
ATOM      6  C   UNL d   1       5.590  -2.963   3.527  0.00  0.00     0.040 A 
ATOM      7  C   UNL d   1       4.917  -2.181   2.590  0.00  0.00     0.010 A 
BRANCH   4   8
ATOM      8  O   UNL d   1       9.093  -2.256   2.774  0.00  0.00    -0.353 OA
ATOM      9  C   UNL d   1       9.861  -1.490   1.857  0.00  0.00     0.210 C 
ENDBRANCH   4   8
BRANCH   5  10
ATOM     10  O   UNL d   1       7.465  -3.810   4.568  0.00  0.00    -0.353 OA
ATOM     11  C   UNL d   1       8.704  -3.467   5.174  0.00  0.00     0.210 C 
ENDBRANCH   5  10
ENDBRANCH   1   2
BRANCH   1  12
ATOM     12  C   UNL d   1       3.430  -0.431   0.720  0.00  0.00     0.126 C 
BRANCH  12  13
ATOM     13  N   UNL d   1       2.829   0.379  -0.329  0.00  0.00    -0.367 N 
ATOM     14  C   UNL d   1       2.729   1.734  -0.429  0.00  0.00     0.167 C 
ATOM     15  S   UNL d   1       1.791   2.348  -1.668  0.00  0.00    -0.041 SA
ATOM     16  H   UNL d   1       2.296  -0.114  -1.038  0.00  0.00     0.161 HD
BRANCH  14  17
ATOM     17  N   UNL d   1       3.424   2.466   0.493  0.00  0.00    -0.363 N 
ATOM     18  H   UNL d   1       3.876   1.968   1.245  0.00  0.00     0.162 HD
BRANCH  17  19
ATOM     19  C   UNL d   1       3.493   3.894   0.558  0.00  0.00     0.084 A 
ATOM     20  C   UNL d   1       4.272   4.700  -0.445  0.00  0.00     0.027 A 
ATOM     21  C   UNL d   1       4.792   4.548   0.952  0.00  0.00     0.027 A 
ENDBRANCH  17  19
ENDBRANCH  14  17
ENDBRANCH  12  13
ENDBRANCH   1  12
TORSDOF 7
