REMARK  6 active torsions:
REMARK  status: ('A' for Active; 'I' for Inactive)
REMARK    1  A    between atoms: C_4  and  C_1 
REMARK    2  A    between atoms: S_3  and  C_2 
REMARK    3  A    between atoms: C_5  and  S_3 
REMARK    4  A    between atoms: O_11  and  C_4 
REMARK    5  A    between atoms: C_14  and  C_7 
REMARK    6  A    between atoms: O_15  and  C_14 
ROOT
ATOM      1  C   UNL d   1       1.990   0.541  -2.106  0.00  0.00     0.056 A 
ATOM      2  C   UNL d   1       3.309   0.142  -1.811  0.00  0.00     0.022 A 
ATOM      3  C   UNL d   1       1.512   0.444  -3.429  0.00  0.00     0.043 A 
ATOM      4  C   UNL d   1       4.120  -0.331  -2.861  0.00  0.00     0.021 A 
ATOM      5  C   UNL d   1       2.334  -0.029  -4.448  0.00  0.00     0.035 A 
ATOM      6  C   UNL d   1       3.642  -0.402  -4.172  0.00  0.00     0.025 A 
ATOM      7 CL   UNL d   1       1.727  -0.164  -6.051  0.00  0.00    -0.084 Cl
ENDROOT
BRANCH   2   8
ATOM      8  S   UNL d   1       4.024   0.070  -0.165  0.00  0.00    -0.089 SA
BRANCH   8   9
ATOM      9  C   UNL d   1       4.756   1.693   0.049  0.00  0.00     0.014 A 
ATOM     10  C   UNL d   1       4.489   2.497   1.177  0.00  0.00    -0.018 A 
ATOM     11  C   UNL d   1       5.098   3.765   1.270  0.00  0.00     0.011 A 
ATOM     12  C   UNL d   1       6.002   4.205   0.306  0.00  0.00     0.001 A 
ATOM     13  C   UNL d   1       6.313   3.386  -0.769  0.00  0.00     0.001 A 
ATOM     14  C   UNL d   1       5.694   2.141  -0.897  0.00  0.00     0.019 A 
BRANCH  10  15
ATOM     15  C   UNL d   1       3.595   2.087   2.322  0.00  0.00     0.204 C 
BRANCH  15  16
ATOM     16  O   UNL d   1       2.307   2.663   2.195  0.00  0.00    -0.396 OA
ATOM     17  H   UNL d   1       1.995   2.523   1.283  0.00  0.00     0.209 HD
ENDBRANCH  15  16
ENDBRANCH  10  15
ENDBRANCH   8   9
ENDBRANCH   2   8
BRANCH   1  18
ATOM     18  C   UNL d   1       1.016   1.111  -1.133  0.00  0.00     0.177 C 
ATOM     19  O   UNL d   1       0.121   1.861  -1.479  0.00  0.00    -0.646 OA
BRANCH  18  20
ATOM     20  O   UNL d   1       1.160   0.717   0.148  0.00  0.00    -0.773 OA
ATOM     21  H   UNL d   1       1.874   0.065   0.298  0.00  0.00     0.167 HD
ENDBRANCH  18  20
ENDBRANCH   1  18
TORSDOF 6
