REMARK  4 active torsions:
REMARK  status: ('A' for Active; 'I' for Inactive)
REMARK    1  A    between atoms: C_15  and  C_5 
REMARK    2  A    between atoms: S_16  and  C_6 
REMARK    3  A    between atoms: C_12  and  C_17 
REMARK    4  A    between atoms: C_17  and  S_16 
ROOT
ATOM      1  N   UNL d   1       4.526   4.061  -0.235  0.00  0.00    -0.322 N 
ATOM      2  HN  UNL d   1       4.981   3.169  -0.431  1.00  0.00     0.169 HD
ATOM      3  C   UNL d   1       5.096   5.310  -0.116  0.00  0.00     0.137 A 
ATOM      4  N   UNL d   1       4.204   6.295   0.084  0.00  0.00    -0.242 N 
ATOM      5  HN  UNL d   1       4.381   7.295   0.171  1.00  0.00     0.196 HD
ATOM      6  C   UNL d   1       3.250   4.304  -0.032  0.00  0.00     0.158 A 
ATOM      7  O   UNL d   1       2.980   5.628   0.147  0.00  0.00    -0.222 OA
ENDROOT
BRANCH   6   8
ATOM      8  C   UNL d   1       2.107   3.362   0.065  0.00  0.00     0.169 C 
BRANCH   8   9
ATOM      9  S   UNL d   1       2.323   2.293   1.516  0.00  0.00    -0.084 SA
BRANCH   9  10
ATOM     10  C   UNL d   1       0.930   1.270   1.375  0.00  0.00     0.174 A 
ATOM     11  N   UNL d   1      -0.040   1.409   0.418  0.00  0.00    -0.168 N 
ATOM     12  C   UNL d   1      -0.883   0.450   0.709  0.00  0.00     0.692 A 
ATOM     13  HN  UNL d   1      -0.093   2.093  -0.336  1.00  0.00     0.186 HD
ATOM     14  N   UNL d   1      -0.426  -0.234   1.800  0.00  0.00    -0.130 N 
ATOM     15  N   UNL d   1      -2.028   0.135   0.090  0.00  0.00    -0.233 N 
ATOM     16  N   UNL d   1       0.736   0.268   2.238  0.00  0.00    -0.265 N 
ATOM     17  H   UNL d   1      -0.850  -1.015   2.283  0.00  0.00     0.205 HD
ATOM     18  HN  UNL d   1       1.317  -0.033   3.020  1.00  0.00     0.189 HD
ATOM     19  H   UNL d   1      -2.211   0.586  -0.802  0.00  0.00     0.174 HD
ATOM     20  H   UNL d   1      -2.473  -0.770   0.189  0.00  0.00     0.174 HD
ENDBRANCH   9  10
ENDBRANCH   8   9
ENDBRANCH   6   8
BRANCH   3  21
ATOM     21  C   UNL d   1       6.541   5.505  -0.175  0.00  0.00     0.010 A 
ATOM     22  C   UNL d   1       7.393   4.398  -0.325  0.00  0.00     0.017 A 
ATOM     23  C   UNL d   1       8.781   4.563  -0.364  0.00  0.00     0.025 A 
ATOM     24  C   UNL d   1       9.328   5.838  -0.253  0.00  0.00     0.034 A 
ATOM     25  C   UNL d   1       8.501   6.949  -0.102  0.00  0.00     0.025 A 
ATOM     26 CL   UNL d   1      11.036   6.042  -0.300  0.00  0.00    -0.084 Cl
ATOM     27  C   UNL d   1       7.111   6.783  -0.062  0.00  0.00     0.017 A 
ENDBRANCH   3  21
TORSDOF 4
