REMARK  7 active torsions:
REMARK  status: ('A' for Active; 'I' for Inactive)
REMARK    1  A    between atoms: N_2  and  S_1 
REMARK    2  A    between atoms: C_9  and  S_1 
REMARK       I    between atoms: C_6  and  N_2 
REMARK    3  A    between atoms: C_3  and  C_8 
REMARK       I    between atoms: N_18  and  C_6 
REMARK    4  A    between atoms: C_7  and  N_21 
REMARK    5  A    between atoms: C_27  and  N_18 
REMARK    6  A    between atoms: N_21  and  C_28 
REMARK    7  A    between atoms: C_28  and  C_27 
ROOT
ATOM      1  N   UNL d   1       0.583  -1.766   0.287  0.00  0.00    -0.232 N 
ATOM      2  C   UNL d   1       0.983  -2.894  -0.408  0.00  0.00     0.329 C 
ATOM      3  O   UNL d   1       1.767  -2.860  -1.343  0.00  0.00    -0.246 OA
ATOM      4  N   UNL d   1       0.385  -4.037   0.037  0.00  0.00    -0.341 N 
ATOM      5  H   UNL d   1      -0.132  -1.793   1.000  0.00  0.00     0.183 HD
ATOM      6  H   UNL d   1      -0.255  -3.994   0.815  0.00  0.00     0.164 HD
ENDROOT
BRANCH   4   7
ATOM      7  C   UNL d   1       0.561  -5.305  -0.654  0.00  0.00     0.139 C 
BRANCH   7   8
ATOM      8  C   UNL d   1       1.341  -6.348   0.162  0.00  0.00     0.115 C 
BRANCH   8   9
ATOM      9  N   UNL d   1       1.554  -7.537  -0.650  0.00  0.00    -0.263 NA
ATOM     10  H   UNL d   1       2.058  -7.386  -1.519  0.00  0.00     0.130 HD
BRANCH   9  11
ATOM     11  C   UNL d   1       2.201  -8.585  -0.017  0.00  0.00     0.157 A 
ATOM     12  N   UNL d   1       2.981  -9.339  -0.802  0.00  0.00    -0.329 N 
ATOM     13  C   UNL d   1       3.612 -10.404  -0.241  0.00  0.00     0.120 A 
ATOM     14  HN  UNL d   1       3.097  -9.121  -1.792  1.00  0.00     0.168 HD
ATOM     15  C   UNL d   1       3.467 -10.709   1.100  0.00  0.00     0.051 A 
ATOM     16  C   UNL d   1       2.655  -9.871   1.821  0.00  0.00     0.093 A 
ATOM     17  N   UNL d   1       2.021  -8.813   1.288  0.00  0.00    -0.343 N 
ATOM     18  HN  UNL d   1       1.426  -8.208   1.855  1.00  0.00     0.167 HD
BRANCH  13  19
ATOM     19  C   UNL d   1       4.500 -11.290  -1.097  0.00  0.00     0.432 C 
ATOM     20  F   UNL d   1       4.591 -10.910  -2.402  0.00  0.00    -0.165 F 
ATOM     21  F   UNL d   1       5.784 -11.338  -0.634  0.00  0.00    -0.165 F 
ATOM     22  F   UNL d   1       4.075 -12.588  -1.115  0.00  0.00    -0.165 F 
ENDBRANCH  13  19
ENDBRANCH   9  11
ENDBRANCH   8   9
ENDBRANCH   7   8
ENDBRANCH   4   7
BRANCH   1  23
ATOM     23  S   UNL d   1       1.091  -0.220  -0.074  0.00  0.00     0.266 S 
ATOM     24  O   UNL d   1       2.530  -0.160   0.055  0.00  0.00    -0.200 OA
ATOM     25  O   UNL d   1       0.240   0.655   0.709  0.00  0.00    -0.200 OA
BRANCH  23  26
ATOM     26  C   UNL d   1       0.634   0.002  -1.774  0.00  0.00     0.080 A 
ATOM     27  C   UNL d   1      -0.720   0.005  -2.124  0.00  0.00     0.026 A 
ATOM     28  C   UNL d   1      -1.084   0.171  -3.463  0.00  0.00     0.008 A 
ATOM     29  C   UNL d   1      -0.105   0.345  -4.451  0.00  0.00    -0.062 A 
ATOM     30  C   UNL d   1       1.247   0.364  -4.081  0.00  0.00     0.008 A 
ATOM     31  C   UNL d   1      -0.513   0.502  -5.887  0.00  0.00     0.048 C 
ATOM     32  C   UNL d   1       1.619   0.194  -2.745  0.00  0.00     0.026 A 
ENDBRANCH  23  26
ENDBRANCH   1  23
TORSDOF 7
