REMARK  2 active torsions:
REMARK  status: ('A' for Active; 'I' for Inactive)
REMARK    1  A    between atoms: N_3  and  C_1 
REMARK       I    between atoms: C_4  and  N_3 
REMARK    2  A    between atoms: C_5  and  C_4 
ROOT
ATOM      1  C   UNL d   1       0.875  -0.691   0.017  0.00  0.00     0.098 A 
ATOM      2  C   UNL d   1       0.951   0.696  -0.011  0.00  0.00     0.085 A 
ATOM      3  S   UNL d   1      -0.748  -1.205   0.080  0.00  0.00    -0.082 SA
ATOM      4  C   UNL d   1      -0.348   1.333   0.010  0.00  0.00    -0.032 A 
ATOM      5  C   UNL d   1       2.197   1.403  -0.054  0.00  0.00     0.103 C 
ATOM      6  C   UNL d   1      -1.349   0.382   0.050  0.00  0.00     0.060 A 
ATOM      7  N   UNL d   1       3.223   1.948  -0.087  0.00  0.00    -0.191 NA
ATOM      8  C   UNL d   1      -0.638   2.801  -0.010  0.00  0.00     0.050 C 
ENDROOT
BRANCH   1   9
ATOM      9  N   UNL d   1       1.922  -1.620   0.002  0.00  0.00    -0.312 N 
ATOM     10  C   UNL d   1       1.789  -3.018   0.042  0.00  0.00     0.330 C 
ATOM     11  O   UNL d   1       0.729  -3.642   0.087  0.00  0.00    -0.263 OA
ATOM     12  H   UNL d   1       2.869  -1.252  -0.044  0.00  0.00     0.169 HD
BRANCH  10  13
ATOM     13  C   UNL d   1       3.137  -3.766   0.035  0.00  0.00     0.472 C 
ATOM     14  F   UNL d   1       4.199  -2.916  -0.076  0.00  0.00    -0.162 F 
ATOM     15  F   UNL d   1       3.339  -4.481   1.176  0.00  0.00    -0.162 F 
ATOM     16  F   UNL d   1       3.241  -4.646  -1.000  0.00  0.00    -0.162 F 
ENDBRANCH  10  13
ENDBRANCH   1   9
TORSDOF 2
