REMARK  5 active torsions:
REMARK  status: ('A' for Active; 'I' for Inactive)
REMARK    1  A    between atoms: S_2  and  C_1 
REMARK    2  A    between atoms: C_8  and  S_2 
REMARK    3  A    between atoms: S_11  and  C_4 
REMARK    4  A    between atoms: C_7  and  C_5 
REMARK    5  A    between atoms: O_16  and  C_7 
ROOT
ATOM      1  C   UNL d   1       0.607   1.380   0.055  0.00  0.00     0.095 C 
ATOM      2  C   UNL d   1       1.195   0.046  -0.030  0.00  0.00    -0.014 C 
ATOM      3  C   UNL d   1      -0.762   1.321   0.266  0.00  0.00     0.064 C 
ATOM      4  C   UNL d   1       0.205  -0.939  -0.057  0.00  0.00     0.087 C 
ATOM      5  S   UNL d   1      -1.358  -0.267   0.084  0.00  0.00    -0.074 SA
ATOM      6  C   UNL d   1       2.658  -0.308  -0.052  0.00  0.00     0.051 C 
ENDROOT
BRANCH   1   7
ATOM      7  S   UNL d   1       1.506   2.884   0.053  0.00  0.00     0.209 S 
ATOM      8  O   UNL d   1       2.793   2.588  -0.538  0.00  0.00    -0.217 OA
ATOM      9  O   UNL d   1       0.627   3.860  -0.562  0.00  0.00    -0.217 OA
BRANCH   7  10
ATOM     10  C   UNL d   1       1.778   3.369   1.734  0.00  0.00     0.064 A 
ATOM     11  C   UNL d   1       1.447   2.541   2.811  0.00  0.00     0.025 A 
ATOM     12  C   UNL d   1       1.655   2.995   4.117  0.00  0.00     0.025 A 
ATOM     13  C   UNL d   1       2.196   4.259   4.338  0.00  0.00     0.034 A 
ATOM     14  C   UNL d   1       2.537   5.082   3.264  0.00  0.00     0.025 A 
ATOM     15 CL   UNL d   1       2.448   4.810   5.950  0.00  0.00    -0.084 Cl
ATOM     16  C   UNL d   1       2.324   4.639   1.957  0.00  0.00     0.025 A 
ENDBRANCH   7  10
ENDBRANCH   1   7
BRANCH   3  17
ATOM     17  S   UNL d   1      -1.869   2.587   0.800  0.00  0.00    -0.126 SA
ATOM     18  C   UNL d   1      -2.489   3.218  -0.774  0.00  0.00     0.096 C 
ENDBRANCH   3  17
BRANCH   4  19
ATOM     19  C   UNL d   1       0.390  -2.388  -0.152  0.00  0.00     0.183 C 
ATOM     20  O   UNL d   1       1.466  -2.966  -0.202  0.00  0.00    -0.646 OA
BRANCH  19  21
ATOM     21  O   UNL d   1      -0.778  -3.082  -0.171  0.00  0.00    -0.772 OA
ATOM     22  H   UNL d   1      -1.556  -2.495  -0.126  0.00  0.00     0.167 HD
ENDBRANCH  19  21
ENDBRANCH   4  19
TORSDOF 5
