REMARK  6 active torsions:
REMARK  status: ('A' for Active; 'I' for Inactive)
REMARK    1  A    between atoms: C_19  and  C_1 
REMARK    2  A    between atoms: C_20  and  C_2 
REMARK    3  A    between atoms: C_3  and  S_7 
REMARK    4  A    between atoms: C_4  and  S_8 
REMARK    5  A    between atoms: S_7  and  C_19 
REMARK    6  A    between atoms: S_8  and  C_20 
ROOT
ATOM      1  C   UNL d   1       0.909  -0.073   0.132  0.00  0.00    -0.020 C 
ATOM      2  C   UNL d   1       0.144  -0.610   1.104  0.00  0.00    -0.020 C 
ENDROOT
BRANCH   1   3
ATOM      3  C   UNL d   1       2.412  -0.116   0.022  0.00  0.00     0.106 C 
BRANCH   3   4
ATOM      4  S   UNL d   1       3.167  -1.541   0.868  0.00  0.00    -0.126 SA
BRANCH   4   5
ATOM      5  C   UNL d   1       4.892  -1.134   0.711  0.00  0.00     0.001 A 
ATOM      6  C   UNL d   1       5.660  -0.951   1.867  0.00  0.00     0.020 A 
ATOM      7  C   UNL d   1       7.026  -0.674   1.771  0.00  0.00     0.025 A 
ATOM      8  C   UNL d   1       7.627  -0.588   0.517  0.00  0.00     0.034 A 
ATOM      9  C   UNL d   1       6.874  -0.777  -0.640  0.00  0.00     0.025 A 
ATOM     10 CL   UNL d   1       9.311  -0.259   0.396  0.00  0.00    -0.084 Cl
ATOM     11  C   UNL d   1       5.507  -1.053  -0.542  0.00  0.00     0.020 A 
ENDBRANCH   4   5
ENDBRANCH   3   4
ENDBRANCH   1   3
BRANCH   2  12
ATOM     12  C   UNL d   1      -1.353  -0.536   1.169  0.00  0.00     0.106 C 
BRANCH  12  13
ATOM     13  S   UNL d   1      -1.843  -0.262   2.906  0.00  0.00    -0.126 SA
BRANCH  13  14
ATOM     14  C   UNL d   1      -3.614  -0.363   2.761  0.00  0.00     0.001 A 
ATOM     15  C   UNL d   1      -4.303  -1.402   3.396  0.00  0.00     0.020 A 
ATOM     16  C   UNL d   1      -5.700  -1.448   3.365  0.00  0.00     0.025 A 
ATOM     17  C   UNL d   1      -6.409  -0.447   2.703  0.00  0.00     0.034 A 
ATOM     18  C   UNL d   1      -5.732   0.590   2.064  0.00  0.00     0.025 A 
ATOM     19 CL   UNL d   1      -8.128  -0.481   2.691  0.00  0.00    -0.084 Cl
ATOM     20  C   UNL d   1      -4.335   0.631   2.095  0.00  0.00     0.020 A 
ENDBRANCH  13  14
ENDBRANCH  12  13
ENDBRANCH   2  12
TORSDOF 6
