REMARK  3 active torsions:
REMARK  status: ('A' for Active; 'I' for Inactive)
REMARK    1  A    between atoms: C_4  and  C_1 
REMARK    2  A    between atoms: N_5  and  C_11 
REMARK    3  A    between atoms: C_15  and  C_7 
ROOT
ATOM      1  C   UNL d   1      -3.741  -0.049   0.002  0.00  0.00     0.089 C 
ATOM      2  C   UNL d   1      -4.411   1.123  -0.010  0.00  0.00     0.038 C 
ATOM      3  C   UNL d   1      -2.309  -0.086  -0.003  0.00  0.00     0.103 C 
ATOM      4  N   UNL d   1      -1.153  -0.169  -0.005  0.00  0.00    -0.191 NA
ENDROOT
BRANCH   1   5
ATOM      5  C   UNL d   1      -4.510  -1.253   0.006  0.00  0.00     0.127 A 
ATOM      6  N   UNL d   1      -5.822  -1.421   0.003  0.00  0.00    -0.339 N 
ATOM      7  C   UNL d   1      -6.037  -2.776  -0.010  0.00  0.00     0.060 A 
ATOM      8  HN  UNL d   1      -6.532  -0.689   0.008  1.00  0.00     0.167 HD
ATOM      9  C   UNL d   1      -7.239  -3.495  -0.028  0.00  0.00     0.032 A 
ATOM     10  C   UNL d   1      -4.832  -3.466  -0.008  0.00  0.00     0.060 A 
ATOM     11  C   UNL d   1      -7.183  -4.895  -0.043  0.00  0.00     0.002 A 
ATOM     12  C   UNL d   1      -5.956  -5.562  -0.038  0.00  0.00     0.002 A 
ATOM     13  C   UNL d   1      -4.745  -4.859  -0.021  0.00  0.00     0.032 A 
ATOM     14  N   UNL d   1      -3.878  -2.481   0.006  0.00  0.00    -0.339 N 
ATOM     15  H   UNL d   1      -2.880  -2.644   0.008  0.00  0.00     0.167 HD
ENDBRANCH   1   5
BRANCH   2  16
ATOM     16  C   UNL d   1      -3.749   2.431  -0.047  0.00  0.00    -0.032 A 
ATOM     17  C   UNL d   1      -3.402   2.995  -1.279  0.00  0.00     0.047 A 
ATOM     18  C   UNL d   1      -2.647   4.175  -1.306  0.00  0.00     0.103 A 
ATOM     19  C   UNL d   1      -2.264   4.807  -0.116  0.00  0.00     0.036 A 
ATOM     20  C   UNL d   1      -2.641   4.253   1.108  0.00  0.00     0.003 A 
ATOM     21  C   UNL d   1      -3.378   3.067   1.143  0.00  0.00     0.011 A 
BRANCH  18  22
ATOM     22  N   UNL d   1      -2.218   4.729  -2.596  0.00  0.00    -0.116 N 
ATOM     23  O   UNL d   1      -2.564   4.129  -3.624  0.00  0.00    -0.532 OA
ATOM     24  O   UNL d   1      -1.531   5.760  -2.581  0.00  0.00    -0.532 OA
ENDBRANCH  18  22
ENDBRANCH   2  16
TORSDOF 3
