REMARK  7 active torsions:
REMARK  status: ('A' for Active; 'I' for Inactive)
REMARK    1  A    between atoms: C_9  and  C_1 
REMARK    2  A    between atoms: O_8  and  C_2 
REMARK    3  A    between atoms: C_12  and  C_9 
REMARK    4  A    between atoms: C_15  and  C_12 
REMARK    5  A    between atoms: C_13  and  C_14 
REMARK    6  A    between atoms: C_14  and  C_16 
REMARK    7  A    between atoms: C_16  and  C_15 
ROOT
ATOM      1  C   UNL d   1      -1.771  -0.880  -0.033  0.00  0.00     0.044 A 
ATOM      2  C   UNL d   1      -0.877  -0.898  -1.046  0.00  0.00     0.089 A 
ATOM      3  C   UNL d   1      -1.534   0.052   1.124  0.00  0.00     0.255 A 
ATOM      4  N   UNL d   1      -0.444   0.870   1.073  0.00  0.00    -0.322 N 
ATOM      5  C   UNL d   1       0.308  -0.019  -1.037  0.00  0.00     0.025 A 
ATOM      6  C   UNL d   1       0.491   0.857   0.037  0.00  0.00     0.048 A 
ATOM      7  O   UNL d   1      -2.287   0.085   2.094  0.00  0.00    -0.268 OA
ATOM      8  C   UNL d   1       1.266  -0.030  -2.057  0.00  0.00     0.016 A 
ATOM      9  C   UNL d   1       1.598   1.705   0.101  0.00  0.00     0.030 A 
ATOM     10  C   UNL d   1       2.381   0.812  -2.001  0.00  0.00     0.001 A 
ATOM     11  C   UNL d   1       2.547   1.679  -0.921  0.00  0.00     0.002 A 
ATOM     12  H   UNL d   1      -0.321   1.486   1.866  0.00  0.00     0.169 HD
ENDROOT
BRANCH   1  13
ATOM     13  C   UNL d   1      -2.991  -1.764   0.096  0.00  0.00     0.047 C 
BRANCH  13  14
ATOM     14  C   UNL d   1      -4.316  -0.996   0.013  0.00  0.00     0.005 C 
BRANCH  14  15
ATOM     15  C   UNL d   1      -5.516  -1.949   0.032  0.00  0.00     0.000 C 
BRANCH  15  16
ATOM     16  C   UNL d   1      -6.830  -1.167   0.040  0.00  0.00     0.000 C 
BRANCH  16  17
ATOM     17  C   UNL d   1      -8.043  -2.096   0.054  0.00  0.00    -0.000 C 
BRANCH  17  18
ATOM     18  C   UNL d   1      -9.344  -1.292   0.067  0.00  0.00    -0.005 C 
ATOM     19  C   UNL d   1     -10.563  -2.198   0.079  0.00  0.00     0.005 C 
ENDBRANCH  17  18
ENDBRANCH  16  17
ENDBRANCH  15  16
ENDBRANCH  14  15
ENDBRANCH  13  14
ENDBRANCH   1  13
BRANCH   2  20
ATOM     20  O   UNL d   1      -0.964  -1.718  -2.153  0.00  0.00    -0.359 OA
ATOM     21  H   UNL d   1      -1.768  -2.257  -2.111  0.00  0.00     0.217 HD
ENDBRANCH   2  20
TORSDOF 7
