REMARK  6 active torsions:
REMARK  status: ('A' for Active; 'I' for Inactive)
REMARK    1  A    between atoms: C_4  and  C_1 
REMARK    2  A    between atoms: C_10  and  CA_2 
REMARK    3  A    between atoms: N_9  and  C_3 
REMARK       I    between atoms: N_7  and  C_4 
REMARK    4  A    between atoms: C_8  and  N_7 
REMARK    5  A    between atoms: OXT_21  and  C_10 
REMARK    6  A    between atoms: O_22  and  C_15 
ROOT
ATOM      1  C   UNL d   1      -1.353  -2.414  -0.386  0.00  0.00     0.275 C 
ATOM      2  N   UNL d   1      -0.980  -3.555   0.321  0.00  0.00    -0.318 N 
ATOM      3  O   UNL d   1      -0.557  -1.574  -0.782  0.00  0.00    -0.266 OA
ATOM      4  H   UNL d   1      -1.712  -4.236   0.478  0.00  0.00     0.169 HD
ENDROOT
BRANCH   2   5
ATOM      5  C   UNL d   1       0.370  -3.981   0.338  0.00  0.00     0.079 A 
ATOM      6  C   UNL d   1       0.944  -4.859  -0.610  0.00  0.00     0.132 A 
ATOM      7  N   UNL d   1       2.287  -5.072  -0.591  0.00  0.00    -0.321 N 
ATOM      8  C   UNL d   1       3.060  -4.428   0.309  0.00  0.00     0.143 A 
ATOM      9  HN  UNL d   1       2.711  -5.718  -1.257  1.00  0.00     0.169 HD
ATOM     10  C   UNL d   1       2.558  -3.610   1.296  0.00  0.00     0.058 A 
ATOM     11  C   UNL d   1       1.189  -3.386   1.309  0.00  0.00     0.038 A 
BRANCH   6  12
ATOM     12  N   UNL d   1       0.262  -5.486  -1.630  0.00  0.00    -0.361 N 
ATOM     13  C   UNL d   1       1.026  -5.982  -2.790  0.00  0.00     0.150 C 
ATOM     14  C   UNL d   1       0.872  -7.504  -2.908  0.00  0.00     0.187 C 
ATOM     15  O   UNL d   1      -0.515  -7.871  -3.015  0.00  0.00    -0.388 OA
ATOM     16  C   UNL d   1      -1.231  -7.438  -1.851  0.00  0.00     0.187 C 
ATOM     17  C   UNL d   1      -1.132  -5.917  -1.625  0.00  0.00     0.150 C 
ENDBRANCH   6  12
BRANCH   8  18
ATOM     18  O   UNL d   1       4.435  -4.553   0.250  0.00  0.00    -0.341 OA
ATOM     19  C   UNL d   1       4.883  -5.255  -0.907  0.00  0.00     0.211 C 
ENDBRANCH   8  18
ENDBRANCH   2   5
BRANCH   1  20
ATOM     20  C   UNL d   1      -2.837  -2.225  -0.531  0.00  0.00     0.134 A 
ATOM     21  CA  UNL d   1      -3.438  -1.166  -1.203  0.00  0.00     0.139 A 
ATOM     22  N   UNL d   1      -4.786  -0.882  -1.072  0.00  0.00    -0.357 N 
ATOM     23  C   UNL d   1      -5.504  -1.748  -0.327  0.00  0.00     0.105 A 
ATOM     24  HN  UNL d   1      -5.212  -0.066  -1.512  1.00  0.00     0.165 HD
ATOM     25  C   UNL d   1      -4.926  -2.855   0.268  0.00  0.00     0.105 A 
ATOM     26  N   UNL d   1      -3.595  -3.116   0.200  0.00  0.00    -0.358 N 
ATOM     27  HN  UNL d   1      -3.179  -3.924   0.663  1.00  0.00     0.165 HD
BRANCH  21  28
ATOM     28  C   UNL d   1      -2.790  -0.297  -2.228  0.00  0.00     0.196 C 
ATOM     29  O   UNL d   1      -1.794  -0.553  -2.885  0.00  0.00    -0.645 OA
BRANCH  28  30
ATOM     30  OXT UNL d   1      -3.567   0.792  -2.469  0.00  0.00    -0.772 OA
ATOM     31  HXT UNL d   1      -4.418   0.706  -1.984  0.00  0.00     0.167 HD
ENDBRANCH  28  30
ENDBRANCH  21  28
ENDBRANCH   1  20
TORSDOF 6
