REMARK  4 active torsions:
REMARK  status: ('A' for Active; 'I' for Inactive)
REMARK    1  A    between atoms: N_10  and  C_1 
REMARK    2  A    between atoms: N_6  and  C_15 
REMARK       I    between atoms: C_13  and  N_10 
REMARK    3  A    between atoms: C_14  and  C_13 
REMARK    4  A    between atoms: C_15  and  C_14 
ROOT
ATOM      1  N   UNL d   1       2.077   2.534   0.509  0.00  0.00    -0.311 N 
ATOM      2  C   UNL d   1       1.114   3.512   0.391  0.00  0.00     0.224 C 
ATOM      3  O   UNL d   1       1.330   4.704   0.154  0.00  0.00    -0.273 OA
ATOM      4  H   UNL d   1       1.835   1.551   0.521  0.00  0.00     0.170 HD
ENDROOT
BRANCH   1   5
ATOM      5  C   UNL d   1       3.440   2.802   0.601  0.00  0.00     0.138 C 
ATOM      6  N   UNL d   1       3.962   4.030   0.634  0.00  0.00    -0.282 N 
ATOM      7  N   UNL d   1       5.282   3.847   0.761  0.00  0.00    -0.294 N 
ATOM      8  HN  UNL d   1       3.463   4.917   0.574  1.00  0.00     0.189 HD
ATOM      9  C   UNL d   1       6.162   4.987   0.662  0.00  0.00     0.178 C 
ATOM     10  C   UNL d   1       5.646   2.542   0.943  0.00  0.00     0.067 A 
ATOM     11  C   UNL d   1       4.470   1.824   0.743  0.00  0.00     0.076 A 
ATOM     12  C   UNL d   1       6.875   1.929   1.235  0.00  0.00     0.032 A 
ATOM     13  C   UNL d   1       4.550   0.423   0.751  0.00  0.00     0.132 A 
ATOM     14  F   UNL d   1       3.473  -0.314   0.467  0.00  0.00    -0.205 F 
ATOM     15  C   UNL d   1       5.760  -0.217   1.031  0.00  0.00     0.043 A 
ATOM     16  C   UNL d   1       6.905   0.532   1.294  0.00  0.00     0.005 A 
ENDBRANCH   1   5
BRANCH   2  17
ATOM     17  C   UNL d   1      -0.349   3.106   0.510  0.00  0.00     0.123 C 
BRANCH  17  18
ATOM     18  C   UNL d   1      -0.730   1.829   1.240  0.00  0.00     0.138 C 
BRANCH  18  19
ATOM     19  N   UNL d   1      -0.500   0.616   0.477  0.00  0.00    -0.355 N 
ATOM     20  C   UNL d   1      -0.982   0.388  -0.784  0.00  0.00     0.099 A 
ATOM     21  C   UNL d   1      -0.462  -0.801  -1.246  0.00  0.00    -0.034 A 
ATOM     22  C   UNL d   1      -0.687  -1.407  -2.584  0.00  0.00     0.050 C 
ATOM     23  C   UNL d   1       0.329  -1.346  -0.185  0.00  0.00    -0.002 A 
ATOM     24  C   UNL d   1       0.245  -0.470   0.901  0.00  0.00     0.045 A 
ATOM     25  C   UNL d   1       1.102  -2.517  -0.056  0.00  0.00     0.014 A 
ATOM     26  C   UNL d   1       0.875  -0.746   2.125  0.00  0.00     0.030 A 
ATOM     27  C   UNL d   1       1.629  -1.919   2.232  0.00  0.00     0.002 A 
ATOM     28  C   UNL d   1       1.752  -2.788   1.153  0.00  0.00     0.001 A 
ENDBRANCH  18  19
ENDBRANCH  17  18
ENDBRANCH   2  17
TORSDOF 4
