REMARK  10 active torsions:
REMARK  status: ('A' for Active; 'I' for Inactive)
REMARK    1  A    between atoms: N_4  and  S_1 
REMARK    2  A    between atoms: C_5  and  S_1 
REMARK    3  A    between atoms: S_2  and  N_3 
REMARK    4  A    between atoms: C_6  and  S_2 
REMARK    5  A    between atoms: N_3  and  C_15 
REMARK    6  A    between atoms: C_16  and  N_4 
REMARK    7  A    between atoms: C_7  and  C_14 
REMARK    8  A    between atoms: C_8  and  C_13 
REMARK    9  A    between atoms: C_9  and  C_11 
REMARK   10  A    between atoms: C_10  and  C_12 
ROOT
ATOM      1  C   UNL d   1       1.765   0.966  -2.524  0.00  0.00     0.070 A 
ATOM      2  C   UNL d   1       0.506   0.335  -2.615  0.00  0.00     0.070 A 
ATOM      3  C   UNL d   1       2.184   1.831  -3.546  0.00  0.00     0.032 A 
ATOM      4  C   UNL d   1      -0.278   0.560  -3.757  0.00  0.00     0.032 A 
ATOM      5  C   UNL d   1       0.149   1.423  -4.768  0.00  0.00     0.002 A 
ATOM      6  C   UNL d   1       1.387   2.047  -4.670  0.00  0.00     0.002 A 
ENDROOT
BRANCH   1   7
ATOM      7  N   UNL d   1       2.542   0.928  -1.340  0.00  0.00    -0.278 N 
ATOM      8  H   UNL d   1       2.383   1.670  -0.661  0.00  0.00     0.179 HD
BRANCH   7   9
ATOM      9  S   UNL d   1       4.090   0.301  -1.286  0.00  0.00     0.263 S 
ATOM     10  O   UNL d   1       4.564   0.003  -2.620  0.00  0.00    -0.200 OA
ATOM     11  O   UNL d   1       4.846   1.134  -0.377  0.00  0.00    -0.200 OA
BRANCH   9  12
ATOM     12  C   UNL d   1       3.779  -1.246  -0.461  0.00  0.00     0.081 A 
ATOM     13  C   UNL d   1       3.438  -2.367  -1.217  0.00  0.00     0.041 A 
ATOM     14  C   UNL d   1       3.087  -3.562  -0.574  0.00  0.00     0.050 A 
ATOM     15  C   UNL d   1       3.095  -3.608   0.833  0.00  0.00     0.032 A 
ATOM     16  C   UNL d   1       3.468  -2.490   1.602  0.00  0.00     0.050 A 
ATOM     17  C   UNL d   1       3.823  -1.305   0.940  0.00  0.00     0.041 A 
BRANCH  14  18
ATOM     18  C   UNL d   1       2.645  -4.763  -1.375  0.00  0.00     0.417 C 
ATOM     19  F   UNL d   1       2.979  -4.677  -2.693  0.00  0.00    -0.166 F 
ATOM     20  F   UNL d   1       3.188  -5.927  -0.926  0.00  0.00    -0.166 F 
ATOM     21  F   UNL d   1       1.296  -4.937  -1.350  0.00  0.00    -0.166 F 
ENDBRANCH  14  18
BRANCH  16  22
ATOM     22  C   UNL d   1       3.438  -2.567   3.111  0.00  0.00     0.417 C 
ATOM     23  F   UNL d   1       3.869  -1.431   3.727  0.00  0.00    -0.166 F 
ATOM     24  F   UNL d   1       2.189  -2.805   3.596  0.00  0.00    -0.166 F 
ATOM     25  F   UNL d   1       4.222  -3.571   3.590  0.00  0.00    -0.166 F 
ENDBRANCH  16  22
ENDBRANCH   9  12
ENDBRANCH   7   9
ENDBRANCH   1   7
BRANCH   2  26
ATOM     26  N   UNL d   1       0.080  -0.783  -1.832  0.00  0.00    -0.278 N 
ATOM     27  H   UNL d   1       0.203  -1.696  -2.273  0.00  0.00     0.179 HD
BRANCH  26  28
ATOM     28  S   UNL d   1      -0.003  -0.902  -0.176  0.00  0.00     0.263 S 
ATOM     29  O   UNL d   1       0.974  -0.059   0.474  0.00  0.00    -0.200 OA
ATOM     30  O   UNL d   1      -0.067  -2.320   0.104  0.00  0.00    -0.200 OA
BRANCH  28  31
ATOM     31  C   UNL d   1      -1.597  -0.261   0.284  0.00  0.00     0.081 A 
ATOM     32  C   UNL d   1      -2.764  -0.672  -0.368  0.00  0.00     0.041 A 
ATOM     33  C   UNL d   1      -4.016  -0.290   0.147  0.00  0.00     0.050 A 
ATOM     34  C   UNL d   1      -4.069   0.494   1.318  0.00  0.00     0.032 A 
ATOM     35  C   UNL d   1      -2.898   0.897   1.980  0.00  0.00     0.050 A 
ATOM     36  C   UNL d   1      -1.663   0.531   1.438  0.00  0.00     0.041 A 
BRANCH  33  37
ATOM     37  C   UNL d   1      -5.311  -0.755  -0.485  0.00  0.00     0.417 C 
ATOM     38  F   UNL d   1      -5.130  -1.480  -1.622  0.00  0.00    -0.166 F 
ATOM     39  F   UNL d   1      -6.038  -1.542   0.354  0.00  0.00    -0.166 F 
ATOM     40  F   UNL d   1      -6.123   0.283  -0.824  0.00  0.00    -0.166 F 
ENDBRANCH  33  37
BRANCH  35  41
ATOM     41  C   UNL d   1      -2.970   1.651   3.288  0.00  0.00     0.417 C 
ATOM     42  F   UNL d   1      -1.751   1.869   3.854  0.00  0.00    -0.166 F 
ATOM     43  F   UNL d   1      -3.547   2.874   3.152  0.00  0.00    -0.166 F 
ATOM     44  F   UNL d   1      -3.702   0.986   4.223  0.00  0.00    -0.166 F 
ENDBRANCH  35  41
ENDBRANCH  28  31
ENDBRANCH  26  28
ENDBRANCH   2  26
TORSDOF 10
