REMARK  3 active torsions:
REMARK  status: ('A' for Active; 'I' for Inactive)
REMARK    1  A    between atoms: N_5  and  C_2 
REMARK    2  A    between atoms: N_7  and  N_16 
REMARK    3  A    between atoms: N_16  and  C_13 
ROOT
ATOM      1  C   UNL d   1      -0.376  -0.722   0.196  0.00  0.00    -0.009 C 
ATOM      2  C   UNL d   1       0.838  -1.407   0.316  0.00  0.00     0.118 C 
ATOM      3  C   UNL d   1      -0.327   0.674   0.101  0.00  0.00    -0.038 C 
ATOM      4  C   UNL d   1      -1.812  -1.216   0.169  0.00  0.00    -0.017 C 
ATOM      5  C   UNL d   1       2.083  -0.727   0.357  0.00  0.00    -0.000 C 
ATOM      6  C   UNL d   1      -1.699   1.302   0.113  0.00  0.00    -0.019 C 
ATOM      7  C   UNL d   1       2.107   0.661   0.085  0.00  0.00     0.057 C 
ATOM      8  C   UNL d   1       0.888   1.355   0.026  0.00  0.00     0.040 C 
ATOM      9  C   UNL d   1      -2.575   0.081  -0.245  0.00  0.00     0.027 C 
ATOM     10  C   UNL d   1      -2.312  -1.710   1.535  0.00  0.00     0.020 C 
ATOM     11  C   UNL d   1      -2.078  -2.296  -0.892  0.00  0.00     0.020 C 
ATOM     12  C   UNL d   1       3.361  -1.457   0.699  0.00  0.00     0.053 C 
ATOM     13  C   UNL d   1      -2.012   1.864   1.506  0.00  0.00     0.020 C 
ATOM     14  C   UNL d   1      -1.875   2.411  -0.932  0.00  0.00     0.020 C 
ENDROOT
BRANCH   7  15
ATOM     15  N   UNL d   1       3.345   1.354  -0.015  0.00  0.00    -0.300 N 
ATOM     16  H   UNL d   1       4.078   0.741  -0.403  0.00  0.00     0.187 HD
BRANCH  15  17
ATOM     17  N   UNL d   1       3.319   2.646  -0.479  0.00  0.00    -0.294 N 
ATOM     18  C   UNL d   1       4.458   3.180  -0.826  0.00  0.00     0.140 C 
ATOM     19  C   UNL d   1       4.479   4.599  -1.350  0.00  0.00     0.181 C 
ATOM     20  C   UNL d   1       5.777   2.463  -0.693  0.00  0.00     0.181 C 
ATOM     21  C   UNL d   1       5.833   5.274  -1.333  0.00  0.00     0.095 C 
ATOM     22  O   UNL d   1       3.482   5.113  -1.837  0.00  0.00    -0.291 OA
ATOM     23  C   UNL d   1       6.727   4.807  -0.164  0.00  0.00    -0.034 C 
ATOM     24  C   UNL d   1       6.937   3.275  -0.180  0.00  0.00     0.095 C 
ATOM     25  C   UNL d   1       8.113   5.473  -0.304  0.00  0.00     0.015 C 
ATOM     26  C   UNL d   1       6.123   5.271   1.178  0.00  0.00     0.015 C 
ATOM     27  O   UNL d   1       5.862   1.277  -0.993  0.00  0.00    -0.291 OA
ATOM     28  HN  UNL d   1       2.445   3.167  -0.550  1.00  0.00     0.187 HD
ENDBRANCH  15  17
ENDBRANCH   7  15
BRANCH   2  29
ATOM     29  N   UNL d   1       0.855  -2.859   0.351  0.00  0.00    -0.114 N 
ATOM     30  O   UNL d   1       0.452  -3.408   1.383  0.00  0.00    -0.532 OA
ATOM     31  O   UNL d   1       1.303  -3.432  -0.651  0.00  0.00    -0.532 OA
ENDBRANCH   2  29
TORSDOF 3
