REMARK  2 active torsions:
REMARK  status: ('A' for Active; 'I' for Inactive)
REMARK       I    between atoms: N_2  and  C_1 
REMARK       I    between atoms: N_3  and  C_1 
REMARK    1  A    between atoms: C_7  and  N_2 
REMARK    2  A    between atoms: C_6  and  N_5 
ROOT
ATOM      1  C   UNL d   1       1.014  -0.034   0.012  0.00  0.00     0.323 C 
ATOM      2  N   UNL d   1       0.410   0.474  -1.113  0.00  0.00    -0.307 N 
ATOM      3  N   UNL d   1       0.326  -1.070   0.617  0.00  0.00    -0.331 N 
ATOM      4  N   UNL d   1      -0.625  -3.484   1.776  0.00  0.00    -0.377 N 
ATOM      5  O   UNL d   1       2.071   0.398   0.475  0.00  0.00    -0.247 OA
ATOM      6  C   UNL d   1       0.735  -1.470   1.971  0.00  0.00     0.147 C 
ATOM      7  C   UNL d   1      -0.904  -1.708   0.107  0.00  0.00     0.147 C 
ATOM      8  C   UNL d   1       0.723  -2.998   2.146  0.00  0.00     0.143 C 
ATOM      9  C   UNL d   1      -0.930  -3.234   0.357  0.00  0.00     0.143 C 
ATOM     10  H   UNL d   1      -0.583   0.617  -0.970  0.00  0.00     0.170 HD
ENDROOT
BRANCH   2  11
ATOM     11  C   UNL d   1       1.018   1.483  -1.907  0.00  0.00     0.064 A 
ATOM     12  C   UNL d   1       0.251   2.621  -2.227  0.00  0.00     0.061 A 
ATOM     13 CL   UNL d   1      -1.394   2.765  -1.700  0.00  0.00    -0.082 Cl
ATOM     14  C   UNL d   1       0.804   3.682  -2.944  0.00  0.00     0.026 A 
ATOM     15  C   UNL d   1       2.126   3.608  -3.372  0.00  0.00     0.002 A 
ATOM     16  C   UNL d   1       2.879   2.465  -3.109  0.00  0.00     0.009 A 
ATOM     17  C   UNL d   1       2.334   1.379  -2.397  0.00  0.00    -0.034 A 
ATOM     18  C   UNL d   1       3.206   0.163  -2.230  0.00  0.00     0.050 C 
ENDBRANCH   2  11
BRANCH   4  19
ATOM     19  C   UNL d   1      -1.128  -4.597   2.449  0.00  0.00     0.044 A 
ATOM     20  C   UNL d   1      -1.395  -4.553   3.851  0.00  0.00     0.017 A 
ATOM     21  C   UNL d   1      -1.897  -5.721   4.473  0.00  0.00     0.046 A 
ATOM     22  C   UNL d   1      -1.225  -3.397   4.653  0.00  0.00     0.018 A 
ATOM     23  C   UNL d   1      -2.142  -5.713   5.839  0.00  0.00     0.054 A 
ATOM     24  N   UNL d   1      -2.165  -6.848   3.797  0.00  0.00    -0.365 N 
ATOM     25  C   UNL d   1      -1.917  -4.577   6.614  0.00  0.00     0.036 A 
ATOM     26  C   UNL d   1      -1.463  -3.410   6.024  0.00  0.00     0.025 A 
ATOM     27 CL   UNL d   1      -2.219  -4.613   8.306  0.00  0.00    -0.084 Cl
ATOM     28  C   UNL d   1      -1.944  -6.854   2.470  0.00  0.00     0.090 A 
ATOM     29  HN  UNL d   1      -2.525  -7.674   4.275  1.00  0.00     0.165 HD
ATOM     30  C   UNL d   1      -1.432  -5.778   1.767  0.00  0.00     0.047 A 
ENDBRANCH   4  19
TORSDOF 2
