REMARK  5 active torsions:
REMARK  status: ('A' for Active; 'I' for Inactive)
REMARK    1  A    between atoms: C_15  and  C_3 
REMARK    2  A    between atoms: C_6  and  C_9 
REMARK    3  A    between atoms: C_18  and  C_7 
REMARK    4  A    between atoms: C_8  and  C_16 
REMARK       I    between atoms: C_9  and  N_13 
REMARK    5  A    between atoms: N_13  and  C_18 
ROOT
ATOM      1  N   UNL d   1       1.279   0.174   0.031  0.00  0.00    -0.321 N 
ATOM      2  HN  UNL d   1       2.286   0.313  -0.046  1.00  0.00     0.169 HD
ATOM      3  C   UNL d   1       0.275   1.121   0.075  0.00  0.00     0.137 A 
ATOM      4  N   UNL d   1      -0.959   0.600   0.176  0.00  0.00    -0.242 N 
ATOM      5  HN  UNL d   1      -1.849   1.097   0.223  1.00  0.00     0.196 HD
ATOM      6  C   UNL d   1       0.605  -0.953   0.113  0.00  0.00     0.166 A 
ATOM      7  O   UNL d   1      -0.742  -0.773   0.204  0.00  0.00    -0.221 OA
ENDROOT
BRANCH   6   8
ATOM      8  C   UNL d   1       1.090  -2.353   0.101  0.00  0.00     0.209 C 
BRANCH   8   9
ATOM      9  N   UNL d   1       1.472  -2.767   1.436  0.00  0.00    -0.349 N 
ATOM     10  C   UNL d   1       0.598  -3.413   2.278  0.00  0.00     0.255 C 
ATOM     11  O   UNL d   1      -0.566  -3.647   1.967  0.00  0.00    -0.268 OA
ATOM     12  H   UNL d   1       2.389  -2.490   1.770  0.00  0.00     0.163 HD
BRANCH  10  13
ATOM     13  C   UNL d   1       1.122  -3.859   3.601  0.00  0.00     0.070 A 
ATOM     14  C   UNL d   1       2.469  -3.737   3.962  0.00  0.00     0.135 A 
ATOM     15  C   UNL d   1       2.944  -4.252   5.166  0.00  0.00     0.085 A 
ATOM     16  F   UNL d   1       3.349  -3.126   3.154  0.00  0.00    -0.205 F 
ATOM     17  C   UNL d   1       2.058  -4.884   6.027  0.00  0.00     0.119 A 
ATOM     18  C   UNL d   1       0.708  -4.994   5.711  0.00  0.00     0.043 A 
ATOM     19  F   UNL d   1       2.512  -5.398   7.177  0.00  0.00    -0.206 F 
ATOM     20  C   UNL d   1       0.239  -4.484   4.497  0.00  0.00     0.023 A 
ENDBRANCH  10  13
ENDBRANCH   8   9
ENDBRANCH   6   8
BRANCH   3  21
ATOM     21  C   UNL d   1       0.544   2.554   0.017  0.00  0.00     0.010 A 
ATOM     22  C   UNL d   1       1.855   3.030  -0.121  0.00  0.00     0.016 A 
ATOM     23  C   UNL d   1       2.115   4.405  -0.163  0.00  0.00     0.017 A 
ATOM     24  C   UNL d   1       1.067   5.331  -0.065  0.00  0.00     0.048 A 
ATOM     25  C   UNL d   1      -0.246   4.856   0.066  0.00  0.00     0.017 A 
ATOM     26  C   UNL d   1      -0.503   3.482   0.105  0.00  0.00     0.016 A 
BRANCH  24  27
ATOM     27  C   UNL d   1       1.326   6.818  -0.093  0.00  0.00     0.417 C 
ATOM     28  F   UNL d   1       2.644   7.140  -0.209  0.00  0.00    -0.166 F 
ATOM     29  F   UNL d   1       0.698   7.436  -1.131  0.00  0.00    -0.166 F 
ATOM     30  F   UNL d   1       0.887   7.443   1.035  0.00  0.00    -0.166 F 
ENDBRANCH  24  27
ENDBRANCH   3  21
TORSDOF 5
