REMARK  4 active torsions:
REMARK  status: ('A' for Active; 'I' for Inactive)
REMARK    1  A    between atoms: C_6  and  N_1 
REMARK    2  A    between atoms: C_7  and  C_12 
REMARK    3  A    between atoms: O_19  and  C_7 
REMARK    4  A    between atoms: C_21  and  O_19 
ROOT
ATOM      1  N   UNL d   1       2.493   0.022   0.087  0.00  0.00    -0.252 N 
ATOM      2  C   UNL d   1       1.712  -1.132   0.028  0.00  0.00     0.236 C 
ATOM      3  C   UNL d   1       1.698   1.159   0.129  0.00  0.00     0.236 C 
ATOM      4  C   UNL d   1       0.329  -0.651  -0.316  0.00  0.00     0.092 C 
ATOM      5  C   UNL d   1       0.304   0.680   0.406  0.00  0.00     0.092 C 
ATOM      6  C   UNL d   1      -0.867   1.520  -0.062  0.00  0.00     0.015 C 
ATOM      7  O   UNL d   1       2.022  -2.305   0.153  0.00  0.00    -0.272 OA
ATOM      8  O   UNL d   1       1.998   2.334  -0.010  0.00  0.00    -0.272 OA
ATOM      9  C   UNL d   1      -0.891  -1.467   0.053  0.00  0.00     0.019 C 
ATOM     10  C   UNL d   1      -2.168   0.747   0.204  0.00  0.00     0.005 C 
ATOM     11  C   UNL d   1      -2.167  -0.694  -0.363  0.00  0.00    -0.018 C 
ATOM     12  C   UNL d   1      -2.336  -0.673  -1.889  0.00  0.00     0.010 C 
ENDROOT
BRANCH   1  13
ATOM     13  C   UNL d   1       3.911   0.037   0.047  0.00  0.00     0.045 A 
ATOM     14  C   UNL d   1       4.639  -1.060  -0.436  0.00  0.00     0.031 A 
ATOM     15  C   UNL d   1       6.034  -1.022  -0.520  0.00  0.00     0.020 A 
ATOM     16  C   UNL d   1       6.731   0.119  -0.104  0.00  0.00     0.039 A 
ATOM     17  C   UNL d   1       6.024   1.214   0.385  0.00  0.00     0.020 A 
ATOM     18  C   UNL d   1       4.631   1.170   0.459  0.00  0.00     0.031 A 
BRANCH  16  19
ATOM     19  C   UNL d   1       8.198   0.235  -0.256  0.00  0.00     0.293 C 
ATOM     20  O   UNL d   1       8.781   1.299  -0.383  0.00  0.00    -0.259 OA
BRANCH  19  21
ATOM     21  O   UNL d   1       8.747  -1.002  -0.288  0.00  0.00    -0.318 OA
BRANCH  21  22
ATOM     22  C   UNL d   1      10.073  -1.068  -0.823  0.00  0.00     0.174 C 
ATOM     23  C   UNL d   1       9.949  -1.313  -2.315  0.00  0.00     0.034 C 
ENDBRANCH  21  22
ENDBRANCH  19  21
ENDBRANCH  16  19
ENDBRANCH   1  13
TORSDOF 4
