REMARK  1 active torsions:
REMARK  status: ('A' for Active; 'I' for Inactive)
REMARK    1  A    between atoms: C_3  and  C_1 
REMARK       I    between atoms: N_5  and  C_3 
ROOT
ATOM      1  C   UNL d   1       2.046  -1.013  -0.091  0.00  0.00     0.074 C 
ATOM      2  S   UNL d   1       1.593   0.287   0.928  0.00  0.00    -0.084 SA
ATOM      3  C   UNL d   1       0.995  -1.377  -0.907  0.00  0.00     0.037 C 
ATOM      4  C   UNL d   1      -0.043   0.257   0.395  0.00  0.00     0.016 A 
ATOM      5  C   UNL d   1      -0.236  -0.716  -0.587  0.00  0.00    -0.018 A 
ATOM      6  C   UNL d   1      -1.103   1.069   0.841  0.00  0.00     0.019 A 
ATOM      7  C   UNL d   1      -1.539  -0.901  -1.106  0.00  0.00     0.013 A 
ATOM      8  C   UNL d   1      -2.380   0.864   0.312  0.00  0.00     0.001 A 
ATOM      9  C   UNL d   1      -2.600  -0.119  -0.644  0.00  0.00     0.001 A 
ENDROOT
BRANCH   1  10
ATOM     10  C   UNL d   1       3.418  -1.508  -0.033  0.00  0.00     0.260 C 
ATOM     11  N   UNL d   1       3.642  -2.892  -0.133  0.00  0.00    -0.344 N 
ATOM     12  C   UNL d   1       2.611  -3.918  -0.320  0.00  0.00     0.152 C 
ATOM     13  C   UNL d   1       5.011  -3.343  -0.410  0.00  0.00     0.152 C 
ATOM     14  C   UNL d   1       3.021  -5.279   0.251  0.00  0.00     0.187 C 
ATOM     15  O   UNL d   1       4.310  -5.676  -0.228  0.00  0.00    -0.388 OA
ATOM     16  C   UNL d   1       5.299  -4.723   0.185  0.00  0.00     0.187 C 
ATOM     17  O   UNL d   1       4.372  -0.742   0.106  0.00  0.00    -0.267 OA
ENDBRANCH   1  10
TORSDOF 1
