REMARK  7 active torsions:
REMARK  status: ('A' for Active; 'I' for Inactive)
REMARK    1  A    between atoms: N_16  and  C_2 
REMARK    2  A    between atoms: C_11  and  C_6 
REMARK    3  A    between atoms: N_7  and  C_9 
REMARK    4  A    between atoms: C_22  and  N_16 
REMARK    5  A    between atoms: C_17  and  C_22 
REMARK    6  A    between atoms: C_23  and  C_17 
REMARK    7  A    between atoms: O_21  and  C_23 
ROOT
ATOM      1  C   UNL d   1      -1.387  -0.353  -0.062  0.00  0.00     0.140 C 
ATOM      2  C   UNL d   1      -0.489  -1.359  -0.167  0.00  0.00     0.074 C 
ATOM      3  S   UNL d   1       1.209  -1.046  -0.476  0.00  0.00    -0.086 SA
ATOM      4  C   UNL d   1      -1.031   1.088  -0.088  0.00  0.00     0.265 C 
ATOM      5  N   UNL d   1       0.262   1.476  -0.180  0.00  0.00    -0.339 N 
ATOM      6  C   UNL d   1       1.444   0.676  -0.066  0.00  0.00     0.186 C 
ATOM      7  C   UNL d   1      -2.782  -0.642   0.067  0.00  0.00     0.107 C 
ATOM      8  N   UNL d   1      -3.898  -0.950   0.142  0.00  0.00    -0.191 NA
ATOM      9  O   UNL d   1      -1.893   1.964  -0.030  0.00  0.00    -0.267 OA
ATOM     10  H   UNL d   1       0.379   2.482  -0.174  0.00  0.00     0.164 HD
ENDROOT
BRANCH   2  11
ATOM     11  N   UNL d   1      -0.848  -2.720  -0.142  0.00  0.00    -0.286 NA
ATOM     12  H   UNL d   1      -1.738  -2.880  -0.617  0.00  0.00     0.128 HD
BRANCH  11  13
ATOM     13  C   UNL d   1      -0.891  -3.437   1.143  0.00  0.00     0.095 C 
BRANCH  13  14
ATOM     14  C   UNL d   1      -0.644  -4.925   0.909  0.00  0.00     0.041 C 
BRANCH  14  15
ATOM     15  C   UNL d   1      -0.681  -5.707   2.217  0.00  0.00     0.168 C 
BRANCH  15  16
ATOM     16  O   UNL d   1      -1.969  -5.559   2.810  0.00  0.00    -0.396 OA
ATOM     17  C   UNL d   1      -2.062  -6.235   4.057  0.00  0.00     0.201 C 
ENDBRANCH  15  16
ENDBRANCH  14  15
ENDBRANCH  13  14
ENDBRANCH  11  13
ENDBRANCH   2  11
BRANCH   6  18
ATOM     18  C   UNL d   1       2.193   0.861   1.244  0.00  0.00    -0.023 A 
ATOM     19  C   UNL d   1       1.550   1.180   2.451  0.00  0.00     0.046 A 
ATOM     20  C   UNL d   1       2.300   1.335   3.629  0.00  0.00     0.103 A 
ATOM     21  C   UNL d   1       3.691   1.166   3.627  0.00  0.00     0.036 A 
ATOM     22  C   UNL d   1       4.334   0.837   2.438  0.00  0.00     0.003 A 
ATOM     23  C   UNL d   1       3.594   0.686   1.262  0.00  0.00     0.010 A 
BRANCH  20  24
ATOM     24  N   UNL d   1       1.619   1.683   4.885  0.00  0.00    -0.116 N 
ATOM     25  O   UNL d   1       0.387   1.809   4.854  0.00  0.00    -0.532 OA
ATOM     26  O   UNL d   1       2.316   1.830   5.899  0.00  0.00    -0.532 OA
ENDBRANCH  20  24
ENDBRANCH   6  18
TORSDOF 7
