REMARK  3 active torsions:
REMARK  status: ('A' for Active; 'I' for Inactive)
REMARK    1  A    between atoms: N_3  and  C_1 
REMARK    2  A    between atoms: N_2  and  C_5 
REMARK    3  A    between atoms: N_9  and  C_4 
REMARK       I    between atoms: C_12  and  N_9 
ROOT
ATOM      1  C   UNL d   1      -1.386   1.104  -0.221  0.00  0.00     0.132 A 
ATOM      2  C   UNL d   1      -0.996   0.651   1.052  0.00  0.00     0.070 A 
ATOM      3  C   UNL d   1       0.249  -1.210  -0.006  0.00  0.00     0.071 A 
ATOM      4  C   UNL d   1      -0.948   0.443  -1.375  0.00  0.00     0.083 A 
ATOM      5  C   UNL d   1      -0.198  -0.510   1.131  0.00  0.00     0.064 A 
ATOM      6  C   UNL d   1      -0.144  -0.686  -1.252  0.00  0.00     0.145 A 
ATOM      7  F   UNL d   1       0.294  -1.240  -2.394  0.00  0.00    -0.204 F 
ENDROOT
BRANCH   3   8
ATOM      8  N   UNL d   1       1.081  -2.323   0.085  0.00  0.00    -0.378 N 
ATOM      9  C   UNL d   1       1.898  -2.564   1.276  0.00  0.00     0.127 C 
ATOM     10  C   UNL d   1       3.242  -3.168   0.832  0.00  0.00    -0.000 C 
ATOM     11  C   UNL d   1       4.132  -3.464   2.036  0.00  0.00     0.011 C 
ATOM     12  C   UNL d   1       3.024  -4.431  -0.014  0.00  0.00     0.011 C 
ATOM     13  C   UNL d   1       2.090  -4.147  -1.201  0.00  0.00    -0.000 C 
ATOM     14  C   UNL d   1       0.776  -3.518  -0.713  0.00  0.00     0.127 C 
ATOM     15  C   UNL d   1       1.828  -5.425  -1.996  0.00  0.00     0.011 C 
ENDBRANCH   3   8
BRANCH   2  16
ATOM     16  N   UNL d   1      -1.404   1.321   2.235  0.00  0.00    -0.325 N 
ATOM     17  C   UNL d   1      -0.690   1.378   3.418  0.00  0.00     0.218 C 
ATOM     18  O   UNL d   1       0.425   0.904   3.606  0.00  0.00    -0.274 OA
ATOM     19  C   UNL d   1      -1.390   2.177   4.488  0.00  0.00     0.117 C 
ATOM     20  H   UNL d   1      -2.140   2.021   2.125  0.00  0.00     0.169 HD
ENDBRANCH   2  16
BRANCH   1  21
ATOM     21  N   UNL d   1      -2.203   2.314  -0.394  0.00  0.00    -0.113 N 
ATOM     22  O   UNL d   1      -2.771   2.785   0.601  0.00  0.00    -0.532 OA
ATOM     23  O   UNL d   1      -2.284   2.798  -1.534  0.00  0.00    -0.532 OA
ENDBRANCH   1  21
TORSDOF 3
