REMARK  4 active torsions:
REMARK  status: ('A' for Active; 'I' for Inactive)
REMARK       I    between atoms: C_2  and  N_1 
REMARK       I    between atoms: C_5  and  N_1 
REMARK       I    between atoms: N_11  and  C_2 
REMARK    1  A    between atoms: C_3  and  C_6 
REMARK    2  A    between atoms: C_4  and  C_7 
REMARK    3  A    between atoms: C_8  and  C_5 
REMARK    4  A    between atoms: C_10  and  N_11 
ROOT
ATOM      1  N   UNL d   1      -0.954  -1.027  -0.591  0.00  0.00    -0.275 N 
ATOM      2  C   UNL d   1       0.398  -1.097  -0.347  0.00  0.00     0.327 C 
ATOM      3  C   UNL d   1      -1.744  -1.860  -1.361  0.00  0.00     0.259 C 
ATOM      4  N   UNL d   1       1.085  -2.051  -1.048  0.00  0.00    -0.309 N 
ATOM      5  O   UNL d   1       0.856  -0.321   0.489  0.00  0.00    -0.247 OA
ATOM      6  O   UNL d   1      -1.304  -2.787  -2.036  0.00  0.00    -0.267 OA
ATOM      7  H   UNL d   1      -1.389  -0.354   0.022  0.00  0.00     0.173 HD
ATOM      8  H   UNL d   1       0.536  -2.555  -1.743  0.00  0.00     0.170 HD
ENDROOT
BRANCH   4   9
ATOM      9  C   UNL d   1       2.414  -2.470  -0.845  0.00  0.00     0.037 A 
ATOM     10  C   UNL d   1       3.229  -1.971   0.174  0.00  0.00     0.045 A 
ATOM     11  C   UNL d   1       4.507  -2.501   0.411  0.00  0.00     0.050 A 
ATOM     12  C   UNL d   1       4.984  -3.526  -0.418  0.00  0.00     0.032 A 
ATOM     13  C   UNL d   1       4.191  -4.031  -1.460  0.00  0.00     0.050 A 
ATOM     14  C   UNL d   1       2.909  -3.489  -1.667  0.00  0.00     0.045 A 
BRANCH  11  15
ATOM     15  C   UNL d   1       5.315  -1.979   1.575  0.00  0.00     0.417 C 
ATOM     16  F   UNL d   1       6.475  -2.665   1.776  0.00  0.00    -0.166 F 
ATOM     17  F   UNL d   1       5.673  -0.675   1.424  0.00  0.00    -0.166 F 
ATOM     18  F   UNL d   1       4.635  -2.051   2.752  0.00  0.00    -0.166 F 
ENDBRANCH  11  15
BRANCH  13  19
ATOM     19  C   UNL d   1       4.684  -5.158  -2.336  0.00  0.00     0.417 C 
ATOM     20  F   UNL d   1       5.869  -5.687  -1.921  0.00  0.00    -0.166 F 
ATOM     21  F   UNL d   1       3.808  -6.200  -2.382  0.00  0.00    -0.166 F 
ATOM     22  F   UNL d   1       4.878  -4.771  -3.626  0.00  0.00    -0.166 F 
ENDBRANCH  13  19
ENDBRANCH   4   9
BRANCH   3  23
ATOM     23  C   UNL d   1      -3.205  -1.580  -1.332  0.00  0.00     0.035 A 
ATOM     24  C   UNL d   1      -3.703  -0.283  -1.147  0.00  0.00     0.036 A 
ATOM     25  C   UNL d   1      -5.082  -0.070  -1.136  0.00  0.00     0.013 A 
ATOM     26 BR   UNL d   1      -5.749   1.682  -0.887  0.00  0.00    -0.051 Br
ATOM     27  C   UNL d   1      -5.969  -1.128  -1.314  0.00  0.00     0.038 A 
ATOM     28  C   UNL d   1      -5.467  -2.413  -1.510  0.00  0.00     0.013 A 
ATOM     29  C   UNL d   1      -4.092  -2.646  -1.524  0.00  0.00     0.036 A 
ATOM     30 BR   UNL d   1      -6.664  -3.854  -1.762  0.00  0.00    -0.051 Br
ENDBRANCH   3  23
TORSDOF 4
