REMARK  2 active torsions:
REMARK  status: ('A' for Active; 'I' for Inactive)
REMARK    1  A    between atoms: C_8  and  C_6 
REMARK    2  A    between atoms: C_9  and  C_10 
ROOT
ATOM      1  C   UNL d   1       1.332   0.738   0.021  0.00  0.00     0.302 A 
ATOM      2  N   UNL d   1       0.443  -1.905  -0.011  0.00  0.00    -0.336 N 
ATOM      3  HN  UNL d   1       0.157  -2.885  -0.019  1.00  0.00     0.168 HD
ATOM      4  O   UNL d   1       2.184  -0.315   0.006  0.00  0.00    -0.257 OA
ATOM      5  C   UNL d   1      -0.107   0.451   0.015  0.00  0.00     0.066 A 
ATOM      6  C   UNL d   1       1.690  -1.570  -0.012  0.00  0.00     0.152 A 
ATOM      7  C   UNL d   1      -0.494  -0.879   0.003  0.00  0.00     0.050 A 
ATOM      8  O   UNL d   1       1.740   1.894   0.036  0.00  0.00    -0.259 OA
ATOM      9  C   UNL d   1      -1.060   1.477   0.018  0.00  0.00     0.020 A 
ATOM     10  C   UNL d   1      -1.854  -1.194  -0.006  0.00  0.00     0.030 A 
ATOM     11  C   UNL d   1      -2.417   1.157   0.009  0.00  0.00     0.001 A 
ATOM     12  C   UNL d   1      -2.814  -0.180  -0.003  0.00  0.00     0.002 A 
ENDROOT
BRANCH   6  13
ATOM     13  C   UNL d   1       2.749  -2.595  -0.049  0.00  0.00     0.059 C 
ATOM     14  C   UNL d   1       4.067  -2.344  -0.062  0.00  0.00     0.041 C 
BRANCH  14  15
ATOM     15  C   UNL d   1       4.989  -3.425  -0.134  0.00  0.00     0.075 A 
ATOM     16  O   UNL d   1       4.611  -4.749  -0.209  0.00  0.00    -0.323 OA
ATOM     17  C   UNL d   1       5.724  -5.514  -0.280  0.00  0.00     0.142 A 
ATOM     18  C   UNL d   1       6.846  -4.727  -0.251  0.00  0.00     0.027 A 
ATOM     19  C   UNL d   1       6.379  -3.393  -0.156  0.00  0.00     0.039 A 
ENDBRANCH  14  15
ENDBRANCH   6  13
TORSDOF 2
