REMARK  2 active torsions:
REMARK  status: ('A' for Active; 'I' for Inactive)
REMARK    1  A    between atoms: C_11  and  C_3 
REMARK    2  A    between atoms: N_9  and  C_4 
REMARK       I    between atoms: C_10  and  N_9 
ROOT
ATOM      1  N   UNL d   1       2.222   1.219   0.040  0.00  0.00    -0.360 N 
ATOM      2  HN  UNL d   1       3.021   1.783   0.330  1.00  0.00     0.162 HD
ATOM      3  C   UNL d   1       1.035   1.490   0.469  0.00  0.00     0.053 C 
ATOM      4  C   UNL d   1       2.401   0.097  -0.863  0.00  0.00     0.279 C 
ATOM      5  N   UNL d   1       0.904  -1.509   0.328  0.00  0.00    -0.323 N 
ATOM      6  C   UNL d   1       2.189  -1.218  -0.067  0.00  0.00     0.264 C 
ATOM      7  C   UNL d   1      -0.197   0.711   0.124  0.00  0.00     0.018 A 
ATOM      8  C   UNL d   1      -0.228  -0.694   0.169  0.00  0.00     0.047 A 
ATOM      9  O   UNL d   1       3.088  -2.027   0.181  0.00  0.00    -0.269 OA
ATOM     10  C   UNL d   1      -1.380   1.421  -0.147  0.00  0.00     0.016 A 
ATOM     11  C   UNL d   1      -1.459  -1.355   0.059  0.00  0.00     0.030 A 
ATOM     12  C   UNL d   1      -2.592   0.747  -0.299  0.00  0.00     0.001 A 
ATOM     13  C   UNL d   1      -2.634  -0.638  -0.178  0.00  0.00     0.002 A 
ATOM     14  H   UNL d   1       0.788  -2.471   0.619  0.00  0.00     0.169 HD
ENDROOT
BRANCH   3  15
ATOM     15  C   UNL d   1       0.918   2.670   1.394  0.00  0.00    -0.009 A 
ATOM     16  C   UNL d   1       1.815   3.736   1.240  0.00  0.00     0.014 A 
ATOM     17  C   UNL d   1       1.749   4.842   2.089  0.00  0.00     0.001 A 
ATOM     18  C   UNL d   1       0.788   4.888   3.097  0.00  0.00     0.000 A 
ATOM     19  C   UNL d   1      -0.098   3.825   3.266  0.00  0.00     0.001 A 
ATOM     20  C   UNL d   1      -0.029   2.712   2.425  0.00  0.00     0.014 A 
ENDBRANCH   3  15
BRANCH   4  21
ATOM     21  N   UNL d   1       3.758   0.197  -1.330  0.00  0.00    -0.332 N 
ATOM     22  C   UNL d   1       4.139  -0.363  -2.519  0.00  0.00     0.215 C 
ATOM     23  O   UNL d   1       3.353  -0.865  -3.318  0.00  0.00    -0.274 OA
ATOM     24  C   UNL d   1       5.613  -0.263  -2.804  0.00  0.00     0.117 C 
ATOM     25  H   UNL d   1       4.442   0.375  -0.611  0.00  0.00     0.165 HD
ENDBRANCH   4  21
TORSDOF 2
