REMARK  9 active torsions:
REMARK  status: ('A' for Active; 'I' for Inactive)
REMARK    1  A    between atoms: N_3  and  C_1 
REMARK    2  A    between atoms: N_4  and  C_2 
REMARK    3  A    between atoms: C_6  and  C_11 
REMARK    4  A    between atoms: C_7  and  C_12 
REMARK    5  A    between atoms: N_14  and  C_8 
REMARK    6  A    between atoms: C_11  and  O_19 
REMARK    7  A    between atoms: C_20  and  N_14 
REMARK    8  A    between atoms: O_19  and  C_27 
REMARK    9  A    between atoms: C_27  and  C_20 
ROOT
ATOM      1  N   UNL d   1       1.167  -2.338  -0.009  0.00  0.00    -0.377 N 
ATOM      2  H   UNL d   1       0.373  -2.939  -0.257  0.00  0.00     0.160 HD
ENDROOT
BRANCH   1   3
ATOM      3  C   UNL d   1       0.892  -0.974  -0.041  0.00  0.00     0.062 A 
ATOM      4  C   UNL d   1      -0.422  -0.447  -0.006  0.00  0.00     0.130 A 
ATOM      5  C   UNL d   1      -0.670   0.946  -0.043  0.00  0.00     0.054 A 
ATOM      6  C   UNL d   1       0.387   1.860  -0.101  0.00  0.00     0.050 A 
ATOM      7  C   UNL d   1       1.689   1.360  -0.074  0.00  0.00     0.018 A 
ATOM      8  C   UNL d   1       1.923  -0.015  -0.019  0.00  0.00     0.032 A 
BRANCH   4   9
ATOM      9  N   UNL d   1      -1.599  -1.333   0.075  0.00  0.00    -0.113 N 
ATOM     10  O   UNL d   1      -1.474  -2.517  -0.263  0.00  0.00    -0.532 OA
ATOM     11  O   UNL d   1      -2.666  -0.827   0.463  0.00  0.00    -0.532 OA
ENDBRANCH   4   9
BRANCH   6  12
ATOM     12  C   UNL d   1       0.172   3.348  -0.202  0.00  0.00     0.417 C 
ATOM     13  F   UNL d   1      -1.135   3.713  -0.121  0.00  0.00    -0.166 F 
ATOM     14  F   UNL d   1       0.819   4.035   0.779  0.00  0.00    -0.166 F 
ATOM     15  F   UNL d   1       0.632   3.853  -1.379  0.00  0.00    -0.166 F 
ENDBRANCH   6  12
ENDBRANCH   1   3
BRANCH   1  16
ATOM     16  C   UNL d   1       2.487  -2.996  -0.089  0.00  0.00     0.045 C 
ATOM     17  C   UNL d   1       3.228  -2.768   1.248  0.00  0.00     0.040 C 
ATOM     18  C   UNL d   1       2.264  -4.528  -0.176  0.00  0.00     0.040 C 
BRANCH  16  19
ATOM     19  C   UNL d   1       3.261  -2.595  -1.389  0.00  0.00     0.209 C 
BRANCH  19  20
ATOM     20  O   UNL d   1       4.590  -3.130  -1.370  0.00  0.00    -0.314 OA
BRANCH  20  21
ATOM     21  C   UNL d   1       5.563  -2.298  -0.901  0.00  0.00     0.317 C 
ATOM     22  O   UNL d   1       5.490  -1.079  -0.859  0.00  0.00    -0.257 OA
BRANCH  21  23
ATOM     23  C   UNL d   1       6.591  -3.100  -0.283  0.00  0.00     0.153 A 
ATOM     24  O   UNL d   1       6.423  -4.461  -0.235  0.00  0.00    -0.282 OA
ATOM     25  C   UNL d   1       7.413  -4.948   0.551  0.00  0.00     0.215 A 
ATOM     26  C   UNL d   1       8.249  -3.949   0.988  0.00  0.00     0.066 A 
ATOM     27  C   UNL d   1       7.723  -2.750   0.435  0.00  0.00     0.048 A 
BRANCH  25  28
ATOM     28  N   UNL d   1       7.372  -6.353   0.810  0.00  0.00    -0.090 N 
ATOM     29  O   UNL d   1       8.271  -6.803   1.535  0.00  0.00    -0.530 OA
ATOM     30  O   UNL d   1       6.447  -7.005   0.311  0.00  0.00    -0.530 OA
ENDBRANCH  25  28
ENDBRANCH  21  23
ENDBRANCH  20  21
ENDBRANCH  19  20
ENDBRANCH  16  19
ENDBRANCH   1  16
TORSDOF 9
