REMARK  3 active torsions:
REMARK  status: ('A' for Active; 'I' for Inactive)
REMARK    1  A    between atoms: C_8  and  N_1 
REMARK    2  A    between atoms: C_9  and  C_2 
REMARK    3  A    between atoms: S_13  and  C_5 
ROOT
ATOM      1  N   UNL d   1      -0.324  -1.305   0.082  0.00  0.00    -0.279 N 
ATOM      2  C   UNL d   1       0.948  -0.763   0.220  0.00  0.00     0.109 A 
ATOM      3  N   UNL d   1       0.873   0.552   0.258  0.00  0.00    -0.286 N 
ATOM      4  HN  UNL d   1       1.653   1.192   0.404  1.00  0.00     0.188 HD
ATOM      5  C   UNL d   1      -1.142  -0.192  -0.031  0.00  0.00     0.164 A 
ATOM      6  N   UNL d   1      -0.433   0.909   0.068  0.00  0.00    -0.278 N 
ATOM      7  HN  UNL d   1      -0.793   1.862   0.013  1.00  0.00     0.189 HD
ENDROOT
BRANCH   1   8
ATOM      8  C   UNL d   1      -0.675  -2.684   0.116  0.00  0.00     0.044 A 
ATOM      9  C   UNL d   1      -1.679  -3.194  -0.717  0.00  0.00     0.054 A 
ATOM     10  C   UNL d   1      -2.029  -4.543  -0.634  0.00  0.00     0.036 A 
ATOM     11 CL   UNL d   1      -3.273  -5.164  -1.647  0.00  0.00    -0.084 Cl
ATOM     12  C   UNL d   1      -1.383  -5.393   0.262  0.00  0.00     0.024 A 
ATOM     13  C   UNL d   1      -0.375  -4.892   1.083  0.00  0.00     0.004 A 
ATOM     14  C   UNL d   1      -0.022  -3.543   1.014  0.00  0.00     0.030 A 
ENDBRANCH   1   8
BRANCH   2  15
ATOM     15  C   UNL d   1       2.288  -1.500   0.226  0.00  0.00     0.055 A 
ATOM     16  C   UNL d   1       3.321  -1.079   1.251  0.00  0.00     0.013 A 
ATOM     17  C   UNL d   1       3.530  -0.733  -0.182  0.00  0.00     0.013 A 
ENDBRANCH   2  15
BRANCH   5  18
ATOM     18  S   UNL d   1      -2.878  -0.179  -0.063  0.00  0.00    -0.105 SA
ATOM     19  H   UNL d   1      -3.111  -1.303   0.628  0.00  0.00     0.110 HD
ENDBRANCH   5  18
TORSDOF 3
