REMARK  8 active torsions:
REMARK  status: ('A' for Active; 'I' for Inactive)
REMARK    1  A    between atoms: N_2  and  C_1 
REMARK    2  A    between atoms: C_3  and  C_1 
REMARK    3  A    between atoms: C_4  and  C_1 
REMARK    4  A    between atoms: N_5  and  C_1 
REMARK       I    between atoms: C_6  and  N_2 
REMARK    5  A    between atoms: C_13  and  N_5 
REMARK    6  A    between atoms: O_20  and  C_6 
REMARK    7  A    between atoms: C_7  and  C_13 
REMARK    8  A    between atoms: C_21  and  O_20 
ROOT
ATOM      1  C   UNL d   1       1.056   0.077   0.007  0.00  0.00     0.427 C 
ENDROOT
BRANCH   1   2
ATOM      2  N   UNL d   1       0.640   1.374   0.554  0.00  0.00    -0.286 N 
ATOM      3  C   UNL d   1      -0.641   1.741   0.820  0.00  0.00     0.363 C 
ATOM      4  O   UNL d   1      -0.901   2.818   1.345  0.00  0.00    -0.238 OA
ATOM      5  H   UNL d   1       1.351   1.973   0.946  0.00  0.00     0.168 HD
BRANCH   3   6
ATOM      6  O   UNL d   1      -1.526   0.801   0.467  0.00  0.00    -0.304 OA
BRANCH   6   7
ATOM      7  C   UNL d   1      -2.900   1.097   0.744  0.00  0.00     0.176 C 
ATOM      8  C   UNL d   1      -3.504   1.869  -0.417  0.00  0.00     0.034 C 
ENDBRANCH   6   7
ENDBRANCH   3   6
ENDBRANCH   1   2
BRANCH   1   9
ATOM      9  C   UNL d   1       0.458  -0.247  -1.414  0.00  0.00     0.452 C 
ATOM     10  F   UNL d   1       0.221   0.906  -2.101  0.00  0.00    -0.166 F 
ATOM     11  F   UNL d   1       1.351  -0.949  -2.160  0.00  0.00    -0.166 F 
ATOM     12  F   UNL d   1      -0.695  -0.939  -1.435  0.00  0.00    -0.166 F 
ENDBRANCH   1   9
BRANCH   1  13
ATOM     13  C   UNL d   1       0.661  -1.138   0.941  0.00  0.00     0.452 C 
ATOM     14  F   UNL d   1       0.289  -0.706   2.176  0.00  0.00    -0.166 F 
ATOM     15  F   UNL d   1      -0.327  -1.935   0.498  0.00  0.00    -0.166 F 
ATOM     16  F   UNL d   1       1.738  -1.950   1.144  0.00  0.00    -0.166 F 
ENDBRANCH   1  13
BRANCH   1  17
ATOM     17  N   UNL d   1       2.563   0.250   0.037  0.00  0.00     0.138 N 
ATOM     18  H   UNL d   1       2.975  -0.672  -0.146  0.00  0.00     0.320 HD
BRANCH  17  19
ATOM     19  C   UNL d   1       3.127   1.172  -0.954  0.00  0.00     0.338 C 
BRANCH  19  20
ATOM     20  C   UNL d   1       4.615   1.085  -0.895  0.00  0.00     0.080 A 
ATOM     21  O   UNL d   1       5.212   0.259  -1.804  0.00  0.00    -0.325 OA
ATOM     22  C   UNL d   1       6.549   0.316  -1.577  0.00  0.00     0.142 A 
ATOM     23  C   UNL d   1       6.823   1.158  -0.523  0.00  0.00     0.027 A 
ATOM     24  C   UNL d   1       5.574   1.651  -0.078  0.00  0.00     0.036 A 
ENDBRANCH  19  20
ENDBRANCH  17  19
ENDBRANCH   1  17
TORSDOF 8
