REMARK  0 active torsions:
REMARK  status: ('A' for Active; 'I' for Inactive)
ROOT
ATOM      1  N   UNL d   1       2.522  -0.670   0.014  0.00  0.00    -0.353 N 
ATOM      2  HN  UNL d   1       2.723  -1.670   0.025  1.00  0.00     0.166 HD
ATOM      3  N   UNL d   1      -2.471  -0.689   0.006  0.00  0.00    -0.353 N 
ATOM      4  HN  UNL d   1      -2.666  -1.690   0.016  1.00  0.00     0.166 HD
ATOM      5  C   UNL d   1      -1.200  -0.124   0.001  0.00  0.00     0.052 A 
ATOM      6  C   UNL d   1       1.249  -0.115   0.006  0.00  0.00     0.052 A 
ATOM      7  S   UNL d   1       2.824   1.887  -0.011  0.00  0.00    -0.075 SA
ATOM      8  S   UNL d   1      -2.790   1.868  -0.023  0.00  0.00    -0.075 SA
ATOM      9  C   UNL d   1       1.220   1.278  -0.008  0.00  0.00     0.035 A 
ATOM     10  C   UNL d   1      -1.183   1.270  -0.013  0.00  0.00     0.035 A 
ATOM     11  C   UNL d   1       3.431   0.283   0.007  0.00  0.00     0.048 A 
ATOM     12  C   UNL d   1      -3.385   0.259  -0.004  0.00  0.00     0.048 A 
ATOM     13  C   UNL d   1       0.026  -0.809   0.010  0.00  0.00     0.061 A 
ATOM     14  C   UNL d   1       0.016   1.976  -0.018  0.00  0.00     0.042 A 
ATOM     15  C   UNL d   1       4.903   0.050   0.011  0.00  0.00     0.076 C 
ATOM     16  C   UNL d   1      -4.856   0.031   0.001  0.00  0.00     0.076 C 
ENDROOT
TORSDOF 0
