REMARK  1 active torsions:
REMARK  status: ('A' for Active; 'I' for Inactive)
REMARK    1  A    between atoms: C_3  and  N_1 
ROOT
ATOM      1  C   UNL d   1       0.230  -2.471  -0.017  0.00  0.00     0.045 A 
ATOM      2  C   UNL d   1      -0.529  -3.123  -1.002  0.00  0.00     0.057 A 
ATOM      3  C   UNL d   1      -0.615  -4.518  -1.019  0.00  0.00     0.074 A 
ATOM      4  C   UNL d   1       0.908  -3.247   0.938  0.00  0.00     0.033 A 
ATOM      5  C   UNL d   1       0.041  -5.268  -0.047  0.00  0.00     0.138 A 
ATOM      6  C   UNL d   1       0.802  -4.640   0.932  0.00  0.00     0.046 A 
ATOM      7 CL   UNL d   1      -1.521  -5.293  -2.262  0.00  0.00    -0.081 Cl
ATOM      8  F   UNL d   1      -0.038  -6.607  -0.042  0.00  0.00    -0.204 F 
ENDROOT
BRANCH   1   9
ATOM      9  N   UNL d   1       0.347  -1.048  -0.007  0.00  0.00    -0.266 N 
ATOM     10  C   UNL d   1      -0.732  -0.181  -0.061  0.00  0.00     0.148 A 
ATOM     11  S   UNL d   1      -0.176   1.484  -0.144  0.00  0.00    -0.090 SA
ATOM     12  S   UNL d   1      -2.369  -0.515   0.042  0.00  0.00    -0.052 SA
ATOM     13  C   UNL d   1       1.555   1.034  -0.002  0.00  0.00     0.185 A 
ATOM     14  C   UNL d   1       1.611  -0.467   0.077  0.00  0.00     0.239 A 
ATOM     15  O   UNL d   1       2.683  -1.059   0.170  0.00  0.00    -0.272 OA
ENDBRANCH   1   9
TORSDOF 1
