REMARK  4 active torsions:
REMARK  status: ('A' for Active; 'I' for Inactive)
REMARK    1  A    between atoms: C_2  and  S_1 
REMARK    2  A    between atoms: C_3  and  S_1 
REMARK    3  A    between atoms: C_4  and  C_2 
REMARK    4  A    between atoms: O_12  and  N_7 
ROOT
ATOM      1  S   UNL d   1       1.377   1.902   5.122  0.00  0.00     0.180 S 
ATOM      2  O   UNL d   1       2.820   1.964   4.977  0.00  0.00    -0.222 OA
ATOM      3  O   UNL d   1       0.745   0.688   5.609  0.00  0.00    -0.222 OA
ENDROOT
BRANCH   1   4
ATOM      4  C   UNL d   1       0.653   2.292   3.558  0.00  0.00     0.199 C 
BRANCH   4   5
ATOM      5  C   UNL d   1       1.179   3.599   3.044  0.00  0.00     0.020 C 
ATOM      6  N   UNL d   1       0.514   4.679   3.333  0.00  0.00    -0.277 N 
ATOM      7  HN  UNL d   1      -0.345   4.697   3.882  1.00  0.00     0.193 HD
ATOM      8  C   UNL d   1       2.444   3.588   2.218  0.00  0.00     0.066 C 
BRANCH   6   9
ATOM      9  O   UNL d   1       1.130   5.811   2.791  0.00  0.00    -0.290 OA
ATOM     10  H   UNL d   1       0.549   6.537   3.091  0.00  0.00     0.244 HD
ENDBRANCH   6   9
ENDBRANCH   4   5
ENDBRANCH   1   4
BRANCH   1  11
ATOM     11  C   UNL d   1       0.878   3.199   6.229  0.00  0.00     0.059 A 
ATOM     12  C   UNL d   1      -0.484   3.389   6.485  0.00  0.00     0.025 A 
ATOM     13  C   UNL d   1      -0.884   4.418   7.340  0.00  0.00     0.025 A 
ATOM     14  C   UNL d   1       0.074   5.233   7.943  0.00  0.00     0.034 A 
ATOM     15  C   UNL d   1       1.434   5.024   7.706  0.00  0.00     0.025 A 
ATOM     16 CL   UNL d   1      -0.425   6.504   8.989  0.00  0.00    -0.084 Cl
ATOM     17  C   UNL d   1       1.842   4.002   6.846  0.00  0.00     0.025 A 
ENDBRANCH   1  11
TORSDOF 4
