REMARK  6 active torsions:
REMARK  status: ('A' for Active; 'I' for Inactive)
REMARK    1  A    between atoms: C_9  and  C_1 
REMARK    2  A    between atoms: O_12  and  C_3 
REMARK    3  A    between atoms: C_14  and  N_5 
REMARK    4  A    between atoms: C_11  and  C_14 
REMARK    5  A    between atoms: O_15  and  C_11 
REMARK    6  A    between atoms: O_16  and  C_11 
ROOT
ATOM      1  C   UNL d   1       0.638   1.956  -0.433  0.00  0.00     0.015 A 
ATOM      2  C   UNL d   1       0.397  -0.289  -1.298  0.00  0.00     0.069 A 
ATOM      3  C   UNL d   1       0.074   1.071  -1.357  0.00  0.00     0.099 A 
ATOM      4  C   UNL d   1       1.276  -0.767  -0.328  0.00  0.00     0.050 A 
ATOM      5  C   UNL d   1       1.514   1.479   0.549  0.00  0.00     0.039 A 
ATOM      6  C   UNL d   1       1.828   0.122   0.593  0.00  0.00     0.036 A 
ATOM      7 CL   UNL d   1      -0.285  -1.394  -2.434  0.00  0.00    -0.081 Cl
ATOM      8 CL   UNL d   1       2.920  -0.464   1.787  0.00  0.00    -0.084 Cl
ENDROOT
BRANCH   1   9
ATOM      9  C   UNL d   1       0.344   3.401  -0.516  0.00  0.00     0.097 C 
ATOM     10  N   UNL d   1       0.773   4.235   0.373  0.00  0.00    -0.393 N 
ATOM     11  HN  UNL d   1       1.284   3.946   1.208  1.00  0.00     0.159 HD
BRANCH  10  12
ATOM     12  C   UNL d   1       0.452   5.646   0.069  0.00  0.00     0.179 C 
BRANCH  12  13
ATOM     13  C   UNL d   1       1.750   6.468  -0.116  0.00  0.00     0.275 C 
BRANCH  13  14
ATOM     14  O   UNL d   1       2.476   5.988  -1.255  0.00  0.00    -0.364 OA
ATOM     15  C   UNL d   1       3.829   6.423  -1.228  0.00  0.00     0.204 C 
ENDBRANCH  13  14
BRANCH  13  16
ATOM     16  O   UNL d   1       1.489   7.874  -0.213  0.00  0.00    -0.364 OA
ATOM     17  C   UNL d   1       0.788   8.254  -1.390  0.00  0.00     0.204 C 
ENDBRANCH  13  16
ENDBRANCH  12  13
ENDBRANCH  10  12
ENDBRANCH   1   9
BRANCH   3  18
ATOM     18  O   UNL d   1      -0.790   1.542  -2.312  0.00  0.00    -0.358 OA
ATOM     19  H   UNL d   1      -1.077   0.782  -2.855  0.00  0.00     0.217 HD
ENDBRANCH   3  18
TORSDOF 6
