REMARK  3 active torsions:
REMARK  status: ('A' for Active; 'I' for Inactive)
REMARK    1  A    between atoms: S_13  and  C_2 
REMARK    2  A    between atoms: C_8  and  C_14 
REMARK    3  A    between atoms: C_14  and  S_13 
ROOT
ATOM      1  S   UNL d   1       0.167   2.825  -0.513  0.00  0.00    -0.099 SA
ENDROOT
BRANCH   1   2
ATOM      2  C   UNL d   1       0.178   1.086  -0.329  0.00  0.00     0.130 A 
ATOM      3  S   UNL d   1      -1.223   0.126  -0.539  0.00  0.00    -0.027 SA
ATOM      4  C   UNL d   1      -0.263  -1.248  -0.134  0.00  0.00     0.161 A 
ATOM      5  N   UNL d   1       0.997  -0.946   0.106  0.00  0.00    -0.279 N 
ATOM      6  N   UNL d   1      -0.824  -2.475  -0.081  0.00  0.00    -0.374 N 
ATOM      7  N   UNL d   1       1.256   0.407  -0.009  0.00  0.00    -0.286 N 
ATOM      8  HN  UNL d   1       1.706  -1.637   0.352  1.00  0.00     0.189 HD
ATOM      9  HN  UNL d   1       2.174   0.827   0.138  1.00  0.00     0.188 HD
ATOM     10  C   UNL d   1      -0.061  -3.649   0.262  0.00  0.00     0.148 C 
ATOM     11  H   UNL d   1      -1.796  -2.605  -0.333  0.00  0.00     0.161 HD
ENDBRANCH   1   2
BRANCH   1  12
ATOM     12  C   UNL d   1       1.911   3.208  -0.173  0.00  0.00     0.121 C 
BRANCH  12  13
ATOM     13  C   UNL d   1       2.120   4.693  -0.067  0.00  0.00    -0.030 A 
ATOM     14  C   UNL d   1       2.009   5.392   1.122  0.00  0.00     0.059 A 
ATOM     15  S   UNL d   1       2.328   7.054   0.952  0.00  0.00    -0.101 SA
ATOM     16  C   UNL d   1       2.633   6.897  -0.733  0.00  0.00     0.015 A 
ATOM     17  C   UNL d   1       2.481   5.574  -1.163  0.00  0.00    -0.011 A 
ATOM     18  C   UNL d   1       2.995   7.931  -1.621  0.00  0.00     0.019 A 
ATOM     19  C   UNL d   1       2.695   5.305  -2.540  0.00  0.00     0.013 A 
ATOM     20  C   UNL d   1       3.053   6.328  -3.425  0.00  0.00     0.001 A 
ATOM     21  C   UNL d   1       3.204   7.628  -2.967  0.00  0.00     0.001 A 
ENDBRANCH  12  13
ENDBRANCH   1  12
TORSDOF 3
