REMARK  5 active torsions:
REMARK  status: ('A' for Active; 'I' for Inactive)
REMARK    1  A    between atoms: C_5  and  C_1 
REMARK    2  A    between atoms: C_7  and  C_2 
REMARK    3  A    between atoms: O_11  and  C_7 
REMARK    4  A    between atoms: C_19  and  O_11 
REMARK    5  A    between atoms: C_16  and  C_19 
ROOT
ATOM      1  C   UNL d   1      -1.250  -0.706   0.294  0.00  0.00     0.087 A 
ATOM      2  C   UNL d   1       0.054  -1.232   0.033  0.00  0.00     0.100 A 
ATOM      3  N   UNL d   1      -1.165   0.571   0.703  0.00  0.00    -0.259 N 
ATOM      4  HN  UNL d   1      -1.939   1.173   0.988  1.00  0.00     0.195 HD
ATOM      5  O   UNL d   1       0.164   0.909   0.664  0.00  0.00    -0.241 OA
ATOM      6  C   UNL d   1       0.895  -0.160   0.268  0.00  0.00     0.091 A 
ATOM      7  C   UNL d   1       2.347   0.080   0.148  0.00  0.00     0.080 C 
ENDROOT
BRANCH   2   8
ATOM      8  C   UNL d   1       0.499  -2.541  -0.384  0.00  0.00     0.298 C 
ATOM      9  O   UNL d   1       1.640  -2.950  -0.191  0.00  0.00    -0.259 OA
BRANCH   8  10
ATOM     10  O   UNL d   1      -0.458  -3.251  -1.047  0.00  0.00    -0.313 OA
BRANCH  10  11
ATOM     11  C   UNL d   1      -0.002  -4.507  -1.572  0.00  0.00     0.217 C 
BRANCH  11  12
ATOM     12  C   UNL d   1       0.806  -4.311  -2.836  0.00  0.00    -0.031 A 
ATOM     13  C   UNL d   1       2.003  -5.017  -3.034  0.00  0.00     0.033 A 
ATOM     14  C   UNL d   1       2.753  -4.818  -4.196  0.00  0.00     0.036 A 
ATOM     15 CL   UNL d   1       4.222  -5.687  -4.420  0.00  0.00    -0.084 Cl
ATOM     16  C   UNL d   1       2.327  -3.924  -5.174  0.00  0.00     0.047 A 
ATOM     17  C   UNL d   1       1.136  -3.230  -4.984  0.00  0.00     0.036 A 
ATOM     18  C   UNL d   1       0.373  -3.424  -3.832  0.00  0.00     0.033 A 
ATOM     19 CL   UNL d   1       0.599  -2.114  -6.179  0.00  0.00    -0.084 Cl
ENDBRANCH  11  12
ENDBRANCH  10  11
ENDBRANCH   8  10
ENDBRANCH   2   8
BRANCH   1  20
ATOM     20  C   UNL d   1      -2.571  -1.333   0.228  0.00  0.00     0.037 A 
ATOM     21  C   UNL d   1      -2.918  -2.410   1.063  0.00  0.00     0.048 A 
ATOM     22 CL   UNL d   1      -1.796  -3.139   2.164  0.00  0.00    -0.083 Cl
ATOM     23  C   UNL d   1      -4.220  -2.932   1.062  0.00  0.00     0.025 A 
ATOM     24  C   UNL d   1      -5.201  -2.379   0.243  0.00  0.00     0.003 A 
ATOM     25  C   UNL d   1      -4.877  -1.319  -0.596  0.00  0.00     0.025 A 
ATOM     26  C   UNL d   1      -3.572  -0.805  -0.615  0.00  0.00     0.048 A 
ATOM     27 CL   UNL d   1      -3.270   0.478  -1.742  0.00  0.00    -0.083 Cl
ENDBRANCH   1  20
TORSDOF 5
