REMARK  7 active torsions:
REMARK  status: ('A' for Active; 'I' for Inactive)
REMARK    1  A    between atoms: C_2  and  C_1 
REMARK    2  A    between atoms: N_17  and  C_2 
REMARK    3  A    between atoms: C_3  and  O_8 
REMARK    4  A    between atoms: C_10  and  C_3 
REMARK    5  A    between atoms: O_8  and  N_4 
REMARK    6  A    between atoms: O_6  and  C_10 
REMARK    7  A    between atoms: C_7  and  O_6 
ROOT
ATOM      1  C   UNL d   1       1.606   0.222  -0.706  0.00  0.00     0.112 C 
ATOM      2  N   UNL d   1       2.524   1.131  -0.882  0.00  0.00    -0.246 N 
ATOM      3  HN  UNL d   1       3.362   0.990  -1.445  1.00  0.00     0.196 HD
ENDROOT
BRANCH   2   4
ATOM      4  O   UNL d   1       2.224   2.334  -0.201  0.00  0.00    -0.196 OA
BRANCH   4   5
ATOM      5  C   UNL d   1       3.360   2.762   0.448  0.00  0.00     0.310 C 
ATOM      6  O   UNL d   1       3.981   2.105   1.277  0.00  0.00    -0.260 OA
BRANCH   5   7
ATOM      7  C   UNL d   1       3.781   4.135  -0.086  0.00  0.00     0.226 C 
ATOM      8  C   UNL d   1       4.972   4.691   0.692  0.00  0.00     0.051 C 
BRANCH   7   9
ATOM      9  O   UNL d   1       2.750   5.119  -0.004  0.00  0.00    -0.335 OA
BRANCH   9  10
ATOM     10  C   UNL d   1       1.975   5.375  -1.101  0.00  0.00     0.091 A 
ATOM     11  C   UNL d   1       0.692   5.905  -0.870  0.00  0.00     0.069 A 
ATOM     12  C   UNL d   1      -0.182   6.164  -1.929  0.00  0.00     0.050 A 
ATOM     13 CL   UNL d   1       0.139   6.250   0.733  0.00  0.00    -0.081 Cl
ATOM     14  C   UNL d   1       0.231   5.910  -3.232  0.00  0.00     0.035 A 
ATOM     15  C   UNL d   1       1.517   5.439  -3.483  0.00  0.00     0.026 A 
ATOM     16 CL   UNL d   1      -0.846   6.182  -4.544  0.00  0.00    -0.084 Cl
ATOM     17  C   UNL d   1       2.390   5.186  -2.421  0.00  0.00     0.040 A 
ENDBRANCH   9  10
ENDBRANCH   7   9
ENDBRANCH   5   7
ENDBRANCH   4   5
ENDBRANCH   2   4
BRANCH   1  18
ATOM     18  C   UNL d   1       1.773  -1.113  -1.399  0.00  0.00     0.047 A 
ATOM     19  C   UNL d   1       3.046  -1.704  -1.554  0.00  0.00     0.049 A 
ATOM     20 CL   UNL d   1       4.519  -1.032  -0.940  0.00  0.00    -0.083 Cl
ATOM     21  C   UNL d   1       3.190  -2.942  -2.206  0.00  0.00     0.025 A 
ATOM     22  C   UNL d   1       2.086  -3.622  -2.701  0.00  0.00     0.003 A 
ATOM     23  C   UNL d   1       0.822  -3.057  -2.555  0.00  0.00     0.025 A 
ATOM     24  C   UNL d   1       0.664  -1.812  -1.921  0.00  0.00     0.049 A 
ATOM     25 CL   UNL d   1      -0.961  -1.205  -1.892  0.00  0.00    -0.083 Cl
ENDBRANCH   1  18
BRANCH   1  26
ATOM     26  N   UNL d   1       0.504   0.447   0.086  0.00  0.00    -0.286 NA
ATOM     27  H   UNL d   1      -0.356  -0.030  -0.169  0.00  0.00     0.125 HD
ATOM     28  H   UNL d   1       0.357   1.426   0.305  0.00  0.00     0.125 HD
ENDBRANCH   1  26
TORSDOF 7
