REMARK  4 active torsions:
REMARK  status: ('A' for Active; 'I' for Inactive)
REMARK    1  A    between atoms: C_6  and  C_1 
REMARK    2  A    between atoms: C_7  and  C_2 
REMARK    3  A    between atoms: C_9  and  C_5 
REMARK       I    between atoms: N_8  and  C_6 
REMARK    4  A    between atoms: C_16  and  N_8 
ROOT
ATOM      1  C   UNL d   1       1.124   0.655   0.080  0.00  0.00     0.073 A 
ATOM      2  C   UNL d   1      -0.173   1.127  -0.072  0.00  0.00     0.175 A 
ATOM      3  O   UNL d   1      -1.056   0.076  -0.038  0.00  0.00    -0.304 OA
ATOM      4  C   UNL d   1       0.982  -0.749   0.321  0.00  0.00     0.058 A 
ATOM      5  C   UNL d   1      -0.349  -1.067   0.192  0.00  0.00     0.087 A 
ENDROOT
BRANCH   1   6
ATOM      6  C   UNL d   1       2.415   1.340   0.060  0.00  0.00     0.259 C 
ATOM      7  N   UNL d   1       2.469   2.536  -0.628  0.00  0.00    -0.323 N 
ATOM      8  H   UNL d   1       1.601   2.945  -0.946  0.00  0.00     0.169 HD
ATOM      9  O   UNL d   1       3.376   0.809   0.613  0.00  0.00    -0.267 OA
BRANCH   7  10
ATOM     10  C   UNL d   1       3.615   3.338  -0.832  0.00  0.00     0.037 A 
ATOM     11  C   UNL d   1       4.916   2.911  -0.583  0.00  0.00     0.046 A 
ATOM     12  C   UNL d   1       5.954   3.808  -0.777  0.00  0.00     0.090 A 
ATOM     13  N   UNL d   1       5.783   5.077  -1.202  0.00  0.00    -0.375 N 
ATOM     14  C   UNL d   1       4.517   5.460  -1.459  0.00  0.00     0.090 A 
ATOM     15  HN  UNL d   1       6.571   5.713  -1.322  1.00  0.00     0.164 HD
ATOM     16  C   UNL d   1       3.415   4.634  -1.307  0.00  0.00     0.046 A 
ENDBRANCH   7  10
ENDBRANCH   1   6
BRANCH   2  17
ATOM     17  C   UNL d   1      -0.796   2.463  -0.235  0.00  0.00     0.440 C 
ATOM     18  F   UNL d   1       0.119   3.465  -0.141  0.00  0.00    -0.164 F 
ATOM     19  F   UNL d   1      -1.377   2.607  -1.453  0.00  0.00    -0.164 F 
ATOM     20  F   UNL d   1      -1.746   2.716   0.698  0.00  0.00    -0.164 F 
ENDBRANCH   2  17
BRANCH   5  21
ATOM     21  C   UNL d   1      -1.104  -2.316   0.256  0.00  0.00    -0.002 A 
ATOM     22  C   UNL d   1      -0.448  -3.521   0.561  0.00  0.00     0.016 A 
ATOM     23  C   UNL d   1      -1.154  -4.726   0.633  0.00  0.00     0.024 A 
ATOM     24  C   UNL d   1      -2.523  -4.740   0.398  0.00  0.00     0.034 A 
ATOM     25  C   UNL d   1      -3.193  -3.560   0.081  0.00  0.00     0.024 A 
ATOM     26 CL   UNL d   1      -3.396  -6.218   0.504  0.00  0.00    -0.084 Cl
ATOM     27  C   UNL d   1      -2.484  -2.354   0.010  0.00  0.00     0.016 A 
ENDBRANCH   5  21
TORSDOF 4
