REMARK  5 active torsions:
REMARK  status: ('A' for Active; 'I' for Inactive)
REMARK    1  A    between atoms: C_9  and  N_1 
REMARK    2  A    between atoms: C_5  and  C_2 
REMARK    3  A    between atoms: O_16  and  C_5 
REMARK    4  A    between atoms: C_7  and  C_11 
REMARK    5  A    between atoms: C_11  and  C_9 
ROOT
ATOM      1  N   UNL d   1      -0.058  -1.006   0.151  0.00  0.00    -0.351 N 
ATOM      2  C   UNL d   1      -1.556   0.740  -0.343  0.00  0.00     0.110 C 
ATOM      3  C   UNL d   1       0.699   0.152   0.101  0.00  0.00     0.220 C 
ATOM      4  C   UNL d   1      -1.474  -0.731   0.042  0.00  0.00     0.141 C 
ATOM      5  C   UNL d   1      -0.239   1.327   0.149  0.00  0.00     0.119 C 
ATOM      6  O   UNL d   1       1.915   0.251   0.074  0.00  0.00    -0.273 OA
ENDROOT
BRANCH   1   7
ATOM      7  C   UNL d   1       0.463  -2.370   0.030  0.00  0.00     0.131 C 
BRANCH   7   8
ATOM      8  C   UNL d   1       1.748  -2.619   0.825  0.00  0.00     0.066 C 
BRANCH   8   9
ATOM      9  C   UNL d   1       2.227  -4.040   0.745  0.00  0.00    -0.016 A 
ATOM     10  S   UNL d   1       1.754  -5.190   1.921  0.00  0.00    -0.106 SA
ATOM     11  C   UNL d   1       2.755  -6.395   1.236  0.00  0.00     0.050 A 
ATOM     12  C   UNL d   1       3.416  -5.944   0.116  0.00  0.00     0.008 A 
ATOM     13  C   UNL d   1       3.103  -4.585  -0.174  0.00  0.00     0.015 A 
ENDBRANCH   8   9
ENDBRANCH   7   8
ENDBRANCH   1   7
BRANCH   2  14
ATOM     14  C   UNL d   1      -1.713   0.933  -1.838  0.00  0.00     0.145 C 
ATOM     15  O   UNL d   1      -1.767   0.034  -2.659  0.00  0.00    -0.650 OA
BRANCH  14  16
ATOM     16  O   UNL d   1      -1.843   2.232  -2.197  0.00  0.00    -0.776 OA
ATOM     17  H   UNL d   1      -1.813   2.877  -1.466  0.00  0.00     0.167 HD
ENDBRANCH  14  16
ENDBRANCH   2  14
TORSDOF 5
