REMARK  6 active torsions:
REMARK  status: ('A' for Active; 'I' for Inactive)
REMARK    1  A    between atoms: C_3  and  S_1 
REMARK    2  A    between atoms: C_5  and  S_1 
REMARK    3  A    between atoms: S_2  and  C_4 
REMARK    4  A    between atoms: N_12  and  S_2 
REMARK    5  A    between atoms: C_7  and  C_6 
REMARK    6  A    between atoms: O_15  and  C_7 
ROOT
ATOM      1  S   UNL d   1       1.041   0.027  -0.209  0.00  0.00     0.209 S 
ATOM      2  O   UNL d   1       2.396   0.163  -0.711  0.00  0.00    -0.217 OA
ATOM      3  O   UNL d   1       0.191  -1.005  -0.767  0.00  0.00    -0.217 OA
ENDROOT
BRANCH   1   4
ATOM      4  C   UNL d   1       0.290   1.636  -0.421  0.00  0.00     0.087 A 
ATOM      5  C   UNL d   1      -1.049   1.873  -0.767  0.00  0.00     0.101 A 
ATOM      6  C   UNL d   1      -1.492   3.202  -0.932  0.00  0.00     0.027 A 
ATOM      7  C   UNL d   1      -0.619   4.277  -0.763  0.00  0.00     0.002 A 
ATOM      8  C   UNL d   1       0.709   4.044  -0.432  0.00  0.00     0.002 A 
ATOM      9  C   UNL d   1       1.165   2.734  -0.278  0.00  0.00     0.025 A 
BRANCH   5  10
ATOM     10  S   UNL d   1      -2.299   0.613  -0.793  0.00  0.00     0.260 S 
ATOM     11  O   UNL d   1      -2.079  -0.181   0.397  0.00  0.00    -0.201 OA
ATOM     12  O   UNL d   1      -3.578   1.241  -1.038  0.00  0.00    -0.201 OA
BRANCH  10  13
ATOM     13  N   UNL d   1      -1.928  -0.304  -2.129  0.00  0.00    -0.320 N 
ATOM     14  C   UNL d   1      -2.373   0.061  -3.460  0.00  0.00     0.159 C 
ATOM     15  H   UNL d   1      -1.692  -1.275  -1.921  0.00  0.00     0.171 HD
ENDBRANCH  10  13
ENDBRANCH   5  10
ENDBRANCH   1   4
BRANCH   1  16
ATOM     16  C   UNL d   1       1.224  -0.384   1.504  0.00  0.00     0.081 A 
ATOM     17  C   UNL d   1       1.797  -1.612   1.871  0.00  0.00     0.059 A 
ATOM     18  C   UNL d   1       2.109  -1.826   3.227  0.00  0.00     0.020 A 
ATOM     19  C   UNL d   1       1.841  -0.856   4.193  0.00  0.00     0.001 A 
ATOM     20  C   UNL d   1       1.230   0.336   3.823  0.00  0.00     0.002 A 
ATOM     21  C   UNL d   1       0.912   0.574   2.484  0.00  0.00     0.025 A 
BRANCH  17  22
ATOM     22  C   UNL d   1       2.201  -2.721   0.961  0.00  0.00     0.177 C 
ATOM     23  O   UNL d   1       3.216  -3.368   1.179  0.00  0.00    -0.646 OA
BRANCH  22  24
ATOM     24  O   UNL d   1       1.325  -3.086   0.011  0.00  0.00    -0.773 OA
ATOM     25  H   UNL d   1       0.573  -2.485  -0.191  0.00  0.00     0.167 HD
ENDBRANCH  22  24
ENDBRANCH  17  22
ENDBRANCH   1  16
TORSDOF 6
