REMARK  6 active torsions:
REMARK  status: ('A' for Active; 'I' for Inactive)
REMARK    1  A    between atoms: C_6  and  S_1 
REMARK    2  A    between atoms: C_11  and  S_1 
REMARK    3  A    between atoms: C_4  and  C_6 
REMARK    4  A    between atoms: C_10  and  C_5 
REMARK    5  A    between atoms: O_22  and  C_13 
REMARK    6  A    between atoms: O_26  and  C_16 
ROOT
ATOM      1  N   UNL d   1       0.383   3.958   0.533  0.00  0.00    -0.322 N 
ATOM      2  HN  UNL d   1      -0.144   4.398  -0.221  1.00  0.00     0.169 HD
ATOM      3  C   UNL d   1       0.725   2.642   0.683  0.00  0.00     0.118 A 
ATOM      4  C   UNL d   1       0.904   4.513   1.606  0.00  0.00     0.182 A 
ATOM      5  N   UNL d   1       1.504   2.383   1.742  0.00  0.00    -0.246 N 
ATOM      6  HN  UNL d   1       1.919   1.495   2.021  1.00  0.00     0.196 HD
ATOM      7  O   UNL d   1       1.610   3.628   2.372  0.00  0.00    -0.217 OA
ENDROOT
BRANCH   3   8
ATOM      8  C   UNL d   1       0.338   1.612  -0.292  0.00  0.00     0.224 C 
BRANCH   8   9
ATOM      9  S   UNL d   1      -1.424   1.437  -0.431  0.00  0.00     0.182 S 
ATOM     10  O   UNL d   1      -1.978   1.195   0.889  0.00  0.00    -0.222 OA
ATOM     11  O   UNL d   1      -1.687   0.499  -1.509  0.00  0.00    -0.222 OA
BRANCH   9  12
ATOM     12  C   UNL d   1      -2.050   3.004  -1.003  0.00  0.00     0.059 A 
ATOM     13  C   UNL d   1      -1.622   3.505  -2.239  0.00  0.00     0.026 A 
ATOM     14  C   UNL d   1      -2.114   4.731  -2.690  0.00  0.00     0.044 A 
ATOM     15  C   UNL d   1      -3.036   5.429  -1.916  0.00  0.00     0.116 A 
ATOM     16  C   UNL d   1      -3.480   4.925  -0.696  0.00  0.00     0.044 A 
ATOM     17  F   UNL d   1      -3.497   6.610  -2.345  0.00  0.00    -0.206 F 
ATOM     18  C   UNL d   1      -2.985   3.706  -0.232  0.00  0.00     0.026 A 
ENDBRANCH   9  12
ENDBRANCH   8   9
ENDBRANCH   3   8
BRANCH   4  19
ATOM     19  C   UNL d   1       0.777   5.883   2.081  0.00  0.00     0.020 A 
ATOM     20  C   UNL d   1      -0.086   6.757   1.395  0.00  0.00     0.055 A 
ATOM     21  C   UNL d   1      -0.295   8.080   1.818  0.00  0.00     0.102 A 
ATOM     22  C   UNL d   1       0.396   8.542   2.951  0.00  0.00     0.101 A 
ATOM     23  C   UNL d   1       1.264   7.671   3.629  0.00  0.00     0.040 A 
ATOM     24  C   UNL d   1       1.454   6.355   3.205  0.00  0.00     0.019 A 
BRANCH  21  25
ATOM     25  O   UNL d   1      -1.148   8.936   1.175  0.00  0.00    -0.353 OA
ATOM     26  C   UNL d   1      -1.879   8.454   0.055  0.00  0.00     0.210 C 
ENDBRANCH  21  25
BRANCH  22  27
ATOM     27  O   UNL d   1       0.355   9.781   3.535  0.00  0.00    -0.353 OA
ATOM     28  C   UNL d   1      -0.483  10.779   2.973  0.00  0.00     0.210 C 
ENDBRANCH  22  27
ENDBRANCH   4  19
TORSDOF 6
