REMARK  1 active torsions:
REMARK  status: ('A' for Active; 'I' for Inactive)
REMARK    1  A    between atoms: S_12  and  C_5 
ROOT
ATOM      1  C   UNL d   1      -1.854   0.734   0.018  0.00  0.00     0.139 A 
ATOM      2  N   UNL d   1      -0.838   0.773  -0.899  0.00  0.00    -0.320 N 
ATOM      3  N   UNL d   1      -1.589  -0.207   0.903  0.00  0.00    -0.282 N 
ATOM      4  HN  UNL d   1      -2.173  -0.461   1.700  1.00  0.00     0.188 HD
ATOM      5  C   UNL d   1       0.050  -0.180  -0.515  0.00  0.00     0.158 A 
ATOM      6  N   UNL d   1      -0.383  -0.787   0.562  0.00  0.00    -0.278 N 
ATOM      7  HN  UNL d   1       0.084  -1.547   1.057  1.00  0.00     0.189 HD
ATOM      8  C   UNL d   1      -3.009   1.578   0.015  0.00  0.00     0.050 A 
ATOM      9  S   UNL d   1      -3.264   2.785  -1.177  0.00  0.00    -0.098 SA
ATOM     10  C   UNL d   1      -4.046   1.553   0.928  0.00  0.00     0.023 A 
ATOM     11  C   UNL d   1      -4.749   3.262  -0.476  0.00  0.00     0.050 A 
ATOM     12  C   UNL d   1      -5.050   2.524   0.646  0.00  0.00     0.009 A 
ATOM     13  H   UNL d   1      -0.776   1.388  -1.694  0.00  0.00     0.169 HD
ENDROOT
BRANCH   5  14
ATOM     14  S   UNL d   1       1.507  -0.484  -1.376  0.00  0.00    -0.106 SA
ATOM     15  H   UNL d   1       1.488   0.546  -2.231  0.00  0.00     0.110 HD
ENDBRANCH   5  14
TORSDOF 1
