REMARK  6 active torsions:
REMARK  status: ('A' for Active; 'I' for Inactive)
REMARK    1  A    between atoms: C_8  and  C_1 
REMARK    2  A    between atoms: C_11  and  N_2 
REMARK    3  A    between atoms: S_10  and  C_5 
REMARK    4  A    between atoms: C_9  and  C_12 
REMARK    5  A    between atoms: C_12  and  S_10 
REMARK    6  A    between atoms: C_16  and  C_17 
ROOT
ATOM      1  C   UNL d   1      -0.083  -1.242   0.103  0.00  0.00     0.141 A 
ATOM      2  N   UNL d   1       1.191  -0.657   0.008  0.00  0.00    -0.275 N 
ATOM      3  N   UNL d   1      -0.985  -0.284   0.233  0.00  0.00    -0.282 N 
ATOM      4  HN  UNL d   1      -1.991  -0.427   0.320  1.00  0.00     0.188 HD
ATOM      5  C   UNL d   1       0.933   0.707   0.106  0.00  0.00     0.168 A 
ATOM      6  N   UNL d   1      -0.355   0.922   0.231  0.00  0.00    -0.278 N 
ATOM      7  HN  UNL d   1      -0.806   1.833   0.311  1.00  0.00     0.189 HD
ENDROOT
BRANCH   2   8
ATOM      8  C   UNL d   1       2.445  -1.323  -0.103  0.00  0.00     0.043 A 
ATOM      9  C   UNL d   1       2.566  -2.492  -0.863  0.00  0.00     0.031 A 
ATOM     10  C   UNL d   1       3.776  -3.198  -0.884  0.00  0.00     0.010 A 
ATOM     11  C   UNL d   1       4.906  -2.753  -0.175  0.00  0.00    -0.051 A 
ATOM     12  C   UNL d   1       4.771  -1.566   0.558  0.00  0.00     0.010 A 
ATOM     13  C   UNL d   1       3.559  -0.863   0.600  0.00  0.00     0.031 A 
BRANCH  11  14
ATOM     14  C   UNL d   1       6.213  -3.565  -0.207  0.00  0.00    -0.024 C 
ATOM     15  C   UNL d   1       7.389  -2.881   0.529  0.00  0.00     0.019 C 
ATOM     16  C   UNL d   1       5.983  -4.933   0.469  0.00  0.00     0.019 C 
ATOM     17  C   UNL d   1       6.662  -3.788  -1.667  0.00  0.00     0.019 C 
ENDBRANCH  11  14
ENDBRANCH   2   8
BRANCH   1  18
ATOM     18  C   UNL d   1      -0.421  -2.673   0.199  0.00  0.00     0.032 A 
ATOM     19  C   UNL d   1      -1.470  -3.243  -0.547  0.00  0.00     0.048 A 
ATOM     20 CL   UNL d   1      -2.405  -2.340  -1.691  0.00  0.00    -0.083 Cl
ATOM     21  C   UNL d   1      -1.785  -4.603  -0.415  0.00  0.00     0.025 A 
ATOM     22  C   UNL d   1      -1.057  -5.414   0.453  0.00  0.00     0.002 A 
ATOM     23  C   UNL d   1      -0.028  -4.865   1.209  0.00  0.00     0.001 A 
ATOM     24  C   UNL d   1       0.272  -3.504   1.100  0.00  0.00     0.017 A 
ENDBRANCH   1  18
BRANCH   5  25
ATOM     25  S   UNL d   1       2.089   2.004  -0.053  0.00  0.00    -0.087 SA
BRANCH  25  26
ATOM     26  C   UNL d   1       1.103   3.351   0.666  0.00  0.00     0.126 C 
BRANCH  26  27
ATOM     27  C   UNL d   1       1.857   4.642   0.849  0.00  0.00     0.012 A 
ATOM     28  C   UNL d   1       1.733   5.646  -0.119  0.00  0.00     0.125 A 
ATOM     29  F   UNL d   1       1.029   5.412  -1.236  0.00  0.00    -0.205 F 
ATOM     30  C   UNL d   1       2.295   6.910   0.051  0.00  0.00     0.043 A 
ATOM     31  C   UNL d   1       3.013   7.196   1.207  0.00  0.00     0.005 A 
ATOM     32  C   UNL d   1       3.190   6.201   2.168  0.00  0.00     0.024 A 
ATOM     33  C   UNL d   1       2.626   4.930   1.987  0.00  0.00     0.044 A 
ATOM     34 CL   UNL d   1       2.898   3.757   3.227  0.00  0.00    -0.084 Cl
ENDBRANCH  26  27
ENDBRANCH  25  26
ENDBRANCH   5  25
TORSDOF 6
