REMARK  6 active torsions:
REMARK  status: ('A' for Active; 'I' for Inactive)
REMARK    1  A    between atoms: N_2  and  C_1 
REMARK       I    between atoms: C_4  and  N_2 
REMARK    2  A    between atoms: C_14  and  C_4 
REMARK    3  A    between atoms: C_5  and  C_15 
REMARK    4  A    between atoms: O_11  and  C_5 
REMARK    5  A    between atoms: C_16  and  C_14 
REMARK    6  A    between atoms: C_15  and  C_16 
ROOT
ATOM      1  N   UNL d   1       2.219  -2.301  -0.229  0.00  0.00    -0.327 N 
ATOM      2  C   UNL d   1       3.553  -2.492  -0.547  0.00  0.00     0.222 C 
ATOM      3  O   UNL d   1       4.332  -1.631  -0.947  0.00  0.00    -0.273 OA
ATOM      4  H   UNL d   1       1.673  -3.137  -0.068  0.00  0.00     0.169 HD
ENDROOT
BRANCH   1   5
ATOM      5  C   UNL d   1       1.532  -1.063  -0.159  0.00  0.00     0.042 A 
ATOM      6  C   UNL d   1       2.219   0.160  -0.176  0.00  0.00     0.053 A 
ATOM      7  C   UNL d   1       1.533   1.369  -0.073  0.00  0.00     0.036 A 
ATOM      8 CL   UNL d   1       2.408   2.852  -0.082  0.00  0.00    -0.084 Cl
ATOM      9  C   UNL d   1       0.152   1.386   0.053  0.00  0.00     0.024 A 
ATOM     10  C   UNL d   1      -0.547   0.181   0.079  0.00  0.00     0.011 A 
ATOM     11  C   UNL d   1       0.126  -1.052  -0.034  0.00  0.00    -0.035 A 
ATOM     12  C   UNL d   1      -0.713  -2.302   0.027  0.00  0.00     0.050 C 
ENDBRANCH   1   5
BRANCH   2  13
ATOM     13  C   UNL d   1       3.998  -3.934  -0.372  0.00  0.00     0.103 C 
BRANCH  13  14
ATOM     14  C   UNL d   1       5.520  -4.056  -0.215  0.00  0.00     0.019 C 
BRANCH  14  15
ATOM     15  C   UNL d   1       6.068  -3.363   1.038  0.00  0.00     0.110 C 
BRANCH  15  16
ATOM     16  C   UNL d   1       5.564  -3.992   2.316  0.00  0.00     0.139 C 
ATOM     17  O   UNL d   1       5.178  -5.146   2.419  0.00  0.00    -0.650 OA
BRANCH  16  18
ATOM     18  O   UNL d   1       5.592  -3.144   3.368  0.00  0.00    -0.776 OA
ATOM     19  H   UNL d   1       5.923  -2.251   3.151  0.00  0.00     0.167 HD
ENDBRANCH  16  18
ENDBRANCH  15  16
ENDBRANCH  14  15
ENDBRANCH  13  14
ENDBRANCH   2  13
TORSDOF 6
