REMARK  3 active torsions:
REMARK  status: ('A' for Active; 'I' for Inactive)
REMARK    1  A    between atoms: C_6  and  N_1 
REMARK    2  A    between atoms: C_9  and  C_4 
REMARK    3  A    between atoms: C_10  and  C_7 
ROOT
ATOM      1  N   UNL d   1       0.951  -0.723  -0.171  0.00  0.00    -0.258 N 
ATOM      2  N   UNL d   1       0.959   0.629   0.034  0.00  0.00    -0.297 N 
ATOM      3  HN  UNL d   1       1.771   1.218   0.219  1.00  0.00     0.187 HD
ATOM      4  C   UNL d   1      -0.351  -1.236  -0.125  0.00  0.00     0.044 C 
ATOM      5  C   UNL d   1      -1.159  -0.106  -0.174  0.00  0.00     0.055 C 
ATOM      6  C   UNL d   1      -0.313   1.019  -0.060  0.00  0.00     0.036 C 
ENDROOT
BRANCH   1   7
ATOM      7  C   UNL d   1       2.217  -1.365  -0.239  0.00  0.00     0.080 C 
ATOM      8  C   UNL d   1       3.216  -0.940   0.657  0.00  0.00     0.057 C 
ATOM      9  C   UNL d   1       4.387  -1.682   0.787  0.00  0.00     0.036 C 
ATOM     10 CL   UNL d   1       5.608  -1.167   1.889  0.00  0.00    -0.084 Cl
ATOM     11  C   UNL d   1       4.583  -2.839   0.051  0.00  0.00     0.026 C 
ATOM     12  C   UNL d   1       3.649  -3.180  -0.941  0.00  0.00     0.028 C 
ATOM     13  C   UNL d   1       2.509  -2.392  -1.138  0.00  0.00     0.062 C 
ATOM     14 CL   UNL d   1       1.631  -2.634  -2.607  0.00  0.00    -0.082 Cl
ENDBRANCH   1   7
BRANCH   4  15
ATOM     15  C   UNL d   1      -0.869  -2.680   0.031  0.00  0.00    -0.007 C 
ATOM     16  C   UNL d   1       0.151  -3.778   0.369  0.00  0.00     0.021 C 
ATOM     17  C   UNL d   1      -1.865  -2.723   1.222  0.00  0.00     0.021 C 
ATOM     18  C   UNL d   1      -1.652  -3.078  -1.239  0.00  0.00     0.021 C 
ENDBRANCH   4  15
BRANCH   6  19
ATOM     19  C   UNL d   1      -0.702   2.491  -0.005  0.00  0.00    -0.007 C 
ATOM     20  C   UNL d   1       0.524   3.418   0.156  0.00  0.00     0.021 C 
ATOM     21  C   UNL d   1      -1.426   2.886  -1.309  0.00  0.00     0.021 C 
ATOM     22  C   UNL d   1      -1.649   2.763   1.184  0.00  0.00     0.021 C 
ENDBRANCH   6  19
TORSDOF 3
