REMARK  6 active torsions:
REMARK  status: ('A' for Active; 'I' for Inactive)
REMARK    1  A    between atoms: C_3  and  C_1 
REMARK    2  A    between atoms: N_5  and  C_2 
REMARK    3  A    between atoms: O_14  and  C_3 
REMARK       I    between atoms: C_7  and  N_5 
REMARK    4  A    between atoms: C_12  and  C_7 
REMARK    5  A    between atoms: S_10  and  C_12 
REMARK    6  A    between atoms: C_13  and  S_10 
ROOT
ATOM      1  N   UNL d   1       1.581   3.107  -0.155  0.00  0.00    -0.325 N 
ATOM      2  C   UNL d   1       2.754   2.939   0.563  0.00  0.00     0.231 C 
ATOM      3  O   UNL d   1       2.900   2.126   1.477  0.00  0.00    -0.272 OA
ATOM      4  H   UNL d   1       1.635   3.521  -1.081  0.00  0.00     0.169 HD
ENDROOT
BRANCH   1   5
ATOM      5  C   UNL d   1       0.358   2.562   0.231  0.00  0.00     0.058 A 
ATOM      6  C   UNL d   1      -0.643   2.188  -0.659  0.00  0.00     0.106 A 
ATOM      7  S   UNL d   1      -2.020   1.573   0.178  0.00  0.00    -0.094 SA
ATOM      8  C   UNL d   1      -1.300   1.810   1.701  0.00  0.00     0.053 A 
ATOM      9  C   UNL d   1      -0.036   2.339   1.588  0.00  0.00     0.038 A 
BRANCH   6  10
ATOM     10  C   UNL d   1      -0.679   2.154  -2.110  0.00  0.00     0.302 C 
ATOM     11  O   UNL d   1      -1.584   1.684  -2.795  0.00  0.00    -0.259 OA
BRANCH  10  12
ATOM     12  O   UNL d   1       0.467   2.686  -2.638  0.00  0.00    -0.322 OA
ATOM     13  C   UNL d   1       0.579   2.582  -4.061  0.00  0.00     0.213 C 
ENDBRANCH  10  12
ENDBRANCH   6  10
ENDBRANCH   1   5
BRANCH   2  14
ATOM     14  C   UNL d   1       3.936   3.758   0.061  0.00  0.00     0.182 C 
BRANCH  14  15
ATOM     15  S   UNL d   1       3.458   5.509  -0.101  0.00  0.00    -0.121 SA
BRANCH  15  16
ATOM     16  C   UNL d   1       4.936   6.321  -0.686  0.00  0.00     0.001 A 
ATOM     17  C   UNL d   1       6.185   5.722  -0.865  0.00  0.00     0.019 A 
ATOM     18  C   UNL d   1       7.271   6.471  -1.345  0.00  0.00     0.008 A 
ATOM     19  C   UNL d   1       7.123   7.829  -1.651  0.00  0.00    -0.062 A 
ATOM     20  C   UNL d   1       5.881   8.432  -1.460  0.00  0.00     0.008 A 
ATOM     21  C   UNL d   1       8.285   8.620  -2.179  0.00  0.00     0.048 C 
ATOM     22  C   UNL d   1       4.802   7.684  -0.981  0.00  0.00     0.019 A 
ENDBRANCH  15  16
ENDBRANCH  14  15
ENDBRANCH   2  14
TORSDOF 6
