REMARK  6 active torsions:
REMARK  status: ('A' for Active; 'I' for Inactive)
REMARK    1  A    between atoms: C_5  and  C_1 
REMARK    2  A    between atoms: C_7  and  C_2 
REMARK       I    between atoms: N_9  and  C_7 
REMARK    3  A    between atoms: C_15  and  N_9 
REMARK    4  A    between atoms: C_12  and  C_15 
REMARK    5  A    between atoms: O_18  and  C_12 
REMARK    6  A    between atoms: C_23  and  O_18 
ROOT
ATOM      1  C   UNL d   1      -1.277  -0.588  -0.098  0.00  0.00     0.086 A 
ATOM      2  C   UNL d   1      -0.005  -1.246  -0.064  0.00  0.00     0.092 A 
ATOM      3  N   UNL d   1      -1.110   0.722  -0.353  0.00  0.00    -0.259 N 
ATOM      4  HN  UNL d   1      -1.846   1.411  -0.507  1.00  0.00     0.195 HD
ATOM      5  O   UNL d   1       0.242   0.953  -0.365  0.00  0.00    -0.241 OA
ATOM      6  C   UNL d   1       0.906  -0.213  -0.173  0.00  0.00     0.090 A 
ATOM      7  C   UNL d   1       2.375  -0.088  -0.088  0.00  0.00     0.080 C 
ENDROOT
BRANCH   2   8
ATOM      8  C   UNL d   1       0.297  -2.650   0.104  0.00  0.00     0.257 C 
ATOM      9  N   UNL d   1       1.342  -3.095  -0.678  0.00  0.00    -0.347 N 
ATOM     10  H   UNL d   1       1.696  -2.502  -1.420  0.00  0.00     0.163 HD
ATOM     11  O   UNL d   1      -0.346  -3.384   0.841  0.00  0.00    -0.267 OA
BRANCH   9  12
ATOM     12  C   UNL d   1       1.738  -4.494  -0.709  0.00  0.00     0.233 C 
BRANCH  12  13
ATOM     13  C   UNL d   1       2.940  -4.777  -1.609  0.00  0.00     0.276 C 
ATOM     14  O   UNL d   1       3.479  -5.873  -1.700  0.00  0.00    -0.263 OA
BRANCH  13  15
ATOM     15  O   UNL d   1       3.312  -3.666  -2.314  0.00  0.00    -0.321 OA
BRANCH  15  16
ATOM     16  C   UNL d   1       4.457  -3.820  -3.171  0.00  0.00     0.174 C 
ATOM     17  C   UNL d   1       4.054  -4.401  -4.514  0.00  0.00     0.034 C 
ENDBRANCH  15  16
ENDBRANCH  13  15
ENDBRANCH  12  13
ENDBRANCH   9  12
ENDBRANCH   2   8
BRANCH   1  18
ATOM     18  C   UNL d   1      -2.636  -1.117   0.052  0.00  0.00     0.037 A 
ATOM     19  C   UNL d   1      -3.513  -0.572   1.017  0.00  0.00     0.048 A 
ATOM     20 CL   UNL d   1      -3.020   0.625   2.174  0.00  0.00    -0.083 Cl
ATOM     21  C   UNL d   1      -4.848  -0.992   1.103  0.00  0.00     0.025 A 
ATOM     22  C   UNL d   1      -5.328  -1.981   0.253  0.00  0.00     0.003 A 
ATOM     23  C   UNL d   1      -4.473  -2.551  -0.686  0.00  0.00     0.025 A 
ATOM     24  C   UNL d   1      -3.143  -2.115  -0.799  0.00  0.00     0.048 A 
ATOM     25 CL   UNL d   1      -2.214  -2.827  -2.079  0.00  0.00    -0.083 Cl
ENDBRANCH   1  18
TORSDOF 6
