REMARK  5 active torsions:
REMARK  status: ('A' for Active; 'I' for Inactive)
REMARK    1  A    between atoms: O_6  and  C_1 
REMARK    2  A    between atoms: S_2  and  O_6 
REMARK    3  A    between atoms: C_5  and  S_2 
REMARK    4  A    between atoms: C_13  and  C_3 
REMARK    5  A    between atoms: O_28  and  C_21 
ROOT
ATOM      1  C   UNL d   1      -2.313  -0.229  -0.046  0.00  0.00     0.175 A 
ATOM      2  C   UNL d   1      -1.838  -1.486  -0.104  0.00  0.00     0.125 A 
ATOM      3  C   UNL d   1      -1.324   0.874   0.074  0.00  0.00     0.222 A 
ATOM      4  O   UNL d   1      -0.503  -1.844  -0.084  0.00  0.00    -0.306 OA
ATOM      5  C   UNL d   1       0.099   0.501  -0.006  0.00  0.00     0.051 A 
ATOM      6  C   UNL d   1       0.434  -0.848  -0.045  0.00  0.00     0.090 A 
ATOM      7  O   UNL d   1      -1.663   2.032   0.293  0.00  0.00    -0.284 OA
ATOM      8  C   UNL d   1       1.103   1.474  -0.001  0.00  0.00     0.018 A 
ATOM      9  C   UNL d   1       1.774  -1.238  -0.040  0.00  0.00     0.038 A 
ATOM     10  C   UNL d   1       2.443   1.085  -0.011  0.00  0.00     0.001 A 
ATOM     11  C   UNL d   1       2.779  -0.270  -0.020  0.00  0.00     0.003 A 
ENDROOT
BRANCH   1  12
ATOM     12  O   UNL d   1      -3.675   0.018   0.014  0.00  0.00    -0.222 OA
BRANCH  12  13
ATOM     13  S   UNL d   1      -4.426   1.290  -0.665  0.00  0.00     0.305 S 
ATOM     14  O   UNL d   1      -3.639   1.750  -1.795  0.00  0.00    -0.193 OA
ATOM     15  O   UNL d   1      -5.811   0.903  -0.884  0.00  0.00    -0.193 OA
BRANCH  13  16
ATOM     16  C   UNL d   1      -4.517   2.604   0.525  0.00  0.00     0.110 A 
ATOM     17  C   UNL d   1      -4.538   3.918   0.024  0.00  0.00     0.051 A 
ATOM     18  C   UNL d   1      -4.656   4.994   0.901  0.00  0.00     0.035 A 
ATOM     19 CL   UNL d   1      -4.726   6.599   0.287  0.00  0.00    -0.084 Cl
ATOM     20  C   UNL d   1      -4.738   4.778   2.273  0.00  0.00     0.025 A 
ATOM     21  C   UNL d   1      -4.714   3.472   2.769  0.00  0.00     0.027 A 
ATOM     22  C   UNL d   1      -4.614   2.377   1.899  0.00  0.00     0.058 A 
ATOM     23 CL   UNL d   1      -4.680   0.817   2.632  0.00  0.00    -0.083 Cl
ENDBRANCH  13  16
ENDBRANCH  12  13
ENDBRANCH   1  12
BRANCH   2  24
ATOM     24  C   UNL d   1      -2.728  -2.651  -0.218  0.00  0.00     0.001 A 
ATOM     25  C   UNL d   1      -3.084  -3.135  -1.483  0.00  0.00     0.017 A 
ATOM     26  C   UNL d   1      -3.905  -4.261  -1.608  0.00  0.00     0.037 A 
ATOM     27  C   UNL d   1      -4.378  -4.911  -0.468  0.00  0.00     0.068 A 
ATOM     28  C   UNL d   1      -4.013  -4.438   0.794  0.00  0.00     0.037 A 
ATOM     29  C   UNL d   1      -3.198  -3.308   0.923  0.00  0.00     0.017 A 
BRANCH  27  30
ATOM     30  O   UNL d   1      -5.157  -6.035  -0.467  0.00  0.00    -0.356 OA
ATOM     31  C   UNL d   1      -6.002  -6.201  -1.601  0.00  0.00     0.210 C 
ENDBRANCH  27  30
ENDBRANCH   2  24
TORSDOF 5
