REMARK  2 active torsions:
REMARK  status: ('A' for Active; 'I' for Inactive)
REMARK    1  A    between atoms: N_2  and  C_1 
REMARK    2  A    between atoms: C_11  and  C_4 
ROOT
ATOM      1  C   UNL d   1       2.359  -0.829  -0.037  0.00  0.00     0.115 A 
ATOM      2  C   UNL d   1       1.222  -1.533  -0.039  0.00  0.00     0.049 A 
ATOM      3  C   UNL d   1       2.462   0.659  -0.003  0.00  0.00     0.218 A 
ATOM      4  O   UNL d   1       1.189   1.351  -0.077  0.00  0.00    -0.332 OA
ATOM      5  C   UNL d   1      -0.016  -0.764  -0.012  0.00  0.00     0.003 A 
ATOM      6  C   UNL d   1       0.020   0.637  -0.031  0.00  0.00     0.102 A 
ATOM      7  C   UNL d   1      -1.184   1.359  -0.015  0.00  0.00     0.070 A 
ATOM      8  C   UNL d   1      -2.411   0.695   0.010  0.00  0.00     0.050 A 
ATOM      9  C   UNL d   1      -1.249  -1.428   0.012  0.00  0.00     0.038 A 
ATOM     10  C   UNL d   1      -2.436  -0.696   0.021  0.00  0.00     0.036 A 
ATOM     11 CL   UNL d   1      -1.194   3.087  -0.025  0.00  0.00    -0.081 Cl
ATOM     12 CL   UNL d   1      -3.944  -1.522   0.039  0.00  0.00    -0.084 Cl
ENDROOT
BRANCH   3  13
ATOM     13  C   UNL d   1       3.156   1.202   1.243  0.00  0.00    -0.023 A 
ATOM     14  C   UNL d   1       4.330   1.967   1.125  0.00  0.00     0.013 A 
ATOM     15  C   UNL d   1       4.947   2.500   2.259  0.00  0.00     0.043 A 
ATOM     16  C   UNL d   1       4.396   2.268   3.513  0.00  0.00     0.116 A 
ATOM     17  C   UNL d   1       3.245   1.505   3.657  0.00  0.00     0.043 A 
ATOM     18  F   UNL d   1       4.979   2.792   4.599  0.00  0.00    -0.206 F 
ATOM     19  C   UNL d   1       2.624   0.972   2.526  0.00  0.00     0.013 A 
ENDBRANCH   3  13
BRANCH   1  20
ATOM     20  N   UNL d   1       3.608  -1.553  -0.136  0.00  0.00    -0.117 N 
ATOM     21  O   UNL d   1       3.646  -2.705   0.314  0.00  0.00    -0.532 OA
ATOM     22  O   UNL d   1       4.554  -0.974  -0.686  0.00  0.00    -0.532 OA
ENDBRANCH   1  20
TORSDOF 2
