REMARK  4 active torsions:
REMARK  status: ('A' for Active; 'I' for Inactive)
REMARK    1  A    between atoms: C_9  and  C_1 
REMARK    2  A    between atoms: C_10  and  C_2 
REMARK    3  A    between atoms: C_3  and  N_16 
REMARK    4  A    between atoms: N_17  and  C_4 
REMARK       I    between atoms: C_13  and  N_17 
REMARK       I    between atoms: N_16  and  C_13 
ROOT
ATOM      1  C   UNL d   1       1.547  -2.772  -0.459  0.00  0.00     0.303 C 
ATOM      2  N   UNL d   1       2.531  -2.068   0.184  0.00  0.00    -0.309 N 
ATOM      3  N   UNL d   1       0.254  -2.401  -0.201  0.00  0.00    -0.206 NA
ATOM      4  O   UNL d   1       1.726  -3.753  -1.177  0.00  0.00    -0.253 OA
ATOM      5  H   UNL d   1       2.241  -1.504   0.970  0.00  0.00     0.170 HD
ATOM      6  H   UNL d   1      -0.328  -2.920  -0.856  0.00  0.00     0.138 HD
ENDROOT
BRANCH   3   7
ATOM      7  C   UNL d   1      -0.181  -1.091  -0.018  0.00  0.00     0.078 C 
ATOM      8  C   UNL d   1      -0.808  -0.530   1.143  0.00  0.00     0.092 C 
ATOM      9  N   UNL d   1      -1.234   0.720   0.878  0.00  0.00    -0.258 N 
ATOM     10  O   UNL d   1      -0.978   0.945  -0.453  0.00  0.00    -0.240 OA
ATOM     11  HN  UNL d   1      -1.663   1.371   1.536  1.00  0.00     0.195 HD
ATOM     12  C   UNL d   1      -0.418  -0.161  -1.007  0.00  0.00     0.096 C 
ATOM     13  C   UNL d   1      -0.281  -0.123  -2.475  0.00  0.00     0.081 C 
BRANCH   8  14
ATOM     14  C   UNL d   1      -1.100  -1.141   2.439  0.00  0.00     0.038 A 
ATOM     15  C   UNL d   1      -0.734  -0.502   3.642  0.00  0.00     0.048 A 
ATOM     16 CL   UNL d   1       0.199   0.960   3.691  0.00  0.00    -0.083 Cl
ATOM     17  C   UNL d   1      -1.092  -1.044   4.885  0.00  0.00     0.025 A 
ATOM     18  C   UNL d   1      -1.786  -2.247   4.954  0.00  0.00     0.003 A 
ATOM     19  C   UNL d   1      -2.141  -2.903   3.781  0.00  0.00     0.025 A 
ATOM     20  C   UNL d   1      -1.825  -2.347   2.534  0.00  0.00     0.048 A 
ATOM     21 CL   UNL d   1      -2.454  -3.197   1.158  0.00  0.00    -0.083 Cl
ENDBRANCH   8  14
ENDBRANCH   3   7
BRANCH   2  22
ATOM     22  C   UNL d   1       3.895  -2.319   0.045  0.00  0.00     0.097 A 
ATOM     23  C   UNL d   1       4.688  -2.914  -1.005  0.00  0.00     0.097 A 
ATOM     24  N   UNL d   1       5.987  -2.916  -0.656  0.00  0.00    -0.258 N 
ATOM     25  O   UNL d   1       6.064  -2.348   0.589  0.00  0.00    -0.240 OA
ATOM     26  HN  UNL d   1       6.765  -3.272  -1.211  1.00  0.00     0.195 HD
ATOM     27  C   UNL d   1       4.830  -1.970   1.000  0.00  0.00     0.101 A 
ATOM     28  C   UNL d   1       4.789  -1.335   2.330  0.00  0.00     0.081 C 
BRANCH  23  29
ATOM     29  C   UNL d   1       4.325  -3.376  -2.346  0.00  0.00     0.038 A 
ATOM     30  C   UNL d   1       3.697  -2.514  -3.267  0.00  0.00     0.048 A 
ATOM     31 CL   UNL d   1       3.330  -0.857  -2.909  0.00  0.00    -0.083 Cl
ATOM     32  C   UNL d   1       3.375  -2.949  -4.561  0.00  0.00     0.025 A 
ATOM     33  C   UNL d   1       3.709  -4.233  -4.977  0.00  0.00     0.003 A 
ATOM     34  C   UNL d   1       4.355  -5.092  -4.093  0.00  0.00     0.025 A 
ATOM     35  C   UNL d   1       4.650  -4.678  -2.786  0.00  0.00     0.048 A 
ATOM     36 CL   UNL d   1       5.416  -5.856  -1.769  0.00  0.00    -0.083 Cl
ENDBRANCH  23  29
ENDBRANCH   2  22
TORSDOF 4
