REMARK  5 active torsions:
REMARK  status: ('A' for Active; 'I' for Inactive)
REMARK    1  A    between atoms: C_13  and  C_1 
REMARK    2  A    between atoms: C_4  and  C_8 
REMARK    3  A    between atoms: C_5  and  C_7 
REMARK    4  A    between atoms: C_10  and  C_13 
REMARK       I    between atoms: N_14  and  C_10 
REMARK    5  A    between atoms: C_12  and  N_14 
ROOT
ATOM      1  C   UNL d   1       3.302  -2.637   0.761  0.00  0.00     0.226 C 
ATOM      2  N   UNL d   1       3.657  -1.408   1.303  0.00  0.00    -0.327 N 
ATOM      3  O   UNL d   1       4.018  -3.634   0.742  0.00  0.00    -0.273 OA
ATOM      4  H   UNL d   1       2.913  -0.741   1.465  0.00  0.00     0.169 HD
ENDROOT
BRANCH   2   5
ATOM      5  C   UNL d   1       4.917  -1.109   1.863  0.00  0.00     0.036 A 
ATOM      6  C   UNL d   1       6.085  -1.788   1.509  0.00  0.00     0.045 A 
ATOM      7  C   UNL d   1       7.309  -1.507   2.138  0.00  0.00     0.050 A 
ATOM      8  C   UNL d   1       7.344  -0.534   3.147  0.00  0.00     0.032 A 
ATOM      9  C   UNL d   1       6.184   0.169   3.508  0.00  0.00     0.050 A 
ATOM     10  C   UNL d   1       4.983  -0.098   2.826  0.00  0.00     0.045 A 
BRANCH   7  11
ATOM     11  C   UNL d   1       8.549  -2.267   1.729  0.00  0.00     0.417 C 
ATOM     12  F   UNL d   1       9.651  -1.927   2.456  0.00  0.00    -0.166 F 
ATOM     13  F   UNL d   1       8.412  -3.613   1.870  0.00  0.00    -0.166 F 
ATOM     14  F   UNL d   1       8.884  -2.053   0.427  0.00  0.00    -0.166 F 
ENDBRANCH   7  11
BRANCH   9  15
ATOM     15  C   UNL d   1       6.203   1.180   4.629  0.00  0.00     0.417 C 
ATOM     16  F   UNL d   1       7.321   1.109   5.403  0.00  0.00    -0.166 F 
ATOM     17  F   UNL d   1       6.137   2.461   4.177  0.00  0.00    -0.166 F 
ATOM     18  F   UNL d   1       5.151   1.028   5.482  0.00  0.00    -0.166 F 
ENDBRANCH   9  15
ENDBRANCH   2   5
BRANCH   1  19
ATOM     19  C   UNL d   1       1.891  -2.682   0.189  0.00  0.00     0.145 C 
BRANCH  19  20
ATOM     20  C   UNL d   1       1.895  -2.355  -1.266  0.00  0.00    -0.007 A 
ATOM     21  C   UNL d   1       2.591  -3.013  -2.269  0.00  0.00     0.057 A 
ATOM     22  O   UNL d   1       2.425  -2.378  -3.461  0.00  0.00    -0.314 OA
ATOM     23  C   UNL d   1       3.459  -4.212  -2.291  0.00  0.00     0.077 C 
ATOM     24  C   UNL d   1       1.575  -1.341  -3.249  0.00  0.00     0.086 A 
ATOM     25  C   UNL d   1       1.176  -1.307  -1.919  0.00  0.00     0.007 A 
ATOM     26  C   UNL d   1       1.149  -0.439  -4.221  0.00  0.00     0.038 A 
ATOM     27  C   UNL d   1       0.240  -0.328  -1.530  0.00  0.00     0.015 A 
ATOM     28  C   UNL d   1      -0.228   0.579  -2.492  0.00  0.00     0.001 A 
ATOM     29  C   UNL d   1       0.232   0.533  -3.810  0.00  0.00     0.003 A 
ENDBRANCH  19  20
ENDBRANCH   1  19
TORSDOF 5
