REMARK  3 active torsions:
REMARK  status: ('A' for Active; 'I' for Inactive)
REMARK    1  A    between atoms: N_4  and  C_1 
REMARK       I    between atoms: C_6  and  N_4 
REMARK    2  A    between atoms: C_13  and  C_5 
REMARK    3  A    between atoms: C_8  and  C_6 
ROOT
ATOM      1  C   UNL d   1       0.322  -1.096   0.015  0.00  0.00     0.151 A 
ATOM      2  N   UNL d   1       1.455  -0.449   0.024  0.00  0.00    -0.335 N 
ATOM      3  HN  UNL d   1       2.376  -0.886  -0.006  1.00  0.00     0.168 HD
ATOM      4  C   UNL d   1       1.228   0.914   0.081  0.00  0.00     0.051 A 
ATOM      5  S   UNL d   1      -1.087  -0.145   0.160  0.00  0.00    -0.063 SA
ATOM      6  C   UNL d   1      -0.108   1.272   0.138  0.00  0.00     0.083 A 
ENDROOT
BRANCH   1   7
ATOM      7  N   UNL d   1       0.107  -2.434  -0.119  0.00  0.00    -0.307 N 
ATOM      8  C   UNL d   1       1.055  -3.382  -0.411  0.00  0.00     0.227 C 
ATOM      9  O   UNL d   1       0.721  -4.565  -0.459  0.00  0.00    -0.273 OA
ATOM     10  H   UNL d   1      -0.837  -2.773  -0.029  0.00  0.00     0.171 HD
BRANCH   8  11
ATOM     11  C   UNL d   1       2.471  -2.997  -0.690  0.00  0.00     0.078 A 
ATOM     12  C   UNL d   1       3.461  -3.991  -1.254  0.00  0.00     0.015 A 
ATOM     13  C   UNL d   1       3.575  -3.556   0.178  0.00  0.00     0.015 A 
ENDBRANCH   8  11
ENDBRANCH   1   7
BRANCH   4  14
ATOM     14  C   UNL d   1       2.357   1.840   0.022  0.00  0.00    -0.009 A 
ATOM     15  C   UNL d   1       3.571   1.392  -0.523  0.00  0.00     0.014 A 
ATOM     16  C   UNL d   1       4.676   2.238  -0.604  0.00  0.00     0.001 A 
ATOM     17  C   UNL d   1       4.587   3.542  -0.126  0.00  0.00     0.000 A 
ATOM     18  C   UNL d   1       3.391   3.997   0.432  0.00  0.00     0.001 A 
ATOM     19  C   UNL d   1       2.279   3.149   0.506  0.00  0.00     0.014 A 
ENDBRANCH   4  14
TORSDOF 3
