REMARK  4 active torsions:
REMARK  status: ('A' for Active; 'I' for Inactive)
REMARK    1  A    between atoms: C_2  and  C_1 
REMARK       I    between atoms: N_3  and  C_1 
REMARK    2  A    between atoms: C_7  and  N_3 
REMARK    3  A    between atoms: C_12  and  C_7 
REMARK    4  A    between atoms: O_10  and  C_12 
ROOT
ATOM      1  C   UNL d   1       0.833  -0.127  -0.162  0.00  0.00     0.257 C 
ATOM      2  N   UNL d   1       0.123   0.862  -0.805  0.00  0.00    -0.346 N 
ATOM      3  O   UNL d   1       0.310  -0.933   0.602  0.00  0.00    -0.267 OA
ATOM      4  H   UNL d   1       0.611   1.476  -1.452  0.00  0.00     0.163 HD
ENDROOT
BRANCH   1   5
ATOM      5  C   UNL d   1       2.305  -0.160  -0.388  0.00  0.00     0.092 A 
ATOM      6  C   UNL d   1       3.048  -1.349  -0.319  0.00  0.00     0.052 A 
ATOM      7 CL   UNL d   1       2.335  -2.922  -0.214  0.00  0.00    -0.083 Cl
ATOM      8  C   UNL d   1       4.451  -1.313  -0.395  0.00  0.00     0.025 A 
ATOM      9  C   UNL d   1       5.125  -0.105  -0.562  0.00  0.00     0.005 A 
ATOM     10  C   UNL d   1       4.396   1.073  -0.676  0.00  0.00     0.043 A 
ATOM     11  C   UNL d   1       3.003   1.039  -0.587  0.00  0.00     0.133 A 
ATOM     12  F   UNL d   1       2.353   2.209  -0.689  0.00  0.00    -0.205 F 
ENDBRANCH   1   5
BRANCH   2  13
ATOM     13  C   UNL d   1      -1.329   1.096  -0.681  0.00  0.00     0.047 C 
ATOM     14  C   UNL d   1      -2.117  -0.120  -1.193  0.00  0.00     0.040 C 
ATOM     15  C   UNL d   1      -1.720   1.399   0.776  0.00  0.00     0.040 C 
BRANCH  13  16
ATOM     16  C   UNL d   1      -1.696   2.345  -1.532  0.00  0.00     0.194 C 
BRANCH  16  17
ATOM     17  O   UNL d   1      -1.307   2.178  -2.896  0.00  0.00    -0.398 OA
ATOM     18  H   UNL d   1      -2.122   2.117  -3.423  0.00  0.00     0.209 HD
ENDBRANCH  16  17
ENDBRANCH  13  16
ENDBRANCH   2  13
TORSDOF 4
