REMARK  6 active torsions:
REMARK  status: ('A' for Active; 'I' for Inactive)
REMARK    1  A    between atoms: N_5  and  C_1 
REMARK    2  A    between atoms: N_6  and  C_1 
REMARK       I    between atoms: C_2  and  N_4 
REMARK    3  A    between atoms: C_3  and  C_2 
REMARK    4  A    between atoms: N_4  and  N_5 
REMARK    5  A    between atoms: C_8  and  N_6 
REMARK    6  A    between atoms: O_15  and  C_13 
ROOT
ATOM      1  N   UNL d   1       0.483  -1.137  -0.738  0.00  0.00    -0.273 N 
ATOM      2  H   UNL d   1      -0.446  -1.003  -1.140  0.00  0.00     0.189 HD
ENDROOT
BRANCH   1   3
ATOM      3  N   UNL d   1       1.053  -2.402  -0.910  0.00  0.00    -0.264 N 
ATOM      4  C   UNL d   1       0.264  -3.382  -1.473  0.00  0.00     0.271 C 
ATOM      5  O   UNL d   1      -0.862  -3.148  -1.913  0.00  0.00    -0.266 OA
ATOM      6  H   UNL d   1       1.900  -2.580  -0.383  0.00  0.00     0.190 HD
BRANCH   4   7
ATOM      7  C   UNL d   1       0.812  -4.765  -1.525  0.00  0.00     0.049 A 
ATOM      8  C   UNL d   1       0.064  -5.748  -2.166  0.00  0.00     0.104 A 
ATOM      9  N   UNL d   1       0.457  -7.041  -2.299  0.00  0.00    -0.374 N 
ATOM     10  C   UNL d   1       1.653  -7.371  -1.769  0.00  0.00     0.087 A 
ATOM     11  HN  UNL d   1      -0.124  -7.730  -2.777  1.00  0.00     0.164 HD
ATOM     12  C   UNL d   1       2.468  -6.470  -1.104  0.00  0.00     0.018 A 
ATOM     13  C   UNL d   1       2.041  -5.149  -0.978  0.00  0.00     0.020 A 
ENDBRANCH   4   7
ENDBRANCH   1   3
BRANCH   1  14
ATOM     14  C   UNL d   1       1.109  -0.144  -0.037  0.00  0.00     0.191 C 
ATOM     15  S   UNL d   1       2.771  -0.049   0.167  0.00  0.00    -0.039 SA
BRANCH  14  16
ATOM     16  N   UNL d   1       0.324   0.830   0.518  0.00  0.00    -0.332 N 
ATOM     17  H   UNL d   1       0.836   1.656   0.803  0.00  0.00     0.168 HD
BRANCH  16  18
ATOM     18  C   UNL d   1      -1.014   0.750   0.976  0.00  0.00     0.036 A 
ATOM     19  C   UNL d   1      -1.736  -0.446   1.046  0.00  0.00     0.066 A 
ATOM     20  C   UNL d   1      -3.050  -0.475   1.513  0.00  0.00     0.070 A 
ATOM     21  C   UNL d   1      -3.632   0.707   1.972  0.00  0.00     0.037 A 
ATOM     22  C   UNL d   1      -2.909   1.899   1.958  0.00  0.00     0.005 A 
ATOM     23  C   UNL d   1      -1.605   1.921   1.459  0.00  0.00     0.029 A 
BRANCH  20  24
ATOM     24  O   UNL d   1      -3.841  -1.589   1.584  0.00  0.00    -0.356 OA
ATOM     25  C   UNL d   1      -3.314  -2.782   1.005  0.00  0.00     0.210 C 
ENDBRANCH  20  24
ENDBRANCH  16  18
ENDBRANCH  14  16
ENDBRANCH   1  14
TORSDOF 6
