REMARK  4 active torsions:
REMARK  status: ('A' for Active; 'I' for Inactive)
REMARK    1  A    between atoms: C_2  and  S_1 
REMARK    2  A    between atoms: C_3  and  S_1 
REMARK    3  A    between atoms: N_11  and  C_4 
REMARK    4  A    between atoms: C_12  and  N_11 
ROOT
ATOM      1  C   UNL d   1       0.428  -0.213  -1.630  0.00  0.00     0.160 C 
ATOM      2  C   UNL d   1      -0.326  -1.281  -1.946  0.00  0.00     0.123 C 
ATOM      3  C   UNL d   1       0.838   0.076  -0.312  0.00  0.00     0.113 C 
ATOM      4  N   UNL d   1       1.151   0.297   0.784  0.00  0.00    -0.191 NA
ENDROOT
BRANCH   1   5
ATOM      5  S   UNL d   1       0.788   0.952  -2.861  0.00  0.00     0.233 S 
ATOM      6  O   UNL d   1      -0.214   2.005  -2.784  0.00  0.00    -0.215 OA
ATOM      7  O   UNL d   1       1.024   0.293  -4.136  0.00  0.00    -0.215 OA
BRANCH   5   8
ATOM      8  C   UNL d   1       2.343   1.680  -2.345  0.00  0.00     0.134 A 
ATOM      9  N   UNL d   1       3.367   0.791  -2.261  0.00  0.00    -0.356 N 
ATOM     10  C   UNL d   1       4.550   1.298  -1.850  0.00  0.00     0.089 A 
ATOM     11  HN  UNL d   1       3.251  -0.195  -2.493  1.00  0.00     0.166 HD
ATOM     12  C   UNL d   1       4.739   2.628  -1.499  0.00  0.00     0.017 A 
ATOM     13  C   UNL d   1       3.658   3.502  -1.583  0.00  0.00     0.004 A 
ATOM     14  C   UNL d   1       2.426   3.027  -2.021  0.00  0.00     0.042 A 
ENDBRANCH   5   8
ENDBRANCH   1   5
BRANCH   2  15
ATOM     15  N   UNL d   1      -0.839  -2.245  -1.103  0.00  0.00    -0.364 N 
ATOM     16  H   UNL d   1      -0.706  -2.113  -0.102  0.00  0.00     0.165 HD
BRANCH  15  17
ATOM     17  C   UNL d   1      -1.501  -3.438  -1.446  0.00  0.00     0.032 A 
ATOM     18  C   UNL d   1      -1.390  -4.037  -2.707  0.00  0.00     0.031 A 
ATOM     19  C   UNL d   1      -2.099  -5.204  -3.016  0.00  0.00     0.026 A 
ATOM     20  C   UNL d   1      -2.951  -5.768  -2.071  0.00  0.00     0.034 A 
ATOM     21  C   UNL d   1      -3.098  -5.177  -0.821  0.00  0.00     0.026 A 
ATOM     22 CL   UNL d   1      -3.826  -7.199  -2.453  0.00  0.00    -0.084 Cl
ATOM     23  C   UNL d   1      -2.377  -4.018  -0.513  0.00  0.00     0.031 A 
ENDBRANCH  15  17
ENDBRANCH   2  15
TORSDOF 4
