REMARK  6 active torsions:
REMARK  status: ('A' for Active; 'I' for Inactive)
REMARK    1  A    between atoms: C_12  and  N_1 
REMARK    2  A    between atoms: N_2  and  C_13 
REMARK    3  A    between atoms: C_7  and  C_18 
REMARK    4  A    between atoms: N_14  and  C_12 
REMARK    5  A    between atoms: C_13  and  N_14 
REMARK    6  A    between atoms: C_18  and  N_14 
ROOT
ATOM      1  N   UNL d   1       3.839   1.292   0.207  0.00  0.00     0.128 N 
ENDROOT
BRANCH   1   2
ATOM      2  C   UNL d   1       3.515   1.757   1.560  0.00  0.00     0.410 C 
BRANCH   2   3
ATOM      3  N   UNL d   1       3.960   3.118   1.758  0.00  0.00    -0.252 N 
ATOM      4  C   UNL d   1       4.799   3.493   2.767  0.00  0.00     0.263 C 
ATOM      5  C   UNL d   1       5.092   4.903   2.558  0.00  0.00     0.048 A 
ATOM      6  O   UNL d   1       5.243   2.848   3.697  0.00  0.00    -0.267 OA
ATOM      7  C   UNL d   1       6.051   5.708   3.139  0.00  0.00     0.018 A 
ATOM      8  C   UNL d   1       4.247   5.356   1.562  0.00  0.00     0.048 A 
ATOM      9  C   UNL d   1       6.137   7.024   2.679  0.00  0.00     0.001 A 
ATOM     10  C   UNL d   1       5.259   7.498   1.681  0.00  0.00     0.001 A 
ATOM     11  C   UNL d   1       4.293   6.660   1.112  0.00  0.00     0.018 A 
ATOM     12  C   UNL d   1       3.450   4.213   1.115  0.00  0.00     0.263 C 
ATOM     13  O   UNL d   1       2.515   4.306   0.342  0.00  0.00    -0.267 OA
ENDBRANCH   2   3
ENDBRANCH   1   2
BRANCH   1  14
ATOM     14  C   UNL d   1       3.276  -0.025  -0.107  0.00  0.00     0.410 C 
BRANCH  14  15
ATOM     15  N   UNL d   1       1.845  -0.052   0.058  0.00  0.00    -0.252 N 
ATOM     16  C   UNL d   1       0.932   0.299  -0.900  0.00  0.00     0.263 A 
ATOM     17  C   UNL d   1      -0.388   0.120  -0.287  0.00  0.00     0.048 A 
ATOM     18  O   UNL d   1       1.106   0.640  -2.053  0.00  0.00    -0.267 OA
ATOM     19  C   UNL d   1      -1.655   0.401  -0.763  0.00  0.00     0.018 A 
ATOM     20  C   UNL d   1      -0.194  -0.413   0.973  0.00  0.00     0.048 A 
ATOM     21  C   UNL d   1      -2.732   0.133   0.091  0.00  0.00     0.001 A 
ATOM     22  C   UNL d   1      -2.526  -0.410   1.375  0.00  0.00     0.001 A 
ATOM     23  C   UNL d   1      -1.238  -0.698   1.831  0.00  0.00     0.018 A 
ATOM     24  C   UNL d   1       1.241  -0.557   1.174  0.00  0.00     0.263 A 
ATOM     25  O   UNL d   1       1.745  -1.032   2.175  0.00  0.00    -0.267 OA
ENDBRANCH  14  15
ENDBRANCH   1  14
BRANCH   1  26
ATOM     26  C   UNL d   1       5.260   1.373  -0.176  0.00  0.00     0.316 C 
BRANCH  26  27
ATOM     27  C   UNL d   1       6.205   0.514   0.635  0.00  0.00    -0.012 A 
ATOM     28  C   UNL d   1       6.906   0.974   1.733  0.00  0.00     0.060 A 
ATOM     29  S   UNL d   1       7.887  -0.200   2.468  0.00  0.00    -0.101 SA
ATOM     30  C   UNL d   1       7.522  -1.352   1.252  0.00  0.00     0.015 A 
ATOM     31  C   UNL d   1       6.612  -0.847   0.315  0.00  0.00    -0.011 A 
ATOM     32  C   UNL d   1       8.055  -2.651   1.154  0.00  0.00     0.019 A 
ATOM     33  C   UNL d   1       6.257  -1.699  -0.764  0.00  0.00     0.013 A 
ATOM     34  C   UNL d   1       6.787  -2.989  -0.868  0.00  0.00     0.001 A 
ATOM     35  C   UNL d   1       7.679  -3.460   0.083  0.00  0.00     0.001 A 
ENDBRANCH  26  27
ENDBRANCH   1  26
TORSDOF 6
