REMARK  6 active torsions:
REMARK  status: ('A' for Active; 'I' for Inactive)
REMARK    1  A    between atoms: C_3  and  S_1 
REMARK    2  A    between atoms: C_9  and  S_1 
REMARK    3  A    between atoms: C_6  and  C_2 
REMARK       I    between atoms: C_4  and  N_5 
REMARK    4  A    between atoms: C_8  and  C_4 
REMARK       I    between atoms: N_5  and  C_7 
REMARK       I    between atoms: C_7  and  N_10 
REMARK    5  A    between atoms: C_23  and  C_9 
REMARK    6  A    between atoms: N_10  and  C_17 
ROOT
ATOM      1  C   UNL d   1      -0.714  -0.063  -2.751  0.00  0.00     0.071 A 
ATOM      2  C   UNL d   1       0.015  -0.606  -1.682  0.00  0.00     0.074 A 
ATOM      3  C   UNL d   1      -1.102  -0.931  -3.818  0.00  0.00     0.047 A 
ATOM      4  C   UNL d   1       0.478  -1.935  -1.799  0.00  0.00     0.026 A 
ATOM      5  C   UNL d   1      -0.687  -2.265  -3.893  0.00  0.00     0.037 A 
ATOM      6  C   UNL d   1       0.165  -2.738  -2.903  0.00  0.00     0.031 A 
ENDROOT
BRANCH   5   7
ATOM      7  N   UNL d   1      -1.079  -3.168  -4.908  0.00  0.00    -0.309 N 
ATOM      8  C   UNL d   1      -2.232  -3.096  -5.643  0.00  0.00     0.327 C 
ATOM      9  N   UNL d   1      -2.530  -4.199  -6.425  0.00  0.00    -0.275 N 
ATOM     10  O   UNL d   1      -3.045  -2.175  -5.627  0.00  0.00    -0.247 OA
ATOM     11  C   UNL d   1      -1.794  -5.351  -6.678  0.00  0.00     0.261 C 
ATOM     12  H   UNL d   1      -3.450  -4.110  -6.826  0.00  0.00     0.173 HD
ATOM     13  O   UNL d   1      -0.685  -5.546  -6.184  0.00  0.00    -0.267 OA
ATOM     14  H   UNL d   1      -0.596  -4.065  -4.958  0.00  0.00     0.170 HD
BRANCH  11  15
ATOM     15  C   UNL d   1      -2.431  -6.340  -7.607  0.00  0.00     0.054 A 
ATOM     16  C   UNL d   1      -2.271  -7.727  -7.450  0.00  0.00     0.049 A 
ATOM     17 CL   UNL d   1      -1.424  -8.445  -6.127  0.00  0.00    -0.083 Cl
ATOM     18  C   UNL d   1      -2.862  -8.613  -8.368  0.00  0.00     0.025 A 
ATOM     19  C   UNL d   1      -3.618  -8.134  -9.434  0.00  0.00     0.002 A 
ATOM     20  C   UNL d   1      -3.789  -6.762  -9.597  0.00  0.00     0.001 A 
ATOM     21  C   UNL d   1      -3.191  -5.871  -8.697  0.00  0.00     0.019 A 
ENDBRANCH  11  15
ENDBRANCH   5   7
BRANCH   1  22
ATOM     22  C   UNL d   1      -1.057   1.389  -2.943  0.00  0.00     0.419 C 
ATOM     23  F   UNL d   1      -0.560   2.224  -2.003  0.00  0.00    -0.166 F 
ATOM     24  F   UNL d   1      -0.602   1.879  -4.130  0.00  0.00    -0.166 F 
ATOM     25  F   UNL d   1      -2.401   1.604  -2.942  0.00  0.00    -0.166 F 
ENDBRANCH   1  22
BRANCH   2  26
ATOM     26  S   UNL d   1       0.666   0.290  -0.263  0.00  0.00     0.180 S 
ATOM     27  O   UNL d   1       1.719   1.116  -0.830  0.00  0.00    -0.222 OA
ATOM     28  O   UNL d   1       1.033  -0.733   0.709  0.00  0.00    -0.222 OA
BRANCH  26  29
ATOM     29  C   UNL d   1      -0.443   1.375   0.577  0.00  0.00     0.184 C 
BRANCH  29  30
ATOM     30  C   UNL d   1      -1.769   0.821   1.029  0.00  0.00    -0.044 A 
ATOM     31  C   UNL d   1      -1.855  -0.131   2.056  0.00  0.00     0.010 A 
ATOM     32  C   UNL d   1      -3.089  -0.446   2.638  0.00  0.00     0.024 A 
ATOM     33  C   UNL d   1      -4.249   0.188   2.198  0.00  0.00     0.034 A 
ATOM     34  C   UNL d   1      -4.186   1.126   1.172  0.00  0.00     0.024 A 
ATOM     35 CL   UNL d   1      -5.756  -0.156   2.953  0.00  0.00    -0.084 Cl
ATOM     36  C   UNL d   1      -2.954   1.439   0.589  0.00  0.00     0.010 A 
ENDBRANCH  29  30
ENDBRANCH  26  29
ENDBRANCH   2  26
TORSDOF 6
