REMARK  6 active torsions:
REMARK  status: ('A' for Active; 'I' for Inactive)
REMARK    1  A    between atoms: C_9  and  C_2 
REMARK    2  A    between atoms: S_11  and  C_5 
REMARK    3  A    between atoms: C_8  and  C_10 
REMARK    4  A    between atoms: C_14  and  S_11 
REMARK    5  A    between atoms: C_12  and  C_14 
REMARK    6  A    between atoms: C_13  and  C_12 
ROOT
ATOM      1  O   UNL d   1      -1.094  -0.040   0.203  0.00  0.00    -0.267 OA
ATOM      2  C   UNL d   1      -0.199  -1.061   0.028  0.00  0.00     0.175 A 
ATOM      3  N   UNL d   1       1.049  -0.633  -0.005  0.00  0.00    -0.277 N 
ATOM      4  HN  UNL d   1       1.885  -1.204  -0.127  1.00  0.00     0.189 HD
ATOM      5  C   UNL d   1      -0.269   1.055   0.281  0.00  0.00     0.204 A 
ATOM      6  N   UNL d   1       1.002   0.733   0.159  0.00  0.00    -0.272 N 
ATOM      7  HN  UNL d   1       1.797   1.371   0.181  1.00  0.00     0.189 HD
ENDROOT
BRANCH   5   8
ATOM      8  S   UNL d   1      -0.863   2.666   0.525  0.00  0.00    -0.077 SA
BRANCH   8   9
ATOM      9  C   UNL d   1       0.696   3.611   0.588  0.00  0.00     0.166 C 
BRANCH   9  10
ATOM     10  C   UNL d   1       0.437   5.081   0.902  0.00  0.00     0.169 C 
ATOM     11  O   UNL d   1      -0.690   5.558   1.038  0.00  0.00    -0.291 OA
BRANCH  10  12
ATOM     12  C   UNL d   1       1.608   6.005   1.059  0.00  0.00     0.011 A 
ATOM     13  C   UNL d   1       2.938   5.593   0.892  0.00  0.00     0.018 A 
ATOM     14  C   UNL d   1       3.983   6.509   1.071  0.00  0.00     0.043 A 
ATOM     15  C   UNL d   1       3.701   7.828   1.412  0.00  0.00     0.116 A 
ATOM     16  C   UNL d   1       2.392   8.257   1.573  0.00  0.00     0.043 A 
ATOM     17  F   UNL d   1       4.707   8.694   1.589  0.00  0.00    -0.206 F 
ATOM     18  C   UNL d   1       1.347   7.347   1.395  0.00  0.00     0.018 A 
ENDBRANCH  10  12
ENDBRANCH   9  10
ENDBRANCH   8   9
ENDBRANCH   5   8
BRANCH   2  19
ATOM     19  C   UNL d   1      -0.718  -2.421  -0.091  0.00  0.00     0.017 A 
ATOM     20  C   UNL d   1      -2.088  -2.717  -0.040  0.00  0.00     0.017 A 
ATOM     21  C   UNL d   1      -2.542  -4.039  -0.163  0.00  0.00     0.017 A 
ATOM     22  C   UNL d   1      -1.636  -5.094  -0.341  0.00  0.00     0.048 A 
ATOM     23  C   UNL d   1      -0.267  -4.802  -0.387  0.00  0.00     0.017 A 
ATOM     24  C   UNL d   1       0.184  -3.484  -0.264  0.00  0.00     0.017 A 
BRANCH  22  25
ATOM     25  C   UNL d   1      -2.103  -6.524  -0.489  0.00  0.00     0.417 C 
ATOM     26  F   UNL d   1      -3.455  -6.667  -0.423  0.00  0.00    -0.166 F 
ATOM     27  F   UNL d   1      -1.727  -7.071  -1.679  0.00  0.00    -0.166 F 
ATOM     28  F   UNL d   1      -1.592  -7.340   0.474  0.00  0.00    -0.166 F 
ENDBRANCH  22  25
ENDBRANCH   2  19
TORSDOF 6
