REMARK  3 active torsions:
REMARK  status: ('A' for Active; 'I' for Inactive)
REMARK    1  A    between atoms: N_2  and  S_1 
REMARK    2  A    between atoms: C_5  and  S_1 
REMARK       I    between atoms: C_4  and  N_3 
REMARK    3  A    between atoms: C_13  and  C_4 
ROOT
ATOM      1  N   UNL d   1       0.640  -0.668  -1.145  0.00  0.00    -0.304 N 
ATOM      2  N   UNL d   1      -1.622  -2.507  -0.954  0.00  0.00    -0.349 N 
ATOM      3  C   UNL d   1      -2.662  -3.441  -0.795  0.00  0.00     0.224 C 
ATOM      4  C   UNL d   1      -0.750  -0.199  -1.374  0.00  0.00     0.155 C 
ATOM      5  C   UNL d   1       0.806  -2.100  -1.526  0.00  0.00     0.155 C 
ATOM      6  C   UNL d   1      -0.240  -3.014  -0.865  0.00  0.00     0.146 C 
ATOM      7  C   UNL d   1      -1.761  -1.080  -0.621  0.00  0.00     0.146 C 
ATOM      8  O   UNL d   1      -2.429  -4.653  -0.771  0.00  0.00    -0.273 OA
ENDROOT
BRANCH   1   9
ATOM      9  S   UNL d   1       1.435  -0.087   0.236  0.00  0.00     0.260 S 
ATOM     10  O   UNL d   1       2.532  -0.986   0.553  0.00  0.00    -0.200 OA
ATOM     11  O   UNL d   1       0.442   0.275   1.225  0.00  0.00    -0.200 OA
BRANCH   9  12
ATOM     12  C   UNL d   1       2.166   1.425  -0.381  0.00  0.00     0.079 A 
ATOM     13  C   UNL d   1       1.443   2.623  -0.330  0.00  0.00     0.027 A 
ATOM     14  C   UNL d   1       2.022   3.802  -0.815  0.00  0.00     0.025 A 
ATOM     15  C   UNL d   1       3.321   3.781  -1.327  0.00  0.00     0.034 A 
ATOM     16  C   UNL d   1       4.057   2.596  -1.340  0.00  0.00     0.025 A 
ATOM     17 CL   UNL d   1       4.018   5.227  -1.947  0.00  0.00    -0.084 Cl
ATOM     18  C   UNL d   1       3.481   1.414  -0.862  0.00  0.00     0.027 A 
ENDBRANCH   9  12
ENDBRANCH   1   9
BRANCH   3  19
ATOM     19  C   UNL d   1      -4.105  -2.915  -0.722  0.00  0.00     0.078 C 
ATOM     20  C   UNL d   1      -5.062  -3.842   0.044  0.00  0.00     0.014 C 
ATOM     21  C   UNL d   1      -5.644  -5.004  -0.755  0.00  0.00     0.001 C 
ATOM     22  C   UNL d   1      -6.155  -4.598  -2.130  0.00  0.00     0.000 C 
ATOM     23  C   UNL d   1      -5.150  -3.759  -2.907  0.00  0.00     0.001 C 
ATOM     24  C   UNL d   1      -4.644  -2.555  -2.112  0.00  0.00     0.014 C 
ENDBRANCH   3  19
TORSDOF 3
