REMARK  3 active torsions:
REMARK  status: ('A' for Active; 'I' for Inactive)
REMARK    1  A    between atoms: C_7  and  N_1 
REMARK    2  A    between atoms: C_4  and  O_8 
REMARK    3  A    between atoms: O_8  and  C_16 
ROOT
ATOM      1  C   UNL d   1       0.047   2.320  -0.034  0.00  0.00     0.046 A 
ATOM      2  C   UNL d   1      -0.729   3.063   0.872  0.00  0.00     0.033 A 
ATOM      3  C   UNL d   1       0.880   3.047  -0.897  0.00  0.00     0.033 A 
ATOM      4  C   UNL d   1       0.241   5.156   0.124  0.00  0.00     0.078 A 
ATOM      5  C   UNL d   1      -0.636   4.463   0.952  0.00  0.00     0.039 A 
ATOM      6  C   UNL d   1       0.968   4.443  -0.824  0.00  0.00     0.039 A 
ENDROOT
BRANCH   1   7
ATOM      7  N   UNL d   1       0.008   0.894  -0.066  0.00  0.00    -0.245 N 
ATOM      8  C   UNL d   1      -0.892   0.103   0.597  0.00  0.00     0.255 A 
ATOM      9  C   UNL d   1      -0.547  -1.296   0.320  0.00  0.00     0.080 A 
ATOM     10  O   UNL d   1      -1.852   0.379   1.297  0.00  0.00    -0.268 OA
ATOM     11  C   UNL d   1       0.516  -1.304  -0.476  0.00  0.00     0.080 A 
ATOM     12  C   UNL d   1       0.893   0.090  -0.734  0.00  0.00     0.255 A 
ATOM     13  O   UNL d   1       1.872   0.350  -1.415  0.00  0.00    -0.268 OA
ENDBRANCH   1   7
BRANCH   4  14
ATOM     14  O   UNL d   1       0.470   6.499   0.131  0.00  0.00    -0.255 OA
BRANCH  14  15
ATOM     15  C   UNL d   1       0.156   7.202   1.322  0.00  0.00     0.530 C 
ATOM     16  F   UNL d   1       0.579   6.544   2.424  0.00  0.00    -0.144 F 
ATOM     17  F   UNL d   1       0.778   8.402   1.291  0.00  0.00    -0.144 F 
ATOM     18  F   UNL d   1      -1.173   7.417   1.410  0.00  0.00    -0.144 F 
ENDBRANCH  14  15
ENDBRANCH   4  14
TORSDOF 3
