REMARK  6 active torsions:
REMARK  status: ('A' for Active; 'I' for Inactive)
REMARK    1  A    between atoms: N_8  and  C_1 
REMARK    2  A    between atoms: N_7  and  C_2 
REMARK    3  A    between atoms: C_10  and  N_7 
REMARK    4  A    between atoms: C_11  and  N_8 
REMARK    5  A    between atoms: C_9  and  C_10 
REMARK    6  A    between atoms: C_14  and  C_11 
ROOT
ATOM      1  C   UNL d   1       0.793   1.182  -0.007  0.00  0.00     0.122 C 
ATOM      2  C   UNL d   1      -0.555   1.294  -0.040  0.00  0.00     0.122 C 
ATOM      3  C   UNL d   1       1.445  -0.099  -0.004  0.00  0.00     0.114 C 
ATOM      4  C   UNL d   1      -1.423   0.142  -0.035  0.00  0.00     0.114 C 
ATOM      5  N   UNL d   1       1.954  -1.142  -0.014  0.00  0.00    -0.190 NA
ATOM      6  N   UNL d   1      -2.166  -0.747  -0.038  0.00  0.00    -0.190 NA
ENDROOT
BRANCH   1   7
ATOM      7  N   UNL d   1       1.669   2.288  -0.057  0.00  0.00    -0.278 NA
ATOM      8  H   UNL d   1       1.151   3.023  -0.545  0.00  0.00     0.128 HD
BRANCH   7   9
ATOM      9  C   UNL d   1       2.154   2.933   1.173  0.00  0.00     0.131 C 
BRANCH   9  10
ATOM     10  C   UNL d   1       2.973   2.033   2.062  0.00  0.00    -0.043 A 
ATOM     11  C   UNL d   1       2.601   1.842   3.403  0.00  0.00     0.032 A 
ATOM     12  C   UNL d   1       3.362   1.022   4.237  0.00  0.00     0.034 A 
ATOM     13 CL   UNL d   1       2.880   0.790   5.872  0.00  0.00    -0.084 Cl
ATOM     14  C   UNL d   1       4.505   0.391   3.755  0.00  0.00     0.024 A 
ATOM     15  C   UNL d   1       4.894   0.586   2.430  0.00  0.00     0.002 A 
ATOM     16  C   UNL d   1       4.136   1.407   1.591  0.00  0.00     0.008 A 
ENDBRANCH   9  10
ENDBRANCH   7   9
ENDBRANCH   1   7
BRANCH   2  17
ATOM     17  N   UNL d   1      -1.214   2.539   0.006  0.00  0.00    -0.281 NA
ATOM     18  H   UNL d   1      -1.988   2.464   0.674  0.00  0.00     0.128 HD
BRANCH  17  19
ATOM     19  C   UNL d   1      -1.750   3.158  -1.218  0.00  0.00     0.101 C 
BRANCH  19  20
ATOM     20  C   UNL d   1      -1.999   4.675  -1.005  0.00  0.00    -0.039 C 
ATOM     21  C   UNL d   1      -0.683   5.383  -0.634  0.00  0.00     0.015 C 
ATOM     22  C   UNL d   1      -2.538   5.285  -2.313  0.00  0.00     0.015 C 
ATOM     23  C   UNL d   1      -3.038   4.920   0.104  0.00  0.00     0.015 C 
ENDBRANCH  19  20
ENDBRANCH  17  19
ENDBRANCH   2  17
TORSDOF 6
