REMARK  4 active torsions:
REMARK  status: ('A' for Active; 'I' for Inactive)
REMARK    1  A    between atoms: N_2  and  S_1 
REMARK    2  A    between atoms: C_3  and  S_1 
REMARK    3  A    between atoms: C_4  and  N_10 
REMARK    4  A    between atoms: C_8  and  C_5 
ROOT
ATOM      1  C   UNL d   1      -1.081  -4.709   2.691  0.00  0.00     0.045 A 
ATOM      2  C   UNL d   1      -2.923  -5.071   4.242  0.00  0.00     0.119 A 
ATOM      3  N   UNL d   1      -2.817  -6.415   4.120  0.00  0.00    -0.352 N 
ATOM      4  HN  UNL d   1      -3.442  -7.034   4.636  1.00  0.00     0.166 HD
ATOM      5  C   UNL d   1      -2.082  -4.213   3.544  0.00  0.00     0.064 A 
ATOM      6  C   UNL d   1      -0.965  -6.123   2.570  0.00  0.00     0.017 A 
ATOM      7  C   UNL d   1      -1.877  -6.917   3.310  0.00  0.00     0.045 A 
ATOM      8  C   UNL d   1       0.014  -6.804   1.803  0.00  0.00     0.016 A 
ATOM      9  C   UNL d   1      -1.813  -8.301   3.218  0.00  0.00     0.030 A 
ATOM     10  C   UNL d   1       0.050  -8.196   1.712  0.00  0.00     0.001 A 
ATOM     11  C   UNL d   1      -0.873  -8.948   2.419  0.00  0.00     0.002 A 
ENDROOT
BRANCH   1  12
ATOM     12  N   UNL d   1      -0.307  -3.767   2.027  0.00  0.00    -0.378 N 
ATOM     13  C   UNL d   1       0.178  -3.880   0.642  0.00  0.00     0.138 C 
ATOM     14  C   UNL d   1       0.157  -2.498  -0.061  0.00  0.00     0.127 C 
ATOM     15  N   UNL d   1       0.843  -1.454   0.767  0.00  0.00    -0.203 NA
ATOM     16  C   UNL d   1       0.285  -1.402   2.158  0.00  0.00     0.127 C 
ATOM     17  C   UNL d   1       0.422  -2.773   2.831  0.00  0.00     0.138 C 
BRANCH  15  18
ATOM     18  S   UNL d   1       0.946   0.080   0.028  0.00  0.00     0.250 S 
ATOM     19  O   UNL d   1      -0.303   0.772   0.257  0.00  0.00    -0.205 OA
ATOM     20  O   UNL d   1       1.499  -0.076  -1.300  0.00  0.00    -0.205 OA
BRANCH  18  21
ATOM     21  C   UNL d   1       2.158   0.970   0.983  0.00  0.00     0.115 A 
ATOM     22  S   UNL d   1       3.760   0.372   0.902  0.00  0.00    -0.089 SA
ATOM     23  C   UNL d   1       4.293   1.462   2.107  0.00  0.00     0.051 A 
ATOM     24  C   UNL d   1       3.278   2.279   2.552  0.00  0.00     0.009 A 
ATOM     25  C   UNL d   1       2.046   2.009   1.888  0.00  0.00     0.033 A 
ENDBRANCH  18  21
ENDBRANCH  15  18
ENDBRANCH   1  12
BRANCH   2  26
ATOM     26  C   UNL d   1      -3.982  -4.472   5.154  0.00  0.00     0.432 C 
ATOM     27  F   UNL d   1      -4.795  -5.386   5.756  0.00  0.00    -0.165 F 
ATOM     28  F   UNL d   1      -3.438  -3.736   6.169  0.00  0.00    -0.165 F 
ATOM     29  F   UNL d   1      -4.814  -3.614   4.494  0.00  0.00    -0.165 F 
ENDBRANCH   2  26
TORSDOF 4
