REMARK  6 active torsions:
REMARK  status: ('A' for Active; 'I' for Inactive)
REMARK    1  A    between atoms: C_9  and  N_3 
REMARK    2  A    between atoms: C_12  and  C_4 
REMARK    3  A    between atoms: C_8  and  C_13 
REMARK    4  A    between atoms: C_11  and  C_9 
REMARK       I    between atoms: C_10  and  N_15 
REMARK       I    between atoms: N_17  and  C_10 
REMARK       I    between atoms: N_16  and  C_11 
REMARK    5  A    between atoms: N_15  and  N_16 
REMARK    6  A    between atoms: C_25  and  N_17 
ROOT
ATOM      1  N   UNL d   1      -0.458  -0.834  -0.241  0.00  0.00    -0.268 N 
ATOM      2  HN  UNL d   1      -0.776  -1.795  -0.373  1.00  0.00     0.190 HD
ATOM      3  N   UNL d   1       0.777  -0.364   0.015  0.00  0.00    -0.207 N 
ATOM      4  C   UNL d   1      -1.157   0.315  -0.276  0.00  0.00     0.144 A 
ATOM      5  N   UNL d   1      -0.370   1.414  -0.032  0.00  0.00    -0.266 N 
ATOM      6  HN  UNL d   1      -0.677   2.386  -0.001  1.00  0.00     0.186 HD
ATOM      7  N   UNL d   1       0.864   0.971   0.155  0.00  0.00    -0.002 NA
ENDROOT
BRANCH   3   8
ATOM      8  C   UNL d   1       1.977  -1.174   0.040  0.00  0.00     0.271 C 
BRANCH   8   9
ATOM      9  C   UNL d   1       1.848  -2.669  -0.116  0.00  0.00     0.257 C 
ATOM     10  N   UNL d   1       0.616  -3.264  -0.028  0.00  0.00    -0.265 N 
ATOM     11  H   UNL d   1      -0.256  -2.737  -0.174  0.00  0.00     0.190 HD
ATOM     12  O   UNL d   1       2.867  -3.360  -0.260  0.00  0.00    -0.270 OA
BRANCH  10  13
ATOM     13  N   UNL d   1       0.550  -4.660  -0.194  0.00  0.00    -0.249 N 
ATOM     14  C   UNL d   1      -0.581  -5.207  -0.766  0.00  0.00     0.335 C 
ATOM     15  N   UNL d   1      -0.474  -6.571  -0.900  0.00  0.00    -0.338 N 
ATOM     16  O   UNL d   1      -1.575  -4.550  -1.051  0.00  0.00    -0.246 OA
ATOM     17  H   UNL d   1       0.423  -6.998  -0.727  0.00  0.00     0.164 HD
ATOM     18  H   UNL d   1       1.450  -5.106  -0.354  0.00  0.00     0.192 HD
BRANCH  15  19
ATOM     19  C   UNL d   1      -1.542  -7.400  -1.441  0.00  0.00     0.078 C 
ATOM     20  C   UNL d   1      -1.352  -7.613  -2.941  0.00  0.00     0.032 C 
ATOM     21  C   UNL d   1      -1.576  -8.742  -0.712  0.00  0.00     0.032 C 
ENDBRANCH  15  19
ENDBRANCH  10  13
ENDBRANCH   8   9
ENDBRANCH   3   8
BRANCH   4  22
ATOM     22  C   UNL d   1      -2.576   0.402  -0.587  0.00  0.00     0.011 A 
ATOM     23  C   UNL d   1      -3.355  -0.762  -0.689  0.00  0.00     0.031 A 
ATOM     24  C   UNL d   1      -4.715  -0.696  -1.034  0.00  0.00     0.048 A 
ATOM     25  C   UNL d   1      -5.291   0.559  -1.281  0.00  0.00     0.016 A 
ATOM     26  C   UNL d   1      -4.530   1.723  -1.172  0.00  0.00     0.002 A 
ATOM     27  C   UNL d   1      -3.181   1.645  -0.822  0.00  0.00     0.015 A 
BRANCH  24  28
ATOM     28  C   UNL d   1      -5.547  -1.949  -1.158  0.00  0.00     0.417 C 
ATOM     29  F   UNL d   1      -4.889  -3.087  -0.809  0.00  0.00    -0.166 F 
ATOM     30  F   UNL d   1      -6.660  -1.909  -0.372  0.00  0.00    -0.166 F 
ATOM     31  F   UNL d   1      -5.997  -2.148  -2.428  0.00  0.00    -0.166 F 
ENDBRANCH  24  28
ENDBRANCH   4  22
TORSDOF 6
