REMARK  2 active torsions:
REMARK  status: ('A' for Active; 'I' for Inactive)
REMARK    1  A    between atoms: C_10  and  N_4 
REMARK    2  A    between atoms: C_8  and  C_10 
ROOT
ATOM      1  C   UNL d   1       0.648   1.249  -0.104  0.00  0.00     0.170 C 
ATOM      2  N   UNL d   1       1.317   0.075  -0.155  0.00  0.00    -0.342 N 
ATOM      3  N   UNL d   1      -0.700   1.162   0.005  0.00  0.00    -0.342 N 
ATOM      4  N   UNL d   1      -0.629  -1.196   0.278  0.00  0.00     0.127 N 
ATOM      5  C   UNL d   1       0.656  -1.170  -0.395  0.00  0.00     0.399 C 
ATOM      6  C   UNL d   1      -1.416  -0.066  -0.185  0.00  0.00     0.399 C 
ATOM      7  S   UNL d   1       1.435   2.708  -0.110  0.00  0.00    -0.041 SA
ATOM      8  H   UNL d   1       2.319   0.128  -0.284  0.00  0.00     0.163 HD
ATOM      9  H   UNL d   1      -1.206   2.036  -0.023  0.00  0.00     0.163 HD
ENDROOT
BRANCH   4  10
ATOM     10  C   UNL d   1      -0.544  -1.233   1.746  0.00  0.00     0.322 C 
BRANCH  10  11
ATOM     11  C   UNL d   1       0.200  -2.438   2.264  0.00  0.00     0.011 A 
ATOM     12  S   UNL d   1       1.565  -2.224   3.283  0.00  0.00    -0.105 SA
ATOM     13  C   UNL d   1       1.819  -3.909   3.405  0.00  0.00     0.050 A 
ATOM     14  C   UNL d   1       0.882  -4.626   2.697  0.00  0.00     0.008 A 
ATOM     15  C   UNL d   1      -0.058  -3.777   2.043  0.00  0.00     0.017 A 
ENDBRANCH  10  11
ENDBRANCH   4  10
TORSDOF 2
