REMARK  2 active torsions:
REMARK  status: ('A' for Active; 'I' for Inactive)
REMARK    1  A    between atoms: C_16  and  N_4 
REMARK    2  A    between atoms: C_26  and  C_18 
ROOT
ATOM      1  C   UNL d   1       2.729  -0.693  -0.016  0.00  0.00     0.139 A 
ATOM      2  C   UNL d   1       1.779   0.281   0.018  0.00  0.00     0.105 A 
ATOM      3  N   UNL d   1       4.083  -0.293  -0.117  0.00  0.00    -0.288 N 
ATOM      4  N   UNL d   1       2.308  -2.065  -0.005  0.00  0.00    -0.262 N 
ATOM      5  N   UNL d   1       3.531   1.990   0.075  0.00  0.00    -0.270 N 
ATOM      6  C   UNL d   1       4.506   1.032   0.026  0.00  0.00     0.332 C 
ATOM      7  C   UNL d   1       2.190   1.721  -0.008  0.00  0.00     0.267 C 
ATOM      8  C   UNL d   1       0.940  -2.434  -0.017  0.00  0.00     0.266 A 
ATOM      9  C   UNL d   1      -0.059  -1.375  -0.018  0.00  0.00     0.061 A 
ATOM     10  C   UNL d   1       0.342  -0.063   0.019  0.00  0.00     0.068 A 
ATOM     11  N   UNL d   1      -0.573   0.936   0.035  0.00  0.00    -0.354 N 
ATOM     12  HN  UNL d   1      -0.261   1.907   0.068  1.00  0.00     0.166 HD
ATOM     13  C   UNL d   1      -1.423  -1.684  -0.037  0.00  0.00     0.033 A 
ATOM     14  C   UNL d   1      -2.366  -0.657  -0.025  0.00  0.00    -0.008 A 
ATOM     15  C   UNL d   1      -1.890   0.659   0.009  0.00  0.00     0.043 A 
ATOM     16  C   UNL d   1      -3.748  -0.921  -0.048  0.00  0.00     0.026 A 
ATOM     17  C   UNL d   1      -4.699   0.113  -0.021  0.00  0.00    -0.025 A 
ATOM     18  O   UNL d   1       5.705   1.334   0.075  0.00  0.00    -0.246 OA
ATOM     19  O   UNL d   1       1.379   2.643  -0.103  0.00  0.00    -0.267 OA
ATOM     20  O   UNL d   1       0.509  -3.588   0.005  0.00  0.00    -0.267 OA
ATOM     21  C   UNL d   1       5.196  -1.182  -0.424  0.00  0.00     0.163 C 
ATOM     22  C   UNL d   1      -4.203   1.425   0.008  0.00  0.00     0.014 A 
ATOM     23  C   UNL d   1      -2.823   1.683   0.016  0.00  0.00     0.031 A 
ATOM     24  C   UNL d   1       3.923   3.393   0.068  0.00  0.00     0.164 C 
ENDROOT
BRANCH   4  25
ATOM     25  C   UNL d   1       3.170  -3.209   0.090  0.00  0.00     0.044 A 
ATOM     26  C   UNL d   1       3.135  -4.184  -0.923  0.00  0.00     0.030 A 
ATOM     27  C   UNL d   1       3.990  -5.284  -0.882  0.00  0.00     0.002 A 
ATOM     28  C   UNL d   1       4.880  -5.427   0.179  0.00  0.00     0.000 A 
ATOM     29  C   UNL d   1       4.890  -4.490   1.214  0.00  0.00     0.002 A 
ATOM     30  C   UNL d   1       4.024  -3.393   1.183  0.00  0.00     0.030 A 
ENDBRANCH   4  25
BRANCH  17  31
ATOM     31  C   UNL d   1      -6.151  -0.183  -0.034  0.00  0.00    -0.026 A 
ATOM     32  C   UNL d   1      -6.671  -1.329   0.599  0.00  0.00     0.012 A 
ATOM     33  C   UNL d   1      -8.034  -1.638   0.555  0.00  0.00     0.001 A 
ATOM     34  C   UNL d   1      -8.916  -0.794  -0.109  0.00  0.00     0.000 A 
ATOM     35  C   UNL d   1      -8.436   0.356  -0.726  0.00  0.00     0.001 A 
ATOM     36  C   UNL d   1      -7.069   0.655  -0.692  0.00  0.00     0.012 A 
ENDBRANCH  17  31
TORSDOF 2
