REMARK  8 active torsions:
REMARK  status: ('A' for Active; 'I' for Inactive)
REMARK    1  A    between atoms: C_4  and  C_1 
REMARK    2  A    between atoms: C_2  and  C_3 
REMARK    3  A    between atoms: C_11  and  O_19 
REMARK    4  A    between atoms: O_18  and  C_12 
REMARK    5  A    between atoms: C_17  and  C_22 
REMARK    6  A    between atoms: C_23  and  C_17 
REMARK    7  A    between atoms: C_22  and  O_18 
REMARK    8  A    between atoms: O_19  and  C_23 
ROOT
ATOM      1  C   UNL d   1      -2.377  -7.088   1.373  0.00  0.00     0.053 C 
ENDROOT
BRANCH   1   2
ATOM      2  C   UNL d   1      -1.465  -5.872   1.511  0.00  0.00     0.178 C 
BRANCH   2   3
ATOM      3  O   UNL d   1      -1.937  -4.849   0.633  0.00  0.00    -0.351 OA
BRANCH   3   4
ATOM      4  C   UNL d   1      -1.217  -3.685   0.615  0.00  0.00     0.068 A 
ATOM      5  C   UNL d   1      -1.685  -2.721  -0.281  0.00  0.00     0.037 A 
ATOM      6  C   UNL d   1      -1.047  -1.482  -0.397  0.00  0.00     0.018 A 
ATOM      7  C   UNL d   1       0.067  -1.197   0.397  0.00  0.00     0.009 A 
ATOM      8  C   UNL d   1       0.551  -2.169   1.281  0.00  0.00     0.018 A 
ATOM      9  C   UNL d   1      -0.092  -3.405   1.394  0.00  0.00     0.037 A 
BRANCH   7  10
ATOM     10  C   UNL d   1       0.771   0.111   0.333  0.00  0.00     0.155 C 
ATOM     11  O   UNL d   1       1.960   0.176   0.635  0.00  0.00    -0.293 OA
ATOM     12  C   UNL d   1       0.003   1.338  -0.084  0.00  0.00     0.096 C 
ENDBRANCH   7  10
ENDBRANCH   3   4
ENDBRANCH   2   3
ENDBRANCH   1   2
BRANCH   1  13
ATOM     13  C   UNL d   1      -1.982  -8.180   2.360  0.00  0.00     0.178 C 
BRANCH  13  14
ATOM     14  O   UNL d   1      -0.658  -8.626   2.057  0.00  0.00    -0.351 OA
BRANCH  14  15
ATOM     15  C   UNL d   1      -0.150  -9.603   2.866  0.00  0.00     0.068 A 
ATOM     16  C   UNL d   1       0.851 -10.392   2.297  0.00  0.00     0.037 A 
ATOM     17  C   UNL d   1       1.452 -11.415   3.037  0.00  0.00     0.018 A 
ATOM     18  C   UNL d   1       1.076 -11.638   4.365  0.00  0.00     0.009 A 
ATOM     19  C   UNL d   1       0.076 -10.847   4.939  0.00  0.00     0.018 A 
ATOM     20  C   UNL d   1      -0.529  -9.829   4.191  0.00  0.00     0.037 A 
BRANCH  18  21
ATOM     21  C   UNL d   1       1.751 -12.728   5.118  0.00  0.00     0.155 C 
ATOM     22  O   UNL d   1       2.208 -13.691   4.506  0.00  0.00    -0.293 OA
ATOM     23  C   UNL d   1       1.905 -12.622   6.615  0.00  0.00     0.096 C 
ENDBRANCH  18  21
ENDBRANCH  14  15
ENDBRANCH  13  14
ENDBRANCH   1  13
TORSDOF 8
