REMARK  7 active torsions:
REMARK  status: ('A' for Active; 'I' for Inactive)
REMARK    1  A    between atoms: S_8  and  C_3 
REMARK    2  A    between atoms: O_16  and  C_4 
REMARK    3  A    between atoms: C_12  and  S_8 
REMARK    4  A    between atoms: C_9  and  C_12 
REMARK    5  A    between atoms: C_11  and  C_9 
REMARK    6  A    between atoms: C_21  and  C_10 
REMARK    7  A    between atoms: C_22  and  C_21 
ROOT
ATOM      1  N   UNL d   1      -0.300  -1.177   0.215  0.00  0.00    -0.318 N 
ATOM      2  HN  UNL d   1      -0.843  -2.039   0.273  1.00  0.00     0.170 HD
ATOM      3  C   UNL d   1       1.034  -1.157   0.331  0.00  0.00     0.146 A 
ATOM      4  C   UNL d   1      -0.866   0.014   0.016  0.00  0.00     0.143 A 
ATOM      5  N   UNL d   1       1.797  -0.053   0.233  0.00  0.00    -0.340 N 
ATOM      6  HN  UNL d   1       2.814  -0.104   0.298  1.00  0.00     0.167 HD
ATOM      7  C   UNL d   1      -0.206   1.209  -0.070  0.00  0.00     0.081 A 
ATOM      8  C   UNL d   1       1.163   1.126   0.044  0.00  0.00     0.015 A 
ENDROOT
BRANCH   3   9
ATOM      9  S   UNL d   1       1.814  -2.713   0.681  0.00  0.00    -0.086 SA
BRANCH   9  10
ATOM     10  C   UNL d   1       3.558  -2.224   0.578  0.00  0.00     0.166 C 
BRANCH  10  11
ATOM     11  C   UNL d   1       4.449  -3.366   1.020  0.00  0.00     0.169 C 
ATOM     12  O   UNL d   1       4.813  -3.483   2.190  0.00  0.00    -0.291 OA
BRANCH  11  13
ATOM     13  C   UNL d   1       4.943  -4.355   0.015  0.00  0.00     0.011 A 
ATOM     14  C   UNL d   1       6.127  -5.051   0.304  0.00  0.00     0.017 A 
ATOM     15  C   UNL d   1       6.628  -6.002  -0.591  0.00  0.00     0.025 A 
ATOM     16  C   UNL d   1       5.939  -6.268  -1.771  0.00  0.00     0.034 A 
ATOM     17  C   UNL d   1       4.760  -5.587  -2.067  0.00  0.00     0.025 A 
ATOM     18 CL   UNL d   1       6.542  -7.451  -2.865  0.00  0.00    -0.084 Cl
ATOM     19  C   UNL d   1       4.263  -4.627  -1.179  0.00  0.00     0.017 A 
ENDBRANCH  11  13
ENDBRANCH  10  11
ENDBRANCH   9  10
ENDBRANCH   3   9
BRANCH   4  20
ATOM     20  O   UNL d   1      -2.219  -0.024  -0.091  0.00  0.00    -0.346 OA
ATOM     21  H   UNL d   1      -2.383  -0.978   0.025  0.00  0.00     0.219 HD
ENDBRANCH   4  20
BRANCH   8  22
ATOM     22  C   UNL d   1       2.016   2.368   0.017  0.00  0.00     0.057 C 
BRANCH  22  23
ATOM     23  C   UNL d   1       2.208   2.995   1.401  0.00  0.00     0.002 C 
ATOM     24  C   UNL d   1       3.014   2.122   2.354  0.00  0.00     0.005 C 
ENDBRANCH  22  23
ENDBRANCH   8  22
TORSDOF 7
