REMARK  8 active torsions:
REMARK  status: ('A' for Active; 'I' for Inactive)
REMARK    1  A    between atoms: C9_7  and  C1_1 
REMARK    2  A    between atoms: C6_6  and  O1_8 
REMARK       I    between atoms: N_18  and  C6_6 
REMARK    3  A    between atoms: O1_8  and  C9_7 
REMARK    4  A    between atoms: CA_19  and  N_18 
REMARK    5  A    between atoms: C_20  and  CA_19 
REMARK    6  A    between atoms: CB_21  and  CA_19 
REMARK    7  A    between atoms: OXT_23  and  C_20 
REMARK    8  A    between atoms: CG_24  and  CB_21 
ROOT
ATOM      1  C6  <1> d   1      -1.291   4.436   2.228  0.00  0.00     0.361 C 
ATOM      2  O2  <1> d   1      -0.996   4.048   3.349  0.00  0.00    -0.238 OA
ATOM      3  N   PHE d   1      -1.730   5.704   2.014  0.00  0.00    -0.322 N 
ATOM      4  H   PHE d   1      -1.879   6.157   2.909  0.00  0.00     0.165 HD
ENDROOT
BRANCH   1   5
ATOM      5  O1  <1> d   1      -1.115   3.745   1.080  0.00  0.00    -0.303 OA
BRANCH   5   6
ATOM      6  C9  <1> d   1      -0.336   2.533   1.200  0.00  0.00     0.194 C 
BRANCH   6   7
ATOM      7  C1  <1> d   1      -1.089   1.306   0.672  0.00  0.00     0.078 A 
ATOM      8  C4  <1> d   1      -0.221   0.062   0.851  0.00  0.00    -0.036 A 
ATOM      9  C2  <1> d   1       0.166  -0.448  -0.408  0.00  0.00    -0.018 A 
ATOM     10  C14 <1> d   1       0.234  -0.507   2.032  0.00  0.00     0.009 A 
ATOM     11  C13 <1> d   1       1.042  -1.517  -0.492  0.00  0.00     0.013 A 
ATOM     12  C3  <1> d   1      -0.464   0.340  -1.446  0.00  0.00    -0.018 A 
ATOM     13  C18 <1> d   1       1.528  -2.077   0.695  0.00  0.00     0.001 A 
ATOM     14  C21 <1> d   1       1.121  -1.582   1.944  0.00  0.00     0.001 A 
ATOM     15  C5  <1> d   1      -1.236   1.357  -0.845  0.00  0.00    -0.036 A 
ATOM     16  C12 <1> d   1      -0.395   0.235  -2.825  0.00  0.00     0.013 A 
ATOM     17  C15 <1> d   1      -1.965   2.255  -1.608  0.00  0.00     0.009 A 
ATOM     18  C20 <1> d   1      -1.891   2.153  -2.997  0.00  0.00     0.001 A 
ATOM     19  C19 <1> d   1      -1.109   1.155  -3.601  0.00  0.00     0.001 A 
ENDBRANCH   6   7
ENDBRANCH   5   6
ENDBRANCH   1   5
BRANCH   3  20
ATOM     20  CA  PHE d   1      -2.597   6.199   0.930  0.00  0.00     0.188 C 
BRANCH  20  21
ATOM     21  C   PHE d   1      -1.965   6.421  -0.451  0.00  0.00     0.163 C 
ATOM     22  O   PHE d   1      -2.534   7.026  -1.352  0.00  0.00    -0.648 OA
BRANCH  21  23
ATOM     23  OXT PHE d   1      -0.745   5.876  -0.627  0.00  0.00    -0.775 OA
ATOM     24  HXT PHE d   1      -0.480   5.331   0.141  0.00  0.00     0.167 HD
ENDBRANCH  21  23
ENDBRANCH  20  21
BRANCH  20  25
ATOM     25  CB  PHE d   1      -3.891   5.383   0.762  0.00  0.00     0.074 C 
BRANCH  25  26
ATOM     26  CG  PHE d   1      -4.705   5.279   2.032  0.00  0.00    -0.056 A 
ATOM     27  CD1 PHE d   1      -5.253   6.425   2.625  0.00  0.00     0.007 A 
ATOM     28  CE1 PHE d   1      -5.982   6.327   3.811  0.00  0.00     0.001 A 
ATOM     29  CZ  PHE d   1      -6.181   5.083   4.406  0.00  0.00     0.000 A 
ATOM     30  CE2 PHE d   1      -5.654   3.937   3.816  0.00  0.00     0.001 A 
ATOM     31  CD2 PHE d   1      -4.919   4.032   2.634  0.00  0.00     0.007 A 
ENDBRANCH  25  26
ENDBRANCH  20  25
ENDBRANCH   3  20
TORSDOF 8
