REMARK  3 active torsions:
REMARK  status: ('A' for Active; 'I' for Inactive)
REMARK    1  A    between atoms: C_8  and  N_1 
REMARK    2  A    between atoms: S_7  and  C_4 
REMARK    3  A    between atoms: C_6  and  S_7 
ROOT
ATOM      1  N   UNL d   1       0.026   0.849  -0.063  0.00  0.00    -0.251 N 
ATOM      2  C   UNL d   1      -1.113   0.091   0.074  0.00  0.00     0.232 A 
ATOM      3  C   UNL d   1       1.150   0.053  -0.125  0.00  0.00     0.245 A 
ATOM      4  C   UNL d   1       0.734  -1.398  -0.162  0.00  0.00     0.154 A 
ATOM      5  C   UNL d   1      -0.767  -1.363   0.015  0.00  0.00     0.129 A 
ATOM      6  O   UNL d   1      -2.276   0.456   0.212  0.00  0.00    -0.273 OA
ATOM      7  O   UNL d   1       2.327   0.397  -0.098  0.00  0.00    -0.271 OA
ENDROOT
BRANCH   1   8
ATOM      8  C   UNL d   1       0.053   2.279  -0.097  0.00  0.00     0.045 A 
ATOM      9  C   UNL d   1      -1.018   3.048   0.383  0.00  0.00     0.031 A 
ATOM     10  C   UNL d   1      -0.988   4.449   0.344  0.00  0.00     0.009 A 
ATOM     11  C   UNL d   1       0.109   5.122  -0.193  0.00  0.00    -0.062 A 
ATOM     12  C   UNL d   1       1.177   4.374  -0.686  0.00  0.00     0.009 A 
ATOM     13  C   UNL d   1       0.133   6.621  -0.216  0.00  0.00     0.048 C 
ATOM     14  C   UNL d   1       1.149   2.974  -0.634  0.00  0.00     0.031 A 
ENDBRANCH   1   8
BRANCH   4  15
ATOM     15  S   UNL d   1       1.252  -2.109  -1.758  0.00  0.00    -0.108 SA
BRANCH  15  16
ATOM     16  C   UNL d   1       0.780  -3.792  -1.595  0.00  0.00     0.041 A 
ATOM     17  S   UNL d   1       1.294  -4.809  -0.321  0.00  0.00    -0.095 SA
ATOM     18  C   UNL d   1       0.493  -6.165  -0.991  0.00  0.00     0.051 A 
ATOM     19  C   UNL d   1      -0.166  -5.847  -2.158  0.00  0.00     0.009 A 
ATOM     20  C   UNL d   1       0.003  -4.476  -2.507  0.00  0.00     0.026 A 
ENDBRANCH  15  16
ENDBRANCH   4  15
TORSDOF 3
