REMARK  6 active torsions:
REMARK  status: ('A' for Active; 'I' for Inactive)
REMARK    1  A    between atoms: C_8  and  N_1 
REMARK    2  A    between atoms: C_7  and  C_2 
REMARK    3  A    between atoms: C_9  and  C_4 
REMARK    4  A    between atoms: O_17  and  C_7 
REMARK    5  A    between atoms: C_10  and  C_8 
REMARK    6  A    between atoms: O_23  and  C_18 
ROOT
ATOM      1  N   UNL d   1      -2.089  -0.240  -0.051  0.00  0.00    -0.338 N 
ATOM      2  C   UNL d   1      -0.419  -2.026   0.316  0.00  0.00     0.145 C 
ATOM      3  C   UNL d   1      -1.162   0.780   0.148  0.00  0.00     0.255 C 
ATOM      4  C   UNL d   1      -1.649  -1.571  -0.514  0.00  0.00     0.139 C 
ATOM      5  C   UNL d   1       0.665  -0.961   0.316  0.00  0.00    -0.026 A 
ATOM      6  C   UNL d   1       0.280   0.391   0.196  0.00  0.00     0.039 A 
ATOM      7  O   UNL d   1      -1.471   1.954   0.322  0.00  0.00    -0.267 OA
ATOM      8  C   UNL d   1       2.030  -1.262   0.440  0.00  0.00     0.009 A 
ATOM      9  C   UNL d   1       1.248   1.400   0.124  0.00  0.00     0.017 A 
ATOM     10  C   UNL d   1       2.989  -0.250   0.363  0.00  0.00     0.001 A 
ATOM     11  C   UNL d   1       2.602   1.077   0.192  0.00  0.00     0.001 A 
ENDROOT
BRANCH   4  12
ATOM     12  C   UNL d   1      -1.525  -1.592  -2.046  0.00  0.00    -0.034 A 
ATOM     13  C   UNL d   1      -2.651  -1.913  -2.827  0.00  0.00     0.012 A 
ATOM     14  C   UNL d   1      -2.605  -1.882  -4.229  0.00  0.00     0.037 A 
ATOM     15  C   UNL d   1      -1.426  -1.542  -4.883  0.00  0.00     0.068 A 
ATOM     16  C   UNL d   1      -0.303  -1.224  -4.128  0.00  0.00     0.037 A 
ATOM     17  C   UNL d   1      -0.349  -1.254  -2.731  0.00  0.00     0.012 A 
BRANCH  15  18
ATOM     18  O   UNL d   1      -1.253  -1.453  -6.236  0.00  0.00    -0.356 OA
ATOM     19  C   UNL d   1      -2.154  -2.210  -7.029  0.00  0.00     0.210 C 
ENDBRANCH  15  18
ENDBRANCH   4  12
BRANCH   2  20
ATOM     20  C   UNL d   1      -0.017  -3.424  -0.119  0.00  0.00     0.150 C 
ATOM     21  O   UNL d   1       0.853  -3.700  -0.933  0.00  0.00    -0.649 OA
BRANCH  20  22
ATOM     22  O   UNL d   1      -0.731  -4.405   0.492  0.00  0.00    -0.776 OA
ATOM     23  H   UNL d   1      -1.372  -4.113   1.167  0.00  0.00     0.167 HD
ENDBRANCH  20  22
ENDBRANCH   2  20
BRANCH   1  24
ATOM     24  C   UNL d   1      -3.510   0.096  -0.074  0.00  0.00     0.131 C 
BRANCH  24  25
ATOM     25  C   UNL d   1      -4.232  -0.139   1.224  0.00  0.00     0.004 A 
ATOM     26  C   UNL d   1      -3.757   0.491   2.511  0.00  0.00     0.007 A 
ATOM     27  C   UNL d   1      -3.734  -1.004   2.359  0.00  0.00     0.007 A 
ENDBRANCH  24  25
ENDBRANCH   1  24
TORSDOF 6
