REMARK  4 active torsions:
REMARK  status: ('A' for Active; 'I' for Inactive)
REMARK    1  A    between atoms: C_2  and  C_1 
REMARK    2  A    between atoms: O_8  and  C_2 
REMARK    3  A    between atoms: C_7  and  C_3 
REMARK    4  A    between atoms: C_15  and  O_8 
ROOT
ATOM      1  C   UNL d   1       1.032   0.018  -0.034  0.00  0.00     0.120 C 
ATOM      2  C   UNL d   1       0.382  -0.528  -1.082  0.00  0.00     0.040 C 
ATOM      3  C   UNL d   1       0.367   0.645   1.056  0.00  0.00     0.105 C 
ATOM      4  N   UNL d   1      -0.188   1.149   1.944  0.00  0.00    -0.191 NA
ENDROOT
BRANCH   1   5
ATOM      5  C   UNL d   1       2.506  -0.145  -0.019  0.00  0.00     0.303 C 
ATOM      6  O   UNL d   1       3.142  -0.722  -0.891  0.00  0.00    -0.258 OA
BRANCH   5   7
ATOM      7  O   UNL d   1       3.026   0.354   1.130  0.00  0.00    -0.317 OA
BRANCH   7   8
ATOM      8  C   UNL d   1       4.368  -0.056   1.432  0.00  0.00     0.174 C 
ATOM      9  C   UNL d   1       4.301  -1.364   2.199  0.00  0.00     0.034 C 
ENDBRANCH   7   8
ENDBRANCH   5   7
ENDBRANCH   1   5
BRANCH   2  10
ATOM     10  C   UNL d   1      -1.074  -0.545  -1.232  0.00  0.00    -0.034 A 
ATOM     11  C   UNL d   1      -1.730   0.524  -1.849  0.00  0.00     0.014 A 
ATOM     12  C   UNL d   1      -3.118   0.505  -1.984  0.00  0.00     0.043 A 
ATOM     13  C   UNL d   1      -3.839  -0.581  -1.502  0.00  0.00     0.116 A 
ATOM     14  C   UNL d   1      -3.199  -1.651  -0.885  0.00  0.00     0.043 A 
ATOM     15  F   UNL d   1      -5.172  -0.600  -1.634  0.00  0.00    -0.206 F 
ATOM     16  C   UNL d   1      -1.810  -1.635  -0.749  0.00  0.00     0.014 A 
ENDBRANCH   2  10
TORSDOF 4
