REMARK  6 active torsions:
REMARK  status: ('A' for Active; 'I' for Inactive)
REMARK    1  A    between atoms: N_2  and  C_1 
REMARK    2  A    between atoms: N_3  and  C_1 
REMARK    3  A    between atoms: C_5  and  N_3 
REMARK    4  A    between atoms: C_9  and  N_4 
REMARK    5  A    between atoms: O_21  and  C_8 
REMARK    6  A    between atoms: C_12  and  C_9 
ROOT
ATOM      1  N   UNL d   1       0.081   0.283   1.244  0.00  0.00    -0.356 N 
ATOM      2  N   UNL d   1      -2.307   0.933   3.200  0.00  0.00     0.094 N 
ATOM      3  C   UNL d   1      -0.955  -0.664   1.693  0.00  0.00     0.155 C 
ATOM      4  C   UNL d   1      -2.296  -0.037   2.100  0.00  0.00     0.292 C 
ATOM      5  C   UNL d   1      -0.156   2.292   2.793  0.00  0.00     0.050 C 
ATOM      6  C   UNL d   1       0.667   1.100   2.312  0.00  0.00     0.127 C 
ATOM      7  C   UNL d   1      -1.679   2.192   2.796  0.00  0.00     0.274 C 
ENDROOT
BRANCH   1   8
ATOM      8  C   UNL d   1       0.966  -0.241   0.263  0.00  0.00     0.174 C 
ATOM      9  S   UNL d   1       2.517  -0.797   0.618  0.00  0.00    -0.041 SA
BRANCH   8  10
ATOM     10  N   UNL d   1       0.343  -0.286  -0.986  0.00  0.00    -0.331 N 
ATOM     11  H   UNL d   1      -0.662  -0.246  -0.967  0.00  0.00     0.168 HD
BRANCH  10  12
ATOM     12  C   UNL d   1       0.957  -0.415  -2.255  0.00  0.00     0.068 A 
ATOM     13  C   UNL d   1       0.414  -1.154  -3.321  0.00  0.00     0.095 A 
ATOM     14  C   UNL d   1       1.126  -1.210  -4.535  0.00  0.00     0.039 A 
ATOM     15  C   UNL d   1       2.324  -0.519  -4.723  0.00  0.00     0.003 A 
ATOM     16  C   UNL d   1       2.825   0.261  -3.695  0.00  0.00     0.002 A 
ATOM     17  C   UNL d   1       2.144   0.312  -2.481  0.00  0.00     0.032 A 
BRANCH  13  18
ATOM     18  O   UNL d   1      -0.715  -1.920  -3.398  0.00  0.00    -0.354 OA
ATOM     19  C   UNL d   1      -1.617  -2.020  -2.317  0.00  0.00     0.210 C 
ENDBRANCH  13  18
ENDBRANCH  10  12
ENDBRANCH   8  10
ENDBRANCH   1   8
BRANCH   2  20
ATOM     20  C   UNL d   1      -1.827   0.439   4.494  0.00  0.00     0.311 C 
BRANCH  20  21
ATOM     21  C   UNL d   1      -2.605  -0.736   5.051  0.00  0.00    -0.030 A 
ATOM     22  C   UNL d   1      -1.977  -1.980   5.235  0.00  0.00     0.012 A 
ATOM     23  C   UNL d   1      -2.674  -3.046   5.807  0.00  0.00     0.043 A 
ATOM     24  C   UNL d   1      -3.994  -2.869   6.196  0.00  0.00     0.116 A 
ATOM     25  C   UNL d   1      -4.639  -1.652   6.011  0.00  0.00     0.043 A 
ATOM     26  F   UNL d   1      -4.655  -3.886   6.766  0.00  0.00    -0.206 F 
ATOM     27  C   UNL d   1      -3.947  -0.586   5.435  0.00  0.00     0.012 A 
ENDBRANCH  20  21
ENDBRANCH   2  20
TORSDOF 6
