REMARK  5 active torsions:
REMARK  status: ('A' for Active; 'I' for Inactive)
REMARK    1  A    between atoms: N_4  and  C_1 
REMARK    2  A    between atoms: N_5  and  C_2 
REMARK    3  A    between atoms: O_10  and  C_3 
REMARK    4  A    between atoms: C_6  and  C_7 
REMARK    5  A    between atoms: C_14  and  O_10 
ROOT
ATOM      1  C   UNL d   1       1.208  -0.120   0.678  0.00  0.00     0.140 A 
ATOM      2  C   UNL d   1      -0.452  -0.965  -0.801  0.00  0.00     0.140 A 
ATOM      3  C   UNL d   1       0.705  -1.210  -0.043  0.00  0.00     0.142 A 
ATOM      4  C   UNL d   1      -0.572   1.361  -0.112  0.00  0.00     0.052 A 
ATOM      5  C   UNL d   1      -1.094   0.288  -0.843  0.00  0.00     0.055 A 
ATOM      6  C   UNL d   1       0.598   1.152   0.634  0.00  0.00     0.055 A 
ENDROOT
BRANCH   3   7
ATOM      7  O   UNL d   1       1.103  -2.519   0.043  0.00  0.00    -0.306 OA
BRANCH   7   8
ATOM      8  C   UNL d   1       2.418  -2.908   0.043  0.00  0.00     0.077 A 
ATOM      9  C   UNL d   1       2.657  -4.145   0.648  0.00  0.00     0.045 A 
ATOM     10  C   UNL d   1       3.955  -4.666   0.751  0.00  0.00    -0.037 A 
ATOM     11  C   UNL d   1       4.153  -5.996   1.427  0.00  0.00     0.050 C 
ATOM     12  C   UNL d   1       5.031  -3.914   0.242  0.00  0.00     0.046 A 
ATOM     13  C   UNL d   1       4.800  -2.675  -0.390  0.00  0.00    -0.037 A 
ATOM     14 CL   UNL d   1       6.643  -4.538   0.396  0.00  0.00    -0.083 Cl
ATOM     15  C   UNL d   1       3.477  -2.207  -0.523  0.00  0.00     0.045 A 
ATOM     16  C   UNL d   1       5.895  -1.784  -0.913  0.00  0.00     0.050 C 
ENDBRANCH   7   8
ENDBRANCH   3   7
BRANCH   2  17
ATOM     17  N   UNL d   1      -1.052  -2.042  -1.571  0.00  0.00    -0.113 N 
ATOM     18  O   UNL d   1      -0.355  -2.563  -2.450  0.00  0.00    -0.532 OA
ATOM     19  O   UNL d   1      -2.232  -2.314  -1.322  0.00  0.00    -0.532 OA
ENDBRANCH   2  17
BRANCH   1  20
ATOM     20  N   UNL d   1       2.342  -0.236   1.573  0.00  0.00    -0.113 N 
ATOM     21  O   UNL d   1       2.221  -0.987   2.544  0.00  0.00    -0.532 OA
ATOM     22  O   UNL d   1       3.318   0.486   1.326  0.00  0.00    -0.532 OA
ENDBRANCH   1  20
BRANCH   4  23
ATOM     23  C   UNL d   1      -1.256   2.710  -0.077  0.00  0.00     0.417 C 
ATOM     24  F   UNL d   1      -2.394   2.757  -0.820  0.00  0.00    -0.166 F 
ATOM     25  F   UNL d   1      -1.611   3.066   1.186  0.00  0.00    -0.166 F 
ATOM     26  F   UNL d   1      -0.455   3.703  -0.542  0.00  0.00    -0.166 F 
ENDBRANCH   4  23
TORSDOF 5
