REMARK  4 active torsions:
REMARK  status: ('A' for Active; 'I' for Inactive)
REMARK    1  A    between atoms: N_2  and  C_1 
REMARK    2  A    between atoms: N_6  and  C_1 
REMARK    3  A    between atoms: C_3  and  N_2 
REMARK    4  A    between atoms: N_7  and  N_6 
ROOT
ATOM      1  N   UNL d   1       0.458   0.855   1.133  0.00  0.00    -0.331 N 
ATOM      2  H   UNL d   1       1.071   0.850   0.321  0.00  0.00     0.168 HD
ENDROOT
BRANCH   1   3
ATOM      3  C   UNL d   1      -0.667   0.095   1.007  0.00  0.00     0.186 C 
ATOM      4  S   UNL d   1      -0.730  -1.139  -0.112  0.00  0.00    -0.040 SA
BRANCH   3   5
ATOM      5  N   UNL d   1      -1.790   0.427   1.727  0.00  0.00    -0.300 N 
ATOM      6  H   UNL d   1      -2.605  -0.145   1.495  0.00  0.00     0.183 HD
BRANCH   5   7
ATOM      7  N   UNL d   1      -2.063   1.784   2.050  0.00  0.00    -0.248 NA
ATOM      8  H   UNL d   1      -1.465   2.377   1.467  0.00  0.00     0.143 HD
ATOM      9  H   UNL d   1      -1.746   1.953   3.008  0.00  0.00     0.143 HD
ENDBRANCH   5   7
ENDBRANCH   3   5
ENDBRANCH   1   3
BRANCH   1  10
ATOM     10  C   UNL d   1       1.058   1.360   2.313  0.00  0.00     0.056 A 
ATOM     11  C   UNL d   1       2.122   2.272   2.204  0.00  0.00     0.060 A 
ATOM     12 CL   UNL d   1       2.648   2.852   0.661  0.00  0.00    -0.082 Cl
ATOM     13  C   UNL d   1       2.769   2.754   3.345  0.00  0.00     0.026 A 
ATOM     14  C   UNL d   1       2.378   2.308   4.607  0.00  0.00     0.002 A 
ATOM     15  C   UNL d   1       1.341   1.386   4.727  0.00  0.00     0.002 A 
ATOM     16  C   UNL d   1       0.682   0.915   3.587  0.00  0.00     0.031 A 
ENDBRANCH   1  10
TORSDOF 4
