REMARK  5 active torsions:
REMARK  status: ('A' for Active; 'I' for Inactive)
REMARK    1  A    between atoms: N_6  and  C_1 
REMARK    2  A    between atoms: C_4  and  N_6 
REMARK    3  A    between atoms: N_5  and  C_4 
REMARK       I    between atoms: C_8  and  N_5 
REMARK    4  A    between atoms: C_15  and  C_7 
REMARK    5  A    between atoms: C_10  and  C_8 
ROOT
ATOM      1  C   UNL d   1       0.377  -1.092   0.695  0.00  0.00     0.151 A 
ATOM      2  N   UNL d   1       1.483  -0.438   0.925  0.00  0.00    -0.335 N 
ATOM      3  HN  UNL d   1       2.381  -0.869   1.145  1.00  0.00     0.168 HD
ATOM      4  C   UNL d   1       1.261   0.927   0.829  0.00  0.00     0.051 A 
ATOM      5  S   UNL d   1      -1.012  -0.147   0.408  0.00  0.00    -0.063 SA
ATOM      6  C   UNL d   1      -0.060   1.272   0.603  0.00  0.00     0.083 A 
ENDROOT
BRANCH   1   7
ATOM      7  N   UNL d   1       0.174  -2.439   0.591  0.00  0.00    -0.313 N 
ATOM      8  H   UNL d   1      -0.726  -2.721   0.208  0.00  0.00     0.170 HD
BRANCH   7   9
ATOM      9  C   UNL d   1       1.085  -3.424   0.876  0.00  0.00     0.180 C 
ATOM     10  S   UNL d   1       2.528  -3.318   1.718  0.00  0.00    -0.040 SA
BRANCH   9  11
ATOM     11  N   UNL d   1       0.747  -4.686   0.418  0.00  0.00    -0.303 N 
ATOM     12  C   UNL d   1      -0.336  -5.063  -0.353  0.00  0.00     0.228 C 
ATOM     13  O   UNL d   1      -1.244  -4.301  -0.675  0.00  0.00    -0.273 OA
ATOM     14  H   UNL d   1       1.432  -5.390   0.651  0.00  0.00     0.171 HD
BRANCH  12  15
ATOM     15  C   UNL d   1      -0.395  -6.491  -0.773  0.00  0.00     0.078 A 
ATOM     16  C   UNL d   1      -0.149  -7.600   0.224  0.00  0.00     0.015 A 
ATOM     17  C   UNL d   1       0.815  -7.386  -0.907  0.00  0.00     0.015 A 
ENDBRANCH  12  15
ENDBRANCH   9  11
ENDBRANCH   7   9
ENDBRANCH   1   7
BRANCH   4  18
ATOM     18  C   UNL d   1       2.383   1.864   0.911  0.00  0.00    -0.009 A 
ATOM     19  C   UNL d   1       3.683   1.355   1.078  0.00  0.00     0.015 A 
ATOM     20  C   UNL d   1       4.795   2.201   1.083  0.00  0.00     0.024 A 
ATOM     21  C   UNL d   1       4.618   3.571   0.928  0.00  0.00     0.034 A 
ATOM     22  C   UNL d   1       3.338   4.101   0.781  0.00  0.00     0.024 A 
ATOM     23 CL   UNL d   1       5.984   4.616   0.902  0.00  0.00    -0.084 Cl
ATOM     24  C   UNL d   1       2.224   3.251   0.775  0.00  0.00     0.015 A 
ENDBRANCH   4  18
TORSDOF 5
