REMARK  6 active torsions:
REMARK  status: ('A' for Active; 'I' for Inactive)
REMARK    1  A    between atoms: C_5  and  C_1 
REMARK       I    between atoms: C_2  and  N_3 
REMARK    2  A    between atoms: C_8  and  C_2 
REMARK    3  A    between atoms: N_3  and  C_4 
REMARK    4  A    between atoms: O_9  and  C_6 
REMARK    5  A    between atoms: C_18  and  O_9 
REMARK    6  A    between atoms: O_27  and  C_19 
ROOT
ATOM      1  C   UNL d   1      -1.139  -2.728   0.817  0.00  0.00     0.070 A 
ATOM      2  C   UNL d   1       0.759  -1.302   0.207  0.00  0.00     0.050 A 
ATOM      3  C   UNL d   1      -0.420  -3.849   0.358  0.00  0.00     0.102 A 
ATOM      4  C   UNL d   1      -0.524  -1.470   0.757  0.00  0.00     0.048 A 
ATOM      5  C   UNL d   1       1.425  -2.417  -0.310  0.00  0.00     0.019 A 
ATOM      6  C   UNL d   1       0.835  -3.677  -0.249  0.00  0.00     0.040 A 
ENDROOT
BRANCH   1   7
ATOM      7  N   UNL d   1      -2.479  -2.907   1.257  0.00  0.00    -0.320 N 
ATOM      8  C   UNL d   1      -3.343  -1.912   1.687  0.00  0.00     0.256 C 
ATOM      9  O   UNL d   1      -3.038  -0.754   1.956  0.00  0.00    -0.267 OA
ATOM     10  H   UNL d   1      -2.847  -3.839   1.107  0.00  0.00     0.169 HD
BRANCH   8  11
ATOM     11  C   UNL d   1      -4.786  -2.272   1.771  0.00  0.00     0.032 A 
ATOM     12  C   UNL d   1      -5.239  -3.535   2.159  0.00  0.00     0.017 A 
ATOM     13  C   UNL d   1      -6.616  -3.796   2.200  0.00  0.00     0.007 A 
ATOM     14  C   UNL d   1      -7.547  -2.804   1.863  0.00  0.00    -0.062 A 
ATOM     15  C   UNL d   1      -7.086  -1.539   1.484  0.00  0.00     0.007 A 
ATOM     16  C   UNL d   1      -9.018  -3.105   1.882  0.00  0.00     0.048 C 
ATOM     17  C   UNL d   1      -5.718  -1.274   1.447  0.00  0.00     0.017 A 
ENDBRANCH   8  11
ENDBRANCH   1   7
BRANCH   3  18
ATOM     18  O   UNL d   1      -1.010  -5.098   0.491  0.00  0.00    -0.309 OA
BRANCH  18  19
ATOM     19  C   UNL d   1      -0.178  -6.192   0.618  0.00  0.00     0.076 A 
ATOM     20  C   UNL d   1       0.889  -6.232   1.522  0.00  0.00     0.040 A 
ATOM     21  C   UNL d   1       1.753  -7.333   1.544  0.00  0.00     0.039 A 
ATOM     22  C   UNL d   1       1.528  -8.416   0.694  0.00  0.00     0.068 A 
ATOM     23  C   UNL d   1       0.414  -8.401  -0.151  0.00  0.00     0.039 A 
ATOM     24  C   UNL d   1      -0.440  -7.295  -0.191  0.00  0.00     0.040 A 
BRANCH  22  25
ATOM     25  O   UNL d   1       2.306  -9.538   0.600  0.00  0.00    -0.356 OA
ATOM     26  C   UNL d   1       3.545  -9.523   1.298  0.00  0.00     0.210 C 
ENDBRANCH  22  25
ENDBRANCH  18  19
ENDBRANCH   3  18
BRANCH   2  27
ATOM     27  C   UNL d   1       1.412   0.058   0.155  0.00  0.00     0.417 C 
ATOM     28  F   UNL d   1       0.626   1.073   0.606  0.00  0.00    -0.166 F 
ATOM     29  F   UNL d   1       1.780   0.406  -1.111  0.00  0.00    -0.166 F 
ATOM     30  F   UNL d   1       2.553   0.109   0.898  0.00  0.00    -0.166 F 
ENDBRANCH   2  27
TORSDOF 6
