REMARK  5 active torsions:
REMARK  status: ('A' for Active; 'I' for Inactive)
REMARK       I    between atoms: N_3  and  C_1 
REMARK    1  A    between atoms: C_8  and  C_1 
REMARK    2  A    between atoms: C_2  and  C_7 
REMARK       I    between atoms: N_9  and  C_2 
REMARK    3  A    between atoms: C_7  and  N_3 
REMARK    4  A    between atoms: S_6  and  C_8 
REMARK    5  A    between atoms: C_10  and  S_6 
ROOT
ATOM      1  C   UNL d   1       1.050   0.284   0.069  0.00  0.00     0.227 C 
ATOM      2  N   UNL d   1       0.371   1.101  -0.797  0.00  0.00    -0.352 N 
ATOM      3  O   UNL d   1       0.451  -0.477   0.833  0.00  0.00    -0.273 OA
ATOM      4  H   UNL d   1       0.874   1.716  -1.436  0.00  0.00     0.162 HD
ENDROOT
BRANCH   2   5
ATOM      5  C   UNL d   1      -1.076   1.048  -0.856  0.00  0.00     0.225 C 
BRANCH   5   6
ATOM      6  C   UNL d   1      -1.697   2.100  -1.770  0.00  0.00     0.233 C 
ATOM      7  O   UNL d   1      -1.048   2.926  -2.404  0.00  0.00    -0.272 OA
ATOM      8  N   UNL d   1      -3.061   2.055  -1.839  0.00  0.00    -0.369 N 
ATOM      9  H   UNL d   1      -3.621   1.380  -1.337  0.00  0.00     0.159 HD
ATOM     10  H   UNL d   1      -3.532   2.725  -2.436  0.00  0.00     0.159 HD
ENDBRANCH   5   6
ENDBRANCH   2   5
BRANCH   1  11
ATOM     11  C   UNL d   1       2.564   0.259  -0.013  0.00  0.00     0.177 C 
BRANCH  11  12
ATOM     12  S   UNL d   1       3.355   1.805  -0.541  0.00  0.00    -0.156 SA
BRANCH  12  13
ATOM     13  C   UNL d   1       2.889   2.965   0.806  0.00  0.00     0.039 C 
ATOM     14  C   UNL d   1       3.257   2.475   2.203  0.00  0.00     0.021 C 
ATOM     15  C   UNL d   1       3.606   4.285   0.519  0.00  0.00     0.021 C 
ENDBRANCH  12  13
ENDBRANCH  11  12
ENDBRANCH   1  11
TORSDOF 5
