REMARK  1 active torsions:
REMARK  status: ('A' for Active; 'I' for Inactive)
REMARK    1  A    between atoms: C_4  and  N_1 
ROOT
ATOM      1  C   UNL d   1      -0.004   2.320  -0.031  0.00  0.00     0.047 A 
ATOM      2  C   UNL d   1      -1.383   5.168   1.975  0.00  0.00    -0.078 C 
ATOM      3  C   UNL d   1      -1.941   5.762   2.858  0.00  0.00     0.018 C 
ATOM      4  C   UNL d   1      -0.715   3.052   0.934  0.00  0.00     0.050 A 
ATOM      5  C   UNL d   1      -0.698   4.453   0.942  0.00  0.00     0.019 A 
ATOM      6  C   UNL d   1       0.711   3.045  -0.999  0.00  0.00     0.030 A 
ATOM      7  C   UNL d   1       0.708   4.444  -1.011  0.00  0.00     0.004 A 
ATOM      8  C   UNL d   1       0.006   5.149  -0.037  0.00  0.00     0.021 A 
ENDROOT
BRANCH   1   9
ATOM      9  N   UNL d   1      -0.001   0.896  -0.024  0.00  0.00    -0.245 N 
ATOM     10  C   UNL d   1      -0.917   0.103   0.613  0.00  0.00     0.255 A 
ATOM     11  C   UNL d   1      -0.539  -1.293   0.370  0.00  0.00     0.080 A 
ATOM     12  O   UNL d   1      -1.920   0.381   1.249  0.00  0.00    -0.268 OA
ATOM     13  C   UNL d   1       0.556  -1.295  -0.383  0.00  0.00     0.080 A 
ATOM     14  C   UNL d   1       0.922   0.101  -0.649  0.00  0.00     0.255 A 
ATOM     15  O   UNL d   1       1.921   0.377  -1.292  0.00  0.00    -0.268 OA
ENDBRANCH   1   9
TORSDOF 1
