REMARK  3 active torsions:
REMARK  status: ('A' for Active; 'I' for Inactive)
REMARK    1  A    between atoms: C_2  and  N_1 
REMARK    2  A    between atoms: C_7  and  C_3 
REMARK    3  A    between atoms: N_8  and  N_4 
REMARK       I    between atoms: C_6  and  N_8 
REMARK       I    between atoms: N_12  and  C_6 
ROOT
ATOM      1  N   UNL d   1       2.309  -3.551   1.277  0.00  0.00    -0.300 N 
ATOM      2  HN  UNL d   1       3.127  -3.491   1.884  1.00  0.00     0.186 HD
ATOM      3  C   UNL d   1       1.831  -2.486   0.705  0.00  0.00     0.034 C 
ATOM      4  C   UNL d   1       0.635  -2.468  -0.227  0.00  0.00     0.070 C 
ENDROOT
BRANCH   3   5
ATOM      5  C   UNL d   1       2.477  -1.171   1.008  0.00  0.00     0.021 A 
ATOM      6  C   UNL d   1       3.847  -1.036   1.263  0.00  0.00     0.115 A 
ATOM      7  C   UNL d   1       4.423   0.204   1.580  0.00  0.00     0.037 A 
ATOM      8  C   UNL d   1       3.612   1.335   1.647  0.00  0.00     0.002 A 
ATOM      9  C   UNL d   1       2.243   1.222   1.405  0.00  0.00     0.001 A 
ATOM     10  C   UNL d   1       1.677  -0.021   1.095  0.00  0.00     0.016 A 
BRANCH   6  11
ATOM     11  N   UNL d   1       4.744  -2.162   1.135  0.00  0.00    -0.115 N 
ATOM     12  O   UNL d   1       4.985  -2.558  -0.015  0.00  0.00    -0.532 OA
ATOM     13  O   UNL d   1       5.268  -2.588   2.175  0.00  0.00    -0.532 OA
ENDBRANCH   6  11
ENDBRANCH   3   5
BRANCH   1  14
ATOM     14  N   UNL d   1       1.697  -4.750   1.051  0.00  0.00    -0.252 N 
ATOM     15  C   UNL d   1       2.219  -5.939   1.496  0.00  0.00     0.332 C 
ATOM     16  O   UNL d   1       1.656  -7.013   1.324  0.00  0.00    -0.246 OA
ATOM     17  N   UNL d   1       3.408  -5.834   2.133  0.00  0.00    -0.351 N 
ATOM     18  H   UNL d   1       3.784  -4.909   2.292  0.00  0.00     0.160 HD
ATOM     19  H   UNL d   1       3.852  -6.653   2.516  0.00  0.00     0.160 HD
ATOM     20  H   UNL d   1       0.812  -4.818   0.568  0.00  0.00     0.191 HD
ENDBRANCH   1  14
TORSDOF 3
