REMARK  3 active torsions:
REMARK  status: ('A' for Active; 'I' for Inactive)
REMARK    1  A    between atoms: C_2  and  C_1 
REMARK    2  A    between atoms: C_4  and  C_2 
REMARK    3  A    between atoms: C_11  and  C_3 
ROOT
ATOM      1  C   UNL d   1       0.960   0.088   0.070  0.00  0.00     0.098 C 
ATOM      2  C   UNL d   1       0.308  -0.054  -1.102  0.00  0.00     0.038 C 
ATOM      3  C   UNL d   1       0.273   0.245   1.310  0.00  0.00     0.103 C 
ATOM      4  N   UNL d   1      -0.295   0.351   2.316  0.00  0.00    -0.191 NA
ENDROOT
BRANCH   1   5
ATOM      5  C   UNL d   1       2.462   0.009   0.062  0.00  0.00     0.226 C 
ATOM      6  O   UNL d   1       3.036  -0.601  -0.841  0.00  0.00    -0.284 OA
BRANCH   5   7
ATOM      7  C   UNL d   1       3.184   0.632   1.155  0.00  0.00     0.126 A 
ATOM      8  O   UNL d   1       2.639   1.722   1.778  0.00  0.00    -0.319 OA
ATOM      9  C   UNL d   1       3.486   2.090   2.771  0.00  0.00     0.142 A 
ATOM     10  C   UNL d   1       4.587   1.269   2.789  0.00  0.00     0.027 A 
ATOM     11  C   UNL d   1       4.411   0.348   1.726  0.00  0.00     0.043 A 
ENDBRANCH   5   7
ENDBRANCH   1   5
BRANCH   2  12
ATOM     12  C   UNL d   1      -1.156  -0.027  -1.207  0.00  0.00    -0.032 A 
ATOM     13  C   UNL d   1      -1.892  -1.204  -1.012  0.00  0.00     0.051 A 
ATOM     14  C   UNL d   1      -3.268  -1.110  -1.018  0.00  0.00     0.105 A 
ATOM     15  O   UNL d   1      -4.135  -2.139  -0.818  0.00  0.00    -0.323 OA
ATOM     16  C   UNL d   1      -3.913   0.088  -1.216  0.00  0.00     0.105 A 
ATOM     17  C   UNL d   1      -5.399  -1.445  -0.882  0.00  0.00     0.352 A 
ATOM     18  O   UNL d   1      -5.266  -0.037  -1.167  0.00  0.00    -0.323 OA
ATOM     19  C   UNL d   1      -3.219   1.259  -1.428  0.00  0.00     0.040 A 
ATOM     20  C   UNL d   1      -1.822   1.199  -1.422  0.00  0.00     0.014 A 
ENDBRANCH   2  12
TORSDOF 3
