REMARK  3 active torsions:
REMARK  status: ('A' for Active; 'I' for Inactive)
REMARK    1  A    between atoms: C_2  and  C_1 
REMARK    2  A    between atoms: C_18  and  C_7 
REMARK    3  A    between atoms: C_10  and  C_19 
ROOT
ATOM      1  C   UNL d   1       3.640   0.162  -0.025  0.00  0.00     0.057 A 
ATOM      2  N   UNL d   1       4.341   0.859   0.942  0.00  0.00    -0.348 N 
ATOM      3  HN  UNL d   1       3.908   1.349   1.725  1.00  0.00     0.166 HD
ATOM      4  C   UNL d   1       5.639   0.807   0.723  0.00  0.00     0.084 A 
ATOM      5  S   UNL d   1       6.093  -0.108  -0.662  0.00  0.00    -0.081 SA
ATOM      6  C   UNL d   1       4.442  -0.445  -0.973  0.00  0.00     0.082 A 
ENDROOT
BRANCH   4   7
ATOM      7  C   UNL d   1       6.644   1.403   1.616  0.00  0.00    -0.002 A 
ATOM      8  C   UNL d   1       6.353   1.517   2.985  0.00  0.00     0.015 A 
ATOM      9  C   UNL d   1       7.291   2.039   3.884  0.00  0.00     0.014 A 
ATOM     10  C   UNL d   1       8.542   2.472   3.431  0.00  0.00    -0.008 A 
ATOM     11  C   UNL d   1       8.820   2.402   2.060  0.00  0.00     0.014 A 
ATOM     12  C   UNL d   1       7.884   1.872   1.163  0.00  0.00     0.015 A 
BRANCH  10  13
ATOM     13  C   UNL d   1       9.552   2.990   4.344  0.00  0.00     0.063 A 
ATOM     14  N   UNL d   1      10.486   3.933   3.926  0.00  0.00    -0.292 N 
ATOM     15  N   UNL d   1      11.327   4.259   4.892  0.00  0.00    -0.061 NA
ATOM     16  HN  UNL d   1      10.517   4.327   2.986  1.00  0.00     0.183 HD
ATOM     17  S   UNL d   1      11.036   3.431   6.315  0.00  0.00    -0.010 SA
ATOM     18  C   UNL d   1       9.704   2.572   5.655  0.00  0.00     0.096 A 
ENDBRANCH  10  13
ENDBRANCH   4   7
BRANCH   1  19
ATOM     19  C   UNL d   1       2.132   0.073  -0.015  0.00  0.00     0.039 A 
ATOM     20  S   UNL d   1       1.279  -0.929  -1.110  0.00  0.00    -0.087 SA
ATOM     21  C   UNL d   1      -0.247  -0.518  -0.458  0.00  0.00     0.016 A 
ATOM     22  C   UNL d   1      -1.502  -1.009  -0.870  0.00  0.00     0.019 A 
ATOM     23  C   UNL d   1      -0.121   0.406   0.577  0.00  0.00    -0.012 A 
ATOM     24  C   UNL d   1      -2.654  -0.550  -0.229  0.00  0.00     0.001 A 
ATOM     25  C   UNL d   1      -2.563   0.379   0.796  0.00  0.00     0.001 A 
ATOM     26  C   UNL d   1      -1.314   0.857   1.202  0.00  0.00     0.013 A 
ATOM     27  C   UNL d   1       1.270   0.751   0.840  0.00  0.00    -0.031 A 
ATOM     28  C   UNL d   1       1.625   1.732   1.918  0.00  0.00     0.050 C 
ENDBRANCH   1  19
TORSDOF 3
