REMARK  6 active torsions:
REMARK  status: ('A' for Active; 'I' for Inactive)
REMARK    1  A    between atoms: N_2  and  C_1 
REMARK    2  A    between atoms: C_3  and  N_6 
REMARK    3  A    between atoms: N_7  and  C_3 
REMARK    4  A    between atoms: N_9  and  C_4 
REMARK    5  A    between atoms: C_5  and  C_11 
REMARK    6  A    between atoms: C_10  and  N_7 
ROOT
ATOM      1  N   UNL d   1       1.625  -5.450   0.614  0.00  0.00    -0.356 N 
ATOM      2  N   UNL d   1       1.131  -2.535   0.029  0.00  0.00    -0.377 N 
ATOM      3  C   UNL d   1       1.175  -4.945  -0.693  0.00  0.00     0.145 C 
ATOM      4  C   UNL d   1       1.498  -3.485  -1.046  0.00  0.00     0.143 C 
ATOM      5  C   UNL d   1       1.439  -3.579   2.276  0.00  0.00     0.040 C 
ATOM      6  C   UNL d   1       0.920  -4.931   1.785  0.00  0.00     0.127 C 
ATOM      7  C   UNL d   1       2.026  -2.659   1.211  0.00  0.00     0.124 C 
ENDROOT
BRANCH   2   8
ATOM      8  C   UNL d   1       0.827  -1.188  -0.249  0.00  0.00     0.063 A 
ATOM      9  C   UNL d   1       1.138  -0.414  -1.383  0.00  0.00     0.130 A 
ATOM     10  C   UNL d   1       0.932   0.982  -1.433  0.00  0.00     0.054 A 
ATOM     11  C   UNL d   1       0.385   1.656  -0.337  0.00  0.00     0.050 A 
ATOM     12  C   UNL d   1      -0.051   0.899   0.750  0.00  0.00     0.018 A 
ATOM     13  C   UNL d   1       0.152  -0.486   0.778  0.00  0.00     0.032 A 
BRANCH   9  14
ATOM     14  N   UNL d   1       1.747  -0.962  -2.572  0.00  0.00    -0.113 N 
ATOM     15  O   UNL d   1       2.964  -1.196  -2.530  0.00  0.00    -0.532 OA
ATOM     16  O   UNL d   1       1.022  -1.098  -3.564  0.00  0.00    -0.532 OA
ENDBRANCH   9  14
BRANCH  11  17
ATOM     17  C   UNL d   1       0.309   3.161  -0.297  0.00  0.00     0.417 C 
ATOM     18  F   UNL d   1       0.823   3.758  -1.407  0.00  0.00    -0.166 F 
ATOM     19  F   UNL d   1      -0.964   3.622  -0.172  0.00  0.00    -0.166 F 
ATOM     20  F   UNL d   1       1.002   3.677   0.756  0.00  0.00    -0.166 F 
ENDBRANCH  11  17
ENDBRANCH   2   8
BRANCH   1  21
ATOM     21  C   UNL d   1       2.766  -6.202   0.753  0.00  0.00     0.174 C 
ATOM     22  S   UNL d   1       4.263  -5.756   0.143  0.00  0.00    -0.041 SA
BRANCH  21  23
ATOM     23  N   UNL d   1       2.711  -7.367   1.470  0.00  0.00    -0.333 N 
ATOM     24  H   UNL d   1       3.645  -7.696   1.684  0.00  0.00     0.168 HD
BRANCH  23  25
ATOM     25  C   UNL d   1       1.731  -8.403   1.413  0.00  0.00     0.042 A 
ATOM     26  C   UNL d   1       2.011  -9.662   1.994  0.00  0.00    -0.013 A 
ATOM     27  C   UNL d   1       1.119 -10.734   1.749  0.00  0.00     0.042 A 
ATOM     28  C   UNL d   1       3.221  -9.921   2.860  0.00  0.00     0.052 C 
ATOM     29 CL   UNL d   1       1.430 -12.335   2.337  0.00  0.00    -0.084 Cl
ATOM     30  C   UNL d   1      -0.044 -10.559   0.999  0.00  0.00     0.024 A 
ATOM     31  C   UNL d   1      -0.346  -9.307   0.487  0.00  0.00     0.004 A 
ATOM     32  C   UNL d   1       0.535  -8.247   0.690  0.00  0.00     0.030 A 
ENDBRANCH  23  25
ENDBRANCH  21  23
ENDBRANCH   1  21
TORSDOF 6
