REMARK  4 active torsions:
REMARK  status: ('A' for Active; 'I' for Inactive)
REMARK    1  A    between atoms: C_7  and  C_1 
REMARK    2  A    between atoms: C_8  and  C_4 
REMARK    3  A    between atoms: C_14  and  C_6 
REMARK    4  A    between atoms: O_12  and  C_7 
ROOT
ATOM      1  C   UNL d   1       1.437   0.800  -0.059  0.00  0.00     0.122 A 
ATOM      2  N   UNL d   1       1.501  -0.602  -0.094  0.00  0.00    -0.344 N 
ATOM      3  HN  UNL d   1       2.368  -1.137  -0.144  1.00  0.00     0.167 HD
ATOM      4  C   UNL d   1       0.298  -1.138  -0.054  0.00  0.00     0.085 A 
ATOM      5  S   UNL d   1      -0.985   0.004  -0.051  0.00  0.00    -0.074 SA
ATOM      6  C   UNL d   1       0.140   1.300  -0.018  0.00  0.00     0.017 A 
ENDROOT
BRANCH   4   7
ATOM      7  C   UNL d   1       0.026  -2.588  -0.062  0.00  0.00    -0.002 A 
ATOM      8  C   UNL d   1      -1.150  -3.139   0.477  0.00  0.00     0.016 A 
ATOM      9  C   UNL d   1      -1.389  -4.516   0.428  0.00  0.00     0.024 A 
ATOM     10  C   UNL d   1      -0.450  -5.361  -0.154  0.00  0.00     0.034 A 
ATOM     11  C   UNL d   1       0.734  -4.843  -0.672  0.00  0.00     0.024 A 
ATOM     12 CL   UNL d   1      -0.756  -7.052  -0.232  0.00  0.00    -0.084 Cl
ATOM     13  C   UNL d   1       0.972  -3.465  -0.621  0.00  0.00     0.016 A 
ENDBRANCH   4   7
BRANCH   1  14
ATOM     14  C   UNL d   1       2.661   1.616  -0.057  0.00  0.00     0.310 C 
ATOM     15  O   UNL d   1       2.667   2.841  -0.068  0.00  0.00    -0.258 OA
BRANCH  14  16
ATOM     16  O   UNL d   1       3.796   0.852  -0.039  0.00  0.00    -0.321 OA
ATOM     17  C   UNL d   1       5.011   1.599  -0.034  0.00  0.00     0.213 C 
ENDBRANCH  14  16
ENDBRANCH   1  14
BRANCH   6  18
ATOM     18  C   UNL d   1      -0.377   2.705   0.068  0.00  0.00     0.044 C 
ATOM     19  C   UNL d   1      -0.646   3.310  -1.302  0.00  0.00     0.010 C 
ENDBRANCH   6  18
TORSDOF 4
