REMARK  7 active torsions:
REMARK  status: ('A' for Active; 'I' for Inactive)
REMARK    1  A    between atoms: C_2  and  C_1 
REMARK    2  A    between atoms: C_3  and  C_7 
REMARK    3  A    between atoms: C_6  and  N_19 
REMARK    4  A    between atoms: N_20  and  C_8 
REMARK    5  A    between atoms: N_19  and  C_25 
REMARK    6  A    between atoms: C_26  and  N_20 
REMARK    7  A    between atoms: C_25  and  C_26 
ROOT
ATOM      1  C   UNL d   1       4.364   0.932   1.837  0.00  0.00     0.110 C 
ENDROOT
BRANCH   1   2
ATOM      2  N   UNL d   1       4.035   1.369   3.187  0.00  0.00    -0.263 NA
ATOM      3  H   UNL d   1       3.090   1.732   3.287  0.00  0.00     0.130 HD
BRANCH   2   4
ATOM      4  C   UNL d   1       4.252   0.456   4.200  0.00  0.00     0.157 A 
ATOM      5  N   UNL d   1       3.375   0.481   5.208  0.00  0.00    -0.329 N 
ATOM      6  C   UNL d   1       3.571  -0.377   6.245  0.00  0.00     0.120 A 
ATOM      7  HN  UNL d   1       2.583   1.124   5.200  1.00  0.00     0.168 HD
ATOM      8  C   UNL d   1       4.637  -1.256   6.272  0.00  0.00     0.051 A 
ATOM      9  C   UNL d   1       5.479  -1.210   5.191  0.00  0.00     0.093 A 
ATOM     10  N   UNL d   1       5.304  -0.371   4.156  0.00  0.00    -0.343 N 
ATOM     11  HN  UNL d   1       5.949  -0.365   3.366  1.00  0.00     0.167 HD
BRANCH   6  12
ATOM     12  C   UNL d   1       2.599  -0.372   7.411  0.00  0.00     0.432 C 
ATOM     13  F   UNL d   1       1.568   0.510   7.288  0.00  0.00    -0.165 F 
ATOM     14  F   UNL d   1       2.021  -1.594   7.606  0.00  0.00    -0.165 F 
ATOM     15  F   UNL d   1       3.210  -0.069   8.595  0.00  0.00    -0.165 F 
ENDBRANCH   6  12
ENDBRANCH   2   4
ENDBRANCH   1   2
BRANCH   1  16
ATOM     16  C   UNL d   1       3.106   0.867   0.948  0.00  0.00     0.108 C 
BRANCH  16  17
ATOM     17  N   UNL d   1       2.382   2.152   0.936  0.00  0.00    -0.277 NA
ATOM     18  H   UNL d   1       3.011   2.946   0.837  0.00  0.00     0.129 HD
BRANCH  17  19
ATOM     19  C   UNL d   1       1.329   2.207   0.010  0.00  0.00     0.095 A 
ATOM     20  C   UNL d   1       0.609   3.380  -0.215  0.00  0.00     0.086 A 
ATOM     21  C   UNL d   1      -0.482   3.335  -1.110  0.00  0.00     0.021 A 
ATOM     22  C   UNL d   1      -0.826   2.151  -1.742  0.00  0.00     0.018 A 
ATOM     23  C   UNL d   1      -0.068   1.040  -1.459  0.00  0.00     0.089 A 
ATOM     24  N   UNL d   1       0.981   1.052  -0.606  0.00  0.00    -0.356 N 
ATOM     25  HN  UNL d   1       1.507   0.196  -0.428  1.00  0.00     0.166 HD
BRANCH  20  26
ATOM     26  C   UNL d   1       0.925   4.692   0.433  0.00  0.00     0.420 C 
ATOM     27  F   UNL d   1       2.046   4.718   1.207  0.00  0.00    -0.166 F 
ATOM     28  F   UNL d   1      -0.091   5.143   1.224  0.00  0.00    -0.166 F 
ATOM     29  F   UNL d   1       1.117   5.677  -0.496  0.00  0.00    -0.166 F 
ENDBRANCH  20  26
ENDBRANCH  17  19
ENDBRANCH  16  17
ENDBRANCH   1  16
TORSDOF 7
