REMARK  2 active torsions:
REMARK  status: ('A' for Active; 'I' for Inactive)
REMARK       I    between atoms: N_2  and  C_1 
REMARK       I    between atoms: N_4  and  C_1 
REMARK    1  A    between atoms: C_7  and  N_4 
REMARK    2  A    between atoms: C_6  and  N_5 
ROOT
ATOM      1  C   UNL d   1       0.921  -0.052   0.006  0.00  0.00     0.323 C 
ATOM      2  N   UNL d   1       0.361  -0.389  -1.220  0.00  0.00    -0.331 N 
ATOM      3  N   UNL d   1       0.522   1.160   0.528  0.00  0.00    -0.308 N 
ATOM      4  N   UNL d   1      -0.607  -1.244  -3.765  0.00  0.00    -0.377 N 
ATOM      5  O   UNL d   1       1.754  -0.794   0.527  0.00  0.00    -0.247 OA
ATOM      6  C   UNL d   1       0.769  -1.689  -1.791  0.00  0.00     0.147 C 
ATOM      7  C   UNL d   1      -0.898   0.148  -1.772  0.00  0.00     0.147 C 
ATOM      8  C   UNL d   1       0.723  -1.703  -3.332  0.00  0.00     0.143 C 
ATOM      9  C   UNL d   1      -0.909   0.124  -3.313  0.00  0.00     0.143 C 
ATOM     10  H   UNL d   1       0.091   1.783  -0.128  0.00  0.00     0.170 HD
ENDROOT
BRANCH   3  11
ATOM     11  C   UNL d   1       1.029   1.768   1.707  0.00  0.00     0.045 A 
ATOM     12  C   UNL d   1       1.745   1.032   2.658  0.00  0.00     0.072 A 
ATOM     13  C   UNL d   1       2.383   1.662   3.716  0.00  0.00     0.118 A 
ATOM     14  F   UNL d   1       3.089   0.935   4.592  0.00  0.00    -0.206 F 
ATOM     15  C   UNL d   1       2.316   3.036   3.870  0.00  0.00     0.043 A 
ATOM     16  C   UNL d   1       1.541   3.778   2.983  0.00  0.00     0.012 A 
ATOM     17  C   UNL d   1       0.859   3.156   1.915  0.00  0.00    -0.035 A 
ATOM     18  C   UNL d   1       0.018   4.056   1.049  0.00  0.00     0.050 C 
ENDBRANCH   3  11
BRANCH   4  19
ATOM     19  C   UNL d   1      -1.311  -1.838  -4.805  0.00  0.00     0.044 A 
ATOM     20  C   UNL d   1      -1.591  -3.243  -4.863  0.00  0.00     0.017 A 
ATOM     21  C   UNL d   1      -2.370  -3.720  -5.948  0.00  0.00     0.046 A 
ATOM     22  C   UNL d   1      -1.194  -4.194  -3.888  0.00  0.00     0.018 A 
ATOM     23  C   UNL d   1      -2.668  -5.072  -6.047  0.00  0.00     0.054 A 
ATOM     24  N   UNL d   1      -2.871  -2.925  -6.900  0.00  0.00    -0.365 N 
ATOM     25  C   UNL d   1      -2.219  -5.986  -5.101  0.00  0.00     0.036 A 
ATOM     26  C   UNL d   1      -1.482  -5.554  -4.014  0.00  0.00     0.025 A 
ATOM     27 CL   UNL d   1      -2.601  -7.655  -5.267  0.00  0.00    -0.084 Cl
ATOM     28  C   UNL d   1      -2.608  -1.611  -6.822  0.00  0.00     0.090 A 
ATOM     29  HN  UNL d   1      -3.435  -3.305  -7.660  1.00  0.00     0.165 HD
ATOM     30  C   UNL d   1      -1.842  -1.039  -5.825  0.00  0.00     0.047 A 
ENDBRANCH   4  19
TORSDOF 2
