REMARK  5 active torsions:
REMARK  status: ('A' for Active; 'I' for Inactive)
REMARK    1  A    between atoms: C_2  and  C_1 
REMARK    2  A    between atoms: C_3  and  C_1 
REMARK    3  A    between atoms: C_9  and  C_2 
REMARK    4  A    between atoms: O_10  and  C_3 
REMARK    5  A    between atoms: C_11  and  N_4 
ROOT
ATOM      1  C   UNL d   1       2.587  -0.060  -0.044  0.00  0.00     0.124 C 
ATOM      2  N   UNL d   1       3.337  -0.749  -2.825  0.00  0.00     0.088 N 
ATOM      3  C   UNL d   1       3.087   0.991  -1.040  0.00  0.00     0.081 C 
ATOM      4  C   UNL d   1       3.099  -1.454  -0.416  0.00  0.00     0.081 C 
ATOM      5  C   UNL d   1       2.839  -1.776  -1.892  0.00  0.00     0.276 C 
ATOM      6  C   UNL d   1       2.785   0.567  -2.479  0.00  0.00     0.276 C 
ENDROOT
BRANCH   1   7
ATOM      7  C   UNL d   1       1.067  -0.060  -0.044  0.00  0.00    -0.063 C 
BRANCH   7   8
ATOM      8  C   UNL d   1      -0.237  -0.060  -0.044  0.00  0.00    -0.064 C 
BRANCH   8   9
ATOM      9  C   UNL d   1      -1.665  -0.080  -0.091  0.00  0.00     0.017 A 
ATOM     10  C   UNL d   1      -2.345  -1.300  -0.119  0.00  0.00     0.020 A 
ATOM     11  C   UNL d   1      -3.740  -1.321  -0.188  0.00  0.00     0.001 A 
ATOM     12  C   UNL d   1      -4.455  -0.124  -0.230  0.00  0.00     0.000 A 
ATOM     13  C   UNL d   1      -3.777   1.095  -0.201  0.00  0.00     0.001 A 
ATOM     14  C   UNL d   1      -2.382   1.117  -0.132  0.00  0.00     0.020 A 
ENDBRANCH   8   9
ENDBRANCH   7   8
ENDBRANCH   1   7
BRANCH   1  15
ATOM     15  O   UNL d   1       3.041   0.268   1.266  0.00  0.00    -0.377 OA
ATOM     16  H   UNL d   1       2.575   1.079   1.532  0.00  0.00     0.211 HD
ENDBRANCH   1  15
BRANCH   2  17
ATOM     17  C   UNL d   1       4.803  -0.788  -2.930  0.00  0.00     0.268 C 
ATOM     18  C   UNL d   1       5.377   0.200  -3.941  0.00  0.00     0.037 C 
ENDBRANCH   2  17
TORSDOF 5
