REMARK  3 active torsions:
REMARK  status: ('A' for Active; 'I' for Inactive)
REMARK    1  A    between atoms: C_3  and  C_1 
REMARK       I    between atoms: N_8  and  C_3 
REMARK    2  A    between atoms: C_4  and  N_8 
REMARK    3  A    between atoms: O_21  and  C_19 
ROOT
ATOM      1  C   UNL d   1      -3.806  -0.148  -0.195  0.00  0.00     0.273 C 
ATOM      2  N   UNL d   1      -4.428  -1.379  -0.195  0.00  0.00    -0.308 N 
ATOM      3  O   UNL d   1      -4.360   0.945  -0.178  0.00  0.00    -0.266 OA
ATOM      4  H   UNL d   1      -3.843  -2.196  -0.213  0.00  0.00     0.170 HD
ENDROOT
BRANCH   1   5
ATOM      5  C   UNL d   1      -2.353  -0.223  -0.196  0.00  0.00     0.102 A 
ATOM      6  N   UNL d   1      -1.582   0.921  -0.117  0.00  0.00    -0.351 N 
ATOM      7  C   UNL d   1      -0.242   0.619  -0.093  0.00  0.00     0.043 A 
ATOM      8  H   UNL d   1      -1.977   1.852  -0.063  0.00  0.00     0.166 HD
ATOM      9  C   UNL d   1       0.880   1.449  -0.006  0.00  0.00     0.033 A 
ATOM     10  C   UNL d   1      -0.141  -0.767  -0.171  0.00  0.00    -0.004 A 
ATOM     11  C   UNL d   1       2.144   0.839   0.014  0.00  0.00     0.039 A 
ATOM     12  C   UNL d   1       2.277  -0.548  -0.051  0.00  0.00     0.069 A 
ATOM     13  C   UNL d   1       1.136  -1.355  -0.150  0.00  0.00     0.050 A 
ATOM     14  C   UNL d   1      -1.463  -1.284  -0.255  0.00  0.00     0.049 A 
BRANCH  12  15
ATOM     15  O   UNL d   1       3.453  -1.250  -0.027  0.00  0.00    -0.356 OA
ATOM     16  C   UNL d   1       4.654  -0.500   0.093  0.00  0.00     0.210 C 
ENDBRANCH  12  15
ENDBRANCH   1   5
BRANCH   2  17
ATOM     17  C   UNL d   1      -5.811  -1.596  -0.107  0.00  0.00     0.111 A 
ATOM     18  N   UNL d   1      -6.657  -0.565  -0.033  0.00  0.00    -0.332 N 
ATOM     19  C   UNL d   1      -7.963  -0.843   0.094  0.00  0.00     0.078 A 
ATOM     20  HN  UNL d   1      -6.323   0.398  -0.071  1.00  0.00     0.168 HD
ATOM     21  C   UNL d   1      -8.908   0.308   0.233  0.00  0.00     0.089 C 
ATOM     22  N   UNL d   1      -8.478  -2.083   0.152  0.00  0.00    -0.350 N 
ATOM     23  C   UNL d   1      -7.608  -3.106   0.075  0.00  0.00     0.010 A 
ATOM     24  HN  UNL d   1      -9.481  -2.240   0.249  1.00  0.00     0.167 HD
ATOM     25  C   UNL d   1      -6.248  -2.906  -0.064  0.00  0.00     0.073 A 
ATOM     26  C   UNL d   1      -8.169  -4.492   0.179  0.00  0.00     0.068 C 
ENDBRANCH   2  17
TORSDOF 3
