REMARK  6 active torsions:
REMARK  status: ('A' for Active; 'I' for Inactive)
REMARK    1  A    between atoms: N_2  and  C_1 
REMARK    2  A    between atoms: N_3  and  C_1 
REMARK    3  A    between atoms: C_6  and  N_2 
REMARK    4  A    between atoms: N_5  and  N_3 
REMARK    5  A    between atoms: C_8  and  N_5 
REMARK    6  A    between atoms: O_10  and  C_9 
ROOT
ATOM      1  C   UNL d   1       0.993  -0.003  -0.102  0.00  0.00     0.186 C 
ATOM      2  S   UNL d   1       2.646   0.135  -0.332  0.00  0.00    -0.040 SA
ENDROOT
BRANCH   1   3
ATOM      3  N   UNL d   1       0.296  -1.010   0.524  0.00  0.00    -0.332 N 
ATOM      4  H   UNL d   1      -0.584  -0.690   0.910  0.00  0.00     0.168 HD
BRANCH   3   5
ATOM      5  C   UNL d   1       0.702  -2.325   0.812  0.00  0.00     0.036 A 
ATOM      6  C   UNL d   1       1.535  -3.041  -0.058  0.00  0.00     0.066 A 
ATOM      7  C   UNL d   1       1.889  -4.362   0.215  0.00  0.00     0.070 A 
ATOM      8  C   UNL d   1       1.417  -4.968   1.379  0.00  0.00     0.037 A 
ATOM      9  C   UNL d   1       0.572  -4.270   2.244  0.00  0.00     0.005 A 
ATOM     10  C   UNL d   1       0.196  -2.958   1.948  0.00  0.00     0.029 A 
BRANCH   7  11
ATOM     11  O   UNL d   1       2.670  -5.158  -0.581  0.00  0.00    -0.356 OA
ATOM     12  C   UNL d   1       3.116  -4.586  -1.806  0.00  0.00     0.210 C 
ENDBRANCH   7  11
ENDBRANCH   3   5
ENDBRANCH   1   3
BRANCH   1  13
ATOM     13  N   UNL d   1       0.208   1.042  -0.546  0.00  0.00    -0.297 N 
ATOM     14  H   UNL d   1       0.707   1.797  -1.015  0.00  0.00     0.183 HD
BRANCH  13  15
ATOM     15  N   UNL d   1      -1.200   0.968  -0.611  0.00  0.00    -0.230 NA
ATOM     16  H   UNL d   1      -1.577   1.807  -0.161  0.00  0.00     0.147 HD
BRANCH  15  17
ATOM     17  C   UNL d   1      -1.712   0.898  -2.005  0.00  0.00     0.019 C 
ATOM     18  C   UNL d   1      -1.339  -0.442  -2.661  0.00  0.00     0.033 C 
ATOM     19  C   UNL d   1      -3.246   0.994  -1.923  0.00  0.00     0.033 C 
ATOM     20  C   UNL d   1      -1.203   2.066  -2.872  0.00  0.00     0.033 C 
ENDBRANCH  15  17
ENDBRANCH  13  15
ENDBRANCH   1  13
TORSDOF 6
