REMARK  5 active torsions:
REMARK  status: ('A' for Active; 'I' for Inactive)
REMARK    1  A    between atoms: C_2  and  S_1 
REMARK    2  A    between atoms: N_3  and  S_1 
REMARK    3  A    between atoms: C_13  and  C_4 
REMARK    4  A    between atoms: O_18  and  C_4 
REMARK    5  A    between atoms: O_25  and  C_8 
ROOT
ATOM      1  N   UNL d   1       0.566   0.974  -1.420  0.00  0.00    -0.206 NA
ATOM      2  C   UNL d   1      -0.945   2.759  -3.176  0.00  0.00     0.087 C 
ATOM      3  C   UNL d   1       0.547   2.966  -2.839  0.00  0.00     0.058 C 
ATOM      4  C   UNL d   1      -1.328   1.283  -2.926  0.00  0.00     0.058 C 
ATOM      5  C   UNL d   1      -0.907   0.805  -1.536  0.00  0.00     0.111 C 
ATOM      6  C   UNL d   1       0.907   2.421  -1.464  0.00  0.00     0.111 C 
ENDROOT
BRANCH   1   7
ATOM      7  S   UNL d   1       1.322   0.168  -0.125  0.00  0.00     0.246 S 
ATOM      8  O   UNL d   1       2.757   0.315  -0.253  0.00  0.00    -0.206 OA
ATOM      9  O   UNL d   1       0.658   0.639   1.071  0.00  0.00    -0.206 OA
BRANCH   7  10
ATOM     10  C   UNL d   1       0.919  -1.552  -0.353  0.00  0.00     0.109 A 
ATOM     11  C   UNL d   1       0.208  -2.121   0.732  0.00  0.00     0.051 A 
ATOM     12  C   UNL d   1      -0.228  -3.441   0.699  0.00  0.00     0.035 A 
ATOM     13 CL   UNL d   1      -1.119  -4.087   2.019  0.00  0.00    -0.084 Cl
ATOM     14  C   UNL d   1       0.047  -4.228  -0.403  0.00  0.00     0.026 A 
ATOM     15  C   UNL d   1       0.757  -3.674  -1.469  0.00  0.00     0.040 A 
ATOM     16  C   UNL d   1       1.204  -2.333  -1.480  0.00  0.00     0.091 A 
BRANCH  16  17
ATOM     17  O   UNL d   1       1.815  -2.095  -2.670  0.00  0.00    -0.354 OA
ATOM     18  C   UNL d   1       2.540  -0.923  -2.977  0.00  0.00     0.210 C 
ENDBRANCH  16  17
ENDBRANCH   7  10
ENDBRANCH   1   7
BRANCH   2  19
ATOM     19  C   UNL d   1      -1.213   3.259  -4.606  0.00  0.00    -0.024 A 
ATOM     20  C   UNL d   1      -1.736   2.428  -5.614  0.00  0.00     0.012 A 
ATOM     21  C   UNL d   1      -1.879   2.884  -6.930  0.00  0.00     0.024 A 
ATOM     22  C   UNL d   1      -1.516   4.184  -7.260  0.00  0.00     0.034 A 
ATOM     23  C   UNL d   1      -1.031   5.042  -6.281  0.00  0.00     0.024 A 
ATOM     24 CL   UNL d   1      -1.655   4.729  -8.885  0.00  0.00    -0.084 Cl
ATOM     25  C   UNL d   1      -0.884   4.584  -4.967  0.00  0.00     0.012 A 
ENDBRANCH   2  19
BRANCH   2  26
ATOM     26  O   UNL d   1      -1.723   3.539  -2.257  0.00  0.00    -0.385 OA
ATOM     27  H   UNL d   1      -1.796   4.447  -2.594  0.00  0.00     0.211 HD
ENDBRANCH   2  26
TORSDOF 5
