REMARK  4 active torsions:
REMARK  status: ('A' for Active; 'I' for Inactive)
REMARK    1  A    between atoms: N_2  and  S_1 
REMARK    2  A    between atoms: C_6  and  S_1 
REMARK    3  A    between atoms: C_3  and  N_9 
REMARK    4  A    between atoms: C_4  and  C_5 
ROOT
ATOM      1  N   UNL d   1       0.723   0.293   1.237  0.00  0.00    -0.204 NA
ATOM      2  N   UNL d   1       2.185   1.827   3.217  0.00  0.00    -0.266 NA
ATOM      3  C   UNL d   1       0.407   1.732   1.548  0.00  0.00     0.122 C 
ATOM      4  C   UNL d   1       1.487  -0.356   2.369  0.00  0.00     0.122 C 
ATOM      5  C   UNL d   1       1.637   2.524   2.042  0.00  0.00     0.112 C 
ATOM      6  C   UNL d   1       2.687   0.489   2.856  0.00  0.00     0.112 C 
ENDROOT
BRANCH   2   7
ATOM      7  C   UNL d   1       2.980   2.595   4.067  0.00  0.00     0.104 A 
ATOM      8  N   UNL d   1       4.298   2.294   4.173  0.00  0.00    -0.354 N 
ATOM      9  C   UNL d   1       5.061   2.995   5.052  0.00  0.00     0.105 A 
ATOM     10  HN  UNL d   1       4.709   1.555   3.603  1.00  0.00     0.166 HD
ATOM     11  C   UNL d   1       4.581   4.009   5.866  0.00  0.00     0.065 A 
ATOM     12  C   UNL d   1       3.227   4.320   5.760  0.00  0.00     0.044 A 
ATOM     13  C   UNL d   1       2.420   3.610   4.870  0.00  0.00     0.073 A 
ATOM     14 CL   UNL d   1       0.723   3.966   4.897  0.00  0.00    -0.081 Cl
BRANCH  11  15
ATOM     15  C   UNL d   1       5.491   4.703   6.829  0.00  0.00     0.418 C 
ATOM     16  F   UNL d   1       4.865   5.662   7.567  0.00  0.00    -0.166 F 
ATOM     17  F   UNL d   1       6.048   3.847   7.728  0.00  0.00    -0.166 F 
ATOM     18  F   UNL d   1       6.529   5.327   6.211  0.00  0.00    -0.166 F 
ENDBRANCH  11  15
ENDBRANCH   2   7
BRANCH   1  19
ATOM     19  S   UNL d   1       1.326  -0.045  -0.310  0.00  0.00     0.243 S 
ATOM     20  O   UNL d   1       1.542  -1.474  -0.414  0.00  0.00    -0.206 OA
ATOM     21  O   UNL d   1       2.391   0.890  -0.592  0.00  0.00    -0.206 OA
BRANCH  19  22
ATOM     22  C   UNL d   1      -0.045   0.349  -1.378  0.00  0.00     0.076 A 
ATOM     23  C   UNL d   1      -1.040  -0.609  -1.602  0.00  0.00     0.050 A 
ATOM     24  C   UNL d   1      -2.069  -0.338  -2.510  0.00  0.00     0.057 A 
ATOM     25 CL   UNL d   1      -3.261  -1.562  -2.764  0.00  0.00    -0.083 Cl
ATOM     26  C   UNL d   1      -2.101   0.888  -3.189  0.00  0.00     0.055 A 
ATOM     27  C   UNL d   1      -1.102   1.840  -2.958  0.00  0.00     0.027 A 
ATOM     28 CL   UNL d   1      -3.333   1.283  -4.335  0.00  0.00    -0.083 Cl
ATOM     29  C   UNL d   1      -0.066   1.569  -2.061  0.00  0.00     0.026 A 
ENDBRANCH  19  22
ENDBRANCH   1  19
TORSDOF 4
