REMARK  6 active torsions:
REMARK  status: ('A' for Active; 'I' for Inactive)
REMARK    1  A    between atoms: C_4  and  C_1 
REMARK    2  A    between atoms: C_9  and  C_2 
REMARK    3  A    between atoms: C_3  and  N_8 
REMARK       I    between atoms: N_8  and  C_4 
REMARK    4  A    between atoms: C_14  and  C_7 
REMARK    5  A    between atoms: C_16  and  C_14 
REMARK    6  A    between atoms: O_22  and  C_16 
ROOT
ATOM      1  C   UNL d   1       0.011  -2.687  -0.445  0.00  0.00     0.260 C 
ATOM      2  N   UNL d   1      -0.980  -3.519   0.013  0.00  0.00    -0.303 N 
ATOM      3  O   UNL d   1      -0.166  -1.628  -1.034  0.00  0.00    -0.267 OA
ATOM      4  H   UNL d   1      -0.790  -4.326   0.583  0.00  0.00     0.171 HD
ENDROOT
BRANCH   2   5
ATOM      5  C   UNL d   1      -2.306  -3.224  -0.131  0.00  0.00     0.152 A 
ATOM      6  N   UNL d   1      -2.889  -2.285  -0.823  0.00  0.00    -0.339 N 
ATOM      7  C   UNL d   1      -4.258  -2.292  -0.576  0.00  0.00     0.033 A 
ATOM      8  HN  UNL d   1      -2.411  -1.640  -1.453  1.00  0.00     0.168 HD
ATOM      9  C   UNL d   1      -4.663  -3.240   0.354  0.00  0.00     0.005 A 
ATOM     10  S   UNL d   1      -3.329  -4.234   0.781  0.00  0.00    -0.057 SA
ATOM     11  C   UNL d   1      -5.994  -3.459   0.982  0.00  0.00     0.058 C 
BRANCH   7  12
ATOM     12  C   UNL d   1      -5.075  -1.217  -1.220  0.00  0.00     0.169 C 
BRANCH  12  13
ATOM     13  C   UNL d   1      -6.200  -1.722  -2.096  0.00  0.00     0.264 C 
ATOM     14  O   UNL d   1      -6.526  -2.886  -2.277  0.00  0.00    -0.265 OA
BRANCH  13  15
ATOM     15  O   UNL d   1      -6.843  -0.645  -2.644  0.00  0.00    -0.326 OA
ATOM     16  C   UNL d   1      -7.954  -0.977  -3.481  0.00  0.00     0.213 C 
ENDBRANCH  13  15
ENDBRANCH  12  13
ENDBRANCH   7  12
ENDBRANCH   2   5
BRANCH   1  17
ATOM     17  C   UNL d   1       1.385  -3.149  -0.213  0.00  0.00     0.073 A 
ATOM     18  C   UNL d   1       1.909  -4.081   0.680  0.00  0.00     0.175 A 
ATOM     19  O   UNL d   1       3.259  -4.211   0.478  0.00  0.00    -0.310 OA
ATOM     20  C   UNL d   1       3.619  -3.353  -0.508  0.00  0.00     0.051 A 
ATOM     21  C   UNL d   1       2.521  -2.647  -0.932  0.00  0.00     0.052 A 
ATOM     22  C   UNL d   1       5.040  -3.365  -0.905  0.00  0.00     0.076 C 
BRANCH  18  23
ATOM     23  C   UNL d   1       1.369  -4.934   1.767  0.00  0.00     0.440 C 
ATOM     24  F   UNL d   1       0.048  -4.697   1.992  0.00  0.00    -0.164 F 
ATOM     25  F   UNL d   1       1.462  -6.254   1.468  0.00  0.00    -0.164 F 
ATOM     26  F   UNL d   1       2.001  -4.742   2.950  0.00  0.00    -0.164 F 
ENDBRANCH  18  23
ENDBRANCH   1  17
TORSDOF 6
