REMARK  6 active torsions:
REMARK  status: ('A' for Active; 'I' for Inactive)
REMARK    1  A    between atoms: C_3  and  C_1 
REMARK       I    between atoms: N_4  and  C_1 
REMARK    2  A    between atoms: C_5  and  C_3 
REMARK    3  A    between atoms: C_13  and  N_4 
REMARK    4  A    between atoms: O_12  and  C_6 
REMARK    5  A    between atoms: N_9  and  C_14 
REMARK    6  A    between atoms: C_14  and  C_13 
ROOT
ATOM      1  C   UNL d   1       1.074   0.068   0.148  0.00  0.00     0.221 C 
ATOM      2  O   UNL d   1       1.386   1.251   0.047  0.00  0.00    -0.273 OA
ATOM      3  N   UNL d   1       1.371  -0.690   1.259  0.00  0.00    -0.359 N 
ATOM      4  H   UNL d   1       1.239  -1.694   1.254  0.00  0.00     0.162 HD
ENDROOT
BRANCH   1   5
ATOM      5  C   UNL d   1       0.293  -0.658  -0.934  0.00  0.00     0.141 C 
BRANCH   5   6
ATOM      6  C   UNL d   1      -1.201  -0.533  -0.755  0.00  0.00    -0.049 A 
ATOM      7  C   UNL d   1      -1.810   0.731  -0.728  0.00  0.00     0.010 A 
ATOM      8  C   UNL d   1      -3.189   0.851  -0.548  0.00  0.00     0.037 A 
ATOM      9  C   UNL d   1      -3.965  -0.291  -0.406  0.00  0.00     0.065 A 
ATOM     10  C   UNL d   1      -3.385  -1.555  -0.447  0.00  0.00     0.037 A 
ATOM     11  C   UNL d   1      -2.004  -1.675  -0.624  0.00  0.00     0.010 A 
BRANCH   9  12
ATOM     12  O   UNL d   1      -5.307  -0.129  -0.226  0.00  0.00    -0.361 OA
ATOM     13  H   UNL d   1      -5.715  -1.006  -0.142  0.00  0.00     0.217 HD
ENDBRANCH   9  12
ENDBRANCH   5   6
ENDBRANCH   1   5
BRANCH   3  14
ATOM     14  C   UNL d   1       2.097  -0.113   2.373  0.00  0.00     0.152 C 
BRANCH  14  15
ATOM     15  C   UNL d   1       2.333  -1.122   3.504  0.00  0.00     0.286 C 
BRANCH  15  16
ATOM     16  N   UNL d   1       3.085  -2.295   3.046  0.00  0.00     0.079 N 
ATOM     17  H   UNL d   1       3.303  -2.882   3.852  0.00  0.00     0.312 HD
ATOM     18  H   UNL d   1       3.987  -1.988   2.679  0.00  0.00     0.312 HD
ENDBRANCH  15  16
ENDBRANCH  14  15
ENDBRANCH   3  14
TORSDOF 6
