REMARK  7 active torsions:
REMARK  status: ('A' for Active; 'I' for Inactive)
REMARK    1  A    between atoms: C_2  and  C_1 
REMARK    2  A    between atoms: S_5  and  C_13 
REMARK    3  A    between atoms: C_19  and  S_5 
REMARK    4  A    between atoms: C_20  and  C_6 
REMARK    5  A    between atoms: C_13  and  C_9 
REMARK    6  A    between atoms: C_10  and  C_16 
REMARK    7  A    between atoms: C_22  and  C_19 
ROOT
ATOM      1  C   UNL d   1       0.427  -2.713  -0.140  0.00  0.00     0.054 A 
ATOM      2  N   UNL d   1       1.221  -3.211   0.883  0.00  0.00    -0.352 N 
ATOM      3  HN  UNL d   1       1.568  -2.666   1.673  1.00  0.00     0.166 HD
ATOM      4  C   UNL d   1       1.459  -4.493   0.683  0.00  0.00     0.065 A 
ATOM      5  C   UNL d   1       0.144  -3.616  -1.145  0.00  0.00     0.082 A 
ATOM      6  S   UNL d   1       0.731  -5.165  -0.723  0.00  0.00    -0.085 SA
ENDROOT
BRANCH   4   7
ATOM      7  C   UNL d   1       2.251  -5.349   1.604  0.00  0.00     0.205 C 
BRANCH   7   8
ATOM      8  S   UNL d   1       3.948  -5.376   1.058  0.00  0.00     0.154 S 
ATOM      9  O   UNL d   1       4.672  -6.180   2.030  0.00  0.00    -0.227 OA
ATOM     10  O   UNL d   1       3.978  -5.741  -0.347  0.00  0.00    -0.227 OA
BRANCH   8  11
ATOM     11  C   UNL d   1       4.480  -3.674   1.242  0.00  0.00     0.179 C 
BRANCH  11  12
ATOM     12  C   UNL d   1       5.913  -3.539   0.793  0.00  0.00    -0.043 A 
ATOM     13  C   UNL d   1       6.974  -3.773   1.682  0.00  0.00     0.024 A 
ATOM     14  C   UNL d   1       8.312  -3.621   1.270  0.00  0.00     0.048 A 
ATOM     15  C   UNL d   1       8.571  -3.240  -0.053  0.00  0.00     0.016 A 
ATOM     16  C   UNL d   1       7.525  -3.022  -0.948  0.00  0.00     0.001 A 
ATOM     17  C   UNL d   1       6.204  -3.172  -0.528  0.00  0.00     0.008 A 
BRANCH  14  18
ATOM     18  C   UNL d   1       9.457  -3.852   2.224  0.00  0.00     0.417 C 
ATOM     19  F   UNL d   1       9.064  -4.208   3.478  0.00  0.00    -0.166 F 
ATOM     20  F   UNL d   1      10.303  -4.833   1.803  0.00  0.00    -0.166 F 
ATOM     21  F   UNL d   1      10.229  -2.739   2.382  0.00  0.00    -0.166 F 
ENDBRANCH  14  18
ENDBRANCH  11  12
ENDBRANCH   8  11
ENDBRANCH   7   8
ENDBRANCH   4   7
BRANCH   1  22
ATOM     22  C   UNL d   1      -0.014  -1.322  -0.069  0.00  0.00     0.052 A 
ATOM     23  C   UNL d   1      -1.255  -0.763  -0.513  0.00  0.00     0.080 A 
ATOM     24  N   UNL d   1      -1.244   0.569  -0.327  0.00  0.00    -0.259 N 
ATOM     25  O   UNL d   1      -0.050   0.873   0.291  0.00  0.00    -0.241 OA
ATOM     26  HN  UNL d   1      -1.977   1.227  -0.592  1.00  0.00     0.195 HD
ATOM     27  C   UNL d   1       0.678  -0.259   0.464  0.00  0.00     0.087 A 
ATOM     28  C   UNL d   1       1.981  -0.100   1.134  0.00  0.00     0.080 C 
BRANCH  23  29
ATOM     29  C   UNL d   1      -2.437  -1.414  -1.088  0.00  0.00    -0.007 A 
ATOM     30  C   UNL d   1      -3.181  -0.776  -2.091  0.00  0.00     0.014 A 
ATOM     31  C   UNL d   1      -4.280  -1.413  -2.678  0.00  0.00     0.001 A 
ATOM     32  C   UNL d   1      -4.641  -2.697  -2.276  0.00  0.00     0.000 A 
ATOM     33  C   UNL d   1      -3.931  -3.330  -1.260  0.00  0.00     0.001 A 
ATOM     34  C   UNL d   1      -2.854  -2.680  -0.650  0.00  0.00     0.014 A 
ENDBRANCH  23  29
ENDBRANCH   1  22
TORSDOF 7
