REMARK  5 active torsions:
REMARK  status: ('A' for Active; 'I' for Inactive)
REMARK    1  A    between atoms: N_7  and  C_1 
REMARK    2  A    between atoms: N_8  and  C_1 
REMARK       I    between atoms: C_4  and  N_11 
REMARK    3  A    between atoms: C_10  and  C_4 
REMARK    4  A    between atoms: C_12  and  N_7 
REMARK    5  A    between atoms: N_11  and  N_8 
ROOT
ATOM      1  N   UNL d   1      -3.349   3.491  -2.034  0.00  0.00    -0.197 NA
ATOM      2  C   UNL d   1      -3.461   2.422  -1.601  0.00  0.00     0.068 C 
ATOM      3  C   UNL d   1      -3.543   1.090  -1.002  0.00  0.00     0.228 C 
ENDROOT
BRANCH   3   4
ATOM      4  C   UNL d   1      -2.179   0.475  -0.764  0.00  0.00     0.249 C 
ATOM      5  N   UNL d   1      -1.160   1.330  -0.363  0.00  0.00    -0.267 N 
ATOM      6  H   UNL d   1      -1.311   2.339  -0.380  0.00  0.00     0.190 HD
ATOM      7  O   UNL d   1      -2.022  -0.746  -0.818  0.00  0.00    -0.271 OA
BRANCH   5   8
ATOM      8  N   UNL d   1       0.163   0.963  -0.678  0.00  0.00    -0.274 N 
ATOM      9  H   UNL d   1       0.638   1.498  -1.403  0.00  0.00     0.189 HD
BRANCH   8  10
ATOM     10  C   UNL d   1       0.925   0.022  -0.029  0.00  0.00     0.191 C 
ATOM     11  S   UNL d   1       2.495  -0.149  -0.589  0.00  0.00    -0.039 SA
BRANCH  10  12
ATOM     12  N   UNL d   1       0.296  -0.697   0.963  0.00  0.00    -0.332 N 
ATOM     13  H   UNL d   1      -0.671  -0.904   0.725  0.00  0.00     0.168 HD
BRANCH  12  14
ATOM     14  C   UNL d   1       0.892  -1.496   1.969  0.00  0.00     0.036 A 
ATOM     15  C   UNL d   1       2.131  -1.184   2.540  0.00  0.00     0.055 A 
ATOM     16  C   UNL d   1       2.706  -2.011   3.512  0.00  0.00     0.058 A 
ATOM     17 CL   UNL d   1       4.255  -1.559   4.134  0.00  0.00    -0.082 Cl
ATOM     18  C   UNL d   1       2.027  -3.150   3.946  0.00  0.00     0.055 A 
ATOM     19  C   UNL d   1       0.767  -3.443   3.418  0.00  0.00     0.028 A 
ATOM     20 CL   UNL d   1       2.682  -4.226   5.129  0.00  0.00    -0.083 Cl
ATOM     21  C   UNL d   1       0.196  -2.612   2.444  0.00  0.00     0.031 A 
ENDBRANCH  12  14
ENDBRANCH  10  12
ENDBRANCH   8  10
ENDBRANCH   5   8
ENDBRANCH   3   4
TORSDOF 5
