REMARK  4 active torsions:
REMARK  status: ('A' for Active; 'I' for Inactive)
REMARK    1  A    between atoms: C_14  and  C_10 
REMARK    2  A    between atoms: O_18  and  C_11 
REMARK    3  A    between atoms: O_19  and  C_12 
REMARK    4  A    between atoms: O_20  and  C_13 
ROOT
ATOM      1  N   UNL d   1      -2.140  -3.809  -1.138  0.00  0.00    -0.255 N 
ATOM      2  C   UNL d   1      -3.279  -4.072  -1.816  0.00  0.00     0.160 A 
ATOM      3  C   UNL d   1      -2.080  -2.635  -0.409  0.00  0.00     0.271 A 
ATOM      4  C   UNL d   1      -3.402  -1.957  -0.596  0.00  0.00     0.077 A 
ATOM      5  N   UNL d   1      -3.249  -5.194  -2.487  0.00  0.00    -0.334 N 
ATOM      6  HN  UNL d   1      -3.977  -5.601  -3.073  1.00  0.00     0.168 HD
ATOM      7  S   UNL d   1      -4.485  -2.863  -1.625  0.00  0.00    -0.048 SA
ATOM      8  C   UNL d   1      -1.273  -4.847  -1.355  0.00  0.00     0.071 A 
ATOM      9  C   UNL d   1      -1.994  -5.694  -2.209  0.00  0.00     0.061 A 
ATOM     10  C   UNL d   1      -3.663  -0.796   0.020  0.00  0.00     0.036 C 
ATOM     11  O   UNL d   1      -1.114  -2.297   0.241  0.00  0.00    -0.266 OA
ATOM     12  C   UNL d   1       0.021  -5.130  -0.914  0.00  0.00     0.032 A 
ATOM     13  C   UNL d   1      -1.394  -6.879  -2.657  0.00  0.00     0.032 A 
ATOM     14  C   UNL d   1       0.597  -6.320  -1.372  0.00  0.00     0.002 A 
ATOM     15  C   UNL d   1      -0.094  -7.181  -2.230  0.00  0.00     0.002 A 
ENDROOT
BRANCH  10  16
ATOM     16  C   UNL d   1      -4.955  -0.110  -0.037  0.00  0.00    -0.029 A 
ATOM     17  C   UNL d   1      -5.935  -0.417   0.903  0.00  0.00     0.051 A 
ATOM     18  C   UNL d   1      -7.196   0.201   0.865  0.00  0.00     0.105 A 
ATOM     19  C   UNL d   1      -7.494   1.148  -0.146  0.00  0.00     0.135 A 
ATOM     20  C   UNL d   1      -6.508   1.418  -1.125  0.00  0.00     0.105 A 
ATOM     21  C   UNL d   1      -5.250   0.797  -1.047  0.00  0.00     0.051 A 
BRANCH  18  22
ATOM     22  O   UNL d   1      -8.174  -0.188   1.751  0.00  0.00    -0.353 OA
ATOM     23  C   UNL d   1      -7.719  -0.540   3.059  0.00  0.00     0.210 C 
ENDBRANCH  18  22
BRANCH  19  24
ATOM     24  O   UNL d   1      -8.672   1.831  -0.278  0.00  0.00    -0.351 OA
ATOM     25  C   UNL d   1      -9.633   1.863   0.766  0.00  0.00     0.210 C 
ENDBRANCH  19  24
BRANCH  20  26
ATOM     26  O   UNL d   1      -6.571   2.216  -2.238  0.00  0.00    -0.353 OA
ATOM     27  C   UNL d   1      -7.685   3.052  -2.496  0.00  0.00     0.210 C 
ENDBRANCH  20  26
ENDBRANCH  10  16
TORSDOF 4
