REMARK  2 active torsions:
REMARK  status: ('A' for Active; 'I' for Inactive)
REMARK       I    between atoms: C_2  and  N_1 
REMARK    1  A    between atoms: C_4  and  N_1 
REMARK    2  A    between atoms: C_3  and  C_2 
ROOT
ATOM      1  C   UNL d   1       2.504   0.020   0.060  0.00  0.00     0.113 A 
ATOM      2  C   UNL d   1       3.176  -1.192  -0.140  0.00  0.00     0.146 A 
ATOM      3  C   UNL d   1       3.281   1.175   0.146  0.00  0.00     0.146 A 
ATOM      4  F   UNL d   1       2.708   2.383   0.183  0.00  0.00    -0.204 F 
ATOM      5  F   UNL d   1       2.466  -2.324  -0.275  0.00  0.00    -0.204 F 
ATOM      6  C   UNL d   1       5.323  -0.105  -0.051  0.00  0.00     0.006 A 
ATOM      7  C   UNL d   1       4.676   1.120   0.101  0.00  0.00     0.045 A 
ATOM      8  C   UNL d   1       4.567  -1.267  -0.181  0.00  0.00     0.045 A 
ENDROOT
BRANCH   1   9
ATOM      9  N   UNL d   1       1.096  -0.022   0.081  0.00  0.00    -0.314 N 
ATOM     10  C   UNL d   1       0.149   0.828   0.598  0.00  0.00     0.330 C 
ATOM     11  O   UNL d   1      -1.020   0.612   0.244  0.00  0.00    -0.263 OA
ATOM     12  H   UNL d   1       0.677  -0.847  -0.340  0.00  0.00     0.169 HD
BRANCH  10  13
ATOM     13  C   UNL d   1       0.485   1.927   1.628  0.00  0.00     0.472 C 
ATOM     14  F   UNL d   1       1.617   1.680   2.347  0.00  0.00    -0.162 F 
ATOM     15  F   UNL d   1       0.620   3.160   1.067  0.00  0.00    -0.162 F 
ATOM     16  F   UNL d   1      -0.505   2.055   2.562  0.00  0.00    -0.162 F 
ENDBRANCH  10  13
ENDBRANCH   1   9
TORSDOF 2
