REMARK  4 active torsions:
REMARK  status: ('A' for Active; 'I' for Inactive)
REMARK    1  A    between atoms: C_7  and  N_1 
REMARK    2  A    between atoms: C_10  and  C_6 
REMARK    3  A    between atoms: O_11  and  C_14 
REMARK    4  A    between atoms: C_15  and  O_11 
ROOT
ATOM      1  N   UNL d   1       0.046  -0.921  -0.050  0.00  0.00    -0.252 N 
ATOM      2  C   UNL d   1       1.273  -0.240  -0.081  0.00  0.00     0.231 C 
ATOM      3  C   UNL d   1      -1.202  -0.307   0.159  0.00  0.00     0.231 C 
ATOM      4  C   UNL d   1       1.251   1.237   0.203  0.00  0.00     0.113 C 
ATOM      5  C   UNL d   1      -1.188   1.161   0.510  0.00  0.00     0.113 C 
ATOM      6  C   UNL d   1      -0.058   1.888  -0.195  0.00  0.00     0.036 C 
ATOM      7  O   UNL d   1      -2.293  -0.878   0.089  0.00  0.00    -0.273 OA
ATOM      8  O   UNL d   1       2.379  -0.775  -0.214  0.00  0.00    -0.273 OA
ENDROOT
BRANCH   1   9
ATOM      9  C   UNL d   1       0.069  -2.347  -0.262  0.00  0.00     0.045 A 
ATOM     10  C   UNL d   1       0.900  -2.917  -1.238  0.00  0.00     0.033 A 
ATOM     11  C   UNL d   1       0.934  -4.299  -1.437  0.00  0.00     0.039 A 
ATOM     12  C   UNL d   1       0.111  -5.134  -0.681  0.00  0.00     0.076 A 
ATOM     13  C   UNL d   1      -0.688  -4.591   0.322  0.00  0.00     0.039 A 
ATOM     14  C   UNL d   1      -0.720  -3.207   0.521  0.00  0.00     0.033 A 
BRANCH  12  15
ATOM     15  O   UNL d   1       0.071  -6.501  -0.836  0.00  0.00    -0.311 OA
BRANCH  15  16
ATOM     16  C   UNL d   1       0.128  -7.017  -2.110  0.00  0.00     0.076 A 
ATOM     17  C   UNL d   1       0.844  -8.205  -2.270  0.00  0.00     0.039 A 
ATOM     18  C   UNL d   1       0.964  -8.782  -3.536  0.00  0.00     0.026 A 
ATOM     19  C   UNL d   1       0.361  -8.171  -4.635  0.00  0.00     0.034 A 
ATOM     20  C   UNL d   1      -0.385  -7.004  -4.475  0.00  0.00     0.026 A 
ATOM     21 CL   UNL d   1       0.537  -8.861  -6.201  0.00  0.00    -0.084 Cl
ATOM     22  C   UNL d   1      -0.520  -6.437  -3.207  0.00  0.00     0.039 A 
ENDBRANCH  15  16
ENDBRANCH  12  15
ENDBRANCH   1   9
BRANCH   6  23
ATOM     23  C   UNL d   1      -0.022   3.369   0.138  0.00  0.00    -0.053 A 
ATOM     24  C   UNL d   1       0.076   3.819   1.466  0.00  0.00     0.007 A 
ATOM     25  C   UNL d   1       0.171   5.180   1.755  0.00  0.00     0.001 A 
ATOM     26  C   UNL d   1       0.166   6.112   0.722  0.00  0.00     0.000 A 
ATOM     27  C   UNL d   1       0.062   5.683  -0.600  0.00  0.00     0.001 A 
ATOM     28  C   UNL d   1      -0.031   4.320  -0.891  0.00  0.00     0.007 A 
ENDBRANCH   6  23
TORSDOF 4
