REMARK  1 active torsions:
REMARK  status: ('A' for Active; 'I' for Inactive)
REMARK    1  A    between atoms: N_7  and  N_1 
ROOT
ATOM      1  N   UNL d   1       2.277  -0.154   0.111  0.00  0.00    -0.203 N 
ATOM      2  C   UNL d   1       1.709   1.127   0.002  0.00  0.00     0.276 A 
ATOM      3  C   UNL d   1       1.566  -1.367   0.045  0.00  0.00     0.276 A 
ATOM      4  C   UNL d   1       0.227   1.183  -0.053  0.00  0.00     0.046 A 
ATOM      5  C   UNL d   1       0.089  -1.260   0.006  0.00  0.00     0.046 A 
ATOM      6  C   UNL d   1      -0.520  -0.001  -0.027  0.00  0.00     0.006 A 
ATOM      7  O   UNL d   1       2.066  -2.492   0.029  0.00  0.00    -0.266 OA
ATOM      8  O   UNL d   1       2.338   2.183  -0.035  0.00  0.00    -0.266 OA
ATOM      9  C   UNL d   1      -1.937   0.076  -0.028  0.00  0.00    -0.024 A 
ATOM     10  C   UNL d   1      -0.681  -2.430   0.035  0.00  0.00     0.018 A 
ATOM     11  C   UNL d   1      -0.415   2.430  -0.098  0.00  0.00     0.018 A 
ATOM     12  C   UNL d   1      -2.070  -2.352   0.043  0.00  0.00     0.002 A 
ATOM     13  C   UNL d   1      -1.806   2.502  -0.103  0.00  0.00     0.002 A 
ATOM     14  C   UNL d   1      -2.693  -1.106   0.015  0.00  0.00     0.012 A 
ATOM     15  C   UNL d   1      -2.561   1.331  -0.063  0.00  0.00     0.012 A 
ENDROOT
BRANCH   1  16
ATOM     16  N   UNL d   1       3.704  -0.181   0.317  0.00  0.00    -0.227 NA
ATOM     17  C   UNL d   1       4.062  -0.718   1.627  0.00  0.00     0.136 C 
ATOM     18  C   UNL d   1       4.444  -0.814  -0.768  0.00  0.00     0.136 C 
ENDBRANCH   1  16
TORSDOF 1
