REMARK  4 active torsions:
REMARK  status: ('A' for Active; 'I' for Inactive)
REMARK    1  A    between atoms: N_5  and  S_1 
REMARK    2  A    between atoms: C_16  and  S_1 
REMARK    3  A    between atoms: C_2  and  N_8 
REMARK    4  A    between atoms: C_19  and  C_9 
ROOT
ATOM      1  N   UNL d   1       0.692  -0.632  -1.238  0.00  0.00    -0.304 N 
ATOM      2  N   UNL d   1       2.600  -1.726  -3.070  0.00  0.00    -0.362 N 
ATOM      3  C   UNL d   1       0.966  -2.104  -1.299  0.00  0.00     0.155 C 
ATOM      4  C   UNL d   1       1.066   0.076  -2.510  0.00  0.00     0.155 C 
ATOM      5  C   UNL d   1       2.418  -2.377  -1.760  0.00  0.00     0.145 C 
ATOM      6  C   UNL d   1       2.500  -0.262  -2.981  0.00  0.00     0.145 C 
ENDROOT
BRANCH   2   7
ATOM      7  C   UNL d   1       3.518  -2.287  -3.948  0.00  0.00     0.127 A 
ATOM      8  N   UNL d   1       4.612  -1.579  -4.311  0.00  0.00    -0.339 N 
ATOM      9  C   UNL d   1       5.466  -2.141  -5.201  0.00  0.00     0.060 A 
ATOM     10  HN  UNL d   1       4.790  -0.651  -3.927  1.00  0.00     0.167 HD
ATOM     11  C   UNL d   1       6.617  -1.466  -5.602  0.00  0.00     0.032 A 
ATOM     12  C   UNL d   1       5.216  -3.417  -5.756  0.00  0.00     0.059 A 
ATOM     13  C   UNL d   1       7.508  -2.017  -6.531  0.00  0.00     0.002 A 
ATOM     14  C   UNL d   1       7.246  -3.265  -7.076  0.00  0.00     0.002 A 
ATOM     15  C   UNL d   1       6.101  -3.954  -6.681  0.00  0.00     0.032 A 
ATOM     16  N   UNL d   1       4.132  -4.124  -5.417  0.00  0.00    -0.355 N 
ATOM     17  C   UNL d   1       3.273  -3.550  -4.535  0.00  0.00     0.053 A 
ATOM     18  HN  UNL d   1       3.958  -5.052  -5.803  1.00  0.00     0.166 HD
BRANCH  17  19
ATOM     19  C   UNL d   1       2.024  -4.340  -4.214  0.00  0.00     0.056 C 
ATOM     20  C   UNL d   1       1.491  -5.186  -5.359  0.00  0.00     0.011 C 
ENDBRANCH  17  19
ENDBRANCH   2   7
BRANCH   1  21
ATOM     21  S   UNL d   1       1.078   0.135   0.223  0.00  0.00     0.260 S 
ATOM     22  O   UNL d   1       1.159   1.564   0.001  0.00  0.00    -0.200 OA
ATOM     23  O   UNL d   1       2.156  -0.602   0.848  0.00  0.00    -0.200 OA
BRANCH  21  24
ATOM     24  C   UNL d   1      -0.408  -0.149   1.161  0.00  0.00     0.079 A 
ATOM     25  C   UNL d   1      -0.370  -0.876   2.354  0.00  0.00     0.025 A 
ATOM     26  C   UNL d   1      -1.549  -1.056   3.080  0.00  0.00     0.002 A 
ATOM     27  C   UNL d   1      -2.750  -0.513   2.616  0.00  0.00     0.000 A 
ATOM     28  C   UNL d   1      -2.780   0.215   1.426  0.00  0.00     0.002 A 
ATOM     29  C   UNL d   1      -1.607   0.403   0.696  0.00  0.00     0.025 A 
ENDBRANCH  21  24
ENDBRANCH   1  21
TORSDOF 4
