REMARK  1 active torsions:
REMARK  status: ('A' for Active; 'I' for Inactive)
REMARK    1  A    between atoms: C_2  and  C_1 
ROOT
ATOM      1  C   UNL d   1      -1.271  -1.386  -0.043  0.00  0.00     0.022 A 
ATOM      2  C   UNL d   1      -1.189   0.019  -0.017  0.00  0.00     0.048 A 
ATOM      3  C   UNL d   1       0.054   0.667   0.025  0.00  0.00     0.048 A 
ATOM      4  C   UNL d   1      -0.065  -2.115   0.001  0.00  0.00     0.018 A 
ATOM      5  C   UNL d   1       1.227  -0.080   0.053  0.00  0.00     0.035 A 
ATOM      6 CL   UNL d   1      -2.584   1.046   0.007  0.00  0.00    -0.083 Cl
ATOM      7  C   UNL d   1       1.174  -1.468   0.048  0.00  0.00     0.025 A 
ATOM      8 CL   UNL d   1       2.748   0.720   0.094  0.00  0.00    -0.084 Cl
ENDROOT
BRANCH   1   9
ATOM      9  C   UNL d   1      -2.532  -2.119  -0.132  0.00  0.00     0.112 A 
ATOM     10  O   UNL d   1      -2.564  -3.329   0.507  0.00  0.00    -0.237 OA
ATOM     11  N   UNL d   1      -3.806  -3.918   0.336  0.00  0.00    -0.272 N 
ATOM     12  C   UNL d   1      -4.504  -3.057  -0.404  0.00  0.00     0.117 A 
ATOM     13  HN  UNL d   1      -4.119  -4.819   0.698  1.00  0.00     0.194 HD
ATOM     14  C   UNL d   1      -3.753  -1.915  -0.733  0.00  0.00     0.059 A 
ENDBRANCH   1   9
TORSDOF 1
