REMARK  4 active torsions:
REMARK  status: ('A' for Active; 'I' for Inactive)
REMARK    1  A    between atoms: C_8  and  C_1 
REMARK    2  A    between atoms: N_7  and  C_2 
REMARK       I    between atoms: C_9  and  N_7 
REMARK    3  A    between atoms: O_12  and  C_8 
REMARK    4  A    between atoms: C_15  and  O_12 
ROOT
ATOM      1  C   UNL d   1      -0.130  -1.133   0.033  0.00  0.00     0.105 A 
ATOM      2  C   UNL d   1       0.769   1.111   0.121  0.00  0.00     0.152 A 
ATOM      3  N   UNL d   1      -0.538   1.171   0.048  0.00  0.00    -0.339 N 
ATOM      4  HN  UNL d   1      -1.084   2.032   0.013  1.00  0.00     0.168 HD
ATOM      5  S   UNL d   1       1.440  -0.445   0.146  0.00  0.00    -0.046 SA
ATOM      6  C   UNL d   1      -1.073  -0.113   0.026  0.00  0.00     0.030 A 
ATOM      7  C   UNL d   1      -2.556  -0.234  -0.030  0.00  0.00     0.070 C 
ENDROOT
BRANCH   1   8
ATOM      8  C   UNL d   1      -0.260  -2.567  -0.076  0.00  0.00     0.302 C 
ATOM      9  O   UNL d   1       0.660  -3.376  -0.146  0.00  0.00    -0.259 OA
BRANCH   8  10
ATOM     10  O   UNL d   1      -1.577  -2.909  -0.176  0.00  0.00    -0.317 OA
BRANCH  10  11
ATOM     11  C   UNL d   1      -1.846  -4.236  -0.647  0.00  0.00     0.174 C 
ATOM     12  C   UNL d   1      -1.924  -4.194  -2.163  0.00  0.00     0.034 C 
ENDBRANCH  10  11
ENDBRANCH   8  10
ENDBRANCH   1   8
BRANCH   2  13
ATOM     13  N   UNL d   1       1.524   2.255   0.129  0.00  0.00    -0.307 N 
ATOM     14  C   UNL d   1       2.878   2.347   0.344  0.00  0.00     0.219 C 
ATOM     15  O   UNL d   1       3.651   1.437   0.623  0.00  0.00    -0.274 OA
ATOM     16  C   UNL d   1       3.391   3.762   0.238  0.00  0.00     0.117 C 
ATOM     17  H   UNL d   1       0.968   3.092   0.025  0.00  0.00     0.171 HD
ENDBRANCH   2  13
TORSDOF 4
