REMARK  4 active torsions:
REMARK  status: ('A' for Active; 'I' for Inactive)
REMARK    1  A    between atoms: C_11  and  C_5 
REMARK    2  A    between atoms: O_18  and  C_8 
REMARK    3  A    between atoms: O_19  and  C_9 
REMARK    4  A    between atoms: O_20  and  C_12 
ROOT
ATOM      1  C   UNL d   1      -0.436  -0.955  -0.032  0.00  0.00     0.087 A 
ATOM      2  N   UNL d   1       0.561  -1.930  -0.049  0.00  0.00    -0.332 N 
ATOM      3  HN  UNL d   1       0.313  -2.917  -0.123  1.00  0.00     0.168 HD
ATOM      4  C   UNL d   1      -0.069   0.384   0.050  0.00  0.00     0.072 A 
ATOM      5  C   UNL d   1       1.797  -1.576   0.029  0.00  0.00     0.169 A 
ATOM      6  C   UNL d   1       1.366   0.711   0.107  0.00  0.00     0.302 A 
ATOM      7  O   UNL d   1       2.253  -0.307   0.108  0.00  0.00    -0.256 OA
ATOM      8  C   UNL d   1      -1.808  -1.287  -0.099  0.00  0.00     0.132 A 
ATOM      9  C   UNL d   1      -2.772  -0.249  -0.052  0.00  0.00     0.137 A 
ATOM     10  C   UNL d   1      -1.018   1.413   0.074  0.00  0.00     0.059 A 
ATOM     11  C   UNL d   1      -2.373   1.103   0.021  0.00  0.00     0.105 A 
ATOM     12  O   UNL d   1       1.736   1.879   0.157  0.00  0.00    -0.259 OA
ENDROOT
BRANCH   5  13
ATOM     13  C   UNL d   1       2.884  -2.536   0.054  0.00  0.00     0.056 A 
ATOM     14  S   UNL d   1       2.545  -4.217  -0.076  0.00  0.00    -0.098 SA
ATOM     15  C   UNL d   1       4.193  -4.637   0.056  0.00  0.00     0.050 A 
ATOM     16  C   UNL d   1       4.998  -3.530   0.190  0.00  0.00     0.009 A 
ATOM     17  C   UNL d   1       4.244  -2.318   0.184  0.00  0.00     0.024 A 
ENDBRANCH   5  13
BRANCH   8  18
ATOM     18  O   UNL d   1      -2.319  -2.551  -0.258  0.00  0.00    -0.351 OA
ATOM     19  C   UNL d   1      -1.480  -3.689  -0.138  0.00  0.00     0.210 C 
ENDBRANCH   8  18
BRANCH   9  20
ATOM     20  O   UNL d   1      -4.134  -0.448  -0.154  0.00  0.00    -0.351 OA
ATOM     21  C   UNL d   1      -4.669  -1.538   0.588  0.00  0.00     0.210 C 
ENDBRANCH   9  20
BRANCH  11  22
ATOM     22  O   UNL d   1      -3.382   2.033   0.052  0.00  0.00    -0.353 OA
ATOM     23  C   UNL d   1      -3.022   3.407   0.061  0.00  0.00     0.210 C 
ENDBRANCH  11  22
TORSDOF 4
