REMARK  5 active torsions:
REMARK  status: ('A' for Active; 'I' for Inactive)
REMARK    1  A    between atoms: C_2  and  N_1 
REMARK    2  A    between atoms: N_6  and  C_3 
REMARK    3  A    between atoms: C_4  and  N_5 
REMARK    4  A    between atoms: N_7  and  C_4 
REMARK    5  A    between atoms: C_15  and  N_7 
ROOT
ATOM      1  N   UNL d   1      -1.962  -3.164   2.779  0.00  0.00    -0.357 N 
ATOM      2  N   UNL d   1      -1.059  -0.555   1.545  0.00  0.00    -0.266 NA
ATOM      3  C   UNL d   1      -2.673  -2.461   1.703  0.00  0.00     0.140 C 
ATOM      4  C   UNL d   1      -1.811  -1.586   0.780  0.00  0.00     0.117 C 
ATOM      5  C   UNL d   1      -0.191  -1.593   3.654  0.00  0.00     0.035 C 
ATOM      6  C   UNL d   1      -1.501  -2.334   3.894  0.00  0.00     0.126 C 
ATOM      7  C   UNL d   1       0.119  -1.143   2.230  0.00  0.00     0.098 C 
ENDROOT
BRANCH   1   8
ATOM      8  C   UNL d   1      -1.563  -4.470   2.640  0.00  0.00     0.174 C 
ATOM      9  S   UNL d   1      -0.673  -5.037   1.333  0.00  0.00    -0.041 SA
BRANCH   8  10
ATOM     10  N   UNL d   1      -1.875  -5.386   3.602  0.00  0.00    -0.333 N 
ATOM     11  H   UNL d   1      -1.393  -6.267   3.460  0.00  0.00     0.168 HD
BRANCH  10  12
ATOM     12  C   UNL d   1      -2.847  -5.394   4.625  0.00  0.00     0.034 A 
ATOM     13  C   UNL d   1      -3.791  -4.387   4.823  0.00  0.00     0.036 A 
ATOM     14  C   UNL d   1      -4.652  -4.402   5.928  0.00  0.00    -0.060 A 
ATOM     15  C   UNL d   1      -5.541  -3.227   6.205  0.00  0.00     0.048 C 
ATOM     16  C   UNL d   1      -4.635  -5.501   6.789  0.00  0.00     0.007 A 
ATOM     17  C   UNL d   1      -3.760  -6.559   6.553  0.00  0.00     0.003 A 
ATOM     18  C   UNL d   1      -2.864  -6.501   5.481  0.00  0.00     0.029 A 
ENDBRANCH  10  12
ENDBRANCH   8  10
ENDBRANCH   1   8
BRANCH   2  19
ATOM     19  C   UNL d   1      -0.812   0.650   0.860  0.00  0.00     0.116 A 
ATOM     20  C   UNL d   1      -1.783   1.451   0.247  0.00  0.00     0.141 A 
ATOM     21  C   UNL d   1      -1.444   2.620  -0.458  0.00  0.00     0.041 A 
ATOM     22  C   UNL d   1      -0.121   3.021  -0.494  0.00  0.00     0.020 A 
ATOM     23  C   UNL d   1       0.794   2.238   0.174  0.00  0.00     0.089 A 
ATOM     24  N   UNL d   1       0.476   1.088   0.815  0.00  0.00    -0.355 N 
ATOM     25  HN  UNL d   1       1.210   0.544   1.268  1.00  0.00     0.166 HD
BRANCH  20  26
ATOM     26  N   UNL d   1      -3.191   1.161   0.349  0.00  0.00    -0.112 N 
ATOM     27  O   UNL d   1      -3.692   1.081   1.482  0.00  0.00    -0.532 OA
ATOM     28  O   UNL d   1      -3.821   1.048  -0.714  0.00  0.00    -0.532 OA
ENDBRANCH  20  26
ENDBRANCH   2  19
TORSDOF 5
