REMARK  7 active torsions:
REMARK  status: ('A' for Active; 'I' for Inactive)
REMARK    1  A    between atoms: C_3  and  C_1 
REMARK    2  A    between atoms: C_4  and  C_2 
REMARK       I    between atoms: N_13  and  C_3 
REMARK    3  A    between atoms: C_5  and  C_9 
REMARK    4  A    between atoms: C_6  and  C_11 
REMARK    5  A    between atoms: C_7  and  C_12 
REMARK    6  A    between atoms: O_32  and  C_8 
REMARK    7  A    between atoms: C_15  and  N_13 
ROOT
ATOM      1  C   UNL d   1       2.908  -0.286   0.325  0.00  0.00     0.259 C 
ATOM      2  N   UNL d   1       3.678   0.759   0.794  0.00  0.00    -0.323 N 
ATOM      3  O   UNL d   1       3.332  -1.367  -0.067  0.00  0.00    -0.267 OA
ATOM      4  H   UNL d   1       3.208   1.607   1.095  0.00  0.00     0.169 HD
ENDROOT
BRANCH   1   5
ATOM      5  C   UNL d   1       1.429  -0.085   0.230  0.00  0.00     0.080 C 
ATOM      6  C   UNL d   1       0.872   0.973  -0.523  0.00  0.00     0.067 C 
ATOM      7  C   UNL d   1      -0.453   0.843  -1.006  0.00  0.00     0.033 C 
ATOM      8  C   UNL d   1      -1.231  -0.290  -0.729  0.00  0.00     0.051 C 
ATOM      9  C   UNL d   1      -0.705  -1.264   0.120  0.00  0.00     0.053 C 
ATOM     10  C   UNL d   1       0.597  -1.157   0.622  0.00  0.00     0.085 C 
BRANCH   6  11
ATOM     11  C   UNL d   1       1.632   2.215  -0.910  0.00  0.00     0.418 C 
ATOM     12  F   UNL d   1       2.363   2.729   0.123  0.00  0.00    -0.166 F 
ATOM     13  F   UNL d   1       2.488   2.027  -1.942  0.00  0.00    -0.166 F 
ATOM     14  F   UNL d   1       0.811   3.240  -1.281  0.00  0.00    -0.166 F 
ENDBRANCH   6  11
BRANCH   8  15
ATOM     15  C   UNL d   1      -2.579  -0.496  -1.381  0.00  0.00     0.417 C 
ATOM     16  F   UNL d   1      -3.038   0.611  -2.025  0.00  0.00    -0.166 F 
ATOM     17  F   UNL d   1      -2.553  -1.488  -2.312  0.00  0.00    -0.166 F 
ATOM     18  F   UNL d   1      -3.546  -0.839  -0.489  0.00  0.00    -0.166 F 
ENDBRANCH   8  15
BRANCH  10  19
ATOM     19  O   UNL d   1       0.967  -2.217   1.408  0.00  0.00    -0.355 OA
ATOM     20  C   UNL d   1       1.623  -1.869   2.626  0.00  0.00     0.210 C 
ENDBRANCH  10  19
ENDBRANCH   1   5
BRANCH   2  21
ATOM     21  C   UNL d   1       5.092   0.847   0.701  0.00  0.00     0.036 A 
ATOM     22  C   UNL d   1       5.915  -0.210   0.310  0.00  0.00     0.045 A 
ATOM     23  C   UNL d   1       7.300  -0.036   0.134  0.00  0.00     0.050 A 
ATOM     24  C   UNL d   1       7.863   1.225   0.379  0.00  0.00     0.032 A 
ATOM     25  C   UNL d   1       7.060   2.298   0.789  0.00  0.00     0.050 A 
ATOM     26  C   UNL d   1       5.678   2.093   0.962  0.00  0.00     0.045 A 
BRANCH  23  27
ATOM     27  C   UNL d   1       8.148  -1.203  -0.321  0.00  0.00     0.417 C 
ATOM     28  F   UNL d   1       9.410  -0.838  -0.683  0.00  0.00    -0.166 F 
ATOM     29  F   UNL d   1       8.297  -2.145   0.650  0.00  0.00    -0.166 F 
ATOM     30  F   UNL d   1       7.626  -1.846  -1.399  0.00  0.00    -0.166 F 
ENDBRANCH  23  27
BRANCH  25  31
ATOM     31  C   UNL d   1       7.652   3.667   1.023  0.00  0.00     0.417 C 
ATOM     32  F   UNL d   1       8.964   3.760   0.672  0.00  0.00    -0.166 F 
ATOM     33  F   UNL d   1       7.007   4.638   0.318  0.00  0.00    -0.166 F 
ATOM     34  F   UNL d   1       7.584   4.045   2.329  0.00  0.00    -0.166 F 
ENDBRANCH  25  31
ENDBRANCH   2  21
TORSDOF 7
