REMARK  3 active torsions:
REMARK  status: ('A' for Active; 'I' for Inactive)
REMARK    1  A    between atoms: O_10  and  C_1 
REMARK    2  A    between atoms: C_6  and  C_5 
REMARK    3  A    between atoms: O_11  and  N_7 
ROOT
ATOM      1  C   UNL d   1       0.876   0.923  -0.018  0.00  0.00     0.127 A 
ATOM      2  S   UNL d   1       2.542   0.450  -0.004  0.00  0.00    -0.063 SA
ATOM      3  C   UNL d   1       0.077  -0.209  -0.008  0.00  0.00     0.052 A 
ATOM      4  C   UNL d   1       0.814  -1.427   0.007  0.00  0.00     0.043 A 
ATOM      5  C   UNL d   1       2.173  -1.211   0.012  0.00  0.00     0.026 A 
ATOM      6 BR   UNL d   1      -1.815  -0.338  -0.010  0.00  0.00    -0.048 Br
ENDROOT
BRANCH   5   7
ATOM      7  C   UNL d   1       3.243  -2.176   0.029  0.00  0.00     0.132 C 
ATOM      8  N   UNL d   1       2.984  -3.447   0.037  0.00  0.00    -0.279 N 
ATOM      9  HN  UNL d   1       2.052  -3.860   0.031  1.00  0.00     0.193 HD
BRANCH   8  10
ATOM     10  O   UNL d   1       4.190  -4.161   0.053  0.00  0.00    -0.290 OA
ATOM     11  H   UNL d   1       3.884  -5.088   0.057  0.00  0.00     0.244 HD
ENDBRANCH   8  10
ENDBRANCH   5   7
BRANCH   1  12
ATOM     12  O   UNL d   1       0.664   2.247  -0.035  0.00  0.00    -0.347 OA
ATOM     13  C   UNL d   1      -0.667   2.728  -0.053  0.00  0.00     0.211 C 
ENDBRANCH   1  12
TORSDOF 3
