REMARK  6 active torsions:
REMARK  status: ('A' for Active; 'I' for Inactive)
REMARK    1  A    between atoms: C_7  and  N_1 
REMARK    2  A    between atoms: C_9  and  N_4 
REMARK    3  A    between atoms: C_10  and  C_7 
REMARK    4  A    between atoms: C_11  and  C_9 
REMARK    5  A    between atoms: O_22  and  C_12 
REMARK    6  A    between atoms: O_23  and  C_13 
ROOT
ATOM      1  N   UNL d   1       0.783   1.114  -0.224  0.00  0.00    -0.337 N 
ATOM      2  C   UNL d   1       1.631   0.162   0.299  0.00  0.00     0.140 C 
ATOM      3  S   UNL d   1       1.078  -1.474   0.021  0.00  0.00    -0.070 SA
ATOM      4  N   UNL d   1      -1.274  -0.082  -0.235  0.00  0.00     0.119 N 
ATOM      5  C   UNL d   1      -0.601   1.130   0.204  0.00  0.00     0.400 C 
ATOM      6  C   UNL d   1      -0.661  -1.256   0.383  0.00  0.00     0.356 C 
ATOM      7  S   UNL d   1       3.116   0.458   1.016  0.00  0.00    -0.053 SA
ENDROOT
BRANCH   1   8
ATOM      8  C   UNL d   1       1.279   2.299  -0.934  0.00  0.00     0.164 C 
BRANCH   8   9
ATOM      9  C   UNL d   1       0.872   2.269  -2.391  0.00  0.00    -0.040 A 
ATOM     10  C   UNL d   1       0.086   3.288  -2.946  0.00  0.00     0.011 A 
ATOM     11  C   UNL d   1      -0.299   3.237  -4.291  0.00  0.00     0.037 A 
ATOM     12  C   UNL d   1       0.093   2.166  -5.094  0.00  0.00     0.068 A 
ATOM     13  C   UNL d   1       0.906   1.169  -4.559  0.00  0.00     0.037 A 
ATOM     14  C   UNL d   1       1.288   1.215  -3.218  0.00  0.00     0.011 A 
BRANCH  12  15
ATOM     15  O   UNL d   1      -0.226   2.014  -6.416  0.00  0.00    -0.356 OA
ATOM     16  C   UNL d   1      -1.476   2.571  -6.806  0.00  0.00     0.210 C 
ENDBRANCH  12  15
ENDBRANCH   8   9
ENDBRANCH   1   8
BRANCH   4  17
ATOM     17  C   UNL d   1      -2.700  -0.065   0.164  0.00  0.00     0.314 C 
BRANCH  17  18
ATOM     18  C   UNL d   1      -3.484   1.129  -0.336  0.00  0.00    -0.030 A 
ATOM     19  C   UNL d   1      -3.639   1.362  -1.707  0.00  0.00     0.011 A 
ATOM     20  C   UNL d   1      -4.333   2.490  -2.164  0.00  0.00     0.037 A 
ATOM     21  C   UNL d   1      -4.876   3.396  -1.253  0.00  0.00     0.068 A 
ATOM     22  C   UNL d   1      -4.740   3.154   0.115  0.00  0.00     0.037 A 
ATOM     23  C   UNL d   1      -4.053   2.031   0.574  0.00  0.00     0.011 A 
BRANCH  21  24
ATOM     24  O   UNL d   1      -5.555   4.542  -1.565  0.00  0.00    -0.356 OA
ATOM     25  C   UNL d   1      -5.615   4.895  -2.941  0.00  0.00     0.210 C 
ENDBRANCH  21  24
ENDBRANCH  17  18
ENDBRANCH   4  17
TORSDOF 6
