REMARK  5 active torsions:
REMARK  status: ('A' for Active; 'I' for Inactive)
REMARK    1  A    between atoms: C_17  and  C_1 
REMARK    2  A    between atoms: C_9  and  C_25 
REMARK       I    between atoms: N_10  and  C_9 
REMARK    3  A    between atoms: C_11  and  N_10 
REMARK    4  A    between atoms: S_15  and  C_17 
REMARK    5  A    between atoms: C_25  and  S_15 
ROOT
ATOM      1  S   UNL d   1      -3.189   2.142  -1.425  0.00  0.00    -0.155 SA
ENDROOT
BRANCH   1   2
ATOM      2  C   UNL d   1      -2.625   1.566   0.226  0.00  0.00     0.114 C 
BRANCH   2   3
ATOM      3  C   UNL d   1      -1.342   0.740   0.181  0.00  0.00    -0.036 C 
ATOM      4  C   UNL d   1      -0.082   1.366   0.390  0.00  0.00    -0.048 C 
ATOM      5  C   UNL d   1       1.111   0.645   0.151  0.00  0.00    -0.049 C 
ATOM      6  C   UNL d   1      -0.018   2.770   0.943  0.00  0.00     0.049 C 
ATOM      7  C   UNL d   1       2.436   1.375   0.089  0.00  0.00     0.049 C 
ATOM      8  C   UNL d   1       1.065  -0.763   0.012  0.00  0.00    -0.049 C 
ATOM      9  C   UNL d   1      -0.190  -1.426  -0.028  0.00  0.00    -0.049 C 
ATOM     10  C   UNL d   1       2.367  -1.530  -0.105  0.00  0.00     0.049 C 
ATOM     11  C   UNL d   1      -1.389  -0.663  -0.055  0.00  0.00    -0.048 C 
ATOM     12  C   UNL d   1      -0.211  -2.939  -0.045  0.00  0.00     0.049 C 
ATOM     13  C   UNL d   1      -2.733  -1.333  -0.243  0.00  0.00     0.049 C 
ENDBRANCH   2   3
ENDBRANCH   1   2
BRANCH   1  14
ATOM     14  C   UNL d   1      -4.668   3.044  -0.873  0.00  0.00     0.177 C 
BRANCH  14  15
ATOM     15  C   UNL d   1      -5.343   3.894  -1.946  0.00  0.00     0.231 C 
ATOM     16  N   UNL d   1      -5.454   3.321  -3.201  0.00  0.00    -0.326 N 
ATOM     17  H   UNL d   1      -5.062   2.388  -3.300  0.00  0.00     0.169 HD
ATOM     18  O   UNL d   1      -5.847   4.971  -1.617  0.00  0.00    -0.272 OA
BRANCH  16  19
ATOM     19  C   UNL d   1      -6.068   3.890  -4.344  0.00  0.00     0.036 A 
ATOM     20  C   UNL d   1      -6.483   5.228  -4.415  0.00  0.00     0.056 A 
ATOM     21  C   UNL d   1      -7.076   5.729  -5.580  0.00  0.00     0.074 A 
ATOM     22 CL   UNL d   1      -7.553   7.383  -5.644  0.00  0.00    -0.081 Cl
ATOM     23  C   UNL d   1      -7.268   4.896  -6.673  0.00  0.00     0.138 A 
ATOM     24  C   UNL d   1      -6.864   3.567  -6.625  0.00  0.00     0.046 A 
ATOM     25  F   UNL d   1      -7.842   5.358  -7.799  0.00  0.00    -0.204 F 
ATOM     26  C   UNL d   1      -6.255   3.068  -5.463  0.00  0.00     0.032 A 
ENDBRANCH  16  19
ENDBRANCH  14  15
ENDBRANCH   1  14
TORSDOF 5
