REMARK  3 active torsions:
REMARK  status: ('A' for Active; 'I' for Inactive)
REMARK    1  A    between atoms: N_2  and  S_1 
REMARK    2  A    between atoms: C_4  and  S_1 
REMARK    3  A    between atoms: C_3  and  N_2 
ROOT
ATOM      1  S   UNL d   1       1.047   0.139  -0.025  0.00  0.00     0.245 S 
ATOM      2  O   UNL d   1       0.394   0.233   1.264  0.00  0.00    -0.206 OA
ATOM      3  O   UNL d   1       2.490   0.071  -0.131  0.00  0.00    -0.206 OA
ENDROOT
BRANCH   1   4
ATOM      4  N   UNL d   1       0.566   1.451  -0.984  0.00  0.00    -0.178 NA
ATOM      5  H   UNL d   1       1.115   1.478  -1.845  0.00  0.00     0.146 HD
BRANCH   4   6
ATOM      6  C   UNL d   1      -0.833   1.683  -1.142  0.00  0.00     0.061 A 
ATOM      7  C   UNL d   1      -1.491   1.244  -2.296  0.00  0.00     0.141 A 
ATOM      8  C   UNL d   1      -2.857   1.429  -2.455  0.00  0.00     0.086 A 
ATOM      9  F   UNL d   1      -0.793   0.636  -3.266  0.00  0.00    -0.204 F 
ATOM     10  C   UNL d   1      -3.566   2.070  -1.446  0.00  0.00     0.119 A 
ATOM     11  C   UNL d   1      -2.931   2.511  -0.286  0.00  0.00     0.044 A 
ATOM     12  F   UNL d   1      -4.882   2.267  -1.591  0.00  0.00    -0.206 F 
ATOM     13  C   UNL d   1      -1.559   2.305  -0.126  0.00  0.00     0.030 A 
ENDBRANCH   4   6
ENDBRANCH   1   4
BRANCH   1  14
ATOM     14  C   UNL d   1       0.388  -1.280  -0.876  0.00  0.00     0.074 A 
ATOM     15  C   UNL d   1       1.150  -1.901  -1.870  0.00  0.00     0.025 A 
ATOM     16  C   UNL d   1       0.673  -3.065  -2.479  0.00  0.00     0.008 A 
ATOM     17  C   UNL d   1      -0.555  -3.617  -2.092  0.00  0.00    -0.062 A 
ATOM     18  C   UNL d   1      -1.309  -2.983  -1.095  0.00  0.00     0.008 A 
ATOM     19  C   UNL d   1      -1.031  -4.896  -2.722  0.00  0.00     0.048 C 
ATOM     20  C   UNL d   1      -0.838  -1.821  -0.480  0.00  0.00     0.025 A 
ENDBRANCH   1  14
TORSDOF 3
