REMARK  7 active torsions:
REMARK  status: ('A' for Active; 'I' for Inactive)
REMARK    1  A    between atoms: N_3  and  S_1 
REMARK    2  A    between atoms: C_10  and  S_1 
REMARK    3  A    between atoms: S_2  and  N_8 
REMARK    4  A    between atoms: C_11  and  S_2 
REMARK    5  A    between atoms: C_4  and  N_3 
REMARK    6  A    between atoms: N_8  and  C_24 
REMARK       I    between atoms: C_17  and  N_18 
REMARK    7  A    between atoms: N_18  and  C_25 
ROOT
ATOM      1  C   UNL d   1       0.351   1.575  -0.687  0.00  0.00     0.075 A 
ATOM      2  C   UNL d   1      -0.872   1.637  -1.364  0.00  0.00     0.027 A 
ATOM      3  C   UNL d   1       1.111   2.729  -0.478  0.00  0.00     0.027 A 
ATOM      4  C   UNL d   1      -0.529   3.999  -1.722  0.00  0.00     0.042 A 
ATOM      5  C   UNL d   1      -1.310   2.856  -1.887  0.00  0.00     0.031 A 
ATOM      6  C   UNL d   1       0.673   3.941  -1.013  0.00  0.00     0.031 A 
ENDROOT
BRANCH   4   7
ATOM      7  N   UNL d   1      -0.897   5.207  -2.352  0.00  0.00    -0.281 N 
ATOM      8  H   UNL d   1      -0.497   5.462  -3.252  0.00  0.00     0.179 HD
BRANCH   7   9
ATOM      9  S   UNL d   1      -1.965   6.282  -1.649  0.00  0.00     0.263 S 
ATOM     10  O   UNL d   1      -2.012   7.432  -2.528  0.00  0.00    -0.200 OA
ATOM     11  O   UNL d   1      -3.169   5.577  -1.271  0.00  0.00    -0.200 OA
BRANCH   9  12
ATOM     12  C   UNL d   1      -1.112   6.776  -0.170  0.00  0.00     0.080 A 
ATOM     13  C   UNL d   1      -0.208   7.840  -0.196  0.00  0.00     0.027 A 
ATOM     14  C   UNL d   1       0.458   8.206   0.979  0.00  0.00     0.031 A 
ATOM     15  C   UNL d   1       0.223   7.521   2.182  0.00  0.00     0.034 A 
ATOM     16  C   UNL d   1      -0.704   6.475   2.191  0.00  0.00     0.031 A 
ATOM     17  C   UNL d   1      -1.377   6.106   1.023  0.00  0.00     0.027 A 
BRANCH  15  18
ATOM     18  N   UNL d   1       0.944   7.934   3.324  0.00  0.00    -0.328 N 
ATOM     19  C   UNL d   1       0.892   7.378   4.590  0.00  0.00     0.218 C 
ATOM     20  O   UNL d   1       0.208   6.422   4.947  0.00  0.00    -0.274 OA
ATOM     21  C   UNL d   1       1.799   8.061   5.582  0.00  0.00     0.117 C 
ATOM     22  H   UNL d   1       1.574   8.716   3.191  0.00  0.00     0.169 HD
ENDBRANCH  15  18
ENDBRANCH   9  12
ENDBRANCH   7   9
ENDBRANCH   4   7
BRANCH   1  23
ATOM     23  S   UNL d   1       0.931   0.020  -0.068  0.00  0.00     0.247 S 
ATOM     24  O   UNL d   1       1.814   0.287   1.049  0.00  0.00    -0.205 OA
ATOM     25  O   UNL d   1      -0.188  -0.885   0.081  0.00  0.00    -0.205 OA
BRANCH  23  26
ATOM     26  N   UNL d   1       1.938  -0.529  -1.307  0.00  0.00    -0.165 NA
ATOM     27  H   UNL d   1       2.781  -0.913  -0.885  0.00  0.00     0.147 HD
BRANCH  26  28
ATOM     28  C   UNL d   1       1.353  -1.251  -2.337  0.00  0.00     0.117 A 
ATOM     29  N   UNL d   1       0.680  -0.668  -3.331  0.00  0.00    -0.249 N 
ATOM     30  O   UNL d   1       0.268  -1.700  -4.157  0.00  0.00    -0.241 OA
ATOM     31  HN  UNL d   1       0.506   0.329  -3.456  1.00  0.00     0.196 HD
ATOM     32  C   UNL d   1       0.695  -2.885  -3.643  0.00  0.00     0.075 A 
ATOM     33  C   UNL d   1       1.417  -2.648  -2.500  0.00  0.00     0.079 A 
ATOM     34  C   UNL d   1       0.302  -4.099  -4.379  0.00  0.00     0.079 C 
ENDBRANCH  26  28
ENDBRANCH  23  26
ENDBRANCH   1  23
TORSDOF 7
