REMARK  4 active torsions:
REMARK  status: ('A' for Active; 'I' for Inactive)
REMARK    1  A    between atoms: O_2  and  C_1 
REMARK    2  A    between atoms: C_3  and  C_1 
REMARK    3  A    between atoms: C_10  and  O_2 
REMARK    4  A    between atoms: C_11  and  C_5 
ROOT
ATOM      1  C   UNL d   1      -3.711   0.755  -1.111  0.00  0.00    -0.054 A 
ATOM      2  C   UNL d   1      -2.922   1.288  -0.081  0.00  0.00     0.010 A 
ATOM      3  C   UNL d   1      -3.034   0.171  -2.199  0.00  0.00     0.010 A 
ATOM      4  C   UNL d   1      -0.889   0.531  -1.135  0.00  0.00     0.079 A 
ATOM      5  C   UNL d   1      -1.636   0.047  -2.208  0.00  0.00     0.038 A 
ATOM      6  C   UNL d   1      -1.531   1.154  -0.074  0.00  0.00     0.038 A 
ENDROOT
BRANCH   4   7
ATOM      7  O   UNL d   1       0.501   0.274  -1.160  0.00  0.00    -0.275 OA
BRANCH   7   8
ATOM      8  C   UNL d   1       1.402   1.098  -0.491  0.00  0.00     0.298 C 
ATOM      9  O   UNL d   1       1.160   2.155   0.064  0.00  0.00    -0.259 OA
BRANCH   8  10
ATOM     10  C   UNL d   1       2.780   0.530  -0.537  0.00  0.00     0.040 A 
ATOM     11  C   UNL d   1       3.806   1.264   0.082  0.00  0.00     0.019 A 
ATOM     12  C   UNL d   1       5.128   0.813   0.042  0.00  0.00     0.025 A 
ATOM     13  C   UNL d   1       5.430  -0.380  -0.611  0.00  0.00     0.034 A 
ATOM     14  C   UNL d   1       4.418  -1.130  -1.210  0.00  0.00     0.025 A 
ATOM     15 CL   UNL d   1       7.059  -0.925  -0.682  0.00  0.00    -0.084 Cl
ATOM     16  C   UNL d   1       3.092  -0.679  -1.172  0.00  0.00     0.019 A 
ENDBRANCH   8  10
ENDBRANCH   7   8
ENDBRANCH   4   7
BRANCH   1  17
ATOM     17  C   UNL d   1      -5.242   0.811  -1.090  0.00  0.00     0.018 C 
ATOM     18  C   UNL d   1      -5.885   1.419   0.179  0.00  0.00     0.009 C 
ATOM     19  C   UNL d   1      -5.784   0.516   1.413  0.00  0.00     0.001 C 
ATOM     20  C   UNL d   1      -6.266  -0.908   1.160  0.00  0.00     0.000 C 
ATOM     21  C   UNL d   1      -5.747  -1.510  -0.143  0.00  0.00     0.001 C 
ATOM     22  C   UNL d   1      -5.904  -0.564  -1.332  0.00  0.00     0.009 C 
ENDBRANCH   1  17
TORSDOF 4
