REMARK  3 active torsions:
REMARK  status: ('A' for Active; 'I' for Inactive)
REMARK    1  A    between atoms: C_2  and  C_1 
REMARK       I    between atoms: N_3  and  C_2 
REMARK    2  A    between atoms: C_4  and  N_3 
REMARK    3  A    between atoms: O_19  and  C_13 
ROOT
ATOM      1  C   UNL d   1       0.318  -2.470  -0.170  0.00  0.00     0.257 C 
ATOM      2  N   UNL d   1       1.070  -3.628  -0.084  0.00  0.00    -0.320 N 
ATOM      3  O   UNL d   1      -0.901  -2.425  -0.275  0.00  0.00    -0.267 OA
ATOM      4  H   UNL d   1       2.024  -3.522   0.237  0.00  0.00     0.169 HD
ENDROOT
BRANCH   1   5
ATOM      5  C   UNL d   1       1.049  -1.160  -0.104  0.00  0.00     0.052 A 
ATOM      6  C   UNL d   1       2.253  -0.910   0.574  0.00  0.00     0.026 A 
ATOM      7  C   UNL d   1       2.808   0.379   0.562  0.00  0.00     0.023 A 
ATOM      8 BR   UNL d   1       3.197  -2.192   1.613  0.00  0.00    -0.050 Br
ATOM      9  C   UNL d   1       2.173   1.419  -0.114  0.00  0.00     0.038 A 
ATOM     10  C   UNL d   1       0.981   1.190  -0.793  0.00  0.00     0.069 A 
ATOM     11  C   UNL d   1       0.416  -0.086  -0.770  0.00  0.00     0.055 A 
BRANCH  10  12
ATOM     12  O   UNL d   1       0.445   2.285  -1.411  0.00  0.00    -0.356 OA
ATOM     13  C   UNL d   1      -0.413   2.014  -2.516  0.00  0.00     0.210 C 
ENDBRANCH  10  12
ENDBRANCH   1   5
BRANCH   2  14
ATOM     14  C   UNL d   1       0.570  -4.952  -0.122  0.00  0.00     0.074 A 
ATOM     15  C   UNL d   1      -0.627  -5.344  -0.746  0.00  0.00     0.146 A 
ATOM     16  C   UNL d   1      -1.089  -6.657  -0.664  0.00  0.00     0.086 A 
ATOM     17  F   UNL d   1      -1.324  -4.503  -1.520  0.00  0.00    -0.204 F 
ATOM     18  C   UNL d   1      -0.341  -7.597   0.027  0.00  0.00     0.119 A 
ATOM     19  C   UNL d   1       0.878  -7.257   0.599  0.00  0.00     0.044 A 
ATOM     20  F   UNL d   1      -0.790  -8.855   0.130  0.00  0.00    -0.206 F 
ATOM     21  C   UNL d   1       1.341  -5.940   0.512  0.00  0.00     0.036 A 
ENDBRANCH   2  14
TORSDOF 3
