REMARK  0 active torsions:
REMARK  status: ('A' for Active; 'I' for Inactive)
ROOT
ATOM      1  C   UNL d   1      -2.527   0.418  -0.527  0.00  0.00     0.017 A 
ATOM      2  C   UNL d   1       2.494  -0.546  -0.478  0.00  0.00     0.017 A 
ATOM      3  C   UNL d   1      -1.772  -0.770  -0.549  0.00  0.00    -0.033 A 
ATOM      4  C   UNL d   1       1.741   0.627  -0.656  0.00  0.00    -0.033 A 
ATOM      5  C   UNL d   1      -0.345  -0.700  -0.503  0.00  0.00    -0.018 A 
ATOM      6  C   UNL d   1       0.312   0.564  -0.589  0.00  0.00    -0.018 A 
ATOM      7  C   UNL d   1      -4.016   0.406  -0.501  0.00  0.00     0.164 C 
ATOM      8  C   UNL d   1       3.984  -0.536  -0.477  0.00  0.00     0.164 C 
ATOM      9  C   UNL d   1       1.855  -1.771  -0.314  0.00  0.00     0.016 A 
ATOM     10  C   UNL d   1      -1.886   1.653  -0.525  0.00  0.00     0.016 A 
ATOM     11  C   UNL d   1       0.466  -1.848  -0.368  0.00  0.00     0.014 A 
ATOM     12  C   UNL d   1      -0.496   1.720  -0.599  0.00  0.00     0.014 A 
ATOM     13  C   UNL d   1       2.461   1.904  -1.042  0.00  0.00     0.041 C 
ATOM     14  C   UNL d   1      -2.496  -2.086  -0.756  0.00  0.00     0.041 C 
ATOM     15  O   UNL d   1      -4.629   1.453  -0.305  0.00  0.00    -0.292 OA
ATOM     16  O   UNL d   1       4.602  -1.548  -0.148  0.00  0.00    -0.292 OA
ATOM     17  C   UNL d   1       4.684   0.724  -0.962  0.00  0.00     0.057 C 
ATOM     18  C   UNL d   1      -4.721  -0.905  -0.807  0.00  0.00     0.057 C 
ATOM     19  C   UNL d   1      -3.929  -2.077  -0.243  0.00  0.00     0.017 C 
ATOM     20  C   UNL d   1       3.900   1.962  -0.550  0.00  0.00     0.017 C 
ATOM     21  C   UNL d   1      -6.139  -0.916  -0.237  0.00  0.00     0.018 C 
ATOM     22  C   UNL d   1       6.110   0.810  -0.417  0.00  0.00     0.018 C 
ENDROOT
TORSDOF 0
