REMARK  5 active torsions:
REMARK  status: ('A' for Active; 'I' for Inactive)
REMARK    1  A    between atoms: C_9  and  N_1 
REMARK    2  A    between atoms: C_10  and  N_2 
REMARK    3  A    between atoms: C_7  and  O_16 
REMARK    4  A    between atoms: C_19  and  C_10 
REMARK    5  A    between atoms: O_16  and  C_26 
ROOT
ATOM      1  N   UNL d   1       0.794   1.179   0.082  0.00  0.00    -0.308 N 
ATOM      2  N   UNL d   1      -0.754  -1.098   0.195  0.00  0.00    -0.338 N 
ATOM      3  C   UNL d   1       1.473  -0.051  -0.067  0.00  0.00     0.242 C 
ATOM      4  C   UNL d   1      -1.415   0.121   0.148  0.00  0.00     0.238 C 
ATOM      5  C   UNL d   1      -0.574   1.241  -0.449  0.00  0.00     0.235 C 
ATOM      6  C   UNL d   1       0.544  -1.217  -0.469  0.00  0.00     0.229 C 
ATOM      7  O   UNL d   1       2.679  -0.237   0.038  0.00  0.00    -0.271 OA
ATOM      8  O   UNL d   1      -2.590   0.284   0.460  0.00  0.00    -0.272 OA
ENDROOT
BRANCH   1   9
ATOM      9  C   UNL d   1       1.438   2.405   0.447  0.00  0.00     0.037 A 
ATOM     10  C   UNL d   1       2.804   2.626   0.236  0.00  0.00     0.032 A 
ATOM     11  C   UNL d   1       3.406   3.858   0.542  0.00  0.00     0.039 A 
ATOM     12  C   UNL d   1       2.664   4.880   1.121  0.00  0.00     0.078 A 
ATOM     13  C   UNL d   1       1.305   4.675   1.344  0.00  0.00     0.039 A 
ATOM     14  C   UNL d   1       0.701   3.453   1.022  0.00  0.00     0.032 A 
BRANCH  12  15
ATOM     15  O   UNL d   1       3.116   6.118   1.452  0.00  0.00    -0.255 OA
BRANCH  15  16
ATOM     16  C   UNL d   1       4.460   6.287   1.879  0.00  0.00     0.530 C 
ATOM     17  F   UNL d   1       5.137   5.136   2.061  0.00  0.00    -0.144 F 
ATOM     18  F   UNL d   1       5.121   7.044   0.977  0.00  0.00    -0.144 F 
ATOM     19  F   UNL d   1       4.451   6.951   3.057  0.00  0.00    -0.144 F 
ENDBRANCH  15  16
ENDBRANCH  12  15
ENDBRANCH   1   9
BRANCH   2  20
ATOM     20  C   UNL d   1      -1.429  -2.292   0.680  0.00  0.00     0.165 C 
BRANCH  20  21
ATOM     21  C   UNL d   1      -2.145  -3.098  -0.382  0.00  0.00    -0.037 A 
ATOM     22  C   UNL d   1      -1.731  -4.409  -0.674  0.00  0.00     0.048 A 
ATOM     23  C   UNL d   1      -2.511  -5.167  -1.526  0.00  0.00     0.105 A 
ATOM     24  O   UNL d   1      -2.287  -6.467  -1.861  0.00  0.00    -0.323 OA
ATOM     25  C   UNL d   1      -3.653  -4.669  -2.105  0.00  0.00     0.105 A 
ATOM     26  C   UNL d   1      -3.453  -6.744  -2.667  0.00  0.00     0.352 A 
ATOM     27  O   UNL d   1      -4.295  -5.590  -2.871  0.00  0.00    -0.323 OA
ATOM     28  C   UNL d   1      -4.072  -3.378  -1.879  0.00  0.00     0.040 A 
ATOM     29  C   UNL d   1      -3.311  -2.591  -1.007  0.00  0.00     0.012 A 
ENDBRANCH  20  21
ENDBRANCH   2  20
TORSDOF 5
