REMARK  2 active torsions:
REMARK  status: ('A' for Active; 'I' for Inactive)
REMARK    1  A    between atoms: C_3  and  N_1 
REMARK    2  A    between atoms: C_5  and  C_3 
ROOT
ATOM      1  N   UNL d   1       2.968  -0.288  -2.898  0.00  0.00    -0.195 NA
ATOM      2  C   UNL d   1       2.760  -0.031  -0.259  0.00  0.00     0.361 C 
ATOM      3  C   UNL d   1       2.883  -0.169  -1.744  0.00  0.00     0.100 C 
ENDROOT
BRANCH   2   4
ATOM      4  N   UNL d   1       1.331   0.057   0.206  0.00  0.00     0.110 N 
ATOM      5  C   UNL d   1       0.588  -1.168  -0.153  0.00  0.00     0.274 C 
ATOM      6  C   UNL d   1      -0.868  -1.139   0.318  0.00  0.00     0.030 C 
ATOM      7  C   UNL d   1      -1.584   0.114  -0.168  0.00  0.00     0.003 C 
ATOM      8  C   UNL d   1      -0.788   1.350   0.227  0.00  0.00     0.030 C 
ATOM      9  C   UNL d   1       0.648   1.264  -0.296  0.00  0.00     0.274 C 
ENDBRANCH   2   4
BRANCH   2  10
ATOM     10  C   UNL d   1       3.673   1.072   0.314  0.00  0.00    -0.011 A 
ATOM     11  C   UNL d   1       3.438   1.614   1.591  0.00  0.00     0.010 A 
ATOM     12  C   UNL d   1       4.265   2.612   2.117  0.00  0.00     0.001 A 
ATOM     13  C   UNL d   1       5.363   3.066   1.392  0.00  0.00     0.000 A 
ATOM     14  C   UNL d   1       5.645   2.511   0.148  0.00  0.00     0.001 A 
ATOM     15  C   UNL d   1       4.815   1.519  -0.382  0.00  0.00     0.010 A 
ENDBRANCH   2  10
TORSDOF 2
