REMARK  1 active torsions:
REMARK  status: ('A' for Active; 'I' for Inactive)
REMARK    1  A    between atoms: C_7  and  C_3 
ROOT
ATOM      1  N   UNL d   1       2.465  -0.586   0.004  0.00  0.00    -0.308 N 
ATOM      2  HN  UNL d   1       3.380  -1.036  -0.032  1.00  0.00     0.170 HD
ATOM      3  C   UNL d   1       2.378   0.712   0.023  0.00  0.00     0.126 A 
ATOM      4  C   UNL d   1       1.323  -1.352   0.032  0.00  0.00     0.259 A 
ATOM      5  C   UNL d   1      -0.008  -0.695   0.015  0.00  0.00     0.060 A 
ATOM      6  N   UNL d   1       1.179   1.388   0.061  0.00  0.00    -0.340 N 
ATOM      7  C   UNL d   1      -0.027   0.701   0.015  0.00  0.00     0.049 A 
ATOM      8  C   UNL d   1      -1.194  -1.434  -0.007  0.00  0.00     0.043 A 
ATOM      9  O   UNL d   1       1.357  -2.579   0.061  0.00  0.00    -0.267 OA
ATOM     10  C   UNL d   1      -1.252   1.369  -0.013  0.00  0.00     0.032 A 
ATOM     11  C   UNL d   1      -2.409  -0.756  -0.046  0.00  0.00     0.035 A 
ATOM     12  C   UNL d   1      -2.443   0.640  -0.053  0.00  0.00     0.026 A 
ATOM     13 CL   UNL d   1      -3.883  -1.641  -0.087  0.00  0.00    -0.084 Cl
ATOM     14  H   UNL d   1       1.184   2.398   0.016  0.00  0.00     0.167 HD
ENDROOT
BRANCH   3  15
ATOM     15  C   UNL d   1       3.651   1.431  -0.001  0.00  0.00     0.050 A 
ATOM     16  C   UNL d   1       4.932   0.918  -0.108  0.00  0.00     0.042 A 
ATOM     17  C   UNL d   1       5.911   1.940  -0.080  0.00  0.00     0.018 A 
ATOM     18 BR   UNL d   1       7.754   1.562  -0.200  0.00  0.00    -0.051 Br
ATOM     19  C   UNL d   1       5.382   3.199   0.047  0.00  0.00     0.069 A 
ATOM     20  S   UNL d   1       3.674   3.147   0.117  0.00  0.00    -0.097 SA
ENDBRANCH   3  15
TORSDOF 1
