REMARK  5 active torsions:
REMARK  status: ('A' for Active; 'I' for Inactive)
REMARK    1  A    between atoms: C_9  and  C_2 
REMARK    2  A    between atoms: C_12  and  C_4 
REMARK    3  A    between atoms: C_10  and  C_5 
REMARK    4  A    between atoms: O_11  and  N_7 
REMARK    5  A    between atoms: C_17  and  C_12 
ROOT
ATOM      1  N   UNL d   1       1.933   0.499  -0.534  0.00  0.00     0.102 NA
ATOM      2  C   UNL d   1       0.747   1.366  -0.413  0.00  0.00     0.264 C 
ATOM      3  C   UNL d   1      -0.534  -0.501   0.565  0.00  0.00     0.018 C 
ATOM      4  C   UNL d   1      -0.193   0.971   0.747  0.00  0.00     0.071 C 
ATOM      5  C   UNL d   1       1.670  -0.951  -0.574  0.00  0.00     0.259 C 
ATOM      6  C   UNL d   1       0.629  -1.455   0.441  0.00  0.00     0.095 C 
ATOM      7  N   UNL d   1      -1.740  -0.998   0.524  0.00  0.00    -0.277 N 
ATOM      8  HN  UNL d   1      -1.948  -1.992   0.425  1.00  0.00     0.193 HD
ATOM      9  H   UNL d   1       2.542   0.688   0.260  0.00  0.00     0.317 HD
ENDROOT
BRANCH   2  10
ATOM     10  C   UNL d   1       0.075   1.655  -1.756  0.00  0.00    -0.025 A 
ATOM     11  C   UNL d   1      -0.953   0.874  -2.301  0.00  0.00     0.009 A 
ATOM     12  C   UNL d   1      -1.521   1.175  -3.541  0.00  0.00     0.001 A 
ATOM     13  C   UNL d   1      -1.077   2.277  -4.262  0.00  0.00     0.000 A 
ATOM     14  C   UNL d   1      -0.065   3.077  -3.740  0.00  0.00     0.001 A 
ATOM     15  C   UNL d   1       0.509   2.766  -2.505  0.00  0.00     0.009 A 
ENDBRANCH   2  10
BRANCH   4  16
ATOM     16  C   UNL d   1       0.425   1.149   2.160  0.00  0.00     0.013 C 
BRANCH  16  17
ATOM     17  C   UNL d   1       0.757   2.598   2.524  0.00  0.00    -0.004 C 
ATOM     18  C   UNL d   1       1.311   2.712   3.938  0.00  0.00     0.005 C 
ENDBRANCH  16  17
ENDBRANCH   4  16
BRANCH   5  19
ATOM     19  C   UNL d   1       1.602  -1.503  -1.996  0.00  0.00    -0.025 A 
ATOM     20  C   UNL d   1       2.724  -1.332  -2.832  0.00  0.00     0.009 A 
ATOM     21  C   UNL d   1       2.802  -1.952  -4.082  0.00  0.00     0.001 A 
ATOM     22  C   UNL d   1       1.749  -2.742  -4.529  0.00  0.00     0.000 A 
ATOM     23  C   UNL d   1       0.611  -2.888  -3.741  0.00  0.00     0.001 A 
ATOM     24  C   UNL d   1       0.535  -2.269  -2.486  0.00  0.00     0.009 A 
ENDBRANCH   5  19
BRANCH   7  25
ATOM     25  O   UNL d   1      -2.711   0.000   0.633  0.00  0.00    -0.290 OA
ATOM     26  H   UNL d   1      -3.518  -0.450   0.319  0.00  0.00     0.244 HD
ENDBRANCH   7  25
TORSDOF 5
