REMARK  6 active torsions:
REMARK  status: ('A' for Active; 'I' for Inactive)
REMARK    1  A    between atoms: N_2  and  C_1 
REMARK       I    between atoms: C_3  and  N_2 
REMARK    2  A    between atoms: C_9  and  C_3 
REMARK    3  A    between atoms: C_5  and  C_11 
REMARK    4  A    between atoms: O_15  and  C_5 
REMARK    5  A    between atoms: C_7  and  C_9 
REMARK    6  A    between atoms: C_11  and  C_7 
ROOT
ATOM      1  N   UNL d   1       2.723  -1.774   1.396  0.00  0.00    -0.326 N 
ATOM      2  C   UNL d   1       2.782  -2.500   0.223  0.00  0.00     0.222 C 
ATOM      3  O   UNL d   1       2.259  -2.172  -0.838  0.00  0.00    -0.273 OA
ATOM      4  H   UNL d   1       3.360  -2.016   2.156  0.00  0.00     0.169 HD
ENDROOT
BRANCH   2   5
ATOM      5  C   UNL d   1       3.625  -3.766   0.300  0.00  0.00     0.112 C 
BRANCH   5   6
ATOM      6  C   UNL d   1       5.164  -3.584   0.162  0.00  0.00    -0.030 C 
ATOM      7  C   UNL d   1       5.791  -4.989   0.022  0.00  0.00     0.016 C 
ATOM      8  C   UNL d   1       5.502  -2.794  -1.119  0.00  0.00     0.016 C 
BRANCH   6   9
ATOM      9  C   UNL d   1       5.825  -2.852   1.353  0.00  0.00     0.119 C 
BRANCH   9  10
ATOM     10  C   UNL d   1       5.473  -3.434   2.698  0.00  0.00     0.140 C 
ATOM     11  O   UNL d   1       4.424  -3.173   3.271  0.00  0.00    -0.650 OA
BRANCH  10  12
ATOM     12  O   UNL d   1       6.381  -4.297   3.189  0.00  0.00    -0.776 OA
ATOM     13  H   UNL d   1       7.167  -4.428   2.623  0.00  0.00     0.167 HD
ENDBRANCH  10  12
ENDBRANCH   9  10
ENDBRANCH   6   9
ENDBRANCH   5   6
ENDBRANCH   2   5
BRANCH   1  14
ATOM     14  C   UNL d   1       2.025  -0.550   1.540  0.00  0.00     0.058 A 
ATOM     15  C   UNL d   1       0.819  -0.318   0.866  0.00  0.00     0.055 A 
ATOM     16  C   UNL d   1       0.147   0.894   1.025  0.00  0.00     0.036 A 
ATOM     17 CL   UNL d   1      -1.358   1.150   0.229  0.00  0.00    -0.084 Cl
ATOM     18  C   UNL d   1       0.677   1.899   1.831  0.00  0.00     0.026 A 
ATOM     19  C   UNL d   1       1.874   1.677   2.513  0.00  0.00     0.028 A 
ATOM     20  C   UNL d   1       2.533   0.450   2.388  0.00  0.00     0.060 A 
ATOM     21 CL   UNL d   1       4.029   0.246   3.229  0.00  0.00    -0.082 Cl
ENDBRANCH   1  14
TORSDOF 6
