REMARK  6 active torsions:
REMARK  status: ('A' for Active; 'I' for Inactive)
REMARK    1  A    between atoms: N_2  and  C_1 
REMARK       I    between atoms: C_3  and  N_2 
REMARK    2  A    between atoms: C_10  and  C_3 
REMARK    3  A    between atoms: C_4  and  C_11 
REMARK    4  A    between atoms: O_9  and  C_4 
REMARK    5  A    between atoms: C_12  and  C_10 
REMARK    6  A    between atoms: C_11  and  C_12 
ROOT
ATOM      1  N   UNL d   1       0.182   2.476   0.055  0.00  0.00    -0.326 N 
ATOM      2  C   UNL d   1       1.269   3.183  -0.438  0.00  0.00     0.222 C 
ATOM      3  O   UNL d   1       2.312   2.696  -0.864  0.00  0.00    -0.273 OA
ATOM      4  H   UNL d   1      -0.699   2.970   0.019  0.00  0.00     0.169 HD
ENDROOT
BRANCH   1   5
ATOM      5  C   UNL d   1       0.101   1.062   0.025  0.00  0.00     0.046 A 
ATOM      6  C   UNL d   1       1.081   0.252   0.640  0.00  0.00    -0.035 A 
ATOM      7  C   UNL d   1       0.970  -1.148   0.557  0.00  0.00     0.009 A 
ATOM      8  C   UNL d   1       2.240   0.797   1.434  0.00  0.00     0.050 C 
ATOM      9  C   UNL d   1      -0.117  -1.742  -0.074  0.00  0.00     0.001 A 
ATOM     10  C   UNL d   1      -1.112  -0.944  -0.627  0.00  0.00     0.009 A 
ATOM     11  C   UNL d   1      -1.023   0.459  -0.585  0.00  0.00    -0.035 A 
ATOM     12  C   UNL d   1      -2.133   1.216  -1.268  0.00  0.00     0.050 C 
ENDBRANCH   1   5
BRANCH   2  13
ATOM     13  C   UNL d   1       1.032   4.686  -0.431  0.00  0.00     0.103 C 
BRANCH  13  14
ATOM     14  C   UNL d   1       1.783   5.420  -1.549  0.00  0.00     0.019 C 
BRANCH  14  15
ATOM     15  C   UNL d   1       1.350   5.017  -2.962  0.00  0.00     0.110 C 
BRANCH  15  16
ATOM     16  C   UNL d   1      -0.109   5.308  -3.230  0.00  0.00     0.139 C 
ATOM     17  O   UNL d   1      -0.750   6.202  -2.700  0.00  0.00    -0.650 OA
BRANCH  16  18
ATOM     18  O   UNL d   1      -0.658   4.469  -4.137  0.00  0.00    -0.776 OA
ATOM     19  H   UNL d   1      -0.035   3.807  -4.495  0.00  0.00     0.167 HD
ENDBRANCH  16  18
ENDBRANCH  15  16
ENDBRANCH  14  15
ENDBRANCH  13  14
ENDBRANCH   2  13
TORSDOF 6
