REMARK  3 active torsions:
REMARK  status: ('A' for Active; 'I' for Inactive)
REMARK    1  A    between atoms: C_7  and  C_1 
REMARK    2  A    between atoms: C_12  and  C_8 
REMARK    3  A    between atoms: C_16  and  C_11 
ROOT
ATOM      1  C   UNL d   1       3.505  -2.332  -0.976  0.00  0.00     0.164 A 
ATOM      2  N   UNL d   1       2.594  -1.630  -0.389  0.00  0.00    -0.331 N 
ATOM      3  HN  UNL d   1       2.683  -0.712   0.046  1.00  0.00     0.168 HD
ATOM      4  O   UNL d   1       3.134  -3.522  -1.505  0.00  0.00    -0.255 OA
ATOM      5  C   UNL d   1       1.479  -2.420  -0.491  0.00  0.00     0.111 A 
ATOM      6  C   UNL d   1       1.800  -3.665  -1.247  0.00  0.00     0.316 A 
ATOM      7  C   UNL d   1       0.303  -2.087   0.051  0.00  0.00     0.047 C 
ATOM      8  O   UNL d   1       1.102  -4.596  -1.579  0.00  0.00    -0.257 OA
ENDROOT
BRANCH   7   9
ATOM      9  C   UNL d   1      -0.919  -2.883  -0.003  0.00  0.00    -0.034 A 
ATOM     10  C   UNL d   1      -1.217  -3.780   1.024  0.00  0.00     0.012 A 
ATOM     11  C   UNL d   1      -2.412  -4.503   0.999  0.00  0.00     0.008 A 
ATOM     12  C   UNL d   1      -3.331  -4.342  -0.049  0.00  0.00    -0.055 A 
ATOM     13  C   UNL d   1      -3.008  -3.458  -1.090  0.00  0.00     0.008 A 
ATOM     14  C   UNL d   1      -1.811  -2.735  -1.068  0.00  0.00     0.012 A 
BRANCH  12  15
ATOM     15  C   UNL d   1      -4.650  -5.096  -0.065  0.00  0.00     0.010 C 
ATOM     16  C   UNL d   1      -4.436  -6.612  -0.088  0.00  0.00     0.015 C 
ATOM     17  C   UNL d   1      -5.539  -4.708   1.121  0.00  0.00     0.015 C 
ENDBRANCH  12  15
ENDBRANCH   7   9
BRANCH   1  18
ATOM     18  C   UNL d   1       4.928  -2.007  -1.153  0.00  0.00     0.032 A 
ATOM     19  C   UNL d   1       5.678  -1.270  -0.222  0.00  0.00     0.021 A 
ATOM     20  I   UNL d   1       4.960  -0.587   1.633  0.00  0.00    -0.044 I 
ATOM     21  C   UNL d   1       7.028  -0.992  -0.482  0.00  0.00     0.019 A 
ATOM     22  C   UNL d   1       7.633  -1.444  -1.654  0.00  0.00     0.001 A 
ATOM     23  C   UNL d   1       6.898  -2.179  -2.578  0.00  0.00     0.001 A 
ATOM     24  C   UNL d   1       5.553  -2.457  -2.332  0.00  0.00     0.017 A 
ENDBRANCH   1  18
TORSDOF 3
