REMARK  5 active torsions:
REMARK  status: ('A' for Active; 'I' for Inactive)
REMARK    1  A    between atoms: C_3  and  C_1 
REMARK    2  A    between atoms: C_4  and  C_1 
REMARK    3  A    between atoms: N_9  and  C_2 
REMARK    4  A    between atoms: O_10  and  C_3 
REMARK    5  A    between atoms: N_5  and  C_4 
ROOT
ATOM      1  C   UNL d   1       0.978  -0.060  -0.077  0.00  0.00     0.116 C 
ATOM      2  C   UNL d   1       0.315   0.923  -0.718  0.00  0.00     0.112 C 
ENDROOT
BRANCH   1   3
ATOM      3  C   UNL d   1       0.239  -1.081   0.695  0.00  0.00     0.303 C 
ATOM      4  O   UNL d   1      -0.976  -1.125   0.798  0.00  0.00    -0.258 OA
BRANCH   3   5
ATOM      5  O   UNL d   1       1.106  -1.966   1.255  0.00  0.00    -0.322 OA
ATOM      6  C   UNL d   1       0.488  -3.012   2.000  0.00  0.00     0.213 C 
ENDBRANCH   3   5
ENDBRANCH   1   3
BRANCH   1   7
ATOM      7  C   UNL d   1       2.498  -0.060  -0.077  0.00  0.00    -0.029 C 
BRANCH   7   8
ATOM      8  N   UNL d   1       3.759  -0.060  -0.077  0.00  0.00    -0.365 N 
ATOM      9  HN2 UNL d   1       2.739  -0.060  -0.077  1.00  0.00     0.165 HD
ATOM     10  HN1 UNL d   1       4.779  -0.060  -0.077  1.00  0.00     0.165 HD
ENDBRANCH   7   8
ENDBRANCH   1   7
BRANCH   2  11
ATOM     11  N   UNL d   1       0.751   1.978  -1.528  0.00  0.00    -0.397 N 
ATOM     12  C   UNL d   1       2.036   2.028  -2.236  0.00  0.00     0.148 C 
ATOM     13  C   UNL d   1      -0.020   3.219  -1.646  0.00  0.00     0.148 C 
ENDBRANCH   2  11
TORSDOF 5
