REMARK  5 active torsions:
REMARK  status: ('A' for Active; 'I' for Inactive)
REMARK       I    between atoms: N_2  and  C_1 
REMARK    1  A    between atoms: C_4  and  C_1 
REMARK       I    between atoms: C_3  and  N_2 
REMARK       I    between atoms: N_5  and  C_3 
REMARK    2  A    between atoms: C_7  and  N_5 
REMARK    3  A    between atoms: C_10  and  C_7 
REMARK    4  A    between atoms: O_12  and  C_10 
REMARK    5  A    between atoms: O_13  and  C_10 
ROOT
ATOM      1  C   UNL d   1       0.467  -4.738   0.157  0.00  0.00     0.261 C 
ATOM      2  N   UNL d   1       0.142  -3.393   0.097  0.00  0.00    -0.275 N 
ATOM      3  C   UNL d   1       0.945  -2.283   0.050  0.00  0.00     0.323 C 
ATOM      4  N   UNL d   1       2.282  -2.483   0.195  0.00  0.00    -0.334 N 
ATOM      5  O   UNL d   1       1.619  -5.151   0.238  0.00  0.00    -0.267 OA
ATOM      6  O   UNL d   1       0.425  -1.190  -0.168  0.00  0.00    -0.247 OA
ATOM      7  H   UNL d   1      -0.832  -3.135   0.004  0.00  0.00     0.173 HD
ATOM      8  H   UNL d   1       2.574  -3.424   0.449  0.00  0.00     0.164 HD
ENDROOT
BRANCH   1   9
ATOM      9  C   UNL d   1      -0.673  -5.708   0.073  0.00  0.00     0.054 A 
ATOM     10  C   UNL d   1      -1.984  -5.466   0.512  0.00  0.00     0.049 A 
ATOM     11 CL   UNL d   1      -2.487  -3.997   1.277  0.00  0.00    -0.083 Cl
ATOM     12  C   UNL d   1      -2.971  -6.452   0.373  0.00  0.00     0.025 A 
ATOM     13  C   UNL d   1      -2.665  -7.689  -0.196  0.00  0.00     0.002 A 
ATOM     14  C   UNL d   1      -1.365  -7.944  -0.626  0.00  0.00     0.001 A 
ATOM     15  C   UNL d   1      -0.377  -6.962  -0.491  0.00  0.00     0.019 A 
ENDBRANCH   1   9
BRANCH   4  16
ATOM     16  C   UNL d   1       3.250  -1.379   0.230  0.00  0.00     0.137 C 
ATOM     17  C   UNL d   1       4.556  -1.835  -0.424  0.00  0.00     0.037 C 
BRANCH  16  18
ATOM     18  C   UNL d   1       3.501  -0.822   1.674  0.00  0.00     0.280 C 
BRANCH  18  19
ATOM     19  O   UNL d   1       4.523   0.186   1.651  0.00  0.00    -0.364 OA
ATOM     20  C   UNL d   1       4.981   0.525   2.956  0.00  0.00     0.204 C 
ENDBRANCH  18  19
BRANCH  18  21
ATOM     21  O   UNL d   1       2.306  -0.344   2.304  0.00  0.00    -0.364 OA
ATOM     22  C   UNL d   1       1.812   0.875   1.762  0.00  0.00     0.204 C 
ENDBRANCH  18  21
ENDBRANCH  16  18
ENDBRANCH   4  16
TORSDOF 5
