REMARK  5 active torsions:
REMARK  status: ('A' for Active; 'I' for Inactive)
REMARK    1  A    between atoms: N_12  and  C_1 
REMARK    2  A    between atoms: C_8  and  C_4 
REMARK    3  A    between atoms: O_17  and  C_8 
REMARK    4  A    between atoms: C_9  and  N_12 
REMARK    5  A    between atoms: C_19  and  O_17 
ROOT
ATOM      1  C   UNL d   1      -6.233   0.296   0.026  0.00  0.00     0.135 C 
ATOM      2  C   UNL d   1      -4.902   0.496   0.009  0.00  0.00     0.119 C 
ATOM      3  C   UNL d   1      -7.145   1.387   0.017  0.00  0.00     0.107 C 
ATOM      4  N   UNL d   1      -7.838   2.316  -0.004  0.00  0.00    -0.191 NA
ENDROOT
BRANCH   1   5
ATOM      5  C   UNL d   1      -6.748  -1.098  -0.029  0.00  0.00     0.305 C 
ATOM      6  O   UNL d   1      -6.047  -2.096  -0.085  0.00  0.00    -0.258 OA
BRANCH   5   7
ATOM      7  O   UNL d   1      -8.104  -1.083  -0.118  0.00  0.00    -0.317 OA
BRANCH   7   8
ATOM      8  C   UNL d   1      -8.708  -2.245  -0.708  0.00  0.00     0.174 C 
ATOM      9  C   UNL d   1      -8.714  -2.039  -2.212  0.00  0.00     0.034 C 
ENDBRANCH   7   8
ENDBRANCH   5   7
ENDBRANCH   1   5
BRANCH   2  10
ATOM     10  N   UNL d   1      -4.209   1.696   0.000  0.00  0.00    -0.345 N 
ATOM     11  H   UNL d   1      -4.774   2.541   0.000  0.00  0.00     0.167 HD
BRANCH  10  12
ATOM     12  C   UNL d   1      -2.863   1.872   0.002  0.00  0.00     0.149 A 
ATOM     13  N   UNL d   1      -1.962   0.918   0.003  0.00  0.00    -0.335 N 
ATOM     14  C   UNL d   1      -0.685   1.456   0.008  0.00  0.00     0.051 A 
ATOM     15  HN  UNL d   1      -2.173  -0.080   0.001  1.00  0.00     0.168 HD
ATOM     16  C   UNL d   1       0.519   0.726   0.009  0.00  0.00     0.031 A 
ATOM     17  C   UNL d   1      -0.619   2.849   0.011  0.00  0.00     0.035 A 
ATOM     18  C   UNL d   1       1.747   1.399   0.010  0.00  0.00     0.009 A 
ATOM     19  C   UNL d   1       1.800   2.795   0.012  0.00  0.00    -0.061 A 
ATOM     20  C   UNL d   1       0.607   3.538   0.014  0.00  0.00     0.028 A 
ATOM     21  C   UNL d   1       3.131   3.492   0.008  0.00  0.00     0.048 C 
ATOM     22  S   UNL d   1      -2.222   3.474   0.010  0.00  0.00    -0.052 SA
ENDBRANCH  10  12
ENDBRANCH   2  10
TORSDOF 5
