REMARK  5 active torsions:
REMARK  status: ('A' for Active; 'I' for Inactive)
REMARK    1  A    between atoms: C_2  and  S_1 
REMARK    2  A    between atoms: C_3  and  S_1 
REMARK    3  A    between atoms: C_9  and  C_3 
REMARK    4  A    between atoms: S_8  and  C_9 
REMARK    5  A    between atoms: C_10  and  S_8 
ROOT
ATOM      1  S   UNL d   1       0.959   0.126   0.113  0.00  0.00     0.176 S 
ATOM      2  O   UNL d   1       2.339  -0.026  -0.310  0.00  0.00    -0.223 OA
ATOM      3  O   UNL d   1       0.605   0.041   1.518  0.00  0.00    -0.223 OA
ENDROOT
BRANCH   1   4
ATOM      4  C   UNL d   1      -0.001  -1.108  -0.748  0.00  0.00     0.059 A 
ATOM      5  C   UNL d   1       0.472  -1.659  -1.942  0.00  0.00     0.024 A 
ATOM      6  C   UNL d   1      -0.289  -2.627  -2.606  0.00  0.00     0.008 A 
ATOM      7  C   UNL d   1      -1.509  -3.067  -2.072  0.00  0.00    -0.062 A 
ATOM      8  C   UNL d   1      -1.948  -2.539  -0.852  0.00  0.00     0.008 A 
ATOM      9  C   UNL d   1      -2.327  -4.087  -2.812  0.00  0.00     0.048 C 
ATOM     10  C   UNL d   1      -1.197  -1.564  -0.187  0.00  0.00     0.024 A 
ENDBRANCH   1   4
BRANCH   1  11
ATOM     11  C   UNL d   1       0.354   1.678  -0.517  0.00  0.00     0.156 C 
BRANCH  11  12
ATOM     12  C   UNL d   1       1.047   2.846   0.180  0.00  0.00     0.095 C 
BRANCH  12  13
ATOM     13  S   UNL d   1       0.393   4.416  -0.505  0.00  0.00    -0.129 SA
BRANCH  13  14
ATOM     14  C   UNL d   1       1.279   5.706   0.371  0.00  0.00     0.000 A 
ATOM     15  C   UNL d   1       2.261   5.500   1.342  0.00  0.00     0.019 A 
ATOM     16  C   UNL d   1       2.894   6.590   1.962  0.00  0.00     0.008 A 
ATOM     17  C   UNL d   1       2.559   7.906   1.623  0.00  0.00    -0.062 A 
ATOM     18  C   UNL d   1       1.577   8.115   0.653  0.00  0.00     0.008 A 
ATOM     19  C   UNL d   1       3.247   9.058   2.293  0.00  0.00     0.048 C 
ATOM     20  C   UNL d   1       0.947   7.028   0.038  0.00  0.00     0.019 A 
ENDBRANCH  13  14
ENDBRANCH  12  13
ENDBRANCH  11  12
ENDBRANCH   1  11
TORSDOF 5
