REMARK  5 active torsions:
REMARK  status: ('A' for Active; 'I' for Inactive)
REMARK    1  A    between atoms: C_6  and  C_1 
REMARK    2  A    between atoms: N_5  and  N_2 
REMARK    3  A    between atoms: C_4  and  N_5 
REMARK    4  A    between atoms: O_9  and  C_6 
REMARK    5  A    between atoms: O_10  and  C_6 
ROOT
ATOM      1  C   UNL d   1       1.096  -0.164  -0.031  0.00  0.00     0.054 C 
ATOM      2  N   UNL d   1       0.401  -0.997  -0.749  0.00  0.00    -0.302 N 
ATOM      3  HN  UNL d   1      -0.615  -0.912  -0.787  1.00  0.00     0.186 HD
ATOM      4  C   UNL d   1       2.602  -0.179   0.113  0.00  0.00     0.070 C 
ENDROOT
BRANCH   2   5
ATOM      5  N   UNL d   1       1.028  -1.981  -1.451  0.00  0.00    -0.277 N 
ATOM      6  H   UNL d   1       2.037  -2.075  -1.460  0.00  0.00     0.189 HD
BRANCH   5   7
ATOM      7  C   UNL d   1       0.301  -2.840  -2.232  0.00  0.00     0.184 C 
ATOM      8  S   UNL d   1       1.008  -4.037  -3.135  0.00  0.00    -0.040 SA
ATOM      9  N   UNL d   1      -1.038  -2.637  -2.221  0.00  0.00    -0.375 N 
ATOM     10  H   UNL d   1      -1.383  -1.916  -1.595  0.00  0.00     0.158 HD
ATOM     11  H   UNL d   1      -1.675  -3.231  -2.728  0.00  0.00     0.158 HD
ENDBRANCH   5   7
ENDBRANCH   2   5
BRANCH   1  12
ATOM     12  C   UNL d   1       0.357   1.026   0.648  0.00  0.00     0.306 C 
BRANCH  12  13
ATOM     13  O   UNL d   1       0.464   2.205  -0.149  0.00  0.00    -0.361 OA
ATOM     14  C   UNL d   1      -0.316   2.157  -1.339  0.00  0.00     0.205 C 
ENDBRANCH  12  13
BRANCH  12  15
ATOM     15  O   UNL d   1      -0.983   0.700   0.993  0.00  0.00    -0.361 OA
ATOM     16  C   UNL d   1      -1.579   1.667   1.844  0.00  0.00     0.205 C 
ENDBRANCH  12  15
ENDBRANCH   1  12
TORSDOF 5
