REMARK  8 active torsions:
REMARK  status: ('A' for Active; 'I' for Inactive)
REMARK    1  A    between atoms: C_7  and  C_3 
REMARK    2  A    between atoms: C_15  and  C_4 
REMARK    3  A    between atoms: C_14  and  C_5 
REMARK    4  A    between atoms: O_20  and  C_6 
REMARK    5  A    between atoms: C_19  and  C_10 
REMARK    6  A    between atoms: C_13  and  O_17 
REMARK    7  A    between atoms: C_16  and  C_13 
REMARK    8  A    between atoms: O_17  and  C_19 
ROOT
ATOM      1  C   UNL d   1       3.922   3.444   1.033  0.00  0.00    -0.016 A 
ATOM      2  C   UNL d   1       4.609   2.389  -1.126  0.00  0.00    -0.016 A 
ATOM      3  C   UNL d   1       4.861   3.226  -0.008  0.00  0.00     0.079 A 
ATOM      4  C   UNL d   1       2.490   1.761  -0.040  0.00  0.00    -0.008 A 
ATOM      5  C   UNL d   1       2.752   2.664   0.996  0.00  0.00     0.024 A 
ATOM      6  C   UNL d   1       3.401   1.667  -1.099  0.00  0.00     0.024 A 
ENDROOT
BRANCH   4   7
ATOM      7  C   UNL d   1       1.304   0.914  -0.047  0.00  0.00     0.049 A 
ATOM      8  N   UNL d   1       0.745   0.470  -1.239  0.00  0.00    -0.351 N 
ATOM      9  C   UNL d   1      -0.296  -0.299  -0.995  0.00  0.00     0.075 A 
ATOM     10  HN  UNL d   1       1.091   0.707  -2.169  1.00  0.00     0.166 HD
ATOM     11  S   UNL d   1      -0.632  -0.570   0.674  0.00  0.00    -0.084 SA
ATOM     12  C   UNL d   1       0.691   0.435   1.093  0.00  0.00     0.082 A 
BRANCH   9  13
ATOM     13  C   UNL d   1      -1.139  -0.989  -2.025  0.00  0.00     0.243 C 
BRANCH  13  14
ATOM     14  O   UNL d   1      -1.176  -0.223  -3.241  0.00  0.00    -0.314 OA
BRANCH  14  15
ATOM     15  C   UNL d   1      -2.092   0.779  -3.274  0.00  0.00     0.266 C 
ATOM     16  O   UNL d   1      -2.785   1.108  -2.317  0.00  0.00    -0.264 OA
BRANCH  15  17
ATOM     17  C   UNL d   1      -2.236   1.392  -4.674  0.00  0.00     0.037 C 
ATOM     18  C   UNL d   1      -1.263   0.787  -5.698  0.00  0.00     0.025 C 
ATOM     19  C   UNL d   1      -3.678   1.133  -5.141  0.00  0.00     0.025 C 
ATOM     20  C   UNL d   1      -1.990   2.904  -4.591  0.00  0.00     0.025 C 
ENDBRANCH  15  17
ENDBRANCH  14  15
ENDBRANCH  13  14
ENDBRANCH   9  13
ENDBRANCH   4   7
BRANCH   1  21
ATOM     21  C   UNL d   1       4.133   4.442   2.203  0.00  0.00    -0.021 C 
ATOM     22  C   UNL d   1       4.841   3.706   3.356  0.00  0.00     0.019 C 
ATOM     23  C   UNL d   1       4.955   5.697   1.820  0.00  0.00     0.019 C 
ATOM     24  C   UNL d   1       2.794   5.011   2.755  0.00  0.00     0.019 C 
ENDBRANCH   1  21
BRANCH   2  25
ATOM     25  C   UNL d   1       5.556   2.258  -2.346  0.00  0.00    -0.021 C 
ATOM     26  C   UNL d   1       5.045   1.251  -3.417  0.00  0.00     0.019 C 
ATOM     27  C   UNL d   1       5.668   3.616  -3.076  0.00  0.00     0.019 C 
ATOM     28  C   UNL d   1       6.965   1.768  -1.950  0.00  0.00     0.019 C 
ENDBRANCH   2  25
BRANCH   3  29
ATOM     29  O   UNL d   1       6.096   3.794   0.119  0.00  0.00    -0.360 OA
ATOM     30  H   UNL d   1       6.132   4.522  -0.521  0.00  0.00     0.217 HD
ENDBRANCH   3  29
TORSDOF 8
