REMARK  3 active torsions:
REMARK  status: ('A' for Active; 'I' for Inactive)
REMARK    1  A    between atoms: C_6  and  C_1 
REMARK    2  A    between atoms: C_2  and  O_5 
REMARK    3  A    between atoms: O_5  and  C_6 
ROOT
ATOM      1  C   UNL d   1      -0.907   4.377  -0.622  0.00  0.00     0.103 A 
ATOM      2  C   UNL d   1      -1.882   4.879  -1.510  0.00  0.00     0.047 A 
ATOM      3  C   UNL d   1       0.158   5.233  -0.280  0.00  0.00     0.047 A 
ATOM      4  N   UNL d   1      -0.466   9.348  -2.778  0.00  0.00    -0.191 NA
ATOM      5  C   UNL d   1      -0.572   8.281  -2.332  0.00  0.00     0.099 C 
ATOM      6  C   UNL d   1      -0.691   6.968  -1.768  0.00  0.00     0.047 A 
ATOM      7  C   UNL d   1      -1.774   6.154  -2.084  0.00  0.00     0.044 A 
ATOM      8  C   UNL d   1       0.268   6.507  -0.866  0.00  0.00     0.044 A 
ATOM      9 BR   UNL d   1      -3.430   3.868  -1.974  0.00  0.00    -0.048 Br
ATOM     10 BR   UNL d   1       1.481   4.891   1.046  0.00  0.00    -0.048 Br
ENDROOT
BRANCH   1  11
ATOM     11  O   UNL d   1      -1.151   3.117  -0.125  0.00  0.00    -0.344 OA
BRANCH  11  12
ATOM     12  C   UNL d   1      -0.027   2.258   0.073  0.00  0.00     0.219 C 
BRANCH  12  13
ATOM     13  C   UNL d   1      -0.403   0.797   0.013  0.00  0.00     0.026 A 
ATOM     14  C   UNL d   1      -0.846   0.160  -1.152  0.00  0.00     0.045 A 
ATOM     15 CL   UNL d   1      -1.027   1.011  -2.644  0.00  0.00    -0.084 Cl
ATOM     16  C   UNL d   1      -1.106  -1.218  -1.161  0.00  0.00     0.024 A 
ATOM     17  C   UNL d   1      -0.909  -1.985  -0.012  0.00  0.00     0.005 A 
ATOM     18  C   UNL d   1      -0.457  -1.370   1.149  0.00  0.00     0.043 A 
ATOM     19  C   UNL d   1      -0.215   0.002   1.153  0.00  0.00     0.126 A 
ATOM     20  F   UNL d   1       0.246   0.552   2.286  0.00  0.00    -0.205 F 
ENDBRANCH  12  13
ENDBRANCH  11  12
ENDBRANCH   1  11
TORSDOF 3
