REMARK  2 active torsions:
REMARK  status: ('A' for Active; 'I' for Inactive)
REMARK       I    between atoms: N_3  and  C_1 
REMARK       I    between atoms: N_6  and  C_1 
REMARK    1  A    between atoms: C_2  and  N_4 
REMARK    2  A    between atoms: C_10  and  N_6 
ROOT
ATOM      1  C   UNL d   1       0.904   0.253   0.113  0.00  0.00     0.323 C 
ATOM      2  N   UNL d   1       0.369  -0.154   1.321  0.00  0.00    -0.331 N 
ATOM      3  N   UNL d   1      -0.236  -1.286   3.880  0.00  0.00    -0.377 N 
ATOM      4  N   UNL d   1       0.679  -0.619  -0.931  0.00  0.00    -0.306 N 
ATOM      5  O   UNL d   1       1.590   1.271   0.025  0.00  0.00    -0.247 OA
ATOM      6  C   UNL d   1       0.753   0.562   2.543  0.00  0.00     0.147 C 
ATOM      7  C   UNL d   1      -0.819  -0.998   1.476  0.00  0.00     0.147 C 
ATOM      8  C   UNL d   1       0.944  -0.411   3.722  0.00  0.00     0.143 C 
ATOM      9  C   UNL d   1      -0.672  -1.980   2.654  0.00  0.00     0.143 C 
ATOM     10  H   UNL d   1       0.626  -1.589  -0.644  0.00  0.00     0.171 HD
ENDROOT
BRANCH   4  11
ATOM     11  C   UNL d   1       1.243  -0.424  -2.211  0.00  0.00     0.075 A 
ATOM     12  C   UNL d   1       1.774  -1.537  -2.875  0.00  0.00     0.146 A 
ATOM     13  C   UNL d   1       2.455  -1.399  -4.077  0.00  0.00     0.086 A 
ATOM     14  F   UNL d   1       1.683  -2.751  -2.309  0.00  0.00    -0.204 F 
ATOM     15  C   UNL d   1       2.565  -0.135  -4.641  0.00  0.00     0.119 A 
ATOM     16  C   UNL d   1       1.988   0.977  -4.034  0.00  0.00     0.044 A 
ATOM     17  F   UNL d   1       3.243   0.018  -5.785  0.00  0.00    -0.206 F 
ATOM     18  C   UNL d   1       1.324   0.834  -2.814  0.00  0.00     0.036 A 
ENDBRANCH   4  11
BRANCH   3  19
ATOM     19  C   UNL d   1      -0.865  -1.463   5.109  0.00  0.00     0.044 A 
ATOM     20  C   UNL d   1      -1.416  -2.705   5.564  0.00  0.00     0.017 A 
ATOM     21  C   UNL d   1      -2.156  -2.693   6.777  0.00  0.00     0.044 A 
ATOM     22  C   UNL d   1      -1.265  -3.962   4.922  0.00  0.00     0.016 A 
ATOM     23  C   UNL d   1      -2.771  -3.856   7.220  0.00  0.00     0.030 A 
ATOM     24  N   UNL d   1      -2.292  -1.607   7.549  0.00  0.00    -0.359 N 
ATOM     25  C   UNL d   1      -2.673  -5.058   6.523  0.00  0.00     0.002 A 
ATOM     26  C   UNL d   1      -1.899  -5.115   5.380  0.00  0.00     0.001 A 
ATOM     27  C   UNL d   1      -1.712  -0.461   7.151  0.00  0.00     0.007 A 
ATOM     28  HN  UNL d   1      -2.824  -1.648   8.419  1.00  0.00     0.166 HD
ATOM     29  C   UNL d   1      -1.021  -0.351   5.953  0.00  0.00     0.054 A 
ATOM     30  C   UNL d   1      -1.855   0.727   8.055  0.00  0.00     0.068 C 
ENDBRANCH   3  19
TORSDOF 2
