REMARK  1 active torsions:
REMARK  status: ('A' for Active; 'I' for Inactive)
REMARK    1  A    between atoms: C_8  and  C_2 
ROOT
ATOM      1  C   UNL d   1       1.363  -1.373   0.047  0.00  0.00     0.303 A 
ATOM      2  C   UNL d   1       2.307   0.769  -0.071  0.00  0.00     0.169 A 
ATOM      3  N   UNL d   1       1.185   1.405  -0.031  0.00  0.00    -0.335 N 
ATOM      4  HN  UNL d   1       1.157   2.424  -0.028  1.00  0.00     0.168 HD
ATOM      5  O   UNL d   1       2.451  -0.573  -0.045  0.00  0.00    -0.256 OA
ATOM      6  C   UNL d   1       0.031  -0.739   0.041  0.00  0.00     0.088 A 
ATOM      7  C   UNL d   1       0.017   0.654   0.008  0.00  0.00     0.052 A 
ATOM      8  O   UNL d   1       1.515  -2.586   0.122  0.00  0.00    -0.259 OA
ATOM      9  C   UNL d   1      -1.185  -1.441   0.052  0.00  0.00     0.052 A 
ATOM     10 CL   UNL d   1      -1.314  -3.163   0.094  0.00  0.00    -0.083 Cl
ATOM     11  C   UNL d   1      -1.200   1.344  -0.014  0.00  0.00     0.030 A 
ATOM     12  C   UNL d   1      -2.407   0.652  -0.014  0.00  0.00     0.004 A 
ATOM     13  C   UNL d   1      -2.398  -0.739   0.019  0.00  0.00     0.025 A 
ENDROOT
BRANCH   2  14
ATOM     14  C   UNL d   1       3.594   1.428  -0.163  0.00  0.00     0.056 A 
ATOM     15  S   UNL d   1       3.701   3.139  -0.079  0.00  0.00    -0.098 SA
ATOM     16  C   UNL d   1       5.398   3.118  -0.278  0.00  0.00     0.050 A 
ATOM     17  C   UNL d   1       5.886   1.838  -0.405  0.00  0.00     0.009 A 
ATOM     18  C   UNL d   1       4.848   0.864  -0.330  0.00  0.00     0.024 A 
ENDBRANCH   2  14
TORSDOF 1
