REMARK  6 active torsions:
REMARK  status: ('A' for Active; 'I' for Inactive)
REMARK    1  A    between atoms: N_2  and  S_1 
REMARK    2  A    between atoms: C_4  and  S_1 
REMARK    3  A    between atoms: C_5  and  N_2 
REMARK       I    between atoms: C_3  and  N_6 
REMARK    4  A    between atoms: C_9  and  C_3 
REMARK    5  A    between atoms: N_6  and  C_24 
REMARK    6  A    between atoms: C_12  and  C_13 
ROOT
ATOM      1  C   UNL d   1      -0.218   0.146   1.498  0.00  0.00     0.080 A 
ATOM      2  C   UNL d   1      -0.283   1.361   2.187  0.00  0.00     0.027 A 
ATOM      3  C   UNL d   1      -0.322  -1.060   2.191  0.00  0.00     0.027 A 
ATOM      4  C   UNL d   1      -0.590   0.154   4.283  0.00  0.00     0.035 A 
ATOM      5  C   UNL d   1      -0.499  -1.050   3.578  0.00  0.00     0.031 A 
ATOM      6  C   UNL d   1      -0.456   1.360   3.577  0.00  0.00     0.031 A 
ENDROOT
BRANCH   4   7
ATOM      7  N   UNL d   1      -0.829   0.235   5.673  0.00  0.00    -0.323 N 
ATOM      8  C   UNL d   1      -1.088  -0.820   6.534  0.00  0.00     0.256 C 
ATOM      9  O   UNL d   1      -1.144  -2.008   6.238  0.00  0.00    -0.267 OA
ATOM     10  H   UNL d   1      -0.789   1.162   6.078  0.00  0.00     0.169 HD
BRANCH   8  11
ATOM     11  C   UNL d   1      -1.258  -0.452   7.969  0.00  0.00     0.032 A 
ATOM     12  C   UNL d   1      -1.868   0.732   8.387  0.00  0.00     0.017 A 
ATOM     13  C   UNL d   1      -1.904   1.056   9.751  0.00  0.00     0.009 A 
ATOM     14  C   UNL d   1      -1.336   0.210  10.726  0.00  0.00    -0.051 A 
ATOM     15  C   UNL d   1      -0.805  -1.013  10.284  0.00  0.00     0.009 A 
ATOM     16  C   UNL d   1      -0.767  -1.341   8.927  0.00  0.00     0.017 A 
BRANCH  14  17
ATOM     17  C   UNL d   1      -1.261   0.649  12.201  0.00  0.00    -0.024 C 
ATOM     18  C   UNL d   1      -0.571  -0.389  13.118  0.00  0.00     0.019 C 
ATOM     19  C   UNL d   1      -0.437   1.953  12.297  0.00  0.00     0.019 C 
ATOM     20  C   UNL d   1      -2.669   0.902  12.774  0.00  0.00     0.019 C 
ENDBRANCH  14  17
ENDBRANCH   8  11
ENDBRANCH   4   7
BRANCH   1  21
ATOM     21  S   UNL d   1      -0.098   0.139  -0.278  0.00  0.00     0.263 S 
ATOM     22  O   UNL d   1      -0.588  -1.133  -0.761  0.00  0.00    -0.200 OA
ATOM     23  O   UNL d   1      -0.660   1.390  -0.746  0.00  0.00    -0.200 OA
BRANCH  21  24
ATOM     24  N   UNL d   1       1.560   0.237  -0.560  0.00  0.00    -0.281 N 
ATOM     25  H   UNL d   1       1.903   1.198  -0.520  0.00  0.00     0.179 HD
BRANCH  24  26
ATOM     26  C   UNL d   1       2.409  -0.799  -0.090  0.00  0.00     0.045 A 
ATOM     27  C   UNL d   1       2.542  -1.975  -0.828  0.00  0.00     0.054 A 
ATOM     28  C   UNL d   1       3.388  -2.983  -0.365  0.00  0.00     0.037 A 
ATOM     29 CL   UNL d   1       3.602  -4.415  -1.295  0.00  0.00    -0.084 Cl
ATOM     30  C   UNL d   1       4.073  -2.839   0.840  0.00  0.00     0.048 A 
ATOM     31  C   UNL d   1       3.909  -1.670   1.579  0.00  0.00     0.037 A 
ATOM     32  C   UNL d   1       3.086  -0.644   1.118  0.00  0.00     0.054 A 
ATOM     33 CL   UNL d   1       4.734  -1.483   3.078  0.00  0.00    -0.084 Cl
ENDBRANCH  24  26
ENDBRANCH  21  24
ENDBRANCH   1  21
TORSDOF 6
