REMARK  7 active torsions:
REMARK  status: ('A' for Active; 'I' for Inactive)
REMARK    1  A    between atoms: C_9  and  C_1 
REMARK    2  A    between atoms: C_8  and  C_2 
REMARK    3  A    between atoms: C_7  and  C_3 
REMARK    4  A    between atoms: O_18  and  C_8 
REMARK    5  A    between atoms: O_19  and  C_9 
REMARK    6  A    between atoms: C_24  and  O_18 
REMARK    7  A    between atoms: C_23  and  O_19 
ROOT
ATOM      1  C   UNL d   1      -1.296  -0.992   0.091  0.00  0.00     0.052 C 
ATOM      2  C   UNL d   1       1.273  -0.984   0.098  0.00  0.00     0.052 C 
ATOM      3  C   UNL d   1      -0.007  -1.811  -0.133  0.00  0.00     0.102 C 
ATOM      4  C   UNL d   1      -1.250   0.361   0.095  0.00  0.00     0.018 C 
ATOM      5  C   UNL d   1       1.208   0.369   0.131  0.00  0.00     0.018 C 
ATOM      6  N   UNL d   1      -0.019   1.002   0.023  0.00  0.00    -0.362 N 
ATOM      7  C   UNL d   1      -2.429   1.301   0.135  0.00  0.00     0.069 C 
ATOM      8  C   UNL d   1       2.403   1.286   0.243  0.00  0.00     0.069 C 
ATOM      9  H   UNL d   1      -0.027   2.014   0.127  0.00  0.00     0.165 HD
ENDROOT
BRANCH   3  10
ATOM     10  C   UNL d   1      -0.001  -2.416  -1.553  0.00  0.00    -0.023 A 
ATOM     11  C   UNL d   1      -0.067  -3.801  -1.805  0.00  0.00     0.043 A 
ATOM     12  C   UNL d   1      -0.064  -4.290  -3.118  0.00  0.00     0.048 A 
ATOM     13 CL   UNL d   1      -0.132  -4.983  -0.544  0.00  0.00    -0.084 Cl
ATOM     14  C   UNL d   1       0.010  -3.407  -4.191  0.00  0.00     0.035 A 
ATOM     15  C   UNL d   1       0.079  -2.037  -3.971  0.00  0.00     0.024 A 
ATOM     16 CL   UNL d   1       0.025  -4.013  -5.801  0.00  0.00    -0.084 Cl
ATOM     17  C   UNL d   1       0.069  -1.547  -2.666  0.00  0.00     0.011 A 
ENDBRANCH   3  10
BRANCH   2  18
ATOM     18  C   UNL d   1       2.580  -1.692   0.234  0.00  0.00     0.292 C 
ATOM     19  O   UNL d   1       3.661  -1.145   0.388  0.00  0.00    -0.259 OA
BRANCH  18  20
ATOM     20  O   UNL d   1       2.413  -3.030   0.104  0.00  0.00    -0.318 OA
BRANCH  20  21
ATOM     21  C   UNL d   1       3.612  -3.790  -0.109  0.00  0.00     0.174 C 
ATOM     22  C   UNL d   1       3.900  -3.839  -1.599  0.00  0.00     0.034 C 
ENDBRANCH  20  21
ENDBRANCH  18  20
ENDBRANCH   2  18
BRANCH   1  23
ATOM     23  C   UNL d   1      -2.524  -1.812   0.282  0.00  0.00     0.292 C 
ATOM     24  O   UNL d   1      -2.665  -2.935  -0.174  0.00  0.00    -0.259 OA
BRANCH  23  25
ATOM     25  O   UNL d   1      -3.421  -1.190   1.088  0.00  0.00    -0.318 OA
BRANCH  25  26
ATOM     26  C   UNL d   1      -4.642  -1.906   1.337  0.00  0.00     0.174 C 
ATOM     27  C   UNL d   1      -5.575  -1.839   0.140  0.00  0.00     0.034 C 
ENDBRANCH  25  26
ENDBRANCH  23  25
ENDBRANCH   1  23
TORSDOF 7
