REMARK  8 active torsions:
REMARK  status: ('A' for Active; 'I' for Inactive)
REMARK    1  A    between atoms: O_8  and  C_1 
REMARK    2  A    between atoms: O_9  and  C_2 
REMARK    3  A    between atoms: O_10  and  C_3 
REMARK    4  A    between atoms: C_17  and  C_6 
REMARK    5  A    between atoms: N_7  and  C_17 
REMARK    6  A    between atoms: C_19  and  N_7 
REMARK    7  A    between atoms: O_18  and  C_11 
REMARK    8  A    between atoms: C_12  and  C_19 
ROOT
ATOM      1  C   UNL d   1       1.412  -0.452   0.033  0.00  0.00     0.135 A 
ATOM      2  C   UNL d   1       0.555  -0.753   1.116  0.00  0.00     0.104 A 
ATOM      3  C   UNL d   1       0.892   0.223  -1.085  0.00  0.00     0.104 A 
ATOM      4  C   UNL d   1      -0.818  -0.503   1.004  0.00  0.00     0.048 A 
ATOM      5  C   UNL d   1      -0.479   0.516  -1.146  0.00  0.00     0.048 A 
ATOM      6  C   UNL d   1      -1.351   0.130  -0.124  0.00  0.00    -0.025 A 
ENDROOT
BRANCH   6   7
ATOM      7  C   UNL d   1      -2.833   0.416  -0.213  0.00  0.00     0.308 C 
BRANCH   7   8
ATOM      8  N   UNL d   1      -3.596  -0.827  -0.225  0.00  0.00     0.091 N 
ATOM      9  H   UNL d   1      -3.388  -1.372   0.609  0.00  0.00     0.316 HD
BRANCH   8  10
ATOM     10  C   UNL d   1      -5.035  -0.585  -0.269  0.00  0.00     0.308 C 
BRANCH  10  11
ATOM     11  C   UNL d   1      -5.782  -1.899  -0.253  0.00  0.00    -0.030 A 
ATOM     12  C   UNL d   1      -6.686  -2.205   0.771  0.00  0.00     0.011 A 
ATOM     13  C   UNL d   1      -7.355  -3.434   0.775  0.00  0.00     0.037 A 
ATOM     14  C   UNL d   1      -7.145  -4.362  -0.247  0.00  0.00     0.068 A 
ATOM     15  C   UNL d   1      -6.237  -4.070  -1.262  0.00  0.00     0.037 A 
ATOM     16  C   UNL d   1      -5.563  -2.845  -1.265  0.00  0.00     0.011 A 
BRANCH  14  17
ATOM     17  O   UNL d   1      -7.851  -5.529  -0.129  0.00  0.00    -0.356 OA
ATOM     18  C   UNL d   1      -8.099  -6.221  -1.348  0.00  0.00     0.210 C 
ENDBRANCH  14  17
ENDBRANCH  10  11
ENDBRANCH   8  10
ENDBRANCH   7   8
ENDBRANCH   6   7
BRANCH   3  19
ATOM     19  O   UNL d   1       1.587   0.729  -2.152  0.00  0.00    -0.353 OA
ATOM     20  C   UNL d   1       2.712  -0.014  -2.599  0.00  0.00     0.210 C 
ENDBRANCH   3  19
BRANCH   2  21
ATOM     21  O   UNL d   1       1.129  -1.257   2.258  0.00  0.00    -0.353 OA
ATOM     22  C   UNL d   1       0.362  -1.168   3.452  0.00  0.00     0.210 C 
ENDBRANCH   2  21
BRANCH   1  23
ATOM     23  O   UNL d   1       2.766  -0.666   0.113  0.00  0.00    -0.351 OA
ATOM     24  C   UNL d   1       3.140  -2.020   0.374  0.00  0.00     0.210 C 
ENDBRANCH   1  23
TORSDOF 8
