REMARK  2 active torsions:
REMARK  status: ('A' for Active; 'I' for Inactive)
REMARK    1  A    between atoms: C_4  and  C_2 
REMARK    2  A    between atoms: C_6  and  C_5 
ROOT
ATOM      1  C   UNL d   1       1.262   2.175   1.434  0.00  0.00    -0.051 A 
ATOM      2  C   UNL d   1       3.565   3.171   2.765  0.00  0.00     0.009 A 
ATOM      3  C   UNL d   1       2.482   2.353   0.757  0.00  0.00     0.008 A 
ATOM      4  C   UNL d   1       1.228   2.524   2.793  0.00  0.00     0.008 A 
ATOM      5  C   UNL d   1       3.625   2.840   1.410  0.00  0.00     0.015 A 
ATOM      6  C   UNL d   1       2.362   3.002   3.455  0.00  0.00     0.015 A 
ENDROOT
BRANCH   1   7
ATOM      7  C   UNL d   1       0.015   1.688   0.727  0.00  0.00     0.060 A 
ATOM      8  C   UNL d   1      -0.702   0.412   1.128  0.00  0.00     0.121 A 
ATOM      9  C   UNL d   1       0.051   0.473  -0.169  0.00  0.00     0.055 A 
ATOM     10 CL   UNL d   1      -2.464   0.417   1.055  0.00  0.00    -0.101 Cl
ATOM     11 CL   UNL d   1      -0.064  -0.658   2.368  0.00  0.00    -0.101 Cl
ENDBRANCH   1   7
BRANCH   2  12
ATOM     12  C   UNL d   1       4.738   3.685   3.527  0.00  0.00     0.155 C 
ATOM     13  O   UNL d   1       4.797   3.498   4.739  0.00  0.00    -0.293 OA
ATOM     14  C   UNL d   1       5.822   4.454   2.814  0.00  0.00     0.096 C 
ENDBRANCH   2  12
TORSDOF 2
