REMARK  2 active torsions:
REMARK  status: ('A' for Active; 'I' for Inactive)
REMARK    1  A    between atoms: S_9  and  C_3 
REMARK    2  A    between atoms: C_10  and  S_9 
ROOT
ATOM      1  N   UNL d   1      -3.570   1.607  -3.399  0.00  0.00    -0.197 NA
ATOM      2  C   UNL d   1      -3.934   1.629  -2.296  0.00  0.00     0.069 C 
ATOM      3  C   UNL d   1      -4.417   1.661  -0.909  0.00  0.00     0.206 C 
ENDROOT
BRANCH   3   4
ATOM      4  S   UNL d   1      -4.091   0.128   0.006  0.00  0.00    -0.072 SA
BRANCH   4   5
ATOM      5  C   UNL d   1      -2.352   0.129   0.001  0.00  0.00     0.189 A 
ATOM      6  N   UNL d   1      -1.623   1.230  -0.016  0.00  0.00    -0.329 N 
ATOM      7  C   UNL d   1      -0.330   0.763  -0.012  0.00  0.00     0.068 A 
ATOM      8  HN  UNL d   1      -1.945   2.198  -0.029  1.00  0.00     0.168 HD
ATOM      9  C   UNL d   1      -0.332  -0.621   0.007  0.00  0.00     0.105 A 
ATOM     10  C   UNL d   1       0.897   1.438  -0.023  0.00  0.00     0.032 A 
ATOM     11  C   UNL d   1       0.806  -1.417   0.009  0.00  0.00     0.040 A 
ATOM     12  O   UNL d   1      -1.630  -1.034   0.024  0.00  0.00    -0.285 OA
ATOM     13  C   UNL d   1       2.026  -0.730  -0.002  0.00  0.00     0.003 A 
ATOM     14  C   UNL d   1       2.074   0.670  -0.015  0.00  0.00     0.002 A 
ENDBRANCH   4   5
ENDBRANCH   3   4
TORSDOF 2
