REMARK  2 active torsions:
REMARK  status: ('A' for Active; 'I' for Inactive)
REMARK    1  A    between atoms: C_7  and  C_5 
REMARK    2  A    between atoms: O_17  and  C_14 
ROOT
ATOM      1  N   UNL d   1      -1.625  -0.069   1.239  0.00  0.00    -0.340 N 
ATOM      2  HN  UNL d   1      -2.005  -0.127   2.184  1.00  0.00     0.167 HD
ATOM      3  N   UNL d   1      -0.212   0.009  -0.492  0.00  0.00    -0.317 N 
ATOM      4  C   UNL d   1      -0.356  -0.075   0.888  0.00  0.00     0.111 A 
ATOM      5  C   UNL d   1      -2.330   0.031   0.060  0.00  0.00     0.060 A 
ATOM      6  C   UNL d   1      -1.474   0.084  -1.020  0.00  0.00     0.128 A 
ATOM      7  C   UNL d   1       1.019  -0.004  -1.143  0.00  0.00     0.098 A 
ATOM      8  C   UNL d   1       0.837  -0.170   1.659  0.00  0.00     0.049 A 
ATOM      9  C   UNL d   1       2.144  -0.100  -0.411  0.00  0.00     0.018 A 
ATOM     10  C   UNL d   1       2.035  -0.186   1.039  0.00  0.00     0.005 A 
ENDROOT
BRANCH   5  11
ATOM     11  C   UNL d   1      -3.779   0.019  -0.008  0.00  0.00    -0.008 A 
ATOM     12  C   UNL d   1      -4.472   0.666  -1.040  0.00  0.00     0.016 A 
ATOM     13  C   UNL d   1      -5.871   0.617  -1.102  0.00  0.00     0.037 A 
ATOM     14  C   UNL d   1      -6.589  -0.082  -0.131  0.00  0.00     0.068 A 
ATOM     15  C   UNL d   1      -5.903  -0.733   0.894  0.00  0.00     0.037 A 
ATOM     16  C   UNL d   1      -4.509  -0.670   0.966  0.00  0.00     0.016 A 
BRANCH  14  17
ATOM     17  O   UNL d   1      -7.947  -0.233  -0.113  0.00  0.00    -0.356 OA
ATOM     18  C   UNL d   1      -8.693   0.839  -0.678  0.00  0.00     0.210 C 
ENDBRANCH  14  17
ENDBRANCH   5  11
TORSDOF 2
