REMARK  8 active torsions:
REMARK  status: ('A' for Active; 'I' for Inactive)
REMARK    1  A    between atoms: C_8  and  C_1 
REMARK    2  A    between atoms: C_11  and  N_6 
REMARK    3  A    between atoms: C_9  and  C_14 
REMARK    4  A    between atoms: C_13  and  C_11 
REMARK    5  A    between atoms: C_12  and  N_15 
REMARK    6  A    between atoms: N_16  and  C_12 
REMARK       I    between atoms: N_17  and  C_13 
REMARK    7  A    between atoms: N_15  and  N_17 
REMARK    8  A    between atoms: C_27  and  N_16 
ROOT
ATOM      1  C   UNL d   1       3.075   0.690  -0.190  0.00  0.00     0.236 C 
ATOM      2  N   UNL d   1       3.317  -0.465  -0.925  0.00  0.00    -0.170 NA
ATOM      3  O   UNL d   1       4.047   1.353   0.186  0.00  0.00    -0.276 OA
ATOM      4  H   UNL d   1       4.302  -0.708  -0.906  0.00  0.00     0.156 HD
ENDROOT
BRANCH   1   5
ATOM      5  C   UNL d   1       1.659   1.177   0.019  0.00  0.00     0.265 C 
BRANCH   5   6
ATOM      6  N   UNL d   1       0.936   0.501   1.079  0.00  0.00    -0.208 N 
ATOM      7  N   UNL d   1       1.212  -0.767   1.435  0.00  0.00    -0.268 N 
ATOM      8  C   UNL d   1       0.092  -1.103   2.094  0.00  0.00     0.146 A 
ATOM      9  HN  UNL d   1       2.048  -1.324   1.253  1.00  0.00     0.190 HD
ATOM     10  N   UNL d   1      -0.818  -0.074   2.130  0.00  0.00    -0.266 N 
ATOM     11  N   UNL d   1      -0.269   0.949   1.483  0.00  0.00    -0.002 NA
ATOM     12  HN  UNL d   1      -1.739  -0.092   2.569  1.00  0.00     0.186 HD
BRANCH   8  13
ATOM     13  C   UNL d   1      -0.212  -2.479   2.457  0.00  0.00     0.034 A 
ATOM     14  C   UNL d   1       0.772  -3.378   2.920  0.00  0.00     0.069 A 
ATOM     15  C   UNL d   1       0.465  -4.745   3.018  0.00  0.00     0.056 A 
ATOM     16 CL   UNL d   1       2.351  -2.819   3.399  0.00  0.00    -0.082 Cl
ATOM     17 CL   UNL d   1       1.633  -5.929   3.502  0.00  0.00    -0.083 Cl
ATOM     18  C   UNL d   1      -0.813  -5.210   2.697  0.00  0.00     0.026 A 
ATOM     19  C   UNL d   1      -1.805  -4.316   2.302  0.00  0.00     0.003 A 
ATOM     20  C   UNL d   1      -1.507  -2.959   2.183  0.00  0.00     0.017 A 
ENDBRANCH   8  13
ENDBRANCH   5   6
ENDBRANCH   1   5
BRANCH   2  21
ATOM     21  N   UNL d   1       2.462  -1.562  -0.773  0.00  0.00    -0.291 N 
ATOM     22  H   UNL d   1       2.102  -1.749   0.172  0.00  0.00     0.183 HD
BRANCH  21  23
ATOM     23  C   UNL d   1       2.293  -2.551  -1.711  0.00  0.00     0.187 C 
ATOM     24  S   UNL d   1       1.502  -3.945  -1.222  0.00  0.00    -0.040 SA
BRANCH  23  25
ATOM     25  N   UNL d   1       2.817  -2.282  -2.953  0.00  0.00    -0.332 N 
ATOM     26  H   UNL d   1       3.678  -1.751  -2.953  0.00  0.00     0.168 HD
BRANCH  25  27
ATOM     27  C   UNL d   1       2.318  -2.682  -4.212  0.00  0.00     0.034 A 
ATOM     28  C   UNL d   1       0.972  -2.998  -4.407  0.00  0.00     0.030 A 
ATOM     29  C   UNL d   1       0.482  -3.297  -5.680  0.00  0.00     0.018 A 
ATOM     30  C   UNL d   1       1.331  -3.282  -6.790  0.00  0.00     0.048 A 
ATOM     31  C   UNL d   1       2.685  -2.964  -6.597  0.00  0.00     0.018 A 
ATOM     32  C   UNL d   1       3.171  -2.652  -5.319  0.00  0.00     0.030 A 
BRANCH  30  33
ATOM     33  C   UNL d   1       0.797  -3.578  -8.171  0.00  0.00     0.417 C 
ATOM     34  F   UNL d   1      -0.538  -3.852  -8.190  0.00  0.00    -0.166 F 
ATOM     35  F   UNL d   1       0.973  -2.534  -9.029  0.00  0.00    -0.166 F 
ATOM     36  F   UNL d   1       1.406  -4.648  -8.751  0.00  0.00    -0.166 F 
ENDBRANCH  30  33
ENDBRANCH  25  27
ENDBRANCH  23  25
ENDBRANCH  21  23
ENDBRANCH   2  21
TORSDOF 8
