REMARK  1 active torsions:
REMARK  status: ('A' for Active; 'I' for Inactive)
REMARK    1  A    between atoms: C_2  and  N_1 
ROOT
ATOM      1  N   UNL d   1       0.660   1.097  -0.432  0.00  0.00    -0.251 N 
ATOM      2  C   UNL d   1       0.680   1.045   0.974  0.00  0.00     0.240 C 
ATOM      3  C   UNL d   1      -0.209   0.280  -1.177  0.00  0.00     0.240 C 
ATOM      4  S   UNL d   1      -0.736  -1.342   0.947  0.00  0.00    -0.150 SA
ATOM      5  O   UNL d   1      -0.867   0.669  -2.145  0.00  0.00    -0.272 OA
ATOM      6  O   UNL d   1       0.875   2.004   1.723  0.00  0.00    -0.272 OA
ATOM      7  C   UNL d   1       0.596  -0.335   1.605  0.00  0.00     0.178 C 
ATOM      8  C   UNL d   1      -0.263  -1.175  -0.774  0.00  0.00     0.178 C 
ENDROOT
BRANCH   1   9
ATOM      9  C   UNL d   1       1.153   2.270  -1.126  0.00  0.00     0.054 A 
ATOM     10  C   UNL d   1       1.019   3.559  -0.590  0.00  0.00     0.073 A 
ATOM     11  C   UNL d   1       1.500   4.671  -1.278  0.00  0.00     0.118 A 
ATOM     12  F   UNL d   1       1.346   5.890  -0.746  0.00  0.00    -0.206 F 
ATOM     13  C   UNL d   1       2.122   4.541  -2.507  0.00  0.00     0.043 A 
ATOM     14  C   UNL d   1       2.280   3.278  -3.055  0.00  0.00     0.012 A 
ATOM     15  C   UNL d   1       1.825   2.131  -2.372  0.00  0.00    -0.034 A 
ATOM     16  C   UNL d   1       2.115   0.807  -3.039  0.00  0.00     0.050 C 
ENDBRANCH   1   9
TORSDOF 1
