REMARK  8 active torsions:
REMARK  status: ('A' for Active; 'I' for Inactive)
REMARK    1  A    between atoms: C_8  and  N_1 
REMARK       I    between atoms: C_2  and  N_3 
REMARK    2  A    between atoms: C_9  and  C_2 
REMARK    3  A    between atoms: N_3  and  C_7 
REMARK    4  A    between atoms: C_16  and  C_8 
REMARK    5  A    between atoms: S_11  and  C_17 
REMARK    6  A    between atoms: C_12  and  S_11 
REMARK    7  A    between atoms: C_17  and  C_16 
REMARK    8  A    between atoms: O_22  and  C_16 
ROOT
ATOM      1  C   UNL d   1       1.317  -1.295   4.532  0.00  0.00     0.051 C 
ATOM      2  C   UNL d   1       1.169  -1.672   3.179  0.00  0.00     0.027 C 
ATOM      3  C   UNL d   1       2.569  -1.427   5.145  0.00  0.00     0.031 C 
ATOM      4  C   UNL d   1       2.320  -1.965   2.431  0.00  0.00     0.021 C 
ATOM      5  C   UNL d   1       3.688  -1.807   4.407  0.00  0.00     0.002 C 
ATOM      6  C   UNL d   1       3.572  -2.029   3.040  0.00  0.00     0.002 C 
ENDROOT
BRANCH   2   7
ATOM      7  S   UNL d   1      -0.446  -1.741   2.378  0.00  0.00    -0.125 SA
BRANCH   7   8
ATOM      8  C   UNL d   1      -0.296  -3.357   1.482  0.00  0.00     0.113 C 
BRANCH   8   9
ATOM      9  C   UNL d   1      -1.611  -3.846   0.844  0.00  0.00     0.146 C 
BRANCH   9  10
ATOM     10  C   UNL d   1      -2.120  -2.904  -0.257  0.00  0.00     0.161 C 
BRANCH  10  11
ATOM     11  N   UNL d   1      -3.325  -3.366  -0.937  0.00  0.00    -0.354 N 
ATOM     12  C   UNL d   1      -4.591  -3.164  -0.435  0.00  0.00     0.092 A 
ATOM     13  C   UNL d   1      -5.497  -3.517  -1.404  0.00  0.00     0.031 A 
ATOM     14  C   UNL d   1      -4.767  -3.957  -2.537  0.00  0.00    -0.008 A 
ATOM     15  C   UNL d   1      -3.405  -3.891  -2.214  0.00  0.00     0.044 A 
ATOM     16  C   UNL d   1      -5.151  -4.404  -3.817  0.00  0.00     0.014 A 
ATOM     17  C   UNL d   1      -2.416  -4.293  -3.127  0.00  0.00     0.030 A 
ATOM     18  C   UNL d   1      -2.826  -4.740  -4.391  0.00  0.00     0.002 A 
ATOM     19  C   UNL d   1      -4.173  -4.787  -4.737  0.00  0.00     0.001 A 
ENDBRANCH  10  11
ENDBRANCH   9  10
BRANCH   9  20
ATOM     20  O   UNL d   1      -2.579  -4.041   1.879  0.00  0.00    -0.393 OA
ATOM     21  H   UNL d   1      -2.686  -3.198   2.345  0.00  0.00     0.210 HD
ENDBRANCH   9  20
ENDBRANCH   8   9
ENDBRANCH   7   8
ENDBRANCH   2   7
BRANCH   1  22
ATOM     22  N   UNL d   1       0.210  -0.746   5.226  0.00  0.00    -0.322 N 
ATOM     23  C   UNL d   1       0.311   0.155   6.276  0.00  0.00     0.256 C 
ATOM     24  O   UNL d   1       1.329   0.543   6.833  0.00  0.00    -0.267 OA
ATOM     25  H   UNL d   1      -0.665  -0.766   4.714  0.00  0.00     0.169 HD
BRANCH  23  26
ATOM     26  C   UNL d   1      -0.972   0.786   6.659  0.00  0.00     0.032 A 
ATOM     27  C   UNL d   1      -2.103   0.003   6.923  0.00  0.00     0.018 A 
ATOM     28  C   UNL d   1      -3.310   0.629   7.241  0.00  0.00     0.025 A 
ATOM     29  C   UNL d   1      -3.382   2.023   7.288  0.00  0.00     0.034 A 
ATOM     30  C   UNL d   1      -2.250   2.802   7.046  0.00  0.00     0.025 A 
ATOM     31 CL   UNL d   1      -4.883   2.785   7.643  0.00  0.00    -0.084 Cl
ATOM     32  C   UNL d   1      -1.039   2.182   6.739  0.00  0.00     0.018 A 
ENDBRANCH  23  26
ENDBRANCH   1  22
TORSDOF 8
