REMARK  4 active torsions:
REMARK  status: ('A' for Active; 'I' for Inactive)
REMARK    1  A    between atoms: N_2  and  C_1 
REMARK    2  A    between atoms: C_7  and  C_1 
REMARK    3  A    between atoms: C_8  and  N_3 
REMARK    4  A    between atoms: C_11  and  C_8 
ROOT
ATOM      1  N   UNL d   1       0.503  -1.382  -0.253  0.00  0.00    -0.368 N 
ATOM      2  N   UNL d   1      -0.467  -4.159  -0.212  0.00  0.00     0.095 N 
ATOM      3  C   UNL d   1       0.739  -2.230   0.918  0.00  0.00     0.154 C 
ATOM      4  C   UNL d   1      -0.690  -1.741  -1.026  0.00  0.00     0.154 C 
ATOM      5  C   UNL d   1       0.755  -3.710   0.497  0.00  0.00     0.292 C 
ATOM      6  C   UNL d   1      -0.726  -3.250  -1.356  0.00  0.00     0.292 C 
ENDROOT
BRANCH   1   7
ATOM      7  C   UNL d   1       0.957  -0.062  -0.289  0.00  0.00     0.109 C 
ATOM      8  S   UNL d   1       0.700   1.013   0.982  0.00  0.00    -0.060 SA
BRANCH   7   9
ATOM      9  C   UNL d   1       1.771   0.271  -1.510  0.00  0.00     0.002 A 
ATOM     10  C   UNL d   1       1.886   1.581  -1.995  0.00  0.00     0.014 A 
ATOM     11  C   UNL d   1       2.713   1.857  -3.089  0.00  0.00     0.001 A 
ATOM     12  C   UNL d   1       3.428   0.833  -3.708  0.00  0.00     0.000 A 
ATOM     13  C   UNL d   1       3.314  -0.474  -3.242  0.00  0.00     0.001 A 
ATOM     14  C   UNL d   1       2.491  -0.752  -2.149  0.00  0.00     0.014 A 
ENDBRANCH   7   9
ENDBRANCH   1   7
BRANCH   2  15
ATOM     15  C   UNL d   1      -1.642  -4.239   0.673  0.00  0.00     0.311 C 
BRANCH  15  16
ATOM     16  C   UNL d   1      -1.482  -5.200   1.833  0.00  0.00    -0.030 A 
ATOM     17  C   UNL d   1      -1.518  -4.729   3.155  0.00  0.00     0.009 A 
ATOM     18  C   UNL d   1      -1.390  -5.613   4.227  0.00  0.00     0.001 A 
ATOM     19  C   UNL d   1      -1.226  -6.977   3.992  0.00  0.00     0.000 A 
ATOM     20  C   UNL d   1      -1.180  -7.457   2.684  0.00  0.00     0.001 A 
ATOM     21  C   UNL d   1      -1.305  -6.573   1.610  0.00  0.00     0.009 A 
ENDBRANCH  15  16
ENDBRANCH   2  15
TORSDOF 4
