REMARK  4 active torsions:
REMARK  status: ('A' for Active; 'I' for Inactive)
REMARK    1  A    between atoms: N_2  and  C_1 
REMARK       I    between atoms: C_3  and  N_2 
REMARK       I    between atoms: N_9  and  C_3 
REMARK    2  A    between atoms: C_8  and  N_9 
REMARK    3  A    between atoms: O_18  and  C_14 
REMARK    4  A    between atoms: O_19  and  C_15 
ROOT
ATOM      1  N   UNL d   1      -1.942  -3.940   1.817  0.00  0.00    -0.293 N 
ATOM      2  C   UNL d   1      -2.133  -2.571   1.857  0.00  0.00     0.326 C 
ATOM      3  N   UNL d   1      -2.239  -2.071   0.557  0.00  0.00    -0.308 N 
ATOM      4  O   UNL d   1      -2.166  -1.898   2.879  0.00  0.00    -0.247 OA
ATOM      5  H   UNL d   1      -2.390  -4.410   1.040  0.00  0.00     0.172 HD
ATOM      6  H   UNL d   1      -1.913  -2.700  -0.164  0.00  0.00     0.170 HD
ENDROOT
BRANCH   3   7
ATOM      7  C   UNL d   1      -2.195  -0.692   0.238  0.00  0.00     0.041 A 
ATOM      8  C   UNL d   1      -1.545  -0.310  -0.945  0.00  0.00     0.066 A 
ATOM      9  C   UNL d   1      -1.294   1.040  -1.195  0.00  0.00     0.073 A 
ATOM     10  C   UNL d   1      -1.778   2.011  -0.311  0.00  0.00     0.073 A 
ATOM     11  C   UNL d   1      -2.528   1.645   0.804  0.00  0.00     0.073 A 
ATOM     12  C   UNL d   1      -2.719   0.291   1.081  0.00  0.00     0.066 A 
BRANCH   9  13
ATOM     13  O   UNL d   1      -0.567   1.551  -2.236  0.00  0.00    -0.356 OA
ATOM     14  C   UNL d   1      -0.017   0.640  -3.177  0.00  0.00     0.210 C 
ENDBRANCH   9  13
BRANCH  11  15
ATOM     15  O   UNL d   1      -3.118   2.499   1.695  0.00  0.00    -0.356 OA
ATOM     16  C   UNL d   1      -2.914   3.893   1.508  0.00  0.00     0.210 C 
ENDBRANCH  11  15
ENDBRANCH   3   7
BRANCH   1  17
ATOM     17  C   UNL d   1      -1.536  -4.763   2.858  0.00  0.00     0.126 A 
ATOM     18  N   UNL d   1      -0.861  -4.498   4.037  0.00  0.00    -0.281 N 
ATOM     19  N   UNL d   1      -0.657  -5.620   4.781  0.00  0.00    -0.308 N 
ATOM     20  C   UNL d   1      -0.185  -3.326   4.535  0.00  0.00     0.179 C 
ATOM     21  C   UNL d   1      -1.169  -6.607   4.051  0.00  0.00     0.111 A 
ATOM     22  HN  UNL d   1      -0.211  -5.688   5.696  1.00  0.00     0.186 HD
ATOM     23  C   UNL d   1      -1.704  -6.139   2.842  0.00  0.00     0.068 A 
ENDBRANCH   1  17
TORSDOF 4
