REMARK  8 active torsions:
REMARK  status: ('A' for Active; 'I' for Inactive)
REMARK    1  A    between atoms: N_2  and  C_1 
REMARK    2  A    between atoms: C_3  and  C_1 
REMARK    3  A    between atoms: N_4  and  C_1 
REMARK    4  A    between atoms: C_10  and  C_1 
REMARK       I    between atoms: C_6  and  N_2 
REMARK    5  A    between atoms: C_5  and  N_4 
REMARK    6  A    between atoms: C_13  and  C_6 
REMARK    7  A    between atoms: O_20  and  C_10 
REMARK    8  A    between atoms: C_26  and  O_20 
ROOT
ATOM      1  C   UNL d   1       1.032   0.147  -0.029  0.00  0.00     0.298 C 
ENDROOT
BRANCH   1   2
ATOM      2  N   UNL d   1       0.756  -0.284   1.339  0.00  0.00    -0.315 N 
ATOM      3  C   UNL d   1       1.045   0.469   2.443  0.00  0.00     0.254 C 
ATOM      4  O   UNL d   1       1.544   1.586   2.358  0.00  0.00    -0.268 OA
ATOM      5  H   UNL d   1       0.687  -1.283   1.446  0.00  0.00     0.166 HD
BRANCH   3   6
ATOM      6  C   UNL d   1       0.758  -0.168   3.766  0.00  0.00     0.032 A 
ATOM      7  C   UNL d   1       1.345   0.371   4.920  0.00  0.00     0.023 A 
ATOM      8  C   UNL d   1       1.119  -0.212   6.176  0.00  0.00    -0.061 A 
ATOM      9  C   UNL d   1       1.759   0.346   7.413  0.00  0.00     0.048 C 
ATOM     10  C   UNL d   1       0.269  -1.320   6.276  0.00  0.00     0.007 A 
ATOM     11  C   UNL d   1      -0.335  -1.849   5.137  0.00  0.00     0.002 A 
ATOM     12  C   UNL d   1      -0.095  -1.277   3.887  0.00  0.00     0.017 A 
ENDBRANCH   3   6
ENDBRANCH   1   2
BRANCH   1  13
ATOM     13  C   UNL d   1       0.531   1.592  -0.395  0.00  0.00     0.442 C 
ATOM     14  F   UNL d   1      -0.386   2.073   0.481  0.00  0.00    -0.166 F 
ATOM     15  F   UNL d   1       1.513   2.513  -0.505  0.00  0.00    -0.166 F 
ATOM     16  F   UNL d   1      -0.106   1.564  -1.606  0.00  0.00    -0.166 F 
ENDBRANCH   1  13
BRANCH   1  17
ATOM     17  N   UNL d   1       0.331  -0.901  -0.876  0.00  0.00    -0.333 N 
ATOM     18  H   UNL d   1       0.200  -0.531  -1.819  0.00  0.00     0.164 HD
BRANCH  17  19
ATOM     19  C   UNL d   1       0.672  -2.212  -0.780  0.00  0.00     0.126 A 
ATOM     20  N   UNL d   1       1.089  -2.837   0.327  0.00  0.00    -0.245 N 
ATOM     21  O   UNL d   1       1.263  -4.160  -0.017  0.00  0.00    -0.241 OA
ATOM     22  HN  UNL d   1       1.246  -2.417   1.243  1.00  0.00     0.196 HD
ATOM     23  C   UNL d   1       0.956  -4.327  -1.329  0.00  0.00     0.076 A 
ATOM     24  C   UNL d   1       0.590  -3.115  -1.863  0.00  0.00     0.084 A 
ATOM     25  C   UNL d   1       1.068  -5.700  -1.852  0.00  0.00     0.079 C 
ENDBRANCH  17  19
ENDBRANCH   1  17
BRANCH   1  26
ATOM     26  C   UNL d   1       2.518   0.148  -0.471  0.00  0.00     0.318 C 
ATOM     27  O   UNL d   1       2.873   0.274  -1.639  0.00  0.00    -0.260 OA
BRANCH  26  28
ATOM     28  O   UNL d   1       3.371  -0.096   0.567  0.00  0.00    -0.318 OA
BRANCH  28  29
ATOM     29  C   UNL d   1       4.733  -0.357   0.222  0.00  0.00     0.174 C 
ATOM     30  C   UNL d   1       4.889  -1.847  -0.023  0.00  0.00     0.034 C 
ENDBRANCH  28  29
ENDBRANCH  26  28
ENDBRANCH   1  26
TORSDOF 8
