REMARK  4 active torsions:
REMARK  status: ('A' for Active; 'I' for Inactive)
REMARK    1  A    between atoms: C_2  and  C_1 
REMARK       I    between atoms: N_3  and  C_2 
REMARK    2  A    between atoms: C_9  and  N_3 
REMARK    3  A    between atoms: O_19  and  C_8 
REMARK    4  A    between atoms: C_12  and  C_9 
ROOT
ATOM      1  C   UNL d   1       0.295  -2.506   0.007  0.00  0.00     0.253 C 
ATOM      2  N   UNL d   1       1.033  -3.663   0.092  0.00  0.00    -0.353 N 
ATOM      3  O   UNL d   1      -0.933  -2.503  -0.028  0.00  0.00    -0.268 OA
ATOM      4  H   UNL d   1       2.043  -3.615   0.096  0.00  0.00     0.163 HD
ENDROOT
BRANCH   1   5
ATOM      5  C   UNL d   1       1.024  -1.203   0.009  0.00  0.00     0.052 A 
ATOM      6  C   UNL d   1       2.282  -0.967  -0.565  0.00  0.00     0.026 A 
ATOM      7  C   UNL d   1       2.838   0.318  -0.516  0.00  0.00     0.023 A 
ATOM      8 BR   UNL d   1       3.299  -2.274  -1.498  0.00  0.00    -0.050 Br
ATOM      9  C   UNL d   1       2.144   1.368   0.087  0.00  0.00     0.038 A 
ATOM     10  C   UNL d   1       0.887   1.155   0.648  0.00  0.00     0.069 A 
ATOM     11  C   UNL d   1       0.333  -0.125   0.607  0.00  0.00     0.055 A 
BRANCH  10  12
ATOM     12  O   UNL d   1       0.310   2.268   1.192  0.00  0.00    -0.356 OA
ATOM     13  C   UNL d   1      -0.981   2.112   1.770  0.00  0.00     0.210 C 
ENDBRANCH  10  12
ENDBRANCH   1   5
BRANCH   2  14
ATOM     14  C   UNL d   1       0.425  -4.971  -0.029  0.00  0.00     0.161 C 
BRANCH  14  15
ATOM     15  C   UNL d   1       0.772  -5.863   1.137  0.00  0.00    -0.040 A 
ATOM     16  C   UNL d   1       0.367  -5.515   2.436  0.00  0.00     0.010 A 
ATOM     17  C   UNL d   1       0.635  -6.359   3.515  0.00  0.00     0.024 A 
ATOM     18  C   UNL d   1       1.306  -7.561   3.303  0.00  0.00     0.034 A 
ATOM     19  C   UNL d   1       1.716  -7.922   2.022  0.00  0.00     0.024 A 
ATOM     20 CL   UNL d   1       1.622  -8.611   4.630  0.00  0.00    -0.084 Cl
ATOM     21  C   UNL d   1       1.450  -7.075   0.941  0.00  0.00     0.010 A 
ENDBRANCH  14  15
ENDBRANCH   2  14
TORSDOF 4
