REMARK  8 active torsions:
REMARK  status: ('A' for Active; 'I' for Inactive)
REMARK    1  A    between atoms: N_7  and  C_1 
REMARK    2  A    between atoms: C_8  and  N_2 
REMARK    3  A    between atoms: C_14  and  C_6 
REMARK       I    between atoms: C_9  and  N_7 
REMARK       I    between atoms: N_19  and  C_9 
REMARK    4  A    between atoms: C_10  and  C_13 
REMARK    5  A    between atoms: C_11  and  C_12 
REMARK    6  A    between atoms: C_15  and  O_21 
REMARK    7  A    between atoms: C_35  and  N_19 
REMARK    8  A    between atoms: O_21  and  C_36 
ROOT
ATOM      1  C   UNL d   1      -0.235  -0.951   0.517  0.00  0.00     0.133 C 
ATOM      2  N   UNL d   1       1.063  -0.532   0.211  0.00  0.00    -0.239 N 
ATOM      3  N   UNL d   1       1.191   0.817   0.427  0.00  0.00    -0.289 N 
ATOM      4  HN  UNL d   1       1.978   1.416   0.177  1.00  0.00     0.188 HD
ATOM      5  C   UNL d   1      -0.833   0.100   1.177  0.00  0.00     0.084 C 
ATOM      6  C   UNL d   1       0.058   1.173   1.037  0.00  0.00     0.086 C 
ENDROOT
BRANCH   1   7
ATOM      7  N   UNL d   1      -0.843  -2.168   0.256  0.00  0.00    -0.293 N 
ATOM      8  C   UNL d   1      -0.834  -2.711  -1.019  0.00  0.00     0.326 C 
ATOM      9  N   UNL d   1      -1.641  -3.822  -1.149  0.00  0.00    -0.309 N 
ATOM     10  O   UNL d   1      -0.278  -2.219  -1.995  0.00  0.00    -0.247 OA
ATOM     11  H   UNL d   1      -1.993  -3.963  -2.089  0.00  0.00     0.170 HD
ATOM     12  H   UNL d   1      -1.734  -2.315   0.718  0.00  0.00     0.172 HD
BRANCH   9  13
ATOM     13  C   UNL d   1      -2.088  -4.668  -0.121  0.00  0.00     0.036 A 
ATOM     14  C   UNL d   1      -3.374  -5.199  -0.187  0.00  0.00     0.032 A 
ATOM     15  C   UNL d   1      -3.866  -5.982   0.868  0.00  0.00     0.039 A 
ATOM     16  C   UNL d   1      -3.050  -6.300   1.955  0.00  0.00     0.078 A 
ATOM     17  C   UNL d   1      -1.744  -5.808   1.986  0.00  0.00     0.039 A 
ATOM     18  C   UNL d   1      -1.269  -4.993   0.961  0.00  0.00     0.032 A 
BRANCH  16  19
ATOM     19  O   UNL d   1      -3.367  -7.080   3.026  0.00  0.00    -0.255 OA
BRANCH  19  20
ATOM     20  C   UNL d   1      -4.688  -7.579   3.131  0.00  0.00     0.530 C 
ATOM     21  F   UNL d   1      -5.051  -8.262   2.025  0.00  0.00    -0.144 F 
ATOM     22  F   UNL d   1      -4.745  -8.425   4.182  0.00  0.00    -0.144 F 
ATOM     23  F   UNL d   1      -5.561  -6.573   3.348  0.00  0.00    -0.144 F 
ENDBRANCH  19  20
ENDBRANCH  16  19
ENDBRANCH   9  13
ENDBRANCH   1   7
BRANCH   2  24
ATOM     24  C   UNL d   1       2.237  -1.293  -0.102  0.00  0.00     0.060 A 
ATOM     25  C   UNL d   1       2.259  -2.691  -0.022  0.00  0.00     0.047 A 
ATOM     26  C   UNL d   1       3.423  -3.424  -0.308  0.00  0.00     0.051 A 
ATOM     27  C   UNL d   1       4.596  -2.729  -0.636  0.00  0.00     0.032 A 
ATOM     28  C   UNL d   1       4.614  -1.326  -0.685  0.00  0.00     0.051 A 
ATOM     29  C   UNL d   1       3.427  -0.620  -0.426  0.00  0.00     0.047 A 
BRANCH  26  30
ATOM     30  C   UNL d   1       3.424  -4.934  -0.250  0.00  0.00     0.417 C 
ATOM     31  F   UNL d   1       2.202  -5.466   0.036  0.00  0.00    -0.166 F 
ATOM     32  F   UNL d   1       3.816  -5.503  -1.422  0.00  0.00    -0.166 F 
ATOM     33  F   UNL d   1       4.269  -5.414   0.703  0.00  0.00    -0.166 F 
ENDBRANCH  26  30
BRANCH  28  34
ATOM     34  C   UNL d   1       5.902  -0.600  -0.993  0.00  0.00     0.417 C 
ATOM     35  F   UNL d   1       5.775   0.754  -1.048  0.00  0.00    -0.166 F 
ATOM     36  F   UNL d   1       6.864  -0.848  -0.061  0.00  0.00    -0.166 F 
ATOM     37  F   UNL d   1       6.437  -0.976  -2.188  0.00  0.00    -0.166 F 
ENDBRANCH  28  34
ENDBRANCH   2  24
BRANCH   6  38
ATOM     38  C   UNL d   1      -0.232   2.563   1.482  0.00  0.00     0.103 A 
ATOM     39  O   UNL d   1      -1.396   2.952   2.089  0.00  0.00    -0.320 OA
ATOM     40  C   UNL d   1      -1.304   4.284   2.326  0.00  0.00     0.142 A 
ATOM     41  C   UNL d   1      -0.095   4.769   1.887  0.00  0.00     0.027 A 
ATOM     42  C   UNL d   1       0.599   3.660   1.346  0.00  0.00     0.041 A 
ENDBRANCH   6  38
TORSDOF 8
