REMARK  6 active torsions:
REMARK  status: ('A' for Active; 'I' for Inactive)
REMARK    1  A    between atoms: C_4  and  C_1 
REMARK    2  A    between atoms: C_9  and  C_1 
REMARK    3  A    between atoms: N_5  and  N_2 
REMARK    4  A    between atoms: O_13  and  C_4 
REMARK       I    between atoms: C_6  and  N_5 
REMARK    5  A    between atoms: C_8  and  C_6 
REMARK    6  A    between atoms: C_7  and  C_8 
ROOT
ATOM      1  C   UNL d   1       1.264  -0.040   0.773  0.00  0.00     0.132 C 
ATOM      2  N   UNL d   1       0.480  -1.084   0.855  0.00  0.00    -0.291 N 
ATOM      3  HN  UNL d   1      -0.530  -0.944   0.876  1.00  0.00     0.187 HD
ENDROOT
BRANCH   2   4
ATOM      4  N   UNL d   1       0.973  -2.349   0.913  0.00  0.00    -0.269 N 
ATOM      5  C   UNL d   1       0.127  -3.401   0.580  0.00  0.00     0.240 C 
ATOM      6  O   UNL d   1      -1.037  -3.261   0.212  0.00  0.00    -0.272 OA
ATOM      7  H   UNL d   1       1.940  -2.514   1.182  0.00  0.00     0.190 HD
BRANCH   5   8
ATOM      8  C   UNL d   1       0.776  -4.770   0.663  0.00  0.00     0.144 C 
BRANCH   8   9
ATOM      9  C   UNL d   1       1.573  -5.098  -0.579  0.00  0.00    -0.028 A 
ATOM     10  C   UNL d   1       2.961  -4.914  -0.667  0.00  0.00     0.040 A 
ATOM     11 CL   UNL d   1       3.895  -4.363   0.678  0.00  0.00    -0.084 Cl
ATOM     12  C   UNL d   1       3.639  -5.170  -1.864  0.00  0.00     0.024 A 
ATOM     13  C   UNL d   1       2.941  -5.620  -2.984  0.00  0.00     0.002 A 
ATOM     14  C   UNL d   1       1.566  -5.820  -2.909  0.00  0.00     0.001 A 
ATOM     15  C   UNL d   1       0.887  -5.555  -1.717  0.00  0.00     0.009 A 
ENDBRANCH   8   9
ENDBRANCH   5   8
ENDBRANCH   2   4
BRANCH   1  16
ATOM     16  C   UNL d   1       0.485   1.297   0.818  0.00  0.00     0.195 C 
ATOM     17  O   UNL d   1       0.994   2.395   0.751  0.00  0.00    -0.645 OA
BRANCH  16  18
ATOM     18  O   UNL d   1      -0.836   1.065   0.949  0.00  0.00    -0.772 OA
ATOM     19  H   UNL d   1      -0.984   0.086   0.944  0.00  0.00     0.167 HD
ENDBRANCH  16  18
ENDBRANCH   1  16
BRANCH   1  20
ATOM     20  C   UNL d   1       2.736  -0.001   0.574  0.00  0.00    -0.001 A 
ATOM     21  C   UNL d   1       3.351  -0.914  -0.294  0.00  0.00     0.014 A 
ATOM     22  C   UNL d   1       4.730  -0.870  -0.508  0.00  0.00     0.001 A 
ATOM     23  C   UNL d   1       5.501   0.112   0.109  0.00  0.00     0.000 A 
ATOM     24  C   UNL d   1       4.896   1.042   0.952  0.00  0.00     0.001 A 
ATOM     25  C   UNL d   1       3.522   0.978   1.197  0.00  0.00     0.014 A 
ENDBRANCH   1  20
TORSDOF 6
