REMARK  5 active torsions:
REMARK  status: ('A' for Active; 'I' for Inactive)
REMARK    1  A    between atoms: S_3  and  C_1 
REMARK    2  A    between atoms: N_4  and  C_2 
REMARK    3  A    between atoms: C_10  and  S_3 
REMARK       I    between atoms: C_9  and  N_4 
REMARK    4  A    between atoms: S_15  and  C_5 
REMARK       I    between atoms: N_13  and  C_9 
REMARK    5  A    between atoms: C_19  and  N_13 
ROOT
ATOM      1  C   UNL d   1       0.985   1.160  -0.308  0.00  0.00     0.144 A 
ATOM      2  C   UNL d   1       1.062  -0.217  -0.427  0.00  0.00     0.149 A 
ATOM      3  C   UNL d   1      -0.387   1.453  -0.445  0.00  0.00     0.110 A 
ATOM      4  N   UNL d   1      -0.233  -0.648  -0.542  0.00  0.00    -0.283 N 
ATOM      5  N   UNL d   1      -1.124   0.344  -0.559  0.00  0.00    -0.291 N 
ATOM      6  HN  UNL d   1      -2.139   0.272  -0.640  1.00  0.00     0.187 HD
ATOM      7  H   UNL d   1      -0.552  -1.607  -0.647  0.00  0.00     0.188 HD
ENDROOT
BRANCH   2   8
ATOM      8  N   UNL d   1       2.204  -1.016  -0.482  0.00  0.00    -0.292 N 
ATOM      9  C   UNL d   1       2.126  -2.317  -1.082  0.00  0.00     0.326 C 
ATOM     10  N   UNL d   1       3.372  -2.807  -1.340  0.00  0.00    -0.309 N 
ATOM     11  O   UNL d   1       1.032  -2.761  -1.381  0.00  0.00    -0.247 OA
ATOM     12  H   UNL d   1       4.171  -2.285  -1.013  0.00  0.00     0.170 HD
ATOM     13  H   UNL d   1       3.090  -0.585  -0.222  0.00  0.00     0.172 HD
BRANCH  10  14
ATOM     14  C   UNL d   1       3.653  -3.821  -2.290  0.00  0.00     0.036 A 
ATOM     15  C   UNL d   1       4.959  -3.875  -2.792  0.00  0.00     0.029 A 
ATOM     16  C   UNL d   1       5.282  -4.741  -3.840  0.00  0.00     0.002 A 
ATOM     17  C   UNL d   1       4.315  -5.591  -4.368  0.00  0.00     0.000 A 
ATOM     18  C   UNL d   1       3.029  -5.587  -3.835  0.00  0.00     0.002 A 
ATOM     19  C   UNL d   1       2.697  -4.704  -2.801  0.00  0.00     0.029 A 
ENDBRANCH  10  14
ENDBRANCH   2   8
BRANCH   1  20
ATOM     20  S   UNL d   1       2.297   2.229  -0.080  0.00  0.00     0.213 S 
ATOM     21  O   UNL d   1       1.887   3.134   0.964  0.00  0.00    -0.217 OA
ATOM     22  O   UNL d   1       3.413   1.310   0.109  0.00  0.00    -0.217 OA
BRANCH  20  23
ATOM     23  C   UNL d   1       2.612   3.125  -1.578  0.00  0.00     0.064 A 
ATOM     24  C   UNL d   1       2.294   4.485  -1.674  0.00  0.00     0.025 A 
ATOM     25  C   UNL d   1       2.684   5.212  -2.810  0.00  0.00     0.025 A 
ATOM     26  C   UNL d   1       3.399   4.584  -3.830  0.00  0.00     0.034 A 
ATOM     27  C   UNL d   1       3.739   3.237  -3.725  0.00  0.00     0.025 A 
ATOM     28 CL   UNL d   1       3.889   5.479  -5.215  0.00  0.00    -0.084 Cl
ATOM     29  C   UNL d   1       3.352   2.505  -2.597  0.00  0.00     0.025 A 
ENDBRANCH  20  23
ENDBRANCH   1  20
BRANCH   3  30
ATOM     30  S   UNL d   1      -1.156   3.016  -0.560  0.00  0.00    -0.114 SA
ATOM     31  C   UNL d   1      -2.906   2.553  -0.728  0.00  0.00     0.097 C 
ENDBRANCH   3  30
TORSDOF 5
