REMARK  6 active torsions:
REMARK  status: ('A' for Active; 'I' for Inactive)
REMARK    1  A    between atoms: C_2  and  C_1 
REMARK       I    between atoms: N_5  and  C_2 
REMARK    2  A    between atoms: C_10  and  N_5 
REMARK    3  A    between atoms: C_11  and  C_6 
REMARK    4  A    between atoms: S_9  and  C_11 
REMARK    5  A    between atoms: C_12  and  S_9 
REMARK    6  A    between atoms: O_24  and  C_14 
ROOT
ATOM      1  C   UNL d   1      -0.042   1.132  -0.169  0.00  0.00     0.143 A 
ATOM      2  O   UNL d   1      -0.901   0.057  -0.110  0.00  0.00    -0.309 OA
ATOM      3  C   UNL d   1       1.264   0.684  -0.136  0.00  0.00     0.045 A 
ATOM      4  C   UNL d   1      -0.116  -1.073  -0.043  0.00  0.00     0.063 A 
ATOM      5  C   UNL d   1       1.219  -0.719  -0.081  0.00  0.00     0.036 A 
ENDROOT
BRANCH   1   6
ATOM      6  C   UNL d   1      -0.506   2.506  -0.251  0.00  0.00     0.279 C 
ATOM      7  N   UNL d   1      -1.880   2.686  -0.242  0.00  0.00    -0.321 N 
ATOM      8  H   UNL d   1      -2.433   1.847  -0.099  0.00  0.00     0.169 HD
ATOM      9  O   UNL d   1       0.312   3.424  -0.305  0.00  0.00    -0.265 OA
BRANCH   7  10
ATOM     10  C   UNL d   1      -2.561   3.926  -0.297  0.00  0.00     0.035 A 
ATOM     11  C   UNL d   1      -1.925   5.141  -0.575  0.00  0.00     0.032 A 
ATOM     12  C   UNL d   1      -2.626   6.353  -0.550  0.00  0.00     0.039 A 
ATOM     13  C   UNL d   1      -3.983   6.369  -0.246  0.00  0.00     0.068 A 
ATOM     14  C   UNL d   1      -4.643   5.157  -0.035  0.00  0.00     0.039 A 
ATOM     15  C   UNL d   1      -3.938   3.943  -0.059  0.00  0.00     0.032 A 
BRANCH  13  16
ATOM     16  O   UNL d   1      -4.750   7.497  -0.159  0.00  0.00    -0.356 OA
ATOM     17  C   UNL d   1      -4.045   8.682   0.210  0.00  0.00     0.210 C 
ENDBRANCH  13  16
ENDBRANCH   7  10
ENDBRANCH   1   6
BRANCH   4  18
ATOM     18  C   UNL d   1      -0.794  -2.403   0.047  0.00  0.00     0.144 C 
BRANCH  18  19
ATOM     19  S   UNL d   1       0.115  -3.481   1.228  0.00  0.00    -0.123 SA
BRANCH  19  20
ATOM     20  C   UNL d   1      -0.577  -5.099   0.948  0.00  0.00     0.001 A 
ATOM     21  C   UNL d   1       0.293  -6.199   1.007  0.00  0.00     0.020 A 
ATOM     22  C   UNL d   1      -0.196  -7.505   0.922  0.00  0.00     0.025 A 
ATOM     23  C   UNL d   1      -1.564  -7.719   0.781  0.00  0.00     0.034 A 
ATOM     24  C   UNL d   1      -2.439  -6.636   0.708  0.00  0.00     0.025 A 
ATOM     25 CL   UNL d   1      -2.179  -9.324   0.724  0.00  0.00    -0.084 Cl
ATOM     26  C   UNL d   1      -1.946  -5.328   0.793  0.00  0.00     0.020 A 
ENDBRANCH  19  20
ENDBRANCH  18  19
ENDBRANCH   4  18
TORSDOF 6
