REMARK  1 active torsions:
REMARK  status: ('A' for Active; 'I' for Inactive)
REMARK    1  A    between atoms: C_8  and  N_7 
ROOT
ATOM      1  N   UNL d   1       4.330  -0.765   1.177  0.00  0.00    -0.265 N 
ATOM      2  HN  UNL d   1       4.665  -1.710   1.366  1.00  0.00     0.186 HD
ATOM      3  C   UNL d   1       3.221  -0.502   0.510  0.00  0.00     0.175 A 
ATOM      4  N   UNL d   1       4.989   0.382   1.591  0.00  0.00    -0.017 NA
ATOM      5  N   UNL d   1       4.398   1.516   1.248  0.00  0.00    -0.044 NA
ATOM      6  S   UNL d   1       2.993   1.218   0.386  0.00  0.00     0.035 SA
ATOM      7  N   UNL d   1       2.347  -1.371  -0.061  0.00  0.00    -0.335 N 
ATOM      8  H   UNL d   1       1.614  -0.992  -0.645  0.00  0.00     0.168 HD
ENDROOT
BRANCH   7   9
ATOM      9  C   UNL d   1       2.361  -2.776   0.026  0.00  0.00     0.034 A 
ATOM     10  C   UNL d   1       3.040  -3.477   1.034  0.00  0.00     0.032 A 
ATOM     11  C   UNL d   1       3.088  -4.874   1.036  0.00  0.00     0.044 A 
ATOM     12  C   UNL d   1       2.464  -5.581   0.021  0.00  0.00     0.116 A 
ATOM     13  C   UNL d   1       1.784  -4.918  -0.991  0.00  0.00     0.044 A 
ATOM     14  F   UNL d   1       2.523  -6.919   0.012  0.00  0.00    -0.206 F 
ATOM     15  C   UNL d   1       1.732  -3.521  -0.987  0.00  0.00     0.032 A 
ENDBRANCH   7   9
TORSDOF 1
