REMARK  4 active torsions:
REMARK  status: ('A' for Active; 'I' for Inactive)
REMARK    1  A    between atoms: C_9  and  C_6 
REMARK    2  A    between atoms: N_7  and  C_10 
REMARK    3  A    between atoms: N_8  and  C_15 
REMARK       I    between atoms: N_16  and  C_9 
REMARK    4  A    between atoms: C_28  and  N_16 
ROOT
ATOM      1  C   UNL d   1      -1.637   0.407   0.645  0.00  0.00     0.002 C 
ATOM      2  C   UNL d   1       0.679   0.008   0.381  0.00  0.00     0.018 C 
ATOM      3  C   UNL d   1      -0.381   1.074   0.509  0.00  0.00    -0.008 C 
ATOM      4  C   UNL d   1      -0.015  -1.314   0.531  0.00  0.00    -0.009 C 
ATOM      5  C   UNL d   1      -1.383  -1.031   0.788  0.00  0.00    -0.013 C 
ATOM      6  C   UNL d   1      -2.827   1.150   0.569  0.00  0.00     0.046 C 
ATOM      7  C   UNL d   1      -1.494   3.200   0.500  0.00  0.00     0.104 C 
ATOM      8  C   UNL d   1       2.004   0.202   0.148  0.00  0.00     0.136 C 
ATOM      9  C   UNL d   1      -0.307   2.462   0.481  0.00  0.00     0.049 C 
ATOM     10  C   UNL d   1      -2.740   2.557   0.521  0.00  0.00     0.054 C 
ATOM     11  C   UNL d   1       0.421  -2.632   0.436  0.00  0.00     0.049 C 
ATOM     12  C   UNL d   1      -0.495  -3.665   0.676  0.00  0.00     0.103 C 
ATOM     13  C   UNL d   1       2.587   1.486  -0.063  0.00  0.00     0.111 C 
ATOM     14  C   UNL d   1       2.949  -0.863   0.071  0.00  0.00     0.111 C 
ATOM     15  N   UNL d   1       3.071   2.521  -0.248  0.00  0.00    -0.191 NA
ATOM     16  N   UNL d   1       3.728  -1.719   0.008  0.00  0.00    -0.191 NA
ATOM     17  C   UNL d   1      -2.250  -2.058   1.152  0.00  0.00     0.015 C 
ATOM     18  C   UNL d   1      -1.810  -3.384   1.082  0.00  0.00     0.037 C 
ENDROOT
BRANCH   6  19
ATOM     19  C   UNL d   1      -4.216   0.614   0.398  0.00  0.00     0.252 C 
ATOM     20  N   UNL d   1      -4.357  -0.482  -0.419  0.00  0.00    -0.352 N 
ATOM     21  H   UNL d   1      -3.515  -0.840  -0.851  0.00  0.00     0.163 HD
ATOM     22  O   UNL d   1      -5.149   1.229   0.896  0.00  0.00    -0.268 OA
BRANCH  20  23
ATOM     23  C   UNL d   1      -5.591  -0.951  -1.065  0.00  0.00     0.084 C 
ATOM     24  C   UNL d   1      -5.825  -0.225  -2.396  0.00  0.00     0.025 C 
ATOM     25  C   UNL d   1      -6.671   1.033  -2.264  0.00  0.00     0.002 C 
ATOM     26  C   UNL d   1      -8.013   0.705  -1.626  0.00  0.00     0.000 C 
ATOM     27  C   UNL d   1      -7.829   0.117  -0.234  0.00  0.00     0.002 C 
ATOM     28  C   UNL d   1      -6.854  -1.065  -0.191  0.00  0.00     0.025 C 
ENDBRANCH  20  23
ENDBRANCH   6  19
BRANCH   7  29
ATOM     29  N   UNL d   1      -1.434   4.669   0.430  0.00  0.00    -0.116 N 
ATOM     30  O   UNL d   1      -0.313   5.195   0.396  0.00  0.00    -0.532 OA
ATOM     31  O   UNL d   1      -2.505   5.289   0.402  0.00  0.00    -0.532 OA
ENDBRANCH   7  29
BRANCH  12  32
ATOM     32  N   UNL d   1      -0.083  -5.061   0.463  0.00  0.00    -0.116 N 
ATOM     33  O   UNL d   1       1.056  -5.262   0.021  0.00  0.00    -0.532 OA
ATOM     34  O   UNL d   1      -0.910  -5.948   0.709  0.00  0.00    -0.532 OA
ENDBRANCH  12  32
TORSDOF 4
