REMARK  5 active torsions:
REMARK  status: ('A' for Active; 'I' for Inactive)
REMARK    1  A    between atoms: C_9  and  C_3 
REMARK    2  A    between atoms: O_12  and  C_4 
REMARK    3  A    between atoms: C_16  and  C_7 
REMARK    4  A    between atoms: C_19  and  C_16 
REMARK    5  A    between atoms: C_20  and  C_19 
ROOT
ATOM      1  N   UNL d   1      -0.677   1.204  -0.151  0.00  0.00    -0.322 N 
ATOM      2  HN  UNL d   1      -1.138   2.112  -0.202  1.00  0.00     0.169 HD
ATOM      3  C   UNL d   1      -1.359   0.054  -0.086  0.00  0.00     0.117 A 
ATOM      4  C   UNL d   1       0.657   1.073  -0.143  0.00  0.00     0.149 A 
ATOM      5  N   UNL d   1      -0.788  -1.161  -0.018  0.00  0.00    -0.345 N 
ATOM      6  HN  UNL d   1      -1.359  -2.006   0.015  1.00  0.00     0.167 HD
ATOM      7  C   UNL d   1       1.370  -0.107  -0.075  0.00  0.00     0.015 A 
ATOM      8  C   UNL d   1       0.567  -1.235   0.005  0.00  0.00     0.017 A 
ATOM      9  C   UNL d   1       1.091  -2.634   0.116  0.00  0.00     0.069 C 
ENDROOT
BRANCH   3  10
ATOM     10  C   UNL d   1      -2.838   0.117  -0.052  0.00  0.00     0.008 A 
ATOM     11  C   UNL d   1      -3.529   1.346  -0.071  0.00  0.00     0.017 A 
ATOM     12  C   UNL d   1      -4.928   1.402  -0.018  0.00  0.00     0.025 A 
ATOM     13  C   UNL d   1      -5.666   0.225   0.055  0.00  0.00     0.034 A 
ATOM     14  C   UNL d   1      -5.018  -1.005   0.070  0.00  0.00     0.025 A 
ATOM     15 CL   UNL d   1      -7.383   0.291   0.126  0.00  0.00    -0.084 Cl
ATOM     16  C   UNL d   1      -3.620  -1.055   0.017  0.00  0.00     0.017 A 
ENDBRANCH   3  10
BRANCH   4  17
ATOM     17  O   UNL d   1       1.290   2.275  -0.185  0.00  0.00    -0.346 OA
ATOM     18  H   UNL d   1       0.525   2.876  -0.193  0.00  0.00     0.219 HD
ENDBRANCH   4  17
BRANCH   7  19
ATOM     19  C   UNL d   1       2.874  -0.110  -0.012  0.00  0.00     0.045 C 
BRANCH  19  20
ATOM     20  C   UNL d   1       3.621  -0.818  -1.149  0.00  0.00     0.004 C 
BRANCH  20  21
ATOM     21  C   UNL d   1       3.319  -0.265  -2.540  0.00  0.00    -0.004 C 
ATOM     22  C   UNL d   1       4.131  -1.000  -3.599  0.00  0.00     0.005 C 
ENDBRANCH  20  21
ENDBRANCH  19  20
ENDBRANCH   7  19
TORSDOF 5
