REMARK  1 active torsions:
REMARK  status: ('A' for Active; 'I' for Inactive)
REMARK       I    between atoms: N_2  and  C_1 
REMARK       I    between atoms: N_5  and  C_1 
REMARK       I    between atoms: C_3  and  N_2 
REMARK       I    between atoms: N_12  and  C_3 
REMARK    1  A    between atoms: C_6  and  N_5 
ROOT
ATOM      1  C   UNL d   1       1.099  -0.011   0.057  0.00  0.00     0.678 C 
ATOM      2  N   UNL d   1       2.409  -0.305   0.306  0.00  0.00    -0.167 N 
ATOM      3  C   UNL d   1       3.054  -0.917   1.333  0.00  0.00     0.163 C 
ATOM      4  N   UNL d   1       0.308   0.077   1.171  0.00  0.00    -0.190 N 
ATOM      5  N   UNL d   1       0.665   0.181  -1.149  0.00  0.00    -0.234 N 
ATOM      6  HN  UNL d   1      -0.297   0.425  -1.385  1.00  0.00     0.174 HD
ATOM      7  N   UNL d   1       2.535  -1.435   2.388  0.00  0.00    -0.376 N 
ATOM      8  HN  UNL d   1       3.047  -1.865   3.158  1.00  0.00     0.158 HD
ATOM      9  N   UNL d   1       4.398  -0.987   1.183  0.00  0.00    -0.274 NA
ATOM     10  H   UNL d   1       3.026  -0.082  -0.458  0.00  0.00     0.187 HD
ATOM     11  H   UNL d   1       0.668   0.703   1.889  0.00  0.00     0.184 HD
ATOM     12  H   UNL d   1       1.413   0.058  -1.830  0.00  0.00     0.174 HD
ATOM     13  H   UNL d   1       1.513  -1.339   2.321  0.00  0.00     0.158 HD
ATOM     14  H   UNL d   1       4.704  -1.397   0.309  0.00  0.00     0.127 HD
ATOM     15  H   UNL d   1       4.777  -1.535   1.954  0.00  0.00     0.127 HD
ENDROOT
BRANCH   4  16
ATOM     16  C   UNL d   1      -1.103  -0.042   1.194  0.00  0.00     0.072 A 
ATOM     17  C   UNL d   1      -1.894   0.749   2.053  0.00  0.00     0.083 A 
ATOM     18  C   UNL d   1      -3.282   0.549   2.117  0.00  0.00     0.058 A 
ATOM     19 CL   UNL d   1      -1.118   1.970   3.017  0.00  0.00    -0.080 Cl
ATOM     20 CL   UNL d   1      -4.309   1.474   3.159  0.00  0.00    -0.082 Cl
ATOM     21  C   UNL d   1      -3.888  -0.434   1.331  0.00  0.00     0.026 A 
ATOM     22  C   UNL d   1      -3.119  -1.203   0.463  0.00  0.00     0.004 A 
ATOM     23  C   UNL d   1      -1.741  -1.000   0.390  0.00  0.00     0.032 A 
ENDBRANCH   4  16
TORSDOF 1
