REMARK  5 active torsions:
REMARK  status: ('A' for Active; 'I' for Inactive)
REMARK    1  A    between atoms: S_12  and  C_5 
REMARK    2  A    between atoms: N_16  and  C_6 
REMARK    3  A    between atoms: O_18  and  C_7 
REMARK    4  A    between atoms: C_10  and  C_13 
REMARK    5  A    between atoms: C_13  and  S_12 
ROOT
ATOM      1  N   UNL d   1      -0.406  -0.664   0.592  0.00  0.00    -0.328 N 
ATOM      2  HN  UNL d   1      -0.711  -1.588   0.898  1.00  0.00     0.169 HD
ATOM      3  N   UNL d   1      -0.955   1.544  -0.089  0.00  0.00    -0.317 N 
ATOM      4  HN  UNL d   1      -1.659   2.253  -0.294  1.00  0.00     0.170 HD
ATOM      5  C   UNL d   1      -1.286   0.310   0.308  0.00  0.00     0.147 A 
ATOM      6  C   UNL d   1       0.891  -0.364   0.454  0.00  0.00     0.083 A 
ATOM      7  C   UNL d   1       0.351   1.792  -0.200  0.00  0.00     0.144 A 
ATOM      8  C   UNL d   1       1.333   0.873   0.054  0.00  0.00     0.097 A 
ENDROOT
BRANCH   5   9
ATOM      9  S   UNL d   1      -3.009  -0.125   0.391  0.00  0.00    -0.089 SA
BRANCH   9  10
ATOM     10  C   UNL d   1      -3.749   1.514   0.120  0.00  0.00     0.122 C 
BRANCH  10  11
ATOM     11  C   UNL d   1      -5.250   1.455  -0.062  0.00  0.00    -0.027 A 
ATOM     12  C   UNL d   1      -6.149   1.316   1.010  0.00  0.00     0.042 A 
ATOM     13  C   UNL d   1      -7.529   1.297   0.787  0.00  0.00     0.048 A 
ATOM     14 CL   UNL d   1      -5.607   1.188   2.646  0.00  0.00    -0.084 Cl
ATOM     15  C   UNL d   1      -8.024   1.426  -0.507  0.00  0.00     0.035 A 
ATOM     16  C   UNL d   1      -7.154   1.560  -1.585  0.00  0.00     0.024 A 
ATOM     17 CL   UNL d   1      -9.723   1.429  -0.779  0.00  0.00    -0.084 Cl
ATOM     18  C   UNL d   1      -5.776   1.567  -1.364  0.00  0.00     0.011 A 
ENDBRANCH  10  11
ENDBRANCH   9  10
ENDBRANCH   5   9
BRANCH   7  19
ATOM     19  O   UNL d   1       0.650   3.057  -0.616  0.00  0.00    -0.346 OA
ATOM     20  H   UNL d   1       1.613   3.146  -0.669  0.00  0.00     0.219 HD
ENDBRANCH   7  19
BRANCH   6  21
ATOM     21  N   UNL d   1       1.804  -1.373   0.764  0.00  0.00    -0.288 NA
ATOM     22  H   UNL d   1       1.268  -2.202   1.010  0.00  0.00     0.125 HD
ATOM     23  H   UNL d   1       2.441  -1.562  -0.002  0.00  0.00     0.125 HD
ENDBRANCH   6  21
TORSDOF 5
