REMARK  3 active torsions:
REMARK  status: ('A' for Active; 'I' for Inactive)
REMARK    1  A    between atoms: N_2  and  S_1 
REMARK    2  A    between atoms: C_4  and  S_1 
REMARK    3  A    between atoms: C_3  and  C_5 
ROOT
ATOM      1  N   UNL d   1       0.193  -0.458   1.602  0.00  0.00    -0.281 N 
ATOM      2  C   UNL d   1      -0.113  -1.736   4.400  0.00  0.00     0.114 C 
ATOM      3  C   UNL d   1      -0.039  -2.386   3.053  0.00  0.00     0.052 C 
ATOM      4  C   UNL d   1       0.130  -1.858   1.839  0.00  0.00     0.105 C 
ATOM      5  N   UNL d   1      -0.601  -0.571   4.672  0.00  0.00    -0.384 N 
ATOM      6  HN  UNL d   1      -0.626  -0.235   5.635  1.00  0.00     0.159 HD
ATOM      7  C   UNL d   1      -0.005   0.608   2.606  0.00  0.00     0.160 C 
ATOM      8  C   UNL d   1      -1.117   0.261   3.589  0.00  0.00     0.141 C 
ENDROOT
BRANCH   1   9
ATOM      9  S   UNL d   1       0.920   0.015   0.122  0.00  0.00     0.264 S 
ATOM     10  O   UNL d   1       0.303   1.251  -0.315  0.00  0.00    -0.200 OA
ATOM     11  O   UNL d   1       1.017  -1.121  -0.770  0.00  0.00    -0.200 OA
BRANCH   9  12
ATOM     12  C   UNL d   1       2.573   0.398   0.661  0.00  0.00     0.081 A 
ATOM     13  C   UNL d   1       3.500  -0.638   0.804  0.00  0.00     0.049 A 
ATOM     14  C   UNL d   1       4.792  -0.333   1.222  0.00  0.00     0.035 A 
ATOM     15 CL   UNL d   1       5.944  -1.595   1.415  0.00  0.00    -0.084 Cl
ATOM     16  C   UNL d   1       5.160   0.987   1.488  0.00  0.00     0.024 A 
ATOM     17  C   UNL d   1       4.231   2.018   1.332  0.00  0.00     0.003 A 
ATOM     18  C   UNL d   1       2.933   1.727   0.911  0.00  0.00     0.025 A 
ENDBRANCH   9  12
ENDBRANCH   1   9
BRANCH   2  19
ATOM     19  C   UNL d   1       0.430  -2.587   5.566  0.00  0.00     0.432 C 
ATOM     20  F   UNL d   1       0.943  -3.782   5.154  0.00  0.00    -0.165 F 
ATOM     21  F   UNL d   1       1.431  -1.960   6.241  0.00  0.00    -0.165 F 
ATOM     22  F   UNL d   1      -0.535  -2.886   6.478  0.00  0.00    -0.165 F 
ENDBRANCH   2  19
TORSDOF 3
