REMARK  12 active torsions:
REMARK  status: ('A' for Active; 'I' for Inactive)
REMARK    1  A    between atoms: C_1  and  O_5 
REMARK    2  A    between atoms: C_1  and  C_4 
REMARK    3  A    between atoms: C_1  and  C_2 
REMARK    4  A    between atoms: C_2  and  O_6 
REMARK    5  A    between atoms: C_3  and  C_2 
REMARK    6  A    between atoms: C_12  and  C_3 
REMARK    7  A    between atoms: C_3  and  O_7 
REMARK       I    between atoms: N_19  and  C_4 
REMARK    8  A    between atoms: C_8  and  O_5 
REMARK    9  A    between atoms: C_9  and  O_6 
REMARK   10  A    between atoms: C_10  and  O_7 
REMARK   11  A    between atoms: C_11  and  O_14 
REMARK   12  A    between atoms: O_14  and  C_12 
ROOT
ATOM      1  C   UNL d   1       1.213   2.896   0.539  0.00  0.00     0.202 C 
ENDROOT
BRANCH   1   2
ATOM      2  O   UNL d   1       1.243   4.360   0.460  0.00  0.00    -0.310 OA
BRANCH   2   3
ATOM      3  C   UNL d   1       2.422   5.035   0.457  0.00  0.00     0.255 C 
ATOM      4  O   UNL d   1       3.537   4.534   0.461  0.00  0.00    -0.266 OA
ATOM      5  C   UNL d   1       2.176   6.514   0.472  0.00  0.00     0.126 C 
ENDBRANCH   2   3
ENDBRANCH   1   2
BRANCH   1   6
ATOM      6  C   UNL d   1       2.057   2.350   1.715  0.00  0.00     0.255 C 
BRANCH   6   7
ATOM      7  O   UNL d   1       1.494   2.917   2.933  0.00  0.00    -0.304 OA
BRANCH   7   8
ATOM      8  C   UNL d   1       2.238   2.796   4.062  0.00  0.00     0.255 C 
ATOM      9  O   UNL d   1       3.345   2.272   4.117  0.00  0.00    -0.266 OA
ATOM     10  C   UNL d   1       1.494   3.312   5.255  0.00  0.00     0.126 C 
ENDBRANCH   7   8
ENDBRANCH   6   7
BRANCH   6  11
ATOM     11  C   UNL d   1       1.931   0.824   1.812  0.00  0.00     0.247 C 
ATOM     12  O   UNL d   1       0.918   0.200   1.513  0.00  0.00    -0.271 OA
ATOM     13  N   UNL d   1       3.032   0.177   2.297  0.00  0.00    -0.368 N 
ATOM     14  H   UNL d   1       2.934  -0.813   2.483  0.00  0.00     0.159 HD
ATOM     15  H   UNL d   1       3.677   0.692   2.896  0.00  0.00     0.159 HD
ENDBRANCH   6  11
ENDBRANCH   1   6
BRANCH   1  16
ATOM     16  C   UNL d   1       1.442   2.229  -0.849  0.00  0.00     0.189 C 
BRANCH  16  17
ATOM     17  C   UNL d   1       0.369   2.664  -1.869  0.00  0.00     0.213 C 
BRANCH  17  18
ATOM     18  O   UNL d   1      -0.952   2.466  -1.343  0.00  0.00    -0.319 OA
BRANCH  18  19
ATOM     19  C   UNL d   1      -1.769   3.552  -1.338  0.00  0.00     0.254 C 
ATOM     20  O   UNL d   1      -1.482   4.663  -1.758  0.00  0.00    -0.266 OA
ATOM     21  C   UNL d   1      -3.106   3.197  -0.759  0.00  0.00     0.126 C 
ENDBRANCH  18  19
ENDBRANCH  17  18
ENDBRANCH  16  17
BRANCH  16  22
ATOM     22  O   UNL d   1       2.751   2.548  -1.373  0.00  0.00    -0.311 OA
BRANCH  22  23
ATOM     23  C   UNL d   1       3.185   1.780  -2.410  0.00  0.00     0.255 C 
ATOM     24  O   UNL d   1       2.592   0.810  -2.865  0.00  0.00    -0.266 OA
ATOM     25  C   UNL d   1       4.452   2.322  -2.997  0.00  0.00     0.126 C 
ENDBRANCH  22  23
ENDBRANCH  16  22
ENDBRANCH   1  16
TORSDOF 12
