REMARK  8 active torsions:
REMARK  status: ('A' for Active; 'I' for Inactive)
REMARK    1  A    between atoms: C_2  and  S_1 
REMARK    2  A    between atoms: N_5  and  S_1 
REMARK    3  A    between atoms: C_10  and  C_3 
REMARK    4  A    between atoms: C_4  and  O_11 
REMARK    5  A    between atoms: C_6  and  N_5 
REMARK    6  A    between atoms: C_7  and  C_15 
REMARK    7  A    between atoms: O_31  and  C_10 
REMARK    8  A    between atoms: O_11  and  C_14 
ROOT
ATOM      1  C   UNL d   1       0.772   1.557   2.127  0.00  0.00     0.057 A 
ATOM      2  C   UNL d   1       2.064   1.289   2.608  0.00  0.00     0.098 A 
ATOM      3  C   UNL d   1       0.212   2.643   4.233  0.00  0.00     0.049 A 
ATOM      4  C   UNL d   1      -0.150   2.222   2.942  0.00  0.00     0.043 A 
ATOM      5  C   UNL d   1       1.478   2.300   4.729  0.00  0.00     0.019 A 
ATOM      6  C   UNL d   1       2.385   1.597   3.935  0.00  0.00     0.040 A 
ENDROOT
BRANCH   1   7
ATOM      7  N   UNL d   1       0.436   1.346   0.756  0.00  0.00    -0.179 NA
ATOM      8  H   UNL d   1      -0.134   2.115   0.395  0.00  0.00     0.146 HD
BRANCH   7   9
ATOM      9  S   UNL d   1      -0.302  -0.050   0.169  0.00  0.00     0.247 S 
ATOM     10  O   UNL d   1      -1.639   0.361  -0.209  0.00  0.00    -0.205 OA
ATOM     11  O   UNL d   1       0.580  -0.563  -0.859  0.00  0.00    -0.205 OA
BRANCH   9  12
ATOM     12  C   UNL d   1      -0.441  -1.319   1.411  0.00  0.00     0.097 A 
ATOM     13  C   UNL d   1      -1.541  -1.431   2.261  0.00  0.00     0.058 A 
ATOM     14  C   UNL d   1      -1.745  -2.620   2.981  0.00  0.00     0.050 A 
ATOM     15 CL   UNL d   1      -2.706  -0.186   2.521  0.00  0.00    -0.083 Cl
ATOM     16  C   UNL d   1      -0.875  -3.707   2.845  0.00  0.00     0.041 A 
ATOM     17  C   UNL d   1       0.229  -3.622   1.992  0.00  0.00    -0.039 A 
ATOM     18 CL   UNL d   1      -1.238  -5.135   3.746  0.00  0.00    -0.084 Cl
ATOM     19  C   UNL d   1       0.440  -2.415   1.293  0.00  0.00     0.035 A 
ATOM     20  C   UNL d   1       1.185  -4.756   1.740  0.00  0.00     0.050 C 
ENDBRANCH   9  12
ENDBRANCH   7   9
ENDBRANCH   1   7
BRANCH   2  21
ATOM     21  O   UNL d   1       2.992   0.789   1.721  0.00  0.00    -0.307 OA
BRANCH  21  22
ATOM     22  C   UNL d   1       4.331   1.003   1.831  0.00  0.00     0.099 A 
ATOM     23  C   UNL d   1       4.980   2.187   2.156  0.00  0.00     0.114 A 
ATOM     24  S   UNL d   1       6.685   1.940   2.265  0.00  0.00    -0.093 SA
ATOM     25  C   UNL d   1       6.559   0.319   1.754  0.00  0.00     0.053 A 
ATOM     26  C   UNL d   1       5.252  -0.051   1.549  0.00  0.00     0.046 A 
BRANCH  23  27
ATOM     27  C   UNL d   1       4.504   3.524   2.437  0.00  0.00     0.302 C 
ATOM     28  O   UNL d   1       4.992   4.303   3.252  0.00  0.00    -0.259 OA
BRANCH  27  29
ATOM     29  O   UNL d   1       3.438   3.833   1.641  0.00  0.00    -0.322 OA
ATOM     30  C   UNL d   1       2.940   5.157   1.837  0.00  0.00     0.213 C 
ENDBRANCH  27  29
ENDBRANCH  23  27
ENDBRANCH  21  22
ENDBRANCH   2  21
BRANCH   3  31
ATOM     31  C   UNL d   1      -0.702   3.521   5.055  0.00  0.00     0.417 C 
ATOM     32  F   UNL d   1      -1.915   3.734   4.476  0.00  0.00    -0.166 F 
ATOM     33  F   UNL d   1      -0.953   3.010   6.289  0.00  0.00    -0.166 F 
ATOM     34  F   UNL d   1      -0.167   4.757   5.260  0.00  0.00    -0.166 F 
ENDBRANCH   3  31
TORSDOF 8
