REMARK  4 active torsions:
REMARK  status: ('A' for Active; 'I' for Inactive)
REMARK    1  A    between atoms: C_2  and  N_1 
REMARK    2  A    between atoms: C_7  and  C_3 
REMARK    3  A    between atoms: O_12  and  C_5 
REMARK    4  A    between atoms: O_13  and  C_9 
ROOT
ATOM      1  C   UNL d   1      -2.212  -1.778  -1.552  0.00  0.00     0.102 A 
ATOM      2  C   UNL d   1      -1.886   0.040   0.045  0.00  0.00    -0.031 A 
ATOM      3  C   UNL d   1      -1.516  -1.208  -0.475  0.00  0.00     0.051 A 
ATOM      4  C   UNL d   1      -3.333  -1.109  -2.071  0.00  0.00     0.101 A 
ATOM      5  C   UNL d   1      -3.692   0.141  -1.549  0.00  0.00     0.040 A 
ATOM      6  C   UNL d   1      -2.976   0.717  -0.499  0.00  0.00     0.014 A 
ENDROOT
BRANCH   2   7
ATOM      7  C   UNL d   1      -1.111   0.633   1.137  0.00  0.00     0.042 C 
ATOM      8  C   UNL d   1      -0.029   1.404   0.920  0.00  0.00     0.077 C 
ATOM      9  C   UNL d   1       0.549   1.837  -0.387  0.00  0.00     0.075 C 
BRANCH   8  10
ATOM     10  N   UNL d   1       0.687   1.870   2.105  0.00  0.00    -0.120 N 
ATOM     11  O   UNL d   1       0.043   2.036   3.150  0.00  0.00    -0.532 OA
ATOM     12  O   UNL d   1       1.907   2.066   1.990  0.00  0.00    -0.532 OA
ENDBRANCH   8  10
ENDBRANCH   2   7
BRANCH   1  13
ATOM     13  O   UNL d   1      -1.843  -2.976  -2.103  0.00  0.00    -0.353 OA
ATOM     14  C   UNL d   1      -0.448  -3.268  -2.090  0.00  0.00     0.210 C 
ENDBRANCH   1  13
BRANCH   4  15
ATOM     15  O   UNL d   1      -4.126  -1.505  -3.117  0.00  0.00    -0.353 OA
ATOM     16  C   UNL d   1      -4.307  -2.904  -3.296  0.00  0.00     0.210 C 
ENDBRANCH   4  15
TORSDOF 4
