REMARK  4 active torsions:
REMARK  status: ('A' for Active; 'I' for Inactive)
REMARK    1  A    between atoms: O_14  and  C_3 
REMARK    2  A    between atoms: C_13  and  C_7 
REMARK    3  A    between atoms: C_9  and  S_12 
REMARK    4  A    between atoms: S_12  and  C_13 
ROOT
ATOM      1  N   UNL d   1       2.464  -0.718   0.011  0.00  0.00    -0.325 N 
ATOM      2  HN  UNL d   1       3.347  -1.228   0.033  1.00  0.00     0.169 HD
ATOM      3  C   UNL d   1       1.278  -1.338   0.014  0.00  0.00     0.154 A 
ATOM      4  C   UNL d   1       0.036  -0.720  -0.011  0.00  0.00     0.042 A 
ATOM      5  N   UNL d   1       1.260   1.340  -0.073  0.00  0.00    -0.344 N 
ATOM      6  HN  UNL d   1       1.278   2.358  -0.125  1.00  0.00     0.167 HD
ATOM      7  C   UNL d   1       2.407   0.626  -0.023  0.00  0.00     0.093 A 
ATOM      8  C   UNL d   1       0.096   0.672  -0.052  0.00  0.00     0.048 A 
ATOM      9  C   UNL d   1      -1.209  -1.393   0.006  0.00  0.00     0.018 A 
ATOM     10  C   UNL d   1      -1.104   1.374  -0.070  0.00  0.00     0.030 A 
ATOM     11  C   UNL d   1      -2.395  -0.667  -0.014  0.00  0.00     0.001 A 
ATOM     12  C   UNL d   1      -2.343   0.722  -0.050  0.00  0.00     0.002 A 
ENDROOT
BRANCH   7  13
ATOM     13  C   UNL d   1       3.714   1.391  -0.013  0.00  0.00     0.157 C 
BRANCH  13  14
ATOM     14  S   UNL d   1       3.916   2.362   1.522  0.00  0.00    -0.105 SA
BRANCH  14  15
ATOM     15  C   UNL d   1       5.460   3.188   1.190  0.00  0.00     0.069 A 
ATOM     16  N   UNL d   1       6.165   2.844   0.089  0.00  0.00    -0.361 N 
ATOM     17  C   UNL d   1       7.344   3.478  -0.110  0.00  0.00     0.089 A 
ATOM     18  HN  UNL d   1       5.824   2.138  -0.563  1.00  0.00     0.165 HD
ATOM     19  C   UNL d   1       7.859   4.443   0.740  0.00  0.00     0.017 A 
ATOM     20  C   UNL d   1       7.118   4.785   1.864  0.00  0.00     0.004 A 
ATOM     21  C   UNL d   1       5.901   4.149   2.093  0.00  0.00     0.037 A 
ENDBRANCH  14  15
ENDBRANCH  13  14
ENDBRANCH   7  13
BRANCH   3  22
ATOM     22  O   UNL d   1       1.388  -2.694   0.044  0.00  0.00    -0.345 OA
ATOM     23  H   UNL d   1       2.357  -2.789   0.057  0.00  0.00     0.219 HD
ENDBRANCH   3  22
TORSDOF 4
