REMARK  5 active torsions:
REMARK  status: ('A' for Active; 'I' for Inactive)
REMARK    1  A    between atoms: C_10  and  C_3 
REMARK    2  A    between atoms: C_14  and  C_4 
REMARK    3  A    between atoms: C_7  and  O_12 
REMARK    4  A    between atoms: C_11  and  C_7 
REMARK    5  A    between atoms: O_12  and  C_14 
ROOT
ATOM      1  N   UNL d   1       6.071   5.274   2.447  0.00  0.00    -0.191 NA
ATOM      2  C   UNL d   1       5.257   4.529   2.094  0.00  0.00     0.099 C 
ATOM      3  C   UNL d   1       2.270   1.820   0.768  0.00  0.00    -0.009 A 
ATOM      4  C   UNL d   1       3.602   1.403   0.900  0.00  0.00     0.015 A 
ATOM      5  C   UNL d   1       1.936   3.139   1.110  0.00  0.00     0.015 A 
ATOM      6  C   UNL d   1       4.247   3.611   1.656  0.00  0.00     0.044 A 
ATOM      7  C   UNL d   1       2.919   4.031   1.548  0.00  0.00     0.023 A 
ATOM      8  C   UNL d   1       4.587   2.294   1.336  0.00  0.00     0.023 A 
ENDROOT
BRANCH   3   9
ATOM      9  C   UNL d   1       1.271   0.882   0.274  0.00  0.00     0.049 A 
ATOM     10  N   UNL d   1       1.415  -0.487   0.452  0.00  0.00    -0.351 N 
ATOM     11  C   UNL d   1       0.405  -1.125  -0.106  0.00  0.00     0.075 A 
ATOM     12  HN  UNL d   1       2.189  -0.934   0.943  1.00  0.00     0.166 HD
ATOM     13  S   UNL d   1      -0.777  -0.115  -0.852  0.00  0.00    -0.084 SA
ATOM     14  C   UNL d   1       0.145   1.262  -0.429  0.00  0.00     0.082 A 
BRANCH  11  15
ATOM     15  C   UNL d   1       0.180  -2.607  -0.090  0.00  0.00     0.243 C 
BRANCH  15  16
ATOM     16  O   UNL d   1       1.433  -3.311  -0.022  0.00  0.00    -0.314 OA
BRANCH  16  17
ATOM     17  C   UNL d   1       2.063  -3.517  -1.209  0.00  0.00     0.266 C 
ATOM     18  O   UNL d   1       1.681  -3.051  -2.277  0.00  0.00    -0.264 OA
BRANCH  17  19
ATOM     19  C   UNL d   1       3.257  -4.479  -1.079  0.00  0.00     0.037 C 
ATOM     20  C   UNL d   1       3.502  -4.935   0.367  0.00  0.00     0.025 C 
ATOM     21  C   UNL d   1       2.958  -5.708  -1.953  0.00  0.00     0.025 C 
ATOM     22  C   UNL d   1       4.533  -3.802  -1.599  0.00  0.00     0.025 C 
ENDBRANCH  17  19
ENDBRANCH  16  17
ENDBRANCH  15  16
ENDBRANCH  11  15
ENDBRANCH   3   9
TORSDOF 5
