REMARK  8 active torsions:
REMARK  status: ('A' for Active; 'I' for Inactive)
REMARK    1  A    between atoms: C_5  and  C_1 
REMARK    2  A    between atoms: N_16  and  C_4 
REMARK    3  A    between atoms: O_23  and  C_8 
REMARK    4  A    between atoms: O_24  and  C_9 
REMARK    5  A    between atoms: N_11  and  C_25 
REMARK    6  A    between atoms: C_26  and  N_16 
REMARK    7  A    between atoms: C_18  and  C_20 
REMARK    8  A    between atoms: C_25  and  C_26 
ROOT
ATOM      1  C   UNL d   1       2.017   5.480   3.619  0.00  0.00     0.114 C 
ENDROOT
BRANCH   1   2
ATOM      2  C   UNL d   1       0.704   6.279   3.634  0.00  0.00     0.133 C 
BRANCH   2   3
ATOM      3  N   UNL d   1       0.513   6.882   4.959  0.00  0.00    -0.397 N 
ATOM      4  C   UNL d   1       0.408   8.165   4.987  0.00  0.00     0.094 C 
ATOM      5  HN  UNL d   1       0.466   6.318   5.808  1.00  0.00     0.158 HD
BRANCH   4   6
ATOM      6  C   UNL d   1       0.225   8.881   6.265  0.00  0.00    -0.018 A 
ATOM      7  C   UNL d   1       0.109  10.275   6.255  0.00  0.00     0.052 A 
ATOM      8  C   UNL d   1      -0.004  10.991   7.460  0.00  0.00     0.102 A 
ATOM      9  C   UNL d   1      -0.021  10.278   8.675  0.00  0.00     0.101 A 
ATOM     10  C   UNL d   1       0.086   8.881   8.665  0.00  0.00     0.040 A 
ATOM     11  C   UNL d   1       0.203   8.180   7.467  0.00  0.00     0.015 A 
BRANCH   8  12
ATOM     12  O   UNL d   1      -0.058  12.358   7.513  0.00  0.00    -0.353 OA
ATOM     13  C   UNL d   1      -0.032  13.083   6.289  0.00  0.00     0.210 C 
ENDBRANCH   8  12
BRANCH   9  14
ATOM     14  O   UNL d   1      -0.061  10.789   9.947  0.00  0.00    -0.353 OA
ATOM     15  C   UNL d   1      -0.757  12.010  10.144  0.00  0.00     0.210 C 
ENDBRANCH   9  14
ENDBRANCH   4   6
ENDBRANCH   2   3
ENDBRANCH   1   2
BRANCH   1  16
ATOM     16  N   UNL d   1       2.182   4.822   2.332  0.00  0.00    -0.263 NA
ATOM     17  H   UNL d   1       2.086   5.408   1.512  0.00  0.00     0.130 HD
BRANCH  16  18
ATOM     18  C   UNL d   1       3.349   4.098   2.174  0.00  0.00     0.157 A 
ATOM     19  N   UNL d   1       3.813   4.028   0.921  0.00  0.00    -0.329 N 
ATOM     20  C   UNL d   1       4.923   3.279   0.693  0.00  0.00     0.120 A 
ATOM     21  HN  UNL d   1       3.346   4.522   0.160  1.00  0.00     0.168 HD
ATOM     22  C   UNL d   1       5.576   2.615   1.716  0.00  0.00     0.051 A 
ATOM     23  C   UNL d   1       5.037   2.768   2.968  0.00  0.00     0.093 A 
ATOM     24  N   UNL d   1       3.939   3.501   3.216  0.00  0.00    -0.343 N 
ATOM     25  HN  UNL d   1       3.570   3.599   4.162  1.00  0.00     0.167 HD
BRANCH  20  26
ATOM     26  C   UNL d   1       5.460   3.156  -0.722  0.00  0.00     0.432 C 
ATOM     27  F   UNL d   1       4.772   3.877  -1.651  0.00  0.00    -0.165 F 
ATOM     28  F   UNL d   1       5.454   1.867  -1.170  0.00  0.00    -0.165 F 
ATOM     29  F   UNL d   1       6.759   3.567  -0.821  0.00  0.00    -0.165 F 
ENDBRANCH  20  26
ENDBRANCH  16  18
ENDBRANCH   1  16
TORSDOF 8
