REMARK  6 active torsions:
REMARK  status: ('A' for Active; 'I' for Inactive)
REMARK    1  A    between atoms: C_7  and  C_1 
REMARK    2  A    between atoms: C_2  and  N_8 
REMARK    3  A    between atoms: N_13  and  C_3 
REMARK    4  A    between atoms: C_15  and  C_4 
REMARK       I    between atoms: N_8  and  C_9 
REMARK       I    between atoms: C_9  and  N_13 
REMARK    5  A    between atoms: O_21  and  C_15 
REMARK    6  A    between atoms: C_29  and  O_21 
ROOT
ATOM      1  N   UNL d   1       2.635  -1.728  -0.082  0.00  0.00    -0.302 N 
ATOM      2  C   UNL d   1       1.745  -2.681  -0.515  0.00  0.00     0.325 C 
ATOM      3  N   UNL d   1       0.485  -2.632   0.011  0.00  0.00    -0.304 N 
ATOM      4  O   UNL d   1       2.165  -3.566  -1.256  0.00  0.00    -0.247 OA
ATOM      5  H   UNL d   1       3.597  -1.976  -0.297  0.00  0.00     0.171 HD
ATOM      6  H   UNL d   1       0.413  -2.118   0.878  0.00  0.00     0.171 HD
ENDROOT
BRANCH   3   7
ATOM      7  C   UNL d   1      -0.583  -3.460  -0.305  0.00  0.00     0.097 A 
ATOM      8  C   UNL d   1      -1.672  -3.801   0.568  0.00  0.00     0.097 A 
ATOM      9  N   UNL d   1      -2.552  -4.590  -0.066  0.00  0.00    -0.258 N 
ATOM     10  O   UNL d   1      -2.053  -4.785  -1.331  0.00  0.00    -0.240 OA
ATOM     11  HN  UNL d   1      -3.419  -4.969   0.316  1.00  0.00     0.195 HD
ATOM     12  C   UNL d   1      -0.869  -4.129  -1.475  0.00  0.00     0.101 A 
ATOM     13  C   UNL d   1      -0.255  -4.281  -2.807  0.00  0.00     0.081 C 
BRANCH   8  14
ATOM     14  C   UNL d   1      -1.850  -3.509   1.992  0.00  0.00     0.038 A 
ATOM     15  C   UNL d   1      -3.007  -2.864   2.471  0.00  0.00     0.048 A 
ATOM     16 CL   UNL d   1      -4.226  -2.220   1.421  0.00  0.00    -0.083 Cl
ATOM     17  C   UNL d   1      -3.217  -2.690   3.847  0.00  0.00     0.025 A 
ATOM     18  C   UNL d   1      -2.273  -3.136   4.768  0.00  0.00     0.003 A 
ATOM     19  C   UNL d   1      -1.113  -3.753   4.314  0.00  0.00     0.025 A 
ATOM     20  C   UNL d   1      -0.904  -3.949   2.942  0.00  0.00     0.048 A 
ATOM     21 CL   UNL d   1       0.550  -4.789   2.514  0.00  0.00    -0.083 Cl
ENDBRANCH   8  14
ENDBRANCH   3   7
BRANCH   1  22
ATOM     22  C   UNL d   1       2.449  -0.547   0.627  0.00  0.00     0.094 C 
ATOM     23  C   UNL d   1       3.414   0.230   1.268  0.00  0.00     0.079 C 
ATOM     24  C   UNL d   1       2.773   1.309   2.015  0.00  0.00    -0.036 C 
ATOM     25  C   UNL d   1       3.417   2.248   2.987  0.00  0.00     0.050 C 
ATOM     26  C   UNL d   1       1.433   1.411   1.697  0.00  0.00     0.059 C 
ATOM     27  S   UNL d   1       0.910   0.174   0.671  0.00  0.00    -0.083 SA
BRANCH  23  28
ATOM     28  C   UNL d   1       4.867  -0.020   1.216  0.00  0.00     0.296 C 
ATOM     29  O   UNL d   1       5.687   0.665   1.822  0.00  0.00    -0.259 OA
BRANCH  28  30
ATOM     30  O   UNL d   1       5.214  -1.038   0.375  0.00  0.00    -0.318 OA
BRANCH  30  31
ATOM     31  C   UNL d   1       6.617  -1.162   0.084  0.00  0.00     0.174 C 
ATOM     32  C   UNL d   1       6.913  -0.411  -1.202  0.00  0.00     0.034 C 
ENDBRANCH  30  31
ENDBRANCH  28  30
ENDBRANCH  23  28
ENDBRANCH   1  22
TORSDOF 6
