REMARK  0 active torsions:
REMARK  status: ('A' for Active; 'I' for Inactive)
ROOT
ATOM      1  C   UNL d   1       0.597   1.214  -0.303  0.00  0.00     0.117 C 
ATOM      2  C   UNL d   1       1.421   1.621  -1.283  0.00  0.00    -0.048 C 
ATOM      3  C   UNL d   1       1.173   0.544   0.866  0.00  0.00     0.302 C 
ATOM      4  C   UNL d   1      -0.848   1.095  -0.509  0.00  0.00     0.302 C 
ATOM      5  C   UNL d   1       1.156   1.553  -2.759  0.00  0.00     0.025 C 
ATOM      6  C   UNL d   1       2.892   1.881  -1.167  0.00  0.00     0.025 A 
ATOM      7  C   UNL d   1       3.249   2.695  -2.451  0.00  0.00     0.004 A 
ATOM      8  C   UNL d   1       4.018   1.494  -3.023  0.00  0.00    -0.000 A 
ATOM      9  C   UNL d   1       1.968   2.740  -3.314  0.00  0.00    -0.000 C 
ATOM     10  C   UNL d   1       1.964   0.302  -3.324  0.00  0.00    -0.001 C 
ATOM     11  C   UNL d   1       3.076   0.994  -4.146  0.00  0.00    -0.005 C 
ATOM     12  C   UNL d   1       3.718   0.682  -1.744  0.00  0.00    -0.001 A 
ATOM     13  O   UNL d   1       0.714  -0.721   0.935  0.00  0.00    -0.280 OA
ATOM     14  O   UNL d   1      -1.448   0.211   0.311  0.00  0.00    -0.280 OA
ATOM     15  C   UNL d   1      -0.698  -0.908   0.795  0.00  0.00     0.175 C 
ATOM     16  C   UNL d   1       2.428   2.256  -4.679  0.00  0.00     0.011 C 
ATOM     17  C   UNL d   1       2.818  -0.444  -2.271  0.00  0.00     0.011 C 
ATOM     18  O   UNL d   1      -1.487   1.818  -1.260  0.00  0.00    -0.259 OA
ATOM     19  O   UNL d   1       2.107   0.957   1.538  0.00  0.00    -0.259 OA
ATOM     20  C   UNL d   1      -0.986  -2.091  -0.131  0.00  0.00     0.080 C 
ATOM     21  C   UNL d   1      -1.203  -1.207   2.204  0.00  0.00     0.080 C 
ENDROOT
TORSDOF 0
