REMARK  8 active torsions:
REMARK  status: ('A' for Active; 'I' for Inactive)
REMARK    1  A    between atoms: C_3  and  C_1 
REMARK    2  A    between atoms: N_5  and  C_2 
REMARK    3  A    between atoms: O_14  and  C_3 
REMARK       I    between atoms: C_8  and  N_5 
REMARK    4  A    between atoms: C_16  and  C_8 
REMARK    5  A    between atoms: C_9  and  C_17 
REMARK    6  A    between atoms: O_15  and  C_9 
REMARK    7  A    between atoms: S_13  and  C_16 
REMARK    8  A    between atoms: C_17  and  S_13 
ROOT
ATOM      1  N   UNL d   1       2.634   1.613   0.212  0.00  0.00    -0.325 N 
ATOM      2  C   UNL d   1       2.823   2.978   0.356  0.00  0.00     0.231 C 
ATOM      3  O   UNL d   1       1.924   3.804   0.499  0.00  0.00    -0.272 OA
ATOM      4  H   UNL d   1       3.438   0.998   0.288  0.00  0.00     0.169 HD
ENDROOT
BRANCH   1   5
ATOM      5  C   UNL d   1       1.389   0.992   0.090  0.00  0.00     0.058 A 
ATOM      6  C   UNL d   1       1.204  -0.367   0.311  0.00  0.00     0.106 A 
ATOM      7  S   UNL d   1      -0.420  -0.841   0.004  0.00  0.00    -0.094 SA
ATOM      8  C   UNL d   1      -0.889   0.751  -0.375  0.00  0.00     0.053 A 
ATOM      9  C   UNL d   1       0.166   1.630  -0.286  0.00  0.00     0.038 A 
BRANCH   6  10
ATOM     10  C   UNL d   1       2.179  -1.321   0.817  0.00  0.00     0.302 C 
ATOM     11  O   UNL d   1       3.248  -0.998   1.335  0.00  0.00    -0.259 OA
BRANCH  10  12
ATOM     12  O   UNL d   1       1.773  -2.607   0.631  0.00  0.00    -0.322 OA
ATOM     13  C   UNL d   1       2.672  -3.621   1.085  0.00  0.00     0.213 C 
ENDBRANCH  10  12
ENDBRANCH   6  10
ENDBRANCH   1   5
BRANCH   2  14
ATOM     14  C   UNL d   1       4.286   3.393   0.364  0.00  0.00     0.177 C 
BRANCH  14  15
ATOM     15  S   UNL d   1       4.916   3.575   2.066  0.00  0.00    -0.149 SA
BRANCH  15  16
ATOM     16  C   UNL d   1       5.088   1.829   2.565  0.00  0.00     0.184 C 
BRANCH  16  17
ATOM     17  C   UNL d   1       6.030   1.052   1.667  0.00  0.00     0.149 C 
ATOM     18  O   UNL d   1       7.026   1.510   1.123  0.00  0.00    -0.649 OA
BRANCH  17  19
ATOM     19  O   UNL d   1       5.681  -0.243   1.494  0.00  0.00    -0.776 OA
ATOM     20  H   UNL d   1       4.813  -0.531   1.861  0.00  0.00     0.167 HD
ENDBRANCH  17  19
ENDBRANCH  16  17
ENDBRANCH  15  16
ENDBRANCH  14  15
ENDBRANCH   2  14
TORSDOF 8
