REMARK  3 active torsions:
REMARK  status: ('A' for Active; 'I' for Inactive)
REMARK    1  A    between atoms: C_2  and  N_1 
REMARK    2  A    between atoms: C_4  and  C_3 
REMARK    3  A    between atoms: O_13  and  C_7 
ROOT
ATOM      1  C   UNL d   1      -1.747  -0.025   0.004  0.00  0.00     0.001 A 
ATOM      2  C   UNL d   1      -2.675   0.595  -0.851  0.00  0.00     0.078 A 
ATOM      3  C   UNL d   1      -1.472  -1.394  -0.157  0.00  0.00     0.033 A 
ATOM      4  C   UNL d   1      -3.293  -0.157  -1.859  0.00  0.00     0.039 A 
ATOM      5  C   UNL d   1      -2.101  -2.128  -1.162  0.00  0.00     0.011 A 
ATOM      6  C   UNL d   1      -3.014  -1.516  -2.013  0.00  0.00     0.022 A 
ATOM      7 BR   UNL d   1      -1.680  -3.956  -1.390  0.00  0.00    -0.051 Br
ENDROOT
BRANCH   1   8
ATOM      8  C   UNL d   1      -0.968   0.690   1.020  0.00  0.00     0.045 C 
ATOM      9  C   UNL d   1       0.246   1.212   0.767  0.00  0.00     0.077 C 
ATOM     10  C   UNL d   1       1.009   1.202  -0.516  0.00  0.00     0.075 C 
BRANCH   9  11
ATOM     11  N   UNL d   1       0.906   1.888   1.880  0.00  0.00    -0.120 N 
ATOM     12  O   UNL d   1       0.196   2.405   2.752  0.00  0.00    -0.532 OA
ATOM     13  O   UNL d   1       2.145   1.903   1.881  0.00  0.00    -0.532 OA
ENDBRANCH   9  11
ENDBRANCH   1   8
BRANCH   2  14
ATOM     14  O   UNL d   1      -2.987   1.928  -0.883  0.00  0.00    -0.355 OA
ATOM     15  C   UNL d   1      -3.221   2.557   0.372  0.00  0.00     0.210 C 
ENDBRANCH   2  14
TORSDOF 3
