REMARK  9 active torsions:
REMARK  status: ('A' for Active; 'I' for Inactive)
REMARK    1  A    between atoms: N_4  and  C_1 
REMARK    2  A    between atoms: C_2  and  N_4 
REMARK    3  A    between atoms: N_12  and  C_2 
REMARK    4  A    between atoms: O_17  and  C_6 
REMARK    5  A    between atoms: O_18  and  C_8 
REMARK    6  A    between atoms: N_9  and  N_12 
REMARK    7  A    between atoms: C_15  and  C_13 
REMARK    8  A    between atoms: O_23  and  C_16 
REMARK    9  A    between atoms: C_24  and  O_23 
ROOT
ATOM      1  C   UNL d   1       4.755   1.583   0.425  0.00  0.00     0.191 C 
ATOM      2  S   UNL d   1       3.805   0.405  -0.266  0.00  0.00    -0.039 SA
ENDROOT
BRANCH   1   3
ATOM      3  N   UNL d   1       4.426   2.813   0.950  0.00  0.00    -0.330 N 
ATOM      4  H   UNL d   1       5.271   3.251   1.324  0.00  0.00     0.168 HD
BRANCH   3   5
ATOM      5  C   UNL d   1       3.286   3.625   1.030  0.00  0.00     0.070 A 
ATOM      6  C   UNL d   1       2.031   3.292   0.516  0.00  0.00     0.071 A 
ATOM      7  C   UNL d   1       0.962   4.199   0.585  0.00  0.00     0.092 A 
ATOM      8  C   UNL d   1       1.148   5.439   1.204  0.00  0.00     0.070 A 
ATOM      9  C   UNL d   1       2.398   5.778   1.736  0.00  0.00     0.065 A 
ATOM     10 CL   UNL d   1      -0.109   6.604   1.433  0.00  0.00    -0.081 Cl
ATOM     11  C   UNL d   1       3.462   4.880   1.660  0.00  0.00     0.096 A 
BRANCH   7  12
ATOM     12  O   UNL d   1      -0.219   3.705   0.089  0.00  0.00    -0.354 OA
ATOM     13  C   UNL d   1      -0.936   4.572  -0.784  0.00  0.00     0.210 C 
ENDBRANCH   7  12
BRANCH  11  14
ATOM     14  O   UNL d   1       4.721   5.134   2.160  0.00  0.00    -0.354 OA
ATOM     15  C   UNL d   1       4.862   6.259   3.019  0.00  0.00     0.210 C 
ENDBRANCH  11  14
ENDBRANCH   3   5
ENDBRANCH   1   3
BRANCH   1  16
ATOM     16  N   UNL d   1       6.135   1.367   0.522  0.00  0.00    -0.276 N 
ATOM     17  H   UNL d   1       6.524   0.516   0.128  0.00  0.00     0.189 HD
BRANCH  16  18
ATOM     18  N   UNL d   1       6.921   2.463   0.694  0.00  0.00    -0.309 N 
ATOM     19  C   UNL d   1       8.197   2.298   0.785  0.00  0.00     0.118 C 
ATOM     20  HN  UNL d   1       6.511   3.395   0.751  1.00  0.00     0.186 HD
BRANCH  19  21
ATOM     21  C   UNL d   1       9.060   3.497   0.792  0.00  0.00    -0.019 A 
ATOM     22  C   UNL d   1       8.535   4.713   0.334  0.00  0.00     0.015 A 
ATOM     23  C   UNL d   1       9.335   5.854   0.285  0.00  0.00     0.037 A 
ATOM     24  C   UNL d   1      10.663   5.790   0.705  0.00  0.00     0.068 A 
ATOM     25  C   UNL d   1      11.178   4.573   1.170  0.00  0.00     0.037 A 
ATOM     26  C   UNL d   1      10.385   3.420   1.209  0.00  0.00     0.015 A 
BRANCH  24  27
ATOM     27  O   UNL d   1      11.546   6.834   0.707  0.00  0.00    -0.352 OA
BRANCH  27  28
ATOM     28  C   UNL d   1      11.065   8.081   0.207  0.00  0.00     0.171 C 
ATOM     29  C   UNL d   1      12.192   9.093   0.288  0.00  0.00     0.034 C 
ENDBRANCH  27  28
ENDBRANCH  24  27
ENDBRANCH  19  21
ENDBRANCH  16  18
ENDBRANCH   1  16
TORSDOF 9
