REMARK  4 active torsions:
REMARK  status: ('A' for Active; 'I' for Inactive)
REMARK    1  A    between atoms: C_6  and  C_1 
REMARK    2  A    between atoms: C_7  and  C_2 
REMARK    3  A    between atoms: S_14  and  C_5 
REMARK       I    between atoms: N_10  and  C_6 
REMARK    4  A    between atoms: C_17  and  N_10 
ROOT
ATOM      1  C   UNL d   1       1.080  -1.280   0.302  0.00  0.00     0.087 A 
ATOM      2  C   UNL d   1      -0.315  -1.226   0.305  0.00  0.00     0.026 A 
ATOM      3  C   UNL d   1      -0.788   0.149   0.167  0.00  0.00     0.081 A 
ATOM      4  S   UNL d   1       1.750   0.312   0.155  0.00  0.00    -0.075 SA
ATOM      5  C   UNL d   1       0.234   1.067   0.086  0.00  0.00     0.063 A 
ATOM      6  C   UNL d   1      -2.167   0.551   0.068  0.00  0.00     0.102 C 
ATOM      7  N   UNL d   1      -3.284   0.860   0.005  0.00  0.00    -0.191 NA
ENDROOT
BRANCH   2   8
ATOM      8  C   UNL d   1      -1.286  -2.389   0.422  0.00  0.00     0.018 A 
ATOM      9  S   UNL d   1      -1.145  -3.893  -0.374  0.00  0.00    -0.101 SA
ATOM     10  C   UNL d   1      -2.715  -4.382   0.087  0.00  0.00     0.050 A 
ATOM     11  C   UNL d   1      -3.321  -3.452   0.896  0.00  0.00     0.008 A 
ATOM     12  C   UNL d   1      -2.484  -2.318   1.114  0.00  0.00     0.020 A 
ENDBRANCH   2   8
BRANCH   5  13
ATOM     13  S   UNL d   1       0.080   2.808  -0.159  0.00  0.00    -0.126 SA
ATOM     14  C   UNL d   1       0.872   3.451   1.333  0.00  0.00     0.096 C 
ENDBRANCH   5  13
BRANCH   1  15
ATOM     15  C   UNL d   1       2.100  -2.321   0.450  0.00  0.00     0.259 C 
ATOM     16  N   UNL d   1       1.892  -3.505  -0.221  0.00  0.00    -0.353 N 
ATOM     17  H   UNL d   1       1.028  -3.608  -0.739  0.00  0.00     0.163 HD
ATOM     18  O   UNL d   1       3.144  -2.134   1.074  0.00  0.00    -0.267 OA
BRANCH  16  19
ATOM     19  C   UNL d   1       2.898  -4.551  -0.390  0.00  0.00     0.076 C 
ATOM     20  C   UNL d   1       4.089  -4.074  -1.222  0.00  0.00     0.032 C 
ATOM     21  C   UNL d   1       3.359  -5.171   0.929  0.00  0.00     0.032 C 
ENDBRANCH  16  19
ENDBRANCH   1  15
TORSDOF 4
