REMARK  6 active torsions:
REMARK  status: ('A' for Active; 'I' for Inactive)
REMARK    1  A    between atoms: C_3  and  S_1 
REMARK    2  A    between atoms: C_5  and  S_1 
REMARK    3  A    between atoms: N_4  and  C_2 
REMARK    4  A    between atoms: C_8  and  C_5 
REMARK    5  A    between atoms: C_6  and  C_9 
REMARK       I    between atoms: N_10  and  C_8 
REMARK    6  A    between atoms: C_12  and  N_10 
ROOT
ATOM      1  S   UNL d   1       0.151  -0.381  -0.514  0.00  0.00     0.186 S 
ATOM      2  O   UNL d   1      -1.179  -0.824  -0.142  0.00  0.00    -0.222 OA
ATOM      3  O   UNL d   1       1.316  -1.151  -0.111  0.00  0.00    -0.222 OA
ENDROOT
BRANCH   1   4
ATOM      4  C   UNL d   1       0.320   1.194   0.306  0.00  0.00     0.092 A 
ATOM      5  C   UNL d   1       0.411   2.455  -0.277  0.00  0.00     0.125 A 
ATOM      6  C   UNL d   1       0.394   3.632   0.499  0.00  0.00     0.053 A 
ATOM      7  C   UNL d   1       0.301   3.558   1.895  0.00  0.00     0.050 A 
ATOM      8  C   UNL d   1       0.247   2.292   2.493  0.00  0.00     0.018 A 
ATOM      9  C   UNL d   1       0.251   1.129   1.710  0.00  0.00     0.027 A 
BRANCH   5  10
ATOM     10  N   UNL d   1       0.586   2.652  -1.690  0.00  0.00    -0.114 N 
ATOM     11  O   UNL d   1       1.654   2.263  -2.173  0.00  0.00    -0.532 OA
ATOM     12  O   UNL d   1      -0.345   3.181  -2.304  0.00  0.00    -0.532 OA
ENDBRANCH   5  10
BRANCH   7  13
ATOM     13  C   UNL d   1       0.257   4.807   2.748  0.00  0.00     0.417 C 
ATOM     14  F   UNL d   1       0.306   5.955   2.018  0.00  0.00    -0.166 F 
ATOM     15  F   UNL d   1      -0.877   4.883   3.494  0.00  0.00    -0.166 F 
ATOM     16  F   UNL d   1       1.295   4.873   3.624  0.00  0.00    -0.166 F 
ENDBRANCH   7  13
ENDBRANCH   1   4
BRANCH   1  17
ATOM     17  C   UNL d   1       0.213  -0.283  -2.254  0.00  0.00     0.248 C 
BRANCH  17  18
ATOM     18  C   UNL d   1      -0.274  -1.555  -2.891  0.00  0.00     0.236 C 
ATOM     19  N   UNL d   1       0.547  -2.652  -2.727  0.00  0.00    -0.324 N 
ATOM     20  H   UNL d   1       1.224  -2.652  -1.962  0.00  0.00     0.169 HD
ATOM     21  O   UNL d   1      -1.280  -1.522  -3.600  0.00  0.00    -0.272 OA
BRANCH  19  22
ATOM     22  C   UNL d   1       0.531  -3.837  -3.506  0.00  0.00     0.073 A 
ATOM     23  C   UNL d   1       1.408  -4.870  -3.137  0.00  0.00     0.145 A 
ATOM     24  C   UNL d   1       1.532  -6.031  -3.893  0.00  0.00     0.086 A 
ATOM     25  F   UNL d   1       2.167  -4.729  -2.039  0.00  0.00    -0.204 F 
ATOM     26  C   UNL d   1       0.766  -6.166  -5.041  0.00  0.00     0.119 A 
ATOM     27  C   UNL d   1      -0.126  -5.171  -5.425  0.00  0.00     0.044 A 
ATOM     28  F   UNL d   1       0.894  -7.263  -5.798  0.00  0.00    -0.206 F 
ATOM     29  C   UNL d   1      -0.247  -4.008  -4.655  0.00  0.00     0.036 A 
ENDBRANCH  19  22
ENDBRANCH  17  18
ENDBRANCH   1  17
TORSDOF 6
