REMARK  3 active torsions:
REMARK  status: ('A' for Active; 'I' for Inactive)
REMARK    1  A    between atoms: C_4  and  C_3 
REMARK    2  A    between atoms: C_11  and  C_5 
REMARK    3  A    between atoms: C_14  and  C_8 
ROOT
ATOM      1  C   UNL d   1      -0.063  -2.706  -0.030  0.00  0.00     0.080 C 
ATOM      2  C   UNL d   1       0.042  -1.363   0.018  0.00  0.00     0.055 C 
ATOM      3  C   UNL d   1      -1.355  -3.335  -0.083  0.00  0.00     0.102 C 
ATOM      4  N   UNL d   1      -2.394  -3.855  -0.092  0.00  0.00    -0.191 NA
ENDROOT
BRANCH   1   5
ATOM      5  C   UNL d   1       1.147  -3.497  -0.026  0.00  0.00     0.095 A 
ATOM      6  N   UNL d   1       2.398  -3.051   0.025  0.00  0.00    -0.348 N 
ATOM      7  C   UNL d   1       3.321  -4.096   0.021  0.00  0.00     0.050 A 
ATOM      8  HN  UNL d   1       2.652  -2.064   0.063  1.00  0.00     0.166 HD
ATOM      9  C   UNL d   1       2.758  -5.351  -0.053  0.00  0.00     0.082 A 
ATOM     10  S   UNL d   1       1.058  -5.237  -0.087  0.00  0.00    -0.080 SA
BRANCH   7  11
ATOM     11  C   UNL d   1       4.767  -3.864   0.059  0.00  0.00    -0.009 A 
ATOM     12  C   UNL d   1       5.657  -4.815   0.589  0.00  0.00     0.015 A 
ATOM     13  C   UNL d   1       7.038  -4.579   0.601  0.00  0.00     0.024 A 
ATOM     14  C   UNL d   1       7.540  -3.388   0.083  0.00  0.00     0.034 A 
ATOM     15  C   UNL d   1       6.675  -2.432  -0.442  0.00  0.00     0.024 A 
ATOM     16 CL   UNL d   1       9.236  -3.098   0.096  0.00  0.00    -0.084 Cl
ATOM     17  C   UNL d   1       5.294  -2.669  -0.451  0.00  0.00     0.015 A 
ENDBRANCH   7  11
ENDBRANCH   1   5
BRANCH   2  18
ATOM     18  C   UNL d   1      -1.124  -0.481  -0.010  0.00  0.00     0.033 A 
ATOM     19  N   UNL d   1      -1.555  -0.140  -1.244  0.00  0.00    -0.366 N 
ATOM     20  C   UNL d   1      -2.700   0.574  -1.316  0.00  0.00     0.088 A 
ATOM     21  HN  UNL d   1      -1.040  -0.409  -2.082  1.00  0.00     0.165 HD
ATOM     22  C   UNL d   1      -3.432   0.971  -0.209  0.00  0.00     0.017 A 
ATOM     23  C   UNL d   1      -2.959   0.622   1.051  0.00  0.00     0.004 A 
ATOM     24  C   UNL d   1      -1.784  -0.115   1.158  0.00  0.00     0.029 A 
ENDBRANCH   2  18
TORSDOF 3
