REMARK  5 active torsions:
REMARK  status: ('A' for Active; 'I' for Inactive)
REMARK    1  A    between atoms: C_2  and  S_1 
REMARK    2  A    between atoms: N_4  and  S_1 
REMARK    3  A    between atoms: C_5  and  C_3 
REMARK    4  A    between atoms: C_12  and  N_4 
REMARK    5  A    between atoms: O_13  and  C_5 
ROOT
ATOM      1  S   UNL d   1       0.903   0.385   0.072  0.00  0.00     0.247 S 
ATOM      2  O   UNL d   1       0.512  -0.933  -0.391  0.00  0.00    -0.205 OA
ATOM      3  O   UNL d   1       2.292   0.769   0.165  0.00  0.00    -0.205 OA
ENDROOT
BRANCH   1   4
ATOM      4  C   UNL d   1       0.310   0.418   1.708  0.00  0.00     0.098 A 
ATOM      5  C   UNL d   1      -0.979   0.108   2.114  0.00  0.00     0.102 A 
ATOM      6  S   UNL d   1      -1.094   0.096   3.832  0.00  0.00    -0.094 SA
ATOM      7  C   UNL d   1       0.545   0.516   4.031  0.00  0.00     0.052 A 
ATOM      8  C   UNL d   1       1.184   0.663   2.819  0.00  0.00     0.033 A 
BRANCH   5   9
ATOM      9  C   UNL d   1      -2.195  -0.204   1.380  0.00  0.00     0.301 C 
ATOM     10  O   UNL d   1      -3.144  -0.852   1.806  0.00  0.00    -0.259 OA
BRANCH   9  11
ATOM     11  O   UNL d   1      -2.198   0.423   0.172  0.00  0.00    -0.322 OA
ATOM     12  C   UNL d   1      -3.419   0.322  -0.561  0.00  0.00     0.213 C 
ENDBRANCH   9  11
ENDBRANCH   5   9
ENDBRANCH   1   4
BRANCH   1  13
ATOM     13  N   UNL d   1       0.092   1.487  -0.885  0.00  0.00    -0.181 NA
ATOM     14  H   UNL d   1       0.071   1.149  -1.847  0.00  0.00     0.146 HD
BRANCH  13  15
ATOM     15  C   UNL d   1       0.345   2.883  -0.786  0.00  0.00     0.022 A 
ATOM     16  C   UNL d   1       1.483   3.450  -1.356  0.00  0.00     0.025 A 
ATOM     17  C   UNL d   1       1.530   4.831  -1.575  0.00  0.00     0.008 A 
ATOM     18  C   UNL d   1       0.442   5.643  -1.229  0.00  0.00    -0.062 A 
ATOM     19  C   UNL d   1      -0.655   5.071  -0.574  0.00  0.00     0.008 A 
ATOM     20  C   UNL d   1       0.415   7.085  -1.648  0.00  0.00     0.048 C 
ATOM     21  C   UNL d   1      -0.704   3.693  -0.358  0.00  0.00     0.025 A 
ENDBRANCH  13  15
ENDBRANCH   1  13
TORSDOF 5
