REMARK  5 active torsions:
REMARK  status: ('A' for Active; 'I' for Inactive)
REMARK    1  A    between atoms: C_4  and  C_1 
REMARK    2  A    between atoms: C_10  and  C_1 
REMARK    3  A    between atoms: N_5  and  N_2 
REMARK    4  A    between atoms: O_13  and  C_4 
REMARK       I    between atoms: C_6  and  N_5 
REMARK    5  A    between atoms: C_7  and  C_6 
ROOT
ATOM      1  N   UNL d   1       0.893   1.335  -2.094  0.00  0.00    -0.265 N 
ATOM      2  C   UNL d   1       0.100   1.848  -3.112  0.00  0.00     0.270 C 
ATOM      3  O   UNL d   1      -1.120   1.731  -3.169  0.00  0.00    -0.266 OA
ATOM      4  H   UNL d   1       1.910   1.293  -2.168  0.00  0.00     0.190 HD
ENDROOT
BRANCH   1   5
ATOM      5  N   UNL d   1       0.268   0.670  -1.080  0.00  0.00    -0.295 N 
ATOM      6  C   UNL d   1       0.949   0.138  -0.108  0.00  0.00     0.102 C 
ATOM      7  HN  UNL d   1      -0.749   0.590  -1.083  1.00  0.00     0.187 HD
BRANCH   6   8
ATOM      8  C   UNL d   1       2.483   0.250  -0.005  0.00  0.00     0.191 C 
ATOM      9  O   UNL d   1       3.168   0.361  -1.009  0.00  0.00    -0.645 OA
BRANCH   8  10
ATOM     10  O   UNL d   1       2.982   0.302   1.234  0.00  0.00    -0.772 OA
ATOM     11  H   UNL d   1       2.346   0.286   1.971  0.00  0.00     0.167 HD
ENDBRANCH   8  10
ENDBRANCH   6   8
BRANCH   6  12
ATOM     12  C   UNL d   1       0.195  -0.612   0.996  0.00  0.00     0.036 C 
ATOM     13  C   UNL d   1      -1.319  -0.607   0.760  0.00  0.00     0.016 C 
ATOM     14  C   UNL d   1       0.684  -2.051   1.134  0.00  0.00     0.016 C 
ENDBRANCH   6  12
ENDBRANCH   1   5
BRANCH   2  15
ATOM     15  C   UNL d   1       0.790   2.585  -4.208  0.00  0.00     0.033 A 
ATOM     16  C   UNL d   1       0.170   2.613  -5.468  0.00  0.00     0.019 A 
ATOM     17  C   UNL d   1       0.721   3.354  -6.516  0.00  0.00     0.025 A 
ATOM     18  C   UNL d   1       1.892   4.077  -6.303  0.00  0.00     0.034 A 
ATOM     19  C   UNL d   1       2.516   4.060  -5.054  0.00  0.00     0.025 A 
ATOM     20 CL   UNL d   1       2.559   5.014  -7.582  0.00  0.00    -0.084 Cl
ATOM     21  C   UNL d   1       1.968   3.313  -4.003  0.00  0.00     0.019 A 
ENDBRANCH   2  15
TORSDOF 5
