REMARK  7 active torsions:
REMARK  status: ('A' for Active; 'I' for Inactive)
REMARK    1  A    between atoms: C_6  and  C_1 
REMARK    2  A    between atoms: C_13  and  N_2 
REMARK    3  A    between atoms: C_9  and  C_4 
REMARK       I    between atoms: N_7  and  C_6 
REMARK    4  A    between atoms: C_15  and  N_7 
REMARK    5  A    between atoms: N_8  and  C_18 
REMARK    6  A    between atoms: C_16  and  C_13 
REMARK    7  A    between atoms: C_18  and  C_16 
ROOT
ATOM      1  C   UNL d   1      -0.241   1.109   0.178  0.00  0.00     0.056 C 
ATOM      2  N   UNL d   1       0.899  -0.835   0.255  0.00  0.00    -0.349 N 
ATOM      3  C   UNL d   1       1.012   0.550   0.425  0.00  0.00     0.024 C 
ATOM      4  C   UNL d   1      -0.436  -1.193   0.120  0.00  0.00     0.046 C 
ATOM      5  C   UNL d   1      -1.122   0.002  -0.022  0.00  0.00     0.049 C 
ATOM      6  C   UNL d   1       2.302   1.181   0.838  0.00  0.00     0.069 C 
ENDROOT
BRANCH   1   7
ATOM      7  C   UNL d   1      -0.726   2.505   0.202  0.00  0.00     0.258 C 
ATOM      8  N   UNL d   1       0.234   3.491   0.085  0.00  0.00    -0.323 N 
ATOM      9  H   UNL d   1       1.170   3.181  -0.115  0.00  0.00     0.169 HD
ATOM     10  O   UNL d   1      -1.935   2.710   0.287  0.00  0.00    -0.267 OA
BRANCH   8  11
ATOM     11  C   UNL d   1       0.017   4.890   0.109  0.00  0.00     0.037 A 
ATOM     12  C   UNL d   1      -1.222   5.487   0.323  0.00  0.00     0.046 A 
ATOM     13  C   UNL d   1      -1.314   6.871   0.292  0.00  0.00     0.090 A 
ATOM     14  N   UNL d   1      -0.263   7.689   0.077  0.00  0.00    -0.375 N 
ATOM     15  C   UNL d   1       0.931   7.095  -0.109  0.00  0.00     0.090 A 
ATOM     16  HN  UNL d   1      -0.367   8.703   0.057  1.00  0.00     0.164 HD
ATOM     17  C   UNL d   1       1.123   5.720  -0.101  0.00  0.00     0.046 A 
ENDBRANCH   8  11
ENDBRANCH   1   7
BRANCH   2  18
ATOM     18  C   UNL d   1       2.033  -1.759   0.263  0.00  0.00     0.131 C 
BRANCH  18  19
ATOM     19  C   UNL d   1       2.635  -1.915  -1.135  0.00  0.00     0.050 C 
BRANCH  19  20
ATOM     20  C   UNL d   1       3.827  -2.877  -1.118  0.00  0.00     0.274 C 
BRANCH  20  21
ATOM     21  N   UNL d   1       4.260  -3.267  -2.467  0.00  0.00     0.092 N 
ATOM     22  C   UNL d   1       4.792  -2.138  -3.260  0.00  0.00     0.298 C 
ATOM     23  C   UNL d   1       5.262  -2.610  -4.648  0.00  0.00     0.198 C 
ATOM     24  O   UNL d   1       6.267  -3.626  -4.540  0.00  0.00    -0.388 OA
ATOM     25  C   UNL d   1       5.756  -4.744  -3.802  0.00  0.00     0.198 C 
ATOM     26  C   UNL d   1       5.303  -4.316  -2.396  0.00  0.00     0.298 C 
ENDBRANCH  20  21
ENDBRANCH  19  20
ENDBRANCH  18  19
ENDBRANCH   2  18
BRANCH   4  27
ATOM     27  C   UNL d   1      -1.028  -2.541   0.239  0.00  0.00    -0.009 A 
ATOM     28  C   UNL d   1      -0.478  -3.688  -0.345  0.00  0.00     0.014 A 
ATOM     29  C   UNL d   1      -1.024  -4.954  -0.103  0.00  0.00     0.001 A 
ATOM     30  C   UNL d   1      -2.162  -5.089   0.687  0.00  0.00     0.000 A 
ATOM     31  C   UNL d   1      -2.766  -3.955   1.218  0.00  0.00     0.001 A 
ATOM     32  C   UNL d   1      -2.201  -2.696   0.998  0.00  0.00     0.014 A 
ENDBRANCH   4  27
TORSDOF 7
