REMARK  7 active torsions:
REMARK  status: ('A' for Active; 'I' for Inactive)
REMARK    1  A    between atoms: C_3  and  S_1 
REMARK    2  A    between atoms: C_7  and  S_1 
REMARK       I    between atoms: C_2  and  N_9 
REMARK    3  A    between atoms: C_4  and  C_2 
REMARK    4  A    between atoms: C_12  and  C_3 
REMARK    5  A    between atoms: C_13  and  C_7 
REMARK    6  A    between atoms: N_9  and  C_12 
REMARK    7  A    between atoms: O_23  and  C_15 
ROOT
ATOM      1  C   UNL d   1       0.796   1.449   2.146  0.00  0.00     0.138 C 
ENDROOT
BRANCH   1   2
ATOM      2  N   UNL d   1       0.505   2.677   2.863  0.00  0.00    -0.356 N 
ATOM      3  C   UNL d   1      -0.582   2.829   3.695  0.00  0.00     0.251 C 
ATOM      4  O   UNL d   1      -1.376   1.922   3.920  0.00  0.00    -0.268 OA
ATOM      5  H   UNL d   1       1.104   3.471   2.673  0.00  0.00     0.162 HD
BRANCH   3   6
ATOM      6  C   UNL d   1      -0.738   4.163   4.358  0.00  0.00     0.032 A 
ATOM      7  C   UNL d   1      -0.200   5.343   3.829  0.00  0.00     0.020 A 
ATOM      8  C   UNL d   1      -0.340   6.558   4.516  0.00  0.00     0.038 A 
ATOM      9  C   UNL d   1      -1.028   6.605   5.728  0.00  0.00     0.068 A 
ATOM     10  C   UNL d   1      -1.607   5.440   6.233  0.00  0.00     0.038 A 
ATOM     11  C   UNL d   1      -1.458   4.223   5.559  0.00  0.00     0.020 A 
BRANCH   9  12
ATOM     12  O   UNL d   1      -1.245   7.735   6.469  0.00  0.00    -0.356 OA
ATOM     13  C   UNL d   1      -0.234   8.733   6.386  0.00  0.00     0.210 C 
ENDBRANCH   9  12
ENDBRANCH   3   6
ENDBRANCH   1   2
BRANCH   1  14
ATOM     14  C   UNL d   1       0.203   1.407   0.745  0.00  0.00     0.160 C 
BRANCH  14  15
ATOM     15  S   UNL d   1       0.903   2.680  -0.291  0.00  0.00     0.150 S 
ATOM     16  O   UNL d   1       2.325   2.399  -0.401  0.00  0.00    -0.228 OA
ATOM     17  O   UNL d   1       0.445   3.963   0.215  0.00  0.00    -0.228 OA
BRANCH  15  18
ATOM     18  C   UNL d   1       0.141   2.378  -1.886  0.00  0.00     0.178 C 
BRANCH  18  19
ATOM     19  C   UNL d   1       0.588   3.440  -2.861  0.00  0.00    -0.044 A 
ATOM     20  C   UNL d   1       1.786   3.294  -3.586  0.00  0.00     0.011 A 
ATOM     21  C   UNL d   1       2.204   4.289  -4.470  0.00  0.00     0.043 A 
ATOM     22  C   UNL d   1       1.433   5.434  -4.633  0.00  0.00     0.116 A 
ATOM     23  C   UNL d   1       0.248   5.601  -3.929  0.00  0.00     0.043 A 
ATOM     24  F   UNL d   1       1.838   6.391  -5.478  0.00  0.00    -0.206 F 
ATOM     25  C   UNL d   1      -0.174   4.606  -3.043  0.00  0.00     0.011 A 
ENDBRANCH  18  19
ENDBRANCH  15  18
ENDBRANCH  14  15
ENDBRANCH   1  14
TORSDOF 7
