REMARK  5 active torsions:
REMARK  status: ('A' for Active; 'I' for Inactive)
REMARK    1  A    between atoms: C_3  and  C_1 
REMARK    2  A    between atoms: C_6  and  C_2 
REMARK       I    between atoms: N_7  and  C_3 
REMARK    3  A    between atoms: O_19  and  C_6 
REMARK    4  A    between atoms: C_14  and  N_7 
REMARK    5  A    between atoms: C_10  and  C_12 
ROOT
ATOM      1  C   UNL d   1      -5.408   1.450  -1.285  0.00  0.00     0.257 C 
ATOM      2  N   UNL d   1      -5.440   0.708  -0.123  0.00  0.00    -0.323 N 
ATOM      3  O   UNL d   1      -5.693   1.003  -2.396  0.00  0.00    -0.267 OA
ATOM      4  H   UNL d   1      -5.287   1.171   0.770  0.00  0.00     0.169 HD
ENDROOT
BRANCH   1   5
ATOM      5  C   UNL d   1      -4.936   2.888  -1.254  0.00  0.00     0.051 A 
ATOM      6  C   UNL d   1      -4.271   3.561  -0.211  0.00  0.00     0.055 A 
ATOM      7  C   UNL d   1      -3.797   4.878  -0.396  0.00  0.00     0.045 A 
ATOM      8  C   UNL d   1      -3.957   5.533  -1.619  0.00  0.00     0.056 A 
ATOM      9  C   UNL d   1      -4.617   4.888  -2.662  0.00  0.00     0.056 A 
ATOM     10 CL   UNL d   1      -3.309   7.125  -1.768  0.00  0.00    -0.083 Cl
ATOM     11  C   UNL d   1      -5.098   3.587  -2.474  0.00  0.00     0.043 A 
ATOM     12 CL   UNL d   1      -4.861   5.630  -4.201  0.00  0.00    -0.083 Cl
BRANCH   6  13
ATOM     13  C   UNL d   1      -4.084   2.995   1.135  0.00  0.00     0.177 C 
ATOM     14  O   UNL d   1      -4.996   2.474   1.753  0.00  0.00    -0.646 OA
BRANCH  13  15
ATOM     15  O   UNL d   1      -2.826   3.080   1.603  0.00  0.00    -0.773 OA
ATOM     16  H   UNL d   1      -2.147   3.413   0.985  0.00  0.00     0.167 HD
ENDBRANCH  13  15
ENDBRANCH   6  13
ENDBRANCH   1   5
BRANCH   2  17
ATOM     17  C   UNL d   1      -5.599  -0.697  -0.018  0.00  0.00     0.035 A 
ATOM     18  C   UNL d   1      -6.016  -1.522  -1.056  0.00  0.00     0.030 A 
ATOM     19  C   UNL d   1      -6.032  -2.915  -0.898  0.00  0.00     0.010 A 
ATOM     20  C   UNL d   1      -5.601  -3.530   0.291  0.00  0.00    -0.051 A 
ATOM     21  C   UNL d   1      -5.254  -2.682   1.352  0.00  0.00     0.010 A 
ATOM     22  C   UNL d   1      -5.263  -1.286   1.203  0.00  0.00     0.030 A 
BRANCH  20  23
ATOM     23  C   UNL d   1      -5.469  -5.062   0.364  0.00  0.00    -0.024 C 
ATOM     24  C   UNL d   1      -4.874  -5.571   1.696  0.00  0.00     0.019 C 
ATOM     25  C   UNL d   1      -6.844  -5.735   0.184  0.00  0.00     0.019 C 
ATOM     26  C   UNL d   1      -4.522  -5.540  -0.762  0.00  0.00     0.019 C 
ENDBRANCH  20  23
ENDBRANCH   2  17
TORSDOF 5
