REMARK  3 active torsions:
REMARK  status: ('A' for Active; 'I' for Inactive)
REMARK    1  A    between atoms: C_4  and  N_1 
REMARK    2  A    between atoms: C_5  and  O_9 
REMARK    3  A    between atoms: O_9  and  C_6 
ROOT
ATOM      1  C   UNL d   1       3.683   0.981  -1.370  0.00  0.00     0.047 A 
ATOM      2  C   UNL d   1       4.423  -0.227  -1.420  0.00  0.00     0.053 A 
ATOM      3  C   UNL d   1       2.322   0.880  -1.782  0.00  0.00     0.094 A 
ATOM      4  N   UNL d   1       3.882  -1.390  -1.833  0.00  0.00    -0.359 N 
ATOM      5  HN  UNL d   1       4.444  -2.242  -1.826  1.00  0.00     0.166 HD
ATOM      6  C   UNL d   1       1.809  -0.314  -2.286  0.00  0.00     0.062 A 
ATOM      7  C   UNL d   1       4.360   2.155  -0.919  0.00  0.00     0.049 A 
ATOM      8  C   UNL d   1       2.604  -1.434  -2.255  0.00  0.00     0.008 A 
ATOM      9  C   UNL d   1       5.768  -0.240  -1.023  0.00  0.00    -0.034 A 
ATOM     10  C   UNL d   1       5.705   2.123  -0.543  0.00  0.00     0.025 A 
ATOM     11  C   UNL d   1       6.406   0.931  -0.594  0.00  0.00     0.011 A 
ATOM     12 CL   UNL d   1       3.603   3.713  -0.814  0.00  0.00    -0.083 Cl
ATOM     13  C   UNL d   1       6.591  -1.505  -1.058  0.00  0.00     0.050 C 
ATOM     14  C   UNL d   1       2.038  -2.770  -2.632  0.00  0.00     0.068 C 
ENDROOT
BRANCH   3  15
ATOM     15  O   UNL d   1       1.504   1.997  -1.732  0.00  0.00    -0.290 OA
BRANCH  15  16
ATOM     16  C   UNL d   1       0.209   1.831  -1.254  0.00  0.00     0.181 A 
ATOM     17  C   UNL d   1      -0.782   2.715  -1.642  0.00  0.00     0.154 A 
ATOM     18  C   UNL d   1      -2.099   2.521  -1.210  0.00  0.00     0.042 A 
ATOM     19  C   UNL d   1      -2.375   1.435  -0.385  0.00  0.00     0.020 A 
ATOM     20  C   UNL d   1      -1.325   0.616  -0.005  0.00  0.00     0.090 A 
ATOM     21  N   UNL d   1      -0.047   0.797  -0.409  0.00  0.00    -0.345 N 
ATOM     22  HN  UNL d   1       0.699   0.180  -0.091  1.00  0.00     0.167 HD
BRANCH  17  23
ATOM     23  N   UNL d   1      -0.481   3.820  -2.512  0.00  0.00    -0.111 N 
ATOM     24  O   UNL d   1       0.031   3.559  -3.608  0.00  0.00    -0.532 OA
ATOM     25  O   UNL d   1      -0.823   4.944  -2.126  0.00  0.00    -0.532 OA
ENDBRANCH  17  23
ENDBRANCH  15  16
ENDBRANCH   3  15
TORSDOF 3
