REMARK  7 active torsions:
REMARK  status: ('A' for Active; 'I' for Inactive)
REMARK    1  A    between atoms: C_3  and  N_1 
REMARK    2  A    between atoms: CA_4  and  N_1 
REMARK    3  A    between atoms: C_5  and  C_2 
REMARK    4  A    between atoms: C_6  and  CA_4 
REMARK    5  A    between atoms: C_9  and  CA_4 
REMARK    6  A    between atoms: O_10  and  C_5 
REMARK    7  A    between atoms: OXT_11  and  C_6 
ROOT
ATOM      1  N   UNL d   1       1.204   0.092  -0.015  0.00  0.00    -0.371 N 
ATOM      2  H   UNL d   1       0.733   0.765  -0.620  0.00  0.00     0.161 HD
ENDROOT
BRANCH   1   3
ATOM      3  C   UNL d   1       0.443  -0.972   0.465  0.00  0.00     0.046 A 
ATOM      4  C   UNL d   1      -0.871  -1.212  -0.002  0.00  0.00     0.064 A 
ATOM      5  C   UNL d   1      -1.639  -2.285   0.479  0.00  0.00     0.020 A 
ATOM      6  C   UNL d   1      -1.117  -3.125   1.457  0.00  0.00     0.001 A 
ATOM      7  C   UNL d   1       0.169  -2.903   1.939  0.00  0.00     0.002 A 
ATOM      8  C   UNL d   1       0.937  -1.840   1.448  0.00  0.00     0.030 A 
BRANCH   4   9
ATOM      9  C   UNL d   1      -1.401  -0.380  -1.103  0.00  0.00     0.178 C 
ATOM     10  O   UNL d   1      -0.682   0.005  -2.013  0.00  0.00    -0.646 OA
BRANCH   9  11
ATOM     11  O   UNL d   1      -2.700  -0.047  -0.975  0.00  0.00    -0.773 OA
ATOM     12  H   UNL d   1      -3.099  -0.274  -0.114  0.00  0.00     0.167 HD
ENDBRANCH   9  11
ENDBRANCH   4   9
ENDBRANCH   1   3
BRANCH   1  13
ATOM     13  CA  UNL d   1       2.666   0.012  -0.221  0.00  0.00     0.213 C 
BRANCH  13  14
ATOM     14  C   UNL d   1       3.047   0.124  -1.720  0.00  0.00     0.168 C 
ATOM     15  O   UNL d   1       4.173   0.378  -2.132  0.00  0.00    -0.648 OA
BRANCH  14  16
ATOM     16  OXT UNL d   1       2.042  -0.166  -2.587  0.00  0.00    -0.775 OA
ATOM     17  HXT UNL d   1       1.166  -0.337  -2.169  0.00  0.00     0.167 HD
ENDBRANCH  14  16
ENDBRANCH  13  14
BRANCH  13  18
ATOM     18  C   UNL d   1       3.370   1.073   0.615  0.00  0.00    -0.025 A 
ATOM     19  C   UNL d   1       4.603   0.773   1.220  0.00  0.00     0.010 A 
ATOM     20  C   UNL d   1       5.309   1.746   1.930  0.00  0.00     0.001 A 
ATOM     21  C   UNL d   1       4.794   3.034   2.048  0.00  0.00     0.000 A 
ATOM     22  C   UNL d   1       3.572   3.349   1.460  0.00  0.00     0.001 A 
ATOM     23  C   UNL d   1       2.866   2.378   0.745  0.00  0.00     0.010 A 
ENDBRANCH  13  18
ENDBRANCH   1  13
TORSDOF 7
