REMARK  1 active torsions:
REMARK  status: ('A' for Active; 'I' for Inactive)
REMARK    1  A    between atoms: C_3  and  C_1 
ROOT
ATOM      1  C   UNL d   1       0.845  -1.295  -0.188  0.00  0.00     0.183 C 
ATOM      2  N   UNL d   1       1.795  -0.631  -1.030  0.00  0.00    -0.343 N 
ATOM      3  S   UNL d   1      -0.329  -2.109  -1.297  0.00  0.00    -0.130 SA
ATOM      4  C   UNL d   1       1.491  -0.471  -2.354  0.00  0.00     0.228 C 
ATOM      5  C   UNL d   1       0.231  -1.197  -2.758  0.00  0.00     0.179 C 
ATOM      6  O   UNL d   1       2.182   0.197  -3.112  0.00  0.00    -0.273 OA
ATOM      7  H   UNL d   1       2.583  -0.126  -0.649  0.00  0.00     0.164 HD
ENDROOT
BRANCH   1   8
ATOM      8  C   UNL d   1       1.522  -2.238   0.769  0.00  0.00     0.013 A 
ATOM      9  C   UNL d   1       1.323  -2.093   2.146  0.00  0.00     0.125 A 
ATOM     10  F   UNL d   1       0.525  -1.120   2.607  0.00  0.00    -0.205 F 
ATOM     11  C   UNL d   1       1.950  -2.931   3.065  0.00  0.00     0.043 A 
ATOM     12  C   UNL d   1       2.794  -3.943   2.614  0.00  0.00     0.003 A 
ATOM     13  C   UNL d   1       3.005  -4.111   1.247  0.00  0.00     0.001 A 
ATOM     14  C   UNL d   1       2.376  -3.265   0.330  0.00  0.00     0.013 A 
ENDBRANCH   1   8
TORSDOF 1
