REMARK  2 active torsions:
REMARK  status: ('A' for Active; 'I' for Inactive)
REMARK    1  A    between atoms: C_7  and  C_1 
REMARK    2  A    between atoms: C_10  and  C_8 
ROOT
ATOM      1  C   UNL d   1       1.196   1.137  -0.003  0.00  0.00     0.164 A 
ATOM      2  N   UNL d   1       1.553  -0.105   0.014  0.00  0.00    -0.331 N 
ATOM      3  HN  UNL d   1       2.496  -0.493   0.032  1.00  0.00     0.168 HD
ATOM      4  O   UNL d   1      -0.132   1.405  -0.012  0.00  0.00    -0.255 OA
ATOM      5  C   UNL d   1       0.358  -0.773   0.001  0.00  0.00     0.111 A 
ATOM      6  C   UNL d   1      -0.772   0.201  -0.002  0.00  0.00     0.316 A 
ATOM      7  C   UNL d   1       0.266  -2.110  -0.006  0.00  0.00     0.047 C 
ATOM      8  O   UNL d   1      -1.970   0.019   0.009  0.00  0.00    -0.257 OA
ENDROOT
BRANCH   7   9
ATOM      9  C   UNL d   1      -0.987  -2.858   0.004  0.00  0.00    -0.032 A 
ATOM     10  C   UNL d   1      -1.608  -3.218  -1.197  0.00  0.00     0.037 A 
ATOM     11  C   UNL d   1      -2.837  -3.887  -1.180  0.00  0.00     0.056 A 
ATOM     12 CL   UNL d   1      -3.553  -4.291  -2.700  0.00  0.00    -0.083 Cl
ATOM     13  C   UNL d   1      -3.444  -4.203   0.041  0.00  0.00     0.055 A 
ATOM     14  C   UNL d   1      -2.812  -3.862   1.240  0.00  0.00     0.026 A 
ATOM     15 CL   UNL d   1      -4.970  -5.008   0.139  0.00  0.00    -0.083 Cl
ATOM     16  C   UNL d   1      -1.587  -3.192   1.222  0.00  0.00     0.013 A 
ENDBRANCH   7   9
BRANCH   1  17
ATOM     17  C   UNL d   1       2.053   2.333  -0.010  0.00  0.00     0.032 A 
ATOM     18  C   UNL d   1       3.314   2.380  -0.625  0.00  0.00     0.021 A 
ATOM     19  I   UNL d   1       4.175   0.814  -1.732  0.00  0.00    -0.044 I 
ATOM     20  C   UNL d   1       4.069   3.562  -0.567  0.00  0.00     0.019 A 
ATOM     21  C   UNL d   1       3.577   4.689   0.091  0.00  0.00     0.001 A 
ATOM     22  C   UNL d   1       2.328   4.649   0.699  0.00  0.00     0.001 A 
ATOM     23  C   UNL d   1       1.570   3.479   0.652  0.00  0.00     0.017 A 
ENDBRANCH   1  17
TORSDOF 2
