REMARK  5 active torsions:
REMARK  status: ('A' for Active; 'I' for Inactive)
REMARK       I    between atoms: N_3  and  C_1 
REMARK    1  A    between atoms: C_7  and  C_1 
REMARK    2  A    between atoms: C_2  and  O_6 
REMARK    3  A    between atoms: C_5  and  N_3 
REMARK    4  A    between atoms: O_6  and  C_4 
REMARK    5  A    between atoms: O_19  and  C_16 
ROOT
ATOM      1  C   UNL d   1       0.877  -2.857   1.866  0.00  0.00     0.106 A 
ATOM      2  C   UNL d   1       1.157  -1.484   1.754  0.00  0.00     0.069 A 
ATOM      3  C   UNL d   1       1.632  -3.626   2.771  0.00  0.00     0.063 A 
ATOM      4  C   UNL d   1       2.113  -0.906   2.612  0.00  0.00     0.034 A 
ATOM      5  C   UNL d   1       2.587  -3.041   3.597  0.00  0.00     0.036 A 
ATOM      6  C   UNL d   1       2.815  -1.672   3.534  0.00  0.00     0.026 A 
ATOM      7 CL   UNL d   1       3.504  -4.020   4.671  0.00  0.00    -0.084 Cl
ENDROOT
BRANCH   2   8
ATOM      8  N   UNL d   1       0.517  -0.660   0.803  0.00  0.00    -0.321 N 
ATOM      9  C   UNL d   1       1.181   0.290   0.045  0.00  0.00     0.256 C 
ATOM     10  O   UNL d   1       2.389   0.488   0.042  0.00  0.00    -0.267 OA
ATOM     11  H   UNL d   1      -0.414  -0.908   0.503  0.00  0.00     0.169 HD
BRANCH   9  12
ATOM     12  C   UNL d   1       0.322   1.040  -0.906  0.00  0.00     0.035 A 
ATOM     13  C   UNL d   1       0.823   1.301  -2.189  0.00  0.00     0.053 A 
ATOM     14  C   UNL d   1       0.057   2.025  -3.100  0.00  0.00     0.069 A 
ATOM     15  C   UNL d   1      -1.203   2.495  -2.714  0.00  0.00     0.037 A 
ATOM     16  C   UNL d   1      -1.702   2.239  -1.435  0.00  0.00     0.004 A 
ATOM     17  C   UNL d   1      -0.941   1.508  -0.525  0.00  0.00     0.017 A 
BRANCH  14  18
ATOM     18  O   UNL d   1       0.418   2.343  -4.380  0.00  0.00    -0.356 OA
ATOM     19  C   UNL d   1       1.686   1.875  -4.826  0.00  0.00     0.210 C 
ENDBRANCH  14  18
ENDBRANCH   9  12
ENDBRANCH   2   8
BRANCH   1  20
ATOM     20  O   UNL d   1       0.095  -3.634   1.065  0.00  0.00    -0.253 OA
BRANCH  20  21
ATOM     21  C   UNL d   1      -1.168  -3.205   0.600  0.00  0.00     0.530 C 
ATOM     22  F   UNL d   1      -1.552  -2.002   1.081  0.00  0.00    -0.144 F 
ATOM     23  F   UNL d   1      -1.141  -3.129  -0.747  0.00  0.00    -0.144 F 
ATOM     24  F   UNL d   1      -2.100  -4.114   0.958  0.00  0.00    -0.144 F 
ENDBRANCH  20  21
ENDBRANCH   1  20
TORSDOF 5
