REMARK  6 active torsions:
REMARK  status: ('A' for Active; 'I' for Inactive)
REMARK    1  A    between atoms: O_6  and  C_1 
REMARK    2  A    between atoms: C_10  and  N_2 
REMARK    3  A    between atoms: S_11  and  C_3 
REMARK    4  A    between atoms: C_9  and  O_6 
REMARK       I    between atoms: N_13  and  C_9 
REMARK    5  A    between atoms: C_16  and  S_11 
REMARK    6  A    between atoms: C_17  and  C_16 
ROOT
ATOM      1  C   UNL d   1       0.424  -1.369   0.633  0.00  0.00     0.256 A 
ATOM      2  N   UNL d   1       1.520  -0.738   0.037  0.00  0.00    -0.255 N 
ATOM      3  C   UNL d   1       1.194   0.623   0.166  0.00  0.00     0.169 A 
ATOM      4  N   UNL d   1      -0.469  -0.467   0.997  0.00  0.00    -0.262 N 
ATOM      5  HN  UNL d   1      -1.369  -0.666   1.433  1.00  0.00     0.190 HD
ATOM      6  N   UNL d   1       0.009   0.776   0.698  0.00  0.00    -0.276 N 
ATOM      7  HN  UNL d   1      -0.471   1.662   0.859  1.00  0.00     0.189 HD
ENDROOT
BRANCH   3   8
ATOM      8  S   UNL d   1       2.286   1.923  -0.171  0.00  0.00    -0.087 SA
BRANCH   8   9
ATOM      9  C   UNL d   1       1.713   3.346   0.797  0.00  0.00     0.121 C 
BRANCH   9  10
ATOM     10  C   UNL d   1       2.721   4.458   0.564  0.00  0.00    -0.049 A 
ATOM     11  C   UNL d   1       2.606   5.292  -0.558  0.00  0.00     0.008 A 
ATOM     12  C   UNL d   1       3.664   6.121  -0.941  0.00  0.00     0.007 A 
ATOM     13  C   UNL d   1       4.852   6.144  -0.202  0.00  0.00    -0.062 A 
ATOM     14  C   UNL d   1       4.947   5.362   0.955  0.00  0.00     0.007 A 
ATOM     15  C   UNL d   1       6.049   6.900  -0.701  0.00  0.00     0.048 C 
ATOM     16  C   UNL d   1       3.890   4.531   1.339  0.00  0.00     0.008 A 
ENDBRANCH   9  10
ENDBRANCH   8   9
ENDBRANCH   3   8
BRANCH   2  17
ATOM     17  C   UNL d   1       2.759  -1.269  -0.453  0.00  0.00     0.046 A 
ATOM     18  C   UNL d   1       3.364  -2.380   0.141  0.00  0.00     0.054 A 
ATOM     19  C   UNL d   1       4.651  -2.763  -0.264  0.00  0.00     0.036 A 
ATOM     20 CL   UNL d   1       5.407  -4.122   0.474  0.00  0.00    -0.084 Cl
ATOM     21  C   UNL d   1       5.347  -2.049  -1.238  0.00  0.00     0.024 A 
ATOM     22  C   UNL d   1       4.735  -0.972  -1.865  0.00  0.00     0.004 A 
ATOM     23  C   UNL d   1       3.437  -0.614  -1.501  0.00  0.00     0.030 A 
ENDBRANCH   2  17
BRANCH   1  24
ATOM     24  O   UNL d   1       0.208  -2.634   0.937  0.00  0.00    -0.226 OA
BRANCH  24  25
ATOM     25  C   UNL d   1       0.239  -3.633   0.036  0.00  0.00     0.369 C 
ATOM     26  N   UNL d   1      -0.477  -4.751   0.471  0.00  0.00    -0.336 N 
ATOM     27  C   UNL d   1      -1.722  -4.533   1.200  0.00  0.00     0.154 C 
ATOM     28  C   UNL d   1      -0.414  -5.958  -0.334  0.00  0.00     0.154 C 
ATOM     29  O   UNL d   1       0.836  -3.587  -1.037  0.00  0.00    -0.238 OA
ENDBRANCH  24  25
ENDBRANCH   1  24
TORSDOF 6
