REMARK  8 active torsions:
REMARK  status: ('A' for Active; 'I' for Inactive)
REMARK    1  A    between atoms: C_3  and  C_1 
REMARK    2  A    between atoms: N_2  and  C_4 
REMARK    3  A    between atoms: C_17  and  N_7 
REMARK    4  A    between atoms: S_13  and  C_21 
REMARK    5  A    between atoms: C_22  and  S_13 
REMARK    6  A    between atoms: C_20  and  C_17 
REMARK    7  A    between atoms: C_21  and  C_20 
REMARK    8  A    between atoms: O_23  and  C_20 
ROOT
ATOM      1  N   UNL d   1      -1.135  -5.173  -0.391  0.00  0.00    -0.364 N 
ATOM      2  N   UNL d   1      -1.476  -8.120  -0.185  0.00  0.00     0.094 N 
ATOM      3  C   UNL d   1      -0.734  -5.887   0.824  0.00  0.00     0.154 C 
ATOM      4  C   UNL d   1      -2.228  -5.803  -1.139  0.00  0.00     0.154 C 
ATOM      5  C   UNL d   1      -0.373  -7.345   0.456  0.00  0.00     0.292 C 
ATOM      6  C   UNL d   1      -1.963  -7.328  -1.344  0.00  0.00     0.292 C 
ENDROOT
BRANCH   2   7
ATOM      7  C   UNL d   1      -2.513  -8.424   0.813  0.00  0.00     0.304 C 
BRANCH   7   8
ATOM      8  C   UNL d   1      -3.713  -9.324   0.420  0.00  0.00     0.156 C 
BRANCH   8   9
ATOM      9  C   UNL d   1      -3.346 -10.733  -0.094  0.00  0.00     0.113 C 
BRANCH   9  10
ATOM     10  S   UNL d   1      -4.893 -11.599  -0.627  0.00  0.00    -0.127 SA
BRANCH  10  11
ATOM     11  C   UNL d   1      -4.383 -13.234  -1.150  0.00  0.00     0.000 A 
ATOM     12  C   UNL d   1      -3.066 -13.689  -1.192  0.00  0.00     0.018 A 
ATOM     13  C   UNL d   1      -2.774 -14.989  -1.626  0.00  0.00     0.001 A 
ATOM     14  C   UNL d   1      -3.794 -15.851  -2.022  0.00  0.00     0.000 A 
ATOM     15  C   UNL d   1      -5.113 -15.413  -1.985  0.00  0.00     0.001 A 
ATOM     16  C   UNL d   1      -5.402 -14.112  -1.552  0.00  0.00     0.018 A 
ENDBRANCH  10  11
ENDBRANCH   9  10
ENDBRANCH   8   9
BRANCH   8  17
ATOM     17  O   UNL d   1      -4.534  -9.426   1.602  0.00  0.00    -0.393 OA
ATOM     18  H   UNL d   1      -4.063  -9.982   2.247  0.00  0.00     0.210 HD
ENDBRANCH   8  17
ENDBRANCH   7   8
ENDBRANCH   2   7
BRANCH   1  19
ATOM     19  C   UNL d   1      -0.675  -3.889  -0.570  0.00  0.00     0.103 A 
ATOM     20  C   UNL d   1      -1.289  -2.968  -1.411  0.00  0.00     0.049 A 
ATOM     21  C   UNL d   1      -0.744  -1.687  -1.578  0.00  0.00     0.021 A 
ATOM     22  C   UNL d   1       0.423  -1.335  -0.904  0.00  0.00     0.063 A 
ATOM     23  C   UNL d   1       0.977  -2.296  -0.086  0.00  0.00     0.106 A 
ATOM     24  N   UNL d   1       0.455  -3.531   0.088  0.00  0.00    -0.352 N 
ATOM     25  HN  UNL d   1       0.912  -4.194   0.714  1.00  0.00     0.166 HD
BRANCH  22  26
ATOM     26  C   UNL d   1       1.049   0.017  -1.046  0.00  0.00     0.418 C 
ATOM     27  F   UNL d   1       2.189   0.173  -0.315  0.00  0.00    -0.166 F 
ATOM     28  F   UNL d   1       0.218   1.021  -0.652  0.00  0.00    -0.166 F 
ATOM     29  F   UNL d   1       1.393   0.303  -2.332  0.00  0.00    -0.166 F 
ENDBRANCH  22  26
ENDBRANCH   1  19
TORSDOF 8
