REMARK  3 active torsions:
REMARK  status: ('A' for Active; 'I' for Inactive)
REMARK    1  A    between atoms: C_2  and  C_1 
REMARK       I    between atoms: N_12  and  C_2 
REMARK    2  A    between atoms: C_9  and  C_3 
REMARK    3  A    between atoms: N_7  and  C_6 
ROOT
ATOM      1  C   UNL d   1       1.159  -1.999  -0.903  0.00  0.00     0.112 C 
ATOM      2  C   UNL d   1       0.330  -1.227  -0.173  0.00  0.00     0.039 C 
ATOM      3  C   UNL d   1       0.694  -2.970  -1.830  0.00  0.00     0.105 C 
ATOM      4  N   UNL d   1       0.376  -3.777  -2.600  0.00  0.00    -0.191 NA
ENDROOT
BRANCH   1   5
ATOM      5  C   UNL d   1       2.626  -1.802  -0.702  0.00  0.00     0.260 C 
ATOM      6  O   UNL d   1       3.087  -0.973   0.075  0.00  0.00    -0.267 OA
ATOM      7  N   UNL d   1       3.471  -2.591  -1.424  0.00  0.00    -0.365 N 
ATOM      8  H   UNL d   1       3.187  -3.302  -2.085  0.00  0.00     0.159 HD
ATOM      9  H   UNL d   1       4.464  -2.457  -1.279  0.00  0.00     0.159 HD
ENDBRANCH   1   5
BRANCH   2  10
ATOM     10  C   UNL d   1      -1.132  -1.294  -0.226  0.00  0.00    -0.035 A 
ATOM     11  C   UNL d   1      -1.830  -2.141   0.631  0.00  0.00     0.013 A 
ATOM     12  C   UNL d   1      -3.232  -2.194   0.588  0.00  0.00     0.030 A 
ATOM     13  C   UNL d   1      -3.987  -1.408  -0.298  0.00  0.00     0.029 A 
ATOM     14  C   UNL d   1      -3.249  -0.570  -1.153  0.00  0.00     0.030 A 
ATOM     15  C   UNL d   1      -1.847  -0.512  -1.127  0.00  0.00     0.013 A 
BRANCH  13  16
ATOM     16  N   UNL d   1      -5.372  -1.416  -0.308  0.00  0.00    -0.390 N 
ATOM     17  C   UNL d   1      -6.130  -1.180  -1.534  0.00  0.00     0.149 C 
ATOM     18  C   UNL d   1      -6.163  -1.903   0.817  0.00  0.00     0.149 C 
ENDBRANCH  13  16
ENDBRANCH   2  10
TORSDOF 3
