REMARK  6 active torsions:
REMARK  status: ('A' for Active; 'I' for Inactive)
REMARK    1  A    between atoms: N_2  and  S_1 
REMARK    2  A    between atoms: C_3  and  S_1 
REMARK    3  A    between atoms: C_10  and  N_2 
REMARK    4  A    between atoms: C_13  and  N_4 
REMARK       I    between atoms: C_7  and  N_8 
REMARK    5  A    between atoms: N_8  and  C_18 
REMARK    6  A    between atoms: C_21  and  C_13 
ROOT
ATOM      1  N   UNL d   1       0.382  -0.673   1.146  0.00  0.00    -0.311 N 
ATOM      2  H   UNL d   1      -0.395  -0.900   0.527  0.00  0.00     0.172 HD
ENDROOT
BRANCH   1   3
ATOM      3  S   UNL d   1       0.660   0.970   1.320  0.00  0.00     0.259 S 
ATOM      4  O   UNL d   1      -0.458   1.628   0.680  0.00  0.00    -0.201 OA
ATOM      5  O   UNL d   1       2.020   1.281   0.953  0.00  0.00    -0.201 OA
BRANCH   3   6
ATOM      6  C   UNL d   1       0.486   1.153   3.066  0.00  0.00     0.079 A 
ATOM      7  C   UNL d   1       1.607   1.085   3.893  0.00  0.00     0.027 A 
ATOM      8  C   UNL d   1       1.427   1.048   5.279  0.00  0.00     0.031 A 
ATOM      9  C   UNL d   1       0.138   1.082   5.830  0.00  0.00     0.034 A 
ATOM     10  C   UNL d   1      -0.962   1.251   4.984  0.00  0.00     0.031 A 
ATOM     11  C   UNL d   1      -0.794   1.287   3.601  0.00  0.00     0.027 A 
BRANCH   9  12
ATOM     12  N   UNL d   1       0.022   0.885   7.221  0.00  0.00    -0.328 N 
ATOM     13  C   UNL d   1      -1.151   0.694   7.932  0.00  0.00     0.218 C 
ATOM     14  O   UNL d   1      -2.294   0.752   7.499  0.00  0.00    -0.274 OA
ATOM     15  C   UNL d   1      -0.916   0.336   9.377  0.00  0.00     0.117 C 
ATOM     16  H   UNL d   1       0.891   0.769   7.724  0.00  0.00     0.169 HD
ENDBRANCH   9  12
ENDBRANCH   3   6
ENDBRANCH   1   3
BRANCH   1  17
ATOM     17  C   UNL d   1       1.301  -1.729   1.612  0.00  0.00     0.096 C 
ATOM     18  C   UNL d   1       2.653  -1.670   0.926  0.00  0.00     0.056 C 
ATOM     19  C   UNL d   1       2.464  -1.791  -0.576  0.00  0.00     0.275 C 
ATOM     20  N   UNL d   1       1.840  -3.068  -0.966  0.00  0.00     0.092 N 
ATOM     21  C   UNL d   1       0.637  -3.410  -0.189  0.00  0.00     0.275 C 
ATOM     22  C   UNL d   1       0.711  -3.111   1.315  0.00  0.00     0.056 C 
BRANCH  20  23
ATOM     23  C   UNL d   1       1.499  -3.061  -2.413  0.00  0.00     0.311 C 
BRANCH  23  24
ATOM     24  C   UNL d   1       2.651  -2.624  -3.293  0.00  0.00    -0.030 A 
ATOM     25  C   UNL d   1       3.787  -3.433  -3.421  0.00  0.00     0.009 A 
ATOM     26  C   UNL d   1       4.924  -2.951  -4.064  0.00  0.00     0.001 A 
ATOM     27  C   UNL d   1       4.936  -1.661  -4.594  0.00  0.00     0.000 A 
ATOM     28  C   UNL d   1       3.800  -0.858  -4.502  0.00  0.00     0.001 A 
ATOM     29  C   UNL d   1       2.661  -1.338  -3.863  0.00  0.00     0.009 A 
ENDBRANCH  23  24
ENDBRANCH  20  23
ENDBRANCH   1  17
TORSDOF 6
