REMARK  1 active torsions:
REMARK  status: ('A' for Active; 'I' for Inactive)
REMARK    1  A    between atoms: C_9  and  C_5 
ROOT
ATOM      1  C   UNL d   1      -1.280  -0.620   0.015  0.00  0.00     0.024 A 
ATOM      2  C   UNL d   1       1.252  -0.616  -0.037  0.00  0.00     0.024 A 
ATOM      3  C   UNL d   1       1.211   0.720   0.161  0.00  0.00     0.021 A 
ATOM      4  C   UNL d   1      -1.232   0.722   0.170  0.00  0.00     0.021 A 
ATOM      5  C   UNL d   1      -0.016  -1.458  -0.202  0.00  0.00     0.103 A 
ATOM      6  N   UNL d   1      -0.009   1.371   0.209  0.00  0.00    -0.362 N 
ATOM      7  C   UNL d   1      -2.610  -1.300   0.032  0.00  0.00     0.159 C 
ATOM      8  C   UNL d   1       2.576  -1.295  -0.094  0.00  0.00     0.159 C 
ATOM      9  C   UNL d   1      -2.467   1.595   0.289  0.00  0.00     0.067 C 
ATOM     10  C   UNL d   1       2.450   1.578   0.340  0.00  0.00     0.067 C 
ATOM     11  C   UNL d   1      -3.777   0.893  -0.135  0.00  0.00    -0.036 C 
ATOM     12  C   UNL d   1       3.775   0.888  -0.057  0.00  0.00    -0.036 C 
ATOM     13  C   UNL d   1       3.760  -0.550   0.477  0.00  0.00     0.092 C 
ATOM     14  C   UNL d   1      -3.800  -0.498   0.508  0.00  0.00     0.092 C 
ATOM     15  O   UNL d   1       2.709  -2.410  -0.592  0.00  0.00    -0.293 OA
ATOM     16  O   UNL d   1      -2.746  -2.466  -0.326  0.00  0.00    -0.293 OA
ATOM     17  C   UNL d   1       3.951   0.884  -1.591  0.00  0.00     0.015 C 
ATOM     18  C   UNL d   1      -3.874   0.772  -1.672  0.00  0.00     0.015 C 
ATOM     19  C   UNL d   1       4.964   1.645   0.558  0.00  0.00     0.015 C 
ATOM     20  C   UNL d   1      -4.989   1.704   0.353  0.00  0.00     0.015 C 
ATOM     21  H   UNL d   1      -0.007   2.374   0.371  0.00  0.00     0.165 HD
ENDROOT
BRANCH   5  22
ATOM     22  C   UNL d   1       0.012  -2.759   0.587  0.00  0.00    -0.004 A 
ATOM     23  S   UNL d   1       0.130  -2.776   2.298  0.00  0.00    -0.105 SA
ATOM     24  C   UNL d   1       0.122  -4.488   2.340  0.00  0.00     0.050 A 
ATOM     25  C   UNL d   1       0.021  -5.039   1.082  0.00  0.00     0.008 A 
ATOM     26  C   UNL d   1      -0.041  -4.044   0.073  0.00  0.00     0.016 A 
ENDBRANCH   5  22
TORSDOF 1
