REMARK  9 active torsions:
REMARK  status: ('A' for Active; 'I' for Inactive)
REMARK    1  A    between atoms: C_3  and  C_1 
REMARK    2  A    between atoms: C_4  and  C_1 
REMARK    3  A    between atoms: N_6  and  C_2 
REMARK    4  A    between atoms: O_13  and  C_3 
REMARK    5  A    between atoms: O_12  and  C_4 
REMARK    6  A    between atoms: N_5  and  C_7 
REMARK    7  A    between atoms: C_8  and  N_6 
REMARK    8  A    between atoms: C_21  and  O_12 
REMARK    9  A    between atoms: C_20  and  O_13 
ROOT
ATOM      1  N   UNL d   1       1.121  -1.718  -1.483  0.00  0.00    -0.267 NA
ATOM      2  H   UNL d   1       1.810  -1.189  -2.020  0.00  0.00     0.133 HD
ENDROOT
BRANCH   1   3
ATOM      3  C   UNL d   1       0.572  -0.992  -0.434  0.00  0.00     0.086 C 
ATOM      4  C   UNL d   1      -0.083  -1.397   0.675  0.00  0.00     0.124 C 
BRANCH   4   5
ATOM      5  C   UNL d   1      -0.557  -0.398   1.672  0.00  0.00     0.300 C 
ATOM      6  O   UNL d   1      -0.800  -0.639   2.843  0.00  0.00    -0.259 OA
BRANCH   5   7
ATOM      7  O   UNL d   1      -0.812   0.802   1.075  0.00  0.00    -0.318 OA
BRANCH   7   8
ATOM      8  C   UNL d   1      -1.601   1.703   1.870  0.00  0.00     0.174 C 
ATOM      9  C   UNL d   1      -3.071   1.412   1.618  0.00  0.00     0.034 C 
ENDBRANCH   7   8
ENDBRANCH   5   7
ENDBRANCH   4   5
BRANCH   4  10
ATOM     10  C   UNL d   1      -0.346  -2.831   0.932  0.00  0.00     0.300 C 
ATOM     11  O   UNL d   1      -0.679  -3.651   0.084  0.00  0.00    -0.259 OA
BRANCH  10  12
ATOM     12  O   UNL d   1      -0.254  -3.110   2.258  0.00  0.00    -0.318 OA
BRANCH  12  13
ATOM     13  C   UNL d   1      -0.847  -4.348   2.671  0.00  0.00     0.174 C 
ATOM     14  C   UNL d   1      -2.364  -4.227   2.661  0.00  0.00     0.034 C 
ENDBRANCH  12  13
ENDBRANCH  10  12
ENDBRANCH   4  10
ENDBRANCH   1   3
BRANCH   1  15
ATOM     15  C   UNL d   1       0.318  -2.394  -2.469  0.00  0.00     0.039 A 
ATOM     16  C   UNL d   1       0.765  -3.612  -3.074  0.00  0.00     0.052 A 
ATOM     17  C   UNL d   1       0.003  -4.062  -4.179  0.00  0.00     0.031 A 
ATOM     18  C   UNL d   1      -1.093  -3.358  -4.694  0.00  0.00     0.002 A 
ATOM     19  C   UNL d   1      -1.493  -2.173  -4.104  0.00  0.00     0.002 A 
ATOM     20  C   UNL d   1      -0.796  -1.698  -2.999  0.00  0.00     0.026 A 
BRANCH  16  21
ATOM     21  N   UNL d   1       1.934  -4.292  -2.686  0.00  0.00    -0.375 N 
ATOM     22  C   UNL d   1       2.355  -5.528  -3.387  0.00  0.00     0.149 C 
ATOM     23  C   UNL d   1       3.866  -5.742  -3.189  0.00  0.00     0.187 C 
ATOM     24  O   UNL d   1       4.232  -5.796  -1.803  0.00  0.00    -0.388 OA
ATOM     25  C   UNL d   1       3.809  -4.595  -1.136  0.00  0.00     0.187 C 
ATOM     26  C   UNL d   1       2.287  -4.398  -1.248  0.00  0.00     0.149 C 
ENDBRANCH  16  21
ENDBRANCH   1  15
TORSDOF 9
