REMARK  5 active torsions:
REMARK  status: ('A' for Active; 'I' for Inactive)
REMARK    1  A    between atoms: C_10  and  N_1 
REMARK    2  A    between atoms: C_11  and  C_4 
REMARK    3  A    between atoms: C_13  and  C_6 
REMARK       I    between atoms: C_7  and  N_9 
REMARK    4  A    between atoms: C_8  and  C_7 
REMARK    5  A    between atoms: N_9  and  C_20 
ROOT
ATOM      1  C   UNL d   1       2.232  -1.210   0.048  0.00  0.00     0.056 A 
ATOM      2  C   UNL d   1       3.328  -0.581   0.659  0.00  0.00     0.034 A 
ATOM      3  C   UNL d   1       2.479  -2.325  -0.736  0.00  0.00     0.034 A 
ATOM      4  C   UNL d   1       4.851  -2.249  -0.260  0.00  0.00     0.035 A 
ATOM      5  C   UNL d   1       4.626  -1.103   0.511  0.00  0.00     0.032 A 
ATOM      6  C   UNL d   1       3.764  -2.851  -0.880  0.00  0.00     0.032 A 
ENDROOT
BRANCH   1   7
ATOM      7  N   UNL d   1       0.922  -0.644   0.164  0.00  0.00    -0.260 N 
ATOM      8  N   UNL d   1       0.860   0.687   0.441  0.00  0.00    -0.297 N 
ATOM      9  C   UNL d   1      -0.365   1.078   0.097  0.00  0.00     0.036 C 
ATOM     10  HN  UNL d   1       1.602   1.267   0.833  1.00  0.00     0.187 HD
ATOM     11  C   UNL d   1      -1.172  -0.042  -0.179  0.00  0.00     0.055 C 
ATOM     12  C   UNL d   1      -0.371  -1.172  -0.035  0.00  0.00     0.044 C 
BRANCH   9  13
ATOM     13  C   UNL d   1      -0.753   2.550   0.071  0.00  0.00    -0.007 C 
ATOM     14  C   UNL d   1       0.444   3.474   0.386  0.00  0.00     0.021 C 
ATOM     15  C   UNL d   1      -1.276   2.926  -1.332  0.00  0.00     0.021 C 
ATOM     16  C   UNL d   1      -1.859   2.835   1.105  0.00  0.00     0.021 C 
ENDBRANCH   9  13
BRANCH  12  17
ATOM     17  C   UNL d   1      -0.847  -2.637  -0.021  0.00  0.00    -0.007 C 
ATOM     18  C   UNL d   1      -0.095  -3.508   1.007  0.00  0.00     0.021 C 
ATOM     19  C   UNL d   1      -2.339  -2.697   0.435  0.00  0.00     0.021 C 
ATOM     20  C   UNL d   1      -0.870  -3.264  -1.432  0.00  0.00     0.021 C 
ENDBRANCH  12  17
ENDBRANCH   1   7
BRANCH   4  21
ATOM     21  N   UNL d   1       6.165  -2.740  -0.365  0.00  0.00    -0.323 N 
ATOM     22  C   UNL d   1       6.595  -3.870  -1.048  0.00  0.00     0.263 C 
ATOM     23  O   UNL d   1       5.875  -4.585  -1.736  0.00  0.00    -0.267 OA
ATOM     24  H   UNL d   1       6.883  -2.232   0.140  0.00  0.00     0.169 HD
BRANCH  22  25
ATOM     25  C   UNL d   1       8.010  -4.192  -0.873  0.00  0.00     0.072 A 
ATOM     26  S   UNL d   1       9.089  -3.196   0.009  0.00  0.00    -0.097 SA
ATOM     27  C   UNL d   1      10.387  -4.284  -0.220  0.00  0.00     0.050 A 
ATOM     28  C   UNL d   1      10.022  -5.375  -0.970  0.00  0.00     0.009 A 
ATOM     29  C   UNL d   1       8.653  -5.316  -1.361  0.00  0.00     0.025 A 
ENDBRANCH  22  25
ENDBRANCH   4  21
TORSDOF 5
