REMARK  8 active torsions:
REMARK  status: ('A' for Active; 'I' for Inactive)
REMARK    1  A    between atoms: N_6  and  C_1 
REMARK    2  A    between atoms: N_7  and  C_2 
REMARK    3  A    between atoms: O_9  and  C_3 
REMARK    4  A    between atoms: C_4  and  C_5 
REMARK    5  A    between atoms: C_5  and  O_9 
REMARK    6  A    between atoms: O_26  and  C_8 
REMARK    7  A    between atoms: C_10  and  C_12 
REMARK    8  A    between atoms: O_28  and  C_16 
ROOT
ATOM      1  C   UNL d   1      -0.915  -2.306  -0.207  0.00  0.00     0.304 C 
ATOM      2  O   UNL d   1      -0.804  -3.003   0.790  0.00  0.00    -0.259 OA
ENDROOT
BRANCH   1   3
ATOM      3  C   UNL d   1      -1.844  -1.124  -0.371  0.00  0.00     0.108 A 
ATOM      4  C   UNL d   1      -1.520  -0.028  -1.220  0.00  0.00     0.120 A 
ATOM      5  C   UNL d   1      -2.304   1.132  -1.145  0.00  0.00     0.137 A 
ATOM      6  C   UNL d   1      -3.442   1.213  -0.342  0.00  0.00     0.042 A 
ATOM      7  C   UNL d   1      -3.785   0.126   0.450  0.00  0.00     0.040 A 
ATOM      8  C   UNL d   1      -2.981  -1.026   0.474  0.00  0.00     0.087 A 
BRANCH   4   9
ATOM      9  O   UNL d   1      -0.358  -0.058  -1.948  0.00  0.00    -0.352 OA
ATOM     10  C   UNL d   1      -0.491   0.151  -3.356  0.00  0.00     0.210 C 
ENDBRANCH   4   9
BRANCH   5  11
ATOM     11  N   UNL d   1      -1.890   2.356  -1.799  0.00  0.00    -0.113 N 
ATOM     12  O   UNL d   1      -0.821   2.862  -1.435  0.00  0.00    -0.532 OA
ATOM     13  O   UNL d   1      -2.653   2.813  -2.660  0.00  0.00    -0.532 OA
ENDBRANCH   5  11
BRANCH   8  14
ATOM     14  O   UNL d   1      -3.298  -2.092   1.278  0.00  0.00    -0.355 OA
ATOM     15  C   UNL d   1      -3.942  -1.778   2.514  0.00  0.00     0.210 C 
ENDBRANCH   8  14
ENDBRANCH   1   3
BRANCH   1  16
ATOM     16  O   UNL d   1      -0.152  -2.503  -1.344  0.00  0.00    -0.271 OA
BRANCH  16  17
ATOM     17  C   UNL d   1       1.272  -2.464  -1.321  0.00  0.00     0.130 A 
ATOM     18  C   UNL d   1       1.939  -3.193  -2.319  0.00  0.00     0.139 A 
ATOM     19  C   UNL d   1       3.278  -2.935  -2.663  0.00  0.00     0.055 A 
ATOM     20  C   UNL d   1       3.979  -1.925  -1.996  0.00  0.00     0.051 A 
ATOM     21  C   UNL d   1       3.344  -1.256  -0.938  0.00  0.00     0.038 A 
ATOM     22  C   UNL d   1       2.014  -1.529  -0.581  0.00  0.00     0.048 A 
ATOM     23 BR   UNL d   1       1.388  -0.508   0.899  0.00  0.00    -0.048 Br
BRANCH  18  24
ATOM     24  N   UNL d   1       1.262  -4.250  -3.056  0.00  0.00    -0.113 N 
ATOM     25  O   UNL d   1       0.254  -3.934  -3.705  0.00  0.00    -0.532 OA
ATOM     26  O   UNL d   1       1.788  -5.365  -3.029  0.00  0.00    -0.532 OA
ENDBRANCH  18  24
BRANCH  20  27
ATOM     27  C   UNL d   1       5.372  -1.510  -2.401  0.00  0.00     0.417 C 
ATOM     28  F   UNL d   1       5.946  -2.351  -3.302  0.00  0.00    -0.166 F 
ATOM     29  F   UNL d   1       5.388  -0.276  -2.975  0.00  0.00    -0.166 F 
ATOM     30  F   UNL d   1       6.225  -1.446  -1.343  0.00  0.00    -0.166 F 
ENDBRANCH  20  27
ENDBRANCH  16  17
ENDBRANCH   1  16
TORSDOF 8
