REMARK  9 active torsions:
REMARK  status: ('A' for Active; 'I' for Inactive)
REMARK    1  A    between atoms: C_3  and  S_1 
REMARK    2  A    between atoms: C_4  and  S_1 
REMARK    3  A    between atoms: C_2  and  O_12 
REMARK       I    between atoms: N_5  and  C_2 
REMARK    4  A    between atoms: C_24  and  C_4 
REMARK    5  A    between atoms: C_11  and  N_5 
REMARK    6  A    between atoms: O_12  and  C_26 
REMARK    7  A    between atoms: S_17  and  C_24 
REMARK    8  A    between atoms: C_25  and  S_17 
REMARK    9  A    between atoms: C_26  and  C_25 
ROOT
ATOM      1  C   UNL d   1       1.244  -0.954   5.478  0.00  0.00     0.101 C 
ENDROOT
BRANCH   1   2
ATOM      2  S   UNL d   1       0.464   0.229   4.327  0.00  0.00    -0.166 SA
BRANCH   2   3
ATOM      3  C   UNL d   1       1.242  -0.294   2.760  0.00  0.00     0.089 C 
BRANCH   3   4
ATOM      4  C   UNL d   1       0.766   0.673   1.691  0.00  0.00     0.156 C 
BRANCH   4   5
ATOM      5  S   UNL d   1       1.394   0.235   0.090  0.00  0.00     0.176 S 
ATOM      6  O   UNL d   1       2.832   0.422   0.090  0.00  0.00    -0.223 OA
ATOM      7  O   UNL d   1       0.806  -1.031  -0.306  0.00  0.00    -0.223 OA
BRANCH   5   8
ATOM      8  C   UNL d   1       0.691   1.497  -0.954  0.00  0.00     0.059 A 
ATOM      9  C   UNL d   1       1.407   2.673  -1.198  0.00  0.00     0.025 A 
ATOM     10  C   UNL d   1       0.846   3.665  -2.006  0.00  0.00     0.025 A 
ATOM     11  C   UNL d   1      -0.416   3.470  -2.569  0.00  0.00     0.034 A 
ATOM     12  C   UNL d   1      -1.123   2.290  -2.336  0.00  0.00     0.025 A 
ATOM     13 CL   UNL d   1      -1.106   4.696  -3.561  0.00  0.00    -0.084 Cl
ATOM     14  C   UNL d   1      -0.568   1.294  -1.529  0.00  0.00     0.025 A 
ENDBRANCH   5   8
ENDBRANCH   4   5
ENDBRANCH   3   4
ENDBRANCH   2   3
ENDBRANCH   1   2
BRANCH   1  15
ATOM     15  C   UNL d   1       0.822  -0.647   6.922  0.00  0.00     0.191 C 
BRANCH  15  16
ATOM     16  O   UNL d   1       1.116   0.701   7.341  0.00  0.00    -0.303 OA
BRANCH  16  17
ATOM     17  C   UNL d   1       2.422   1.019   7.483  0.00  0.00     0.365 C 
ATOM     18  N   UNL d   1       2.686   2.308   7.872  0.00  0.00    -0.303 N 
ATOM     19  H   UNL d   1       3.685   2.459   7.943  0.00  0.00     0.171 HD
ATOM     20  O   UNL d   1       3.344   0.238   7.293  0.00  0.00    -0.238 OA
BRANCH  18  21
ATOM     21  C   UNL d   1       1.855   3.354   8.313  0.00  0.00     0.036 A 
ATOM     22  C   UNL d   1       0.461   3.309   8.344  0.00  0.00     0.031 A 
ATOM     23  C   UNL d   1      -0.271   4.345   8.939  0.00  0.00     0.026 A 
ATOM     24  C   UNL d   1       0.389   5.437   9.494  0.00  0.00     0.034 A 
ATOM     25  C   UNL d   1       1.774   5.529   9.411  0.00  0.00     0.026 A 
ATOM     26 CL   UNL d   1      -0.506   6.661  10.305  0.00  0.00    -0.084 Cl
ATOM     27  C   UNL d   1       2.502   4.495   8.813  0.00  0.00     0.031 A 
ENDBRANCH  18  21
ENDBRANCH  16  17
ENDBRANCH  15  16
ENDBRANCH   1  15
TORSDOF 9
