REMARK  4 active torsions:
REMARK  status: ('A' for Active; 'I' for Inactive)
REMARK    1  A    between atoms: C_6  and  C_1 
REMARK    2  A    between atoms: N_11  and  C_3 
REMARK    3  A    between atoms: C_7  and  C_4 
REMARK       I    between atoms: N_16  and  C_6 
REMARK    4  A    between atoms: C_8  and  C_9 
ROOT
ATOM      1  C   UNL d   1      -0.662   0.715  -0.651  0.00  0.00     0.099 A 
ATOM      2  S   UNL d   1       0.292  -0.472  -1.442  0.00  0.00    -0.082 SA
ATOM      3  C   UNL d   1      -0.573   0.572   0.719  0.00  0.00     0.050 A 
ATOM      4  C   UNL d   1       0.763  -1.213   0.030  0.00  0.00     0.018 A 
ATOM      5  C   UNL d   1       0.243  -0.522   1.109  0.00  0.00     0.050 A 
ENDROOT
BRANCH   4   6
ATOM      6  C   UNL d   1       1.615  -2.410   0.035  0.00  0.00    -0.019 A 
ATOM      7  C   UNL d   1       2.535  -2.622   1.067  0.00  0.00     0.013 A 
ATOM      8  C   UNL d   1       3.318  -3.782   1.108  0.00  0.00     0.009 A 
ATOM      9  C   UNL d   1       3.216  -4.772   0.115  0.00  0.00    -0.051 A 
ATOM     10  C   UNL d   1       2.295  -4.548  -0.918  0.00  0.00     0.009 A 
ATOM     11  C   UNL d   1       1.508  -3.392  -0.957  0.00  0.00     0.013 A 
BRANCH   9  12
ATOM     12  C   UNL d   1       4.093  -6.033   0.176  0.00  0.00    -0.024 C 
ATOM     13  C   UNL d   1       3.855  -7.001  -1.006  0.00  0.00     0.019 C 
ATOM     14  C   UNL d   1       5.582  -5.626   0.146  0.00  0.00     0.019 C 
ATOM     15  C   UNL d   1       3.808  -6.817   1.474  0.00  0.00     0.019 C 
ENDBRANCH   9  12
ENDBRANCH   4   6
BRANCH   1  16
ATOM     16  C   UNL d   1      -1.425   1.692  -1.414  0.00  0.00     0.258 C 
ATOM     17  O   UNL d   1      -2.108   2.586  -0.919  0.00  0.00    -0.267 OA
ATOM     18  N   UNL d   1      -1.377   1.583  -2.779  0.00  0.00    -0.365 N 
ATOM     19  H   UNL d   1      -0.841   0.858  -3.235  0.00  0.00     0.159 HD
ATOM     20  H   UNL d   1      -1.910   2.241  -3.331  0.00  0.00     0.159 HD
ENDBRANCH   1  16
BRANCH   3  21
ATOM     21  N   UNL d   1      -1.192   1.357   1.620  0.00  0.00    -0.398 N 
ATOM     22  H   UNL d   1      -1.801   2.124   1.327  0.00  0.00     0.156 HD
ATOM     23  H   UNL d   1      -1.135   1.219   2.623  0.00  0.00     0.156 HD
ENDBRANCH   3  21
TORSDOF 4
