REMARK  5 active torsions:
REMARK  status: ('A' for Active; 'I' for Inactive)
REMARK    1  A    between atoms: C_5  and  C_1 
REMARK    2  A    between atoms: C_14  and  C_5 
REMARK    3  A    between atoms: C_6  and  C_9 
REMARK    4  A    between atoms: C_10  and  N_8 
REMARK    5  A    between atoms: N_13  and  C_14 
ROOT
ATOM      1  N   UNL d   1       3.085  -4.723  -1.738  0.00  0.00    -0.266 NA
ATOM      2  N   UNL d   1       4.590  -2.576  -0.544  0.00  0.00     0.098 N 
ATOM      3  C   UNL d   1       3.942  -5.011  -0.580  0.00  0.00     0.127 C 
ATOM      4  C   UNL d   1       3.657  -3.669  -2.594  0.00  0.00     0.127 C 
ATOM      5  C   UNL d   1       3.763  -2.373  -1.756  0.00  0.00     0.287 C 
ATOM      6  C   UNL d   1       4.072  -3.710   0.254  0.00  0.00     0.287 C 
ENDROOT
BRANCH   2   7
ATOM      7  C   UNL d   1       4.705  -1.353   0.267  0.00  0.00     0.356 C 
BRANCH   7   8
ATOM      8  C   UNL d   1       5.675  -0.353  -0.379  0.00  0.00     0.195 C 
ATOM      9  O   UNL d   1       5.228   0.748  -0.740  0.00  0.00    -0.290 OA
BRANCH   8  10
ATOM     10  C   UNL d   1       7.093  -0.716  -0.562  0.00  0.00     0.060 C 
ATOM     11  S   UNL d   1       7.698  -2.229  -0.033  0.00  0.00    -0.085 SA
ATOM     12  C   UNL d   1       9.241  -1.979  -0.720  0.00  0.00     0.016 A 
ATOM     13  C   UNL d   1      10.327  -2.877  -0.710  0.00  0.00     0.021 A 
ATOM     14  C   UNL d   1       9.326  -0.725  -1.320  0.00  0.00    -0.010 A 
ATOM     15  C   UNL d   1      11.514  -2.507  -1.344  0.00  0.00     0.025 A 
ATOM     16  C   UNL d   1      11.609  -1.282  -1.986  0.00  0.00     0.035 A 
ATOM     17  C   UNL d   1      10.536  -0.389  -1.980  0.00  0.00     0.037 A 
ATOM     18 CL   UNL d   1      13.066  -0.850  -2.793  0.00  0.00    -0.084 Cl
ATOM     19  C   UNL d   1       8.113   0.049  -1.123  0.00  0.00    -0.029 C 
ATOM     20  C   UNL d   1       8.006   1.490  -1.523  0.00  0.00     0.050 C 
ENDBRANCH   8  10
ENDBRANCH   7   8
ENDBRANCH   2   7
BRANCH   1  21
ATOM     21  C   UNL d   1       2.547  -5.818  -2.404  0.00  0.00     0.082 A 
ATOM     22  N   UNL d   1       3.046  -7.056  -2.201  0.00  0.00    -0.356 N 
ATOM     23  C   UNL d   1       2.436  -8.101  -2.813  0.00  0.00     0.105 A 
ATOM     24  HN  UNL d   1       3.860  -7.202  -1.604  1.00  0.00     0.166 HD
ATOM     25  C   UNL d   1       1.315  -7.986  -3.619  0.00  0.00     0.063 A 
ATOM     26  C   UNL d   1       0.795  -6.707  -3.805  0.00  0.00     0.021 A 
ATOM     27  C   UNL d   1       1.421  -5.622  -3.200  0.00  0.00     0.043 A 
BRANCH  25  28
ATOM     28  C   UNL d   1       0.680  -9.183  -4.248  0.00  0.00     0.418 C 
ATOM     29  F   UNL d   1       1.355 -10.344  -4.023  0.00  0.00    -0.166 F 
ATOM     30  F   UNL d   1      -0.589  -9.396  -3.801  0.00  0.00    -0.166 F 
ATOM     31  F   UNL d   1       0.581  -9.066  -5.602  0.00  0.00    -0.166 F 
ENDBRANCH  25  28
ENDBRANCH   1  21
TORSDOF 5
