REMARK  2 active torsions:
REMARK  status: ('A' for Active; 'I' for Inactive)
REMARK    1  A    between atoms: C_7  and  N_1 
REMARK    2  A    between atoms: C_12  and  C_7 
ROOT
ATOM      1  N   UNL d   1       2.370  -0.413  -0.177  0.00  0.00    -0.290 N 
ATOM      2  C   UNL d   1       2.214   0.957  -0.399  0.00  0.00     0.181 C 
ATOM      3  C   UNL d   1       1.276  -1.270   0.059  0.00  0.00     0.262 C 
ATOM      4  C   UNL d   1      -0.071  -0.663   0.069  0.00  0.00     0.059 A 
ATOM      5  N   UNL d   1       0.966   1.482  -0.199  0.00  0.00    -0.332 N 
ATOM      6  C   UNL d   1      -0.179   0.715  -0.016  0.00  0.00     0.050 A 
ATOM      7  S   UNL d   1       3.368   2.059  -0.922  0.00  0.00    -0.040 SA
ATOM      8  O   UNL d   1       1.368  -2.483   0.221  0.00  0.00    -0.267 OA
ATOM      9  C   UNL d   1      -1.227  -1.450   0.128  0.00  0.00     0.019 A 
ATOM     10  C   UNL d   1      -1.429   1.334   0.007  0.00  0.00     0.030 A 
ATOM     11  C   UNL d   1      -2.484  -0.839   0.112  0.00  0.00     0.001 A 
ATOM     12  C   UNL d   1      -2.584   0.552   0.064  0.00  0.00     0.002 A 
ATOM     13  H   UNL d   1       0.877   2.482  -0.336  0.00  0.00     0.168 HD
ENDROOT
BRANCH   1  14
ATOM     14  C   UNL d   1       3.680  -1.082  -0.298  0.00  0.00     0.138 C 
BRANCH  14  15
ATOM     15  C   UNL d   1       4.529  -1.191   0.993  0.00  0.00    -0.004 C 
ATOM     16  C   UNL d   1       4.990   0.154   1.550  0.00  0.00     0.011 C 
ATOM     17  C   UNL d   1       3.861  -2.005   2.099  0.00  0.00     0.011 C 
ENDBRANCH  14  15
ENDBRANCH   1  14
TORSDOF 2
