REMARK  4 active torsions:
REMARK  status: ('A' for Active; 'I' for Inactive)
REMARK    1  A    between atoms: S_8  and  C_1 
REMARK    2  A    between atoms: C_15  and  C_5 
REMARK    3  A    between atoms: N_7  and  C_9 
REMARK    4  A    between atoms: C_10  and  S_8 
ROOT
ATOM      1  C   UNL d   1      -1.524   1.238   0.215  0.00  0.00     0.110 A 
ATOM      2  N   UNL d   1      -0.236   0.721   0.236  0.00  0.00    -0.300 N 
ATOM      3  N   UNL d   1      -1.621  -1.020  -0.033  0.00  0.00    -0.339 N 
ATOM      4  HN  UNL d   1      -1.980  -1.966  -0.163  1.00  0.00     0.167 HD
ATOM      5  C   UNL d   1      -2.361   0.140   0.090  0.00  0.00     0.079 A 
ATOM      6  C   UNL d   1      -0.363  -0.656   0.053  0.00  0.00     0.113 A 
ATOM      7  C   UNL d   1       1.013   1.348   0.343  0.00  0.00     0.099 A 
ATOM      8  C   UNL d   1       0.831  -1.426  -0.035  0.00  0.00     0.049 A 
ATOM      9  C   UNL d   1       2.137   0.616   0.247  0.00  0.00     0.018 A 
ATOM     10  C   UNL d   1       2.029  -0.819   0.049  0.00  0.00     0.005 A 
ENDROOT
BRANCH   1  11
ATOM     11  S   UNL d   1      -1.812   2.956   0.327  0.00  0.00    -0.067 SA
BRANCH  11  12
ATOM     12  C   UNL d   1      -2.017   3.409  -1.399  0.00  0.00     0.040 A 
ATOM     13  C   UNL d   1      -2.978   4.327  -1.862  0.00  0.00     0.120 A 
ATOM     14  C   UNL d   1      -3.052   4.714  -3.214  0.00  0.00     0.037 A 
ATOM     15  C   UNL d   1      -2.155   4.179  -4.136  0.00  0.00     0.003 A 
ATOM     16  C   UNL d   1      -1.197   3.269  -3.705  0.00  0.00     0.002 A 
ATOM     17  C   UNL d   1      -1.125   2.897  -2.357  0.00  0.00     0.021 A 
BRANCH  13  18
ATOM     18  N   UNL d   1      -3.939   4.947  -0.965  0.00  0.00    -0.114 N 
ATOM     19  O   UNL d   1      -3.497   5.615  -0.020  0.00  0.00    -0.532 OA
ATOM     20  O   UNL d   1      -5.136   4.829  -1.258  0.00  0.00    -0.532 OA
ENDBRANCH  13  18
ENDBRANCH  11  12
ENDBRANCH   1  11
BRANCH   5  21
ATOM     21  C   UNL d   1      -3.816   0.108   0.012  0.00  0.00    -0.007 A 
ATOM     22  C   UNL d   1      -4.634   1.030   0.675  0.00  0.00     0.014 A 
ATOM     23  C   UNL d   1      -6.024   0.972   0.545  0.00  0.00     0.001 A 
ATOM     24  C   UNL d   1      -6.615  -0.026  -0.226  0.00  0.00     0.000 A 
ATOM     25  C   UNL d   1      -5.817  -0.976  -0.859  0.00  0.00     0.001 A 
ATOM     26  C   UNL d   1      -4.428  -0.908  -0.739  0.00  0.00     0.014 A 
ENDBRANCH   5  21
TORSDOF 4
