REMARK  7 active torsions:
REMARK  status: ('A' for Active; 'I' for Inactive)
REMARK    1  A    between atoms: C_11  and  N_1 
REMARK    2  A    between atoms: C_13  and  C_5 
REMARK    3  A    between atoms: C_8  and  C_11 
REMARK    4  A    between atoms: C_16  and  C_9 
REMARK    5  A    between atoms: C_17  and  C_13 
REMARK    6  A    between atoms: O_27  and  C_17 
REMARK    7  A    between atoms: C_30  and  O_27 
ROOT
ATOM      1  N   UNL d   1       2.396  -0.642  -0.008  0.00  0.00    -0.251 N 
ATOM      2  N   UNL d   1       2.394   0.736  -0.007  0.00  0.00    -0.298 N 
ATOM      3  HN  UNL d   1       3.273   1.253  -0.017  1.00  0.00     0.187 HD
ATOM      4  C   UNL d   1       1.249  -1.423   0.044  0.00  0.00     0.273 A 
ATOM      5  C   UNL d   1       1.260   1.371   0.008  0.00  0.00     0.046 A 
ATOM      6  C   UNL d   1      -0.038  -0.709   0.035  0.00  0.00     0.046 A 
ATOM      7  C   UNL d   1      -0.055   0.680  -0.016  0.00  0.00     0.004 A 
ATOM      8  O   UNL d   1       1.248  -2.654   0.042  0.00  0.00    -0.266 OA
ATOM      9  C   UNL d   1      -1.240  -1.433   0.028  0.00  0.00     0.018 A 
ATOM     10  C   UNL d   1      -1.285   1.347  -0.099  0.00  0.00     0.014 A 
ATOM     11  C   UNL d   1      -2.460  -0.765  -0.037  0.00  0.00     0.001 A 
ATOM     12  C   UNL d   1      -2.483   0.625  -0.101  0.00  0.00     0.001 A 
ENDROOT
BRANCH   1  13
ATOM     13  C   UNL d   1       3.702  -1.297  -0.089  0.00  0.00     0.217 C 
BRANCH  13  14
ATOM     14  C   UNL d   1       4.295  -1.478   1.277  0.00  0.00     0.071 A 
ATOM     15  N   UNL d   1       4.055  -2.499   2.076  0.00  0.00    -0.351 N 
ATOM     16  C   UNL d   1       4.739  -2.355   3.272  0.00  0.00     0.049 A 
ATOM     17  HN  UNL d   1       3.449  -3.287   1.845  1.00  0.00     0.166 HD
ATOM     18  C   UNL d   1       5.531  -1.227   3.347  0.00  0.00     0.081 A 
ATOM     19  S   UNL d   1       5.412  -0.322   1.896  0.00  0.00    -0.085 SA
BRANCH  16  20
ATOM     20  C   UNL d   1       4.558  -3.315   4.356  0.00  0.00    -0.006 A 
ATOM     21  C   UNL d   1       5.516  -3.494   5.364  0.00  0.00     0.059 A 
ATOM     22  C   UNL d   1       5.279  -4.401   6.395  0.00  0.00     0.155 A 
ATOM     23  F   UNL d   1       6.201  -4.551   7.356  0.00  0.00    -0.203 F 
ATOM     24  C   UNL d   1       4.104  -5.140   6.435  0.00  0.00     0.154 A 
ATOM     25  C   UNL d   1       3.147  -4.987   5.440  0.00  0.00     0.046 A 
ATOM     26  F   UNL d   1       3.884  -6.007   7.433  0.00  0.00    -0.203 F 
ATOM     27  C   UNL d   1       3.377  -4.079   4.402  0.00  0.00     0.017 A 
ENDBRANCH  16  20
ENDBRANCH  13  14
ENDBRANCH   1  13
BRANCH   5  28
ATOM     28  C   UNL d   1       1.327   2.889   0.005  0.00  0.00     0.170 C 
BRANCH  28  29
ATOM     29  C   UNL d   1       0.669   3.544   1.184  0.00  0.00     0.264 C 
ATOM     30  O   UNL d   1       0.085   2.946   2.077  0.00  0.00    -0.265 OA
BRANCH  29  31
ATOM     31  O   UNL d   1       0.686   4.896   1.040  0.00  0.00    -0.322 OA
BRANCH  31  32
ATOM     32  C   UNL d   1      -0.339   5.606   1.752  0.00  0.00     0.174 C 
ATOM     33  C   UNL d   1      -0.098   5.708   3.247  0.00  0.00     0.034 C 
ENDBRANCH  31  32
ENDBRANCH  29  31
ENDBRANCH  28  29
ENDBRANCH   5  28
TORSDOF 7
