REMARK  3 active torsions:
REMARK  status: ('A' for Active; 'I' for Inactive)
REMARK    1  A    between atoms: C_4  and  N_1 
REMARK    2  A    between atoms: O_15  and  C_9 
REMARK    3  A    between atoms: O_16  and  C_13 
ROOT
ATOM      1  N   UNL d   1      -2.736   0.264   0.441  0.00  0.00    -0.252 N 
ATOM      2  C   UNL d   1      -2.415  -0.627  -0.580  0.00  0.00     0.232 C 
ATOM      3  C   UNL d   1      -1.754   1.150   0.855  0.00  0.00     0.232 C 
ATOM      4  C   UNL d   1      -1.070  -1.307  -0.443  0.00  0.00     0.113 C 
ATOM      5  C   UNL d   1      -0.438   0.469   1.166  0.00  0.00     0.113 C 
ATOM      6  C   UNL d   1       0.068  -0.377  -0.008  0.00  0.00    -0.024 C 
ATOM      7  O   UNL d   1      -3.156  -0.932  -1.516  0.00  0.00    -0.273 OA
ATOM      8  O   UNL d   1      -1.864   2.365   0.996  0.00  0.00    -0.273 OA
ATOM      9  C   UNL d   1       1.257  -1.257   0.449  0.00  0.00     0.010 C 
ATOM     10  C   UNL d   1       0.525   0.506  -1.194  0.00  0.00     0.010 C 
ATOM     11  C   UNL d   1       2.508  -0.447   0.782  0.00  0.00     0.001 C 
ATOM     12  C   UNL d   1       1.781   1.322  -0.883  0.00  0.00     0.001 C 
ATOM     13  C   UNL d   1       2.925   0.445  -0.381  0.00  0.00     0.000 C 
ENDROOT
BRANCH   1  14
ATOM     14  C   UNL d   1      -4.096   0.390   0.892  0.00  0.00     0.048 A 
ATOM     15  C   UNL d   1      -4.968  -0.710   0.754  0.00  0.00     0.069 A 
ATOM     16  C   UNL d   1      -6.221  -0.770   1.387  0.00  0.00     0.103 A 
ATOM     17  C   UNL d   1      -6.651   0.336   2.132  0.00  0.00     0.101 A 
ATOM     18  C   UNL d   1      -5.813   1.448   2.248  0.00  0.00     0.042 A 
ATOM     19  C   UNL d   1      -4.550   1.474   1.647  0.00  0.00     0.033 A 
BRANCH  16  20
ATOM     20  O   UNL d   1      -7.016  -1.886   1.355  0.00  0.00    -0.353 OA
ATOM     21  C   UNL d   1      -6.492  -3.067   0.758  0.00  0.00     0.210 C 
ENDBRANCH  16  20
BRANCH  17  22
ATOM     22  O   UNL d   1      -7.808   0.466   2.854  0.00  0.00    -0.353 OA
ATOM     23  C   UNL d   1      -8.924  -0.312   2.443  0.00  0.00     0.210 C 
ENDBRANCH  17  22
ENDBRANCH   1  14
TORSDOF 3
