REMARK  8 active torsions:
REMARK  status: ('A' for Active; 'I' for Inactive)
REMARK    1  A    between atoms: N_4  and  S_1 
REMARK    2  A    between atoms: C_10  and  S_1 
REMARK    3  A    between atoms: S_2  and  N_8 
REMARK    4  A    between atoms: C_9  and  S_2 
REMARK    5  A    between atoms: C_3  and  C_5 
REMARK    6  A    between atoms: C_7  and  N_4 
REMARK    7  A    between atoms: C_6  and  C_15 
REMARK    8  A    between atoms: N_8  and  C_28 
ROOT
ATOM      1  C   UNL d   1       0.165   1.571  -0.460  0.00  0.00     0.075 A 
ATOM      2  C   UNL d   1      -1.183   1.760  -0.771  0.00  0.00     0.027 A 
ATOM      3  C   UNL d   1       1.024   2.667  -0.315  0.00  0.00     0.027 A 
ATOM      4  C   UNL d   1      -0.787   4.130  -0.967  0.00  0.00     0.042 A 
ATOM      5  C   UNL d   1       0.543   3.955  -0.577  0.00  0.00     0.031 A 
ATOM      6  C   UNL d   1      -1.654   3.042  -1.034  0.00  0.00     0.031 A 
ENDROOT
BRANCH   1   7
ATOM      7  S   UNL d   1       0.800  -0.087  -0.340  0.00  0.00     0.245 S 
ATOM      8  O   UNL d   1       1.989  -0.056   0.482  0.00  0.00    -0.206 OA
ATOM      9  O   UNL d   1      -0.309  -0.975  -0.068  0.00  0.00    -0.206 OA
BRANCH   7  10
ATOM     10  N   UNL d   1       1.331  -0.302  -1.953  0.00  0.00    -0.181 NA
ATOM     11  H   UNL d   1       2.288   0.057  -1.983  0.00  0.00     0.146 HD
BRANCH  10  12
ATOM     12  C   UNL d   1       1.266  -1.645  -2.455  0.00  0.00     0.037 A 
ATOM     13  C   UNL d   1       0.130  -2.144  -3.107  0.00  0.00     0.070 A 
ATOM     14  C   UNL d   1       0.150  -3.480  -3.562  0.00  0.00     0.018 A 
ATOM     15  C   UNL d   1       1.273  -4.288  -3.383  0.00  0.00     0.001 A 
ATOM     16  C   UNL d   1       2.390  -3.781  -2.729  0.00  0.00     0.002 A 
ATOM     17  C   UNL d   1       2.381  -2.470  -2.253  0.00  0.00     0.025 A 
BRANCH  13  18
ATOM     18  C   UNL d   1      -1.103  -1.334  -3.408  0.00  0.00     0.419 C 
ATOM     19  F   UNL d   1      -1.060  -0.023  -3.047  0.00  0.00    -0.166 F 
ATOM     20  F   UNL d   1      -1.379  -1.316  -4.747  0.00  0.00    -0.166 F 
ATOM     21  F   UNL d   1      -2.222  -1.843  -2.819  0.00  0.00    -0.166 F 
ENDBRANCH  13  18
ENDBRANCH  10  12
ENDBRANCH   7  10
ENDBRANCH   1   7
BRANCH   4  22
ATOM     22  N   UNL d   1      -1.279   5.396  -1.374  0.00  0.00    -0.281 N 
ATOM     23  H   UNL d   1      -1.265   6.167  -0.708  0.00  0.00     0.179 HD
BRANCH  22  24
ATOM     24  S   UNL d   1      -0.977   5.905  -2.956  0.00  0.00     0.263 S 
ATOM     25  O   UNL d   1      -1.505   7.249  -3.051  0.00  0.00    -0.200 OA
ATOM     26  O   UNL d   1       0.405   5.628  -3.289  0.00  0.00    -0.200 OA
BRANCH  24  27
ATOM     27  C   UNL d   1      -2.018   4.849  -3.941  0.00  0.00     0.079 A 
ATOM     28  C   UNL d   1      -3.350   5.201  -4.172  0.00  0.00     0.026 A 
ATOM     29  C   UNL d   1      -4.142   4.400  -5.002  0.00  0.00     0.018 A 
ATOM     30  C   UNL d   1      -3.608   3.250  -5.610  0.00  0.00     0.048 A 
ATOM     31  C   UNL d   1      -2.267   2.912  -5.365  0.00  0.00     0.018 A 
ATOM     32  C   UNL d   1      -1.471   3.711  -4.542  0.00  0.00     0.026 A 
BRANCH  30  33
ATOM     33  C   UNL d   1      -4.444   2.390  -6.531  0.00  0.00     0.417 C 
ATOM     34  F   UNL d   1      -5.724   2.831  -6.676  0.00  0.00    -0.166 F 
ATOM     35  F   UNL d   1      -3.928   2.325  -7.789  0.00  0.00    -0.166 F 
ATOM     36  F   UNL d   1      -4.539   1.103  -6.098  0.00  0.00    -0.166 F 
ENDBRANCH  30  33
ENDBRANCH  24  27
ENDBRANCH  22  24
ENDBRANCH   4  22
TORSDOF 8
