REMARK  5 active torsions:
REMARK  status: ('A' for Active; 'I' for Inactive)
REMARK    1  A    between atoms: C_9  and  C_1 
REMARK    2  A    between atoms: N_8  and  C_2 
REMARK    3  A    between atoms: C_10  and  C_4 
REMARK    4  A    between atoms: C_6  and  C_7 
REMARK       I    between atoms: C_7  and  N_8 
REMARK    5  A    between atoms: O_16  and  C_9 
ROOT
ATOM      1  C   UNL d   1       0.014   1.278  -0.239  0.00  0.00     0.107 A 
ATOM      2  C   UNL d   1       1.302   0.762  -0.270  0.00  0.00     0.059 A 
ATOM      3  S   UNL d   1      -1.155  -0.002  -0.239  0.00  0.00    -0.086 SA
ATOM      4  C   UNL d   1       0.020  -1.237  -0.225  0.00  0.00    -0.007 A 
ATOM      5  C   UNL d   1       1.274  -0.674  -0.335  0.00  0.00     0.046 A 
ENDROOT
BRANCH   2   6
ATOM      6  N   UNL d   1       2.566   1.342  -0.216  0.00  0.00    -0.322 N 
ATOM      7  C   UNL d   1       2.961   2.607   0.187  0.00  0.00     0.277 C 
ATOM      8  O   UNL d   1       2.176   3.515   0.464  0.00  0.00    -0.268 OA
ATOM      9  H   UNL d   1       3.324   0.666  -0.294  0.00  0.00     0.169 HD
BRANCH   7  10
ATOM     10  C   UNL d   1       4.509   2.782   0.272  0.00  0.00     0.269 C 
ATOM     11 CL   UNL d   1       5.340   1.180   0.302  0.00  0.00    -0.073 Cl
ATOM     12 CL   UNL d   1       5.060   3.676  -1.163  0.00  0.00    -0.073 Cl
ATOM     13 CL   UNL d   1       4.933   3.646   1.768  0.00  0.00    -0.073 Cl
ENDBRANCH   7  10
ENDBRANCH   2   6
BRANCH   1  14
ATOM     14  C   UNL d   1      -0.561   2.608  -0.222  0.00  0.00     0.302 C 
ATOM     15  O   UNL d   1      -1.552   2.934   0.434  0.00  0.00    -0.259 OA
BRANCH  14  16
ATOM     16  O   UNL d   1       0.030   3.412  -1.147  0.00  0.00    -0.322 OA
ATOM     17  C   UNL d   1      -0.552   4.718  -1.229  0.00  0.00     0.213 C 
ENDBRANCH  14  16
ENDBRANCH   1  14
BRANCH   4  18
ATOM     18  C   UNL d   1      -0.329  -2.725  -0.135  0.00  0.00    -0.018 C 
ATOM     19  C   UNL d   1      -0.406  -3.317  -1.553  0.00  0.00     0.020 C 
ATOM     20  C   UNL d   1       0.770  -3.476   0.655  0.00  0.00     0.020 C 
ATOM     21  C   UNL d   1      -1.661  -2.981   0.597  0.00  0.00     0.020 C 
ENDBRANCH   4  18
TORSDOF 5
