REMARK  5 active torsions:
REMARK  status: ('A' for Active; 'I' for Inactive)
REMARK    1  A    between atoms: C_8  and  N_3 
REMARK    2  A    between atoms: C_9  and  C_4 
REMARK    3  A    between atoms: C_11  and  C_8 
REMARK    4  A    between atoms: O_18  and  C_11 
REMARK    5  A    between atoms: C_20  and  O_18 
ROOT
ATOM      1  N   UNL d   1      -0.469  -1.203   0.160  0.00  0.00    -0.268 N 
ATOM      2  HN  UNL d   1      -0.713  -2.165   0.393  1.00  0.00     0.190 HD
ATOM      3  N   UNL d   1       0.742  -0.646  -0.062  0.00  0.00    -0.207 N 
ATOM      4  C   UNL d   1      -1.261  -0.129  -0.012  0.00  0.00     0.144 A 
ATOM      5  N   UNL d   1      -0.538   1.024  -0.233  0.00  0.00    -0.266 N 
ATOM      6  HN  UNL d   1      -0.918   1.961  -0.369  1.00  0.00     0.186 HD
ATOM      7  N   UNL d   1       0.742   0.686  -0.235  0.00  0.00    -0.002 NA
ENDROOT
BRANCH   4   8
ATOM      8  C   UNL d   1      -2.717  -0.148   0.028  0.00  0.00     0.012 A 
ATOM      9  C   UNL d   1      -3.422  -1.334   0.272  0.00  0.00     0.039 A 
ATOM     10  C   UNL d   1      -4.822  -1.338   0.291  0.00  0.00     0.041 A 
ATOM     11 CL   UNL d   1      -5.621  -2.839   0.600  0.00  0.00    -0.084 Cl
ATOM     12  C   UNL d   1      -5.548  -0.158   0.065  0.00  0.00    -0.040 A 
ATOM     13  C   UNL d   1      -4.840   1.026  -0.176  0.00  0.00     0.009 A 
ATOM     14  C   UNL d   1      -7.051  -0.131   0.075  0.00  0.00     0.050 C 
ATOM     15  C   UNL d   1      -3.442   1.030  -0.194  0.00  0.00     0.016 A 
ENDBRANCH   4   8
BRANCH   3  16
ATOM     16  C   UNL d   1       1.966  -1.389   0.054  0.00  0.00     0.278 C 
BRANCH  16  17
ATOM     17  C   UNL d   1       2.333  -2.018  -1.254  0.00  0.00     0.280 C 
ATOM     18  O   UNL d   1       1.707  -1.945  -2.302  0.00  0.00    -0.263 OA
BRANCH  17  19
ATOM     19  O   UNL d   1       3.466  -2.764  -1.078  0.00  0.00    -0.320 OA
BRANCH  19  20
ATOM     20  C   UNL d   1       3.736  -3.726  -2.110  0.00  0.00     0.174 C 
ATOM     21  C   UNL d   1       3.034  -5.018  -1.732  0.00  0.00     0.034 C 
ENDBRANCH  19  20
ENDBRANCH  17  19
ENDBRANCH  16  17
ENDBRANCH   3  16
TORSDOF 5
