REMARK  8 active torsions:
REMARK  status: ('A' for Active; 'I' for Inactive)
REMARK    1  A    between atoms: N_2  and  C_1 
REMARK    2  A    between atoms: C_3  and  C_1 
REMARK    3  A    between atoms: C_5  and  C_1 
REMARK    4  A    between atoms: N_6  and  C_1 
REMARK       I    between atoms: C_4  and  N_2 
REMARK    5  A    between atoms: C_12  and  C_4 
REMARK    6  A    between atoms: O_19  and  C_5 
REMARK    7  A    between atoms: C_9  and  N_6 
REMARK    8  A    between atoms: C_24  and  O_19 
ROOT
ATOM      1  C   UNL d   1       1.008  -0.087  -0.056  0.00  0.00     0.297 C 
ENDROOT
BRANCH   1   2
ATOM      2  N   UNL d   1       0.380  -0.980   0.929  0.00  0.00    -0.315 N 
ATOM      3  C   UNL d   1       0.305  -0.661   2.259  0.00  0.00     0.254 C 
ATOM      4  O   UNL d   1       0.715   0.395   2.721  0.00  0.00    -0.268 OA
ATOM      5  H   UNL d   1      -0.153  -1.763   0.571  0.00  0.00     0.166 HD
BRANCH   3   6
ATOM      6  C   UNL d   1      -0.320  -1.681   3.131  0.00  0.00     0.032 A 
ATOM      7  C   UNL d   1       0.072  -3.023   3.042  0.00  0.00     0.017 A 
ATOM      8  C   UNL d   1      -0.468  -3.960   3.924  0.00  0.00     0.001 A 
ATOM      9  C   UNL d   1      -1.400  -3.562   4.883  0.00  0.00     0.000 A 
ATOM     10  C   UNL d   1      -1.797  -2.226   4.964  0.00  0.00     0.001 A 
ATOM     11  C   UNL d   1      -1.251  -1.281   4.093  0.00  0.00     0.017 A 
ENDBRANCH   3   6
ENDBRANCH   1   2
BRANCH   1  12
ATOM     12  C   UNL d   1       0.540   1.416  -0.002  0.00  0.00     0.442 C 
ATOM     13  F   UNL d   1      -0.686   1.552   0.565  0.00  0.00    -0.166 F 
ATOM     14  F   UNL d   1       1.406   2.186   0.708  0.00  0.00    -0.166 F 
ATOM     15  F   UNL d   1       0.450   1.993  -1.228  0.00  0.00    -0.166 F 
ENDBRANCH   1  12
BRANCH   1  16
ATOM     16  C   UNL d   1       0.566  -0.521  -1.472  0.00  0.00     0.318 C 
ATOM     17  O   UNL d   1      -0.473  -1.141  -1.698  0.00  0.00    -0.260 OA
BRANCH  16  18
ATOM     18  O   UNL d   1       1.486  -0.190  -2.423  0.00  0.00    -0.318 OA
BRANCH  18  19
ATOM     19  C   UNL d   1       1.229  -0.630  -3.764  0.00  0.00     0.174 C 
ATOM     20  C   UNL d   1       1.582  -2.097  -3.931  0.00  0.00     0.034 C 
ENDBRANCH  18  19
ENDBRANCH  16  18
ENDBRANCH   1  16
BRANCH   1  21
ATOM     21  N   UNL d   1       2.478  -0.261   0.138  0.00  0.00    -0.348 N 
ATOM     22  H   UNL d   1       2.816   0.336   0.896  0.00  0.00     0.163 HD
BRANCH  21  23
ATOM     23  C   UNL d   1       3.212  -1.426  -0.035  0.00  0.00     0.032 A 
ATOM     24  C   UNL d   1       4.609  -1.349   0.101  0.00  0.00     0.056 A 
ATOM     25  C   UNL d   1       5.429  -2.451  -0.165  0.00  0.00     0.074 A 
ATOM     26 CL   UNL d   1       7.136  -2.300  -0.004  0.00  0.00    -0.081 Cl
ATOM     27  C   UNL d   1       4.863  -3.651  -0.577  0.00  0.00     0.138 A 
ATOM     28  C   UNL d   1       3.489  -3.755  -0.731  0.00  0.00     0.046 A 
ATOM     29  F   UNL d   1       5.624  -4.721  -0.846  0.00  0.00    -0.204 F 
ATOM     30  C   UNL d   1       2.676  -2.646  -0.471  0.00  0.00     0.032 A 
ENDBRANCH  21  23
ENDBRANCH   1  21
TORSDOF 8
