REMARK  8 active torsions:
REMARK  status: ('A' for Active; 'I' for Inactive)
REMARK       I    between atoms: N_4  and  C_1 
REMARK    1  A    between atoms: C_9  and  C_1 
REMARK    2  A    between atoms: O_16  and  C_3 
REMARK    3  A    between atoms: C_7  and  N_4 
REMARK    4  A    between atoms: C_5  and  C_9 
REMARK    5  A    between atoms: C_11  and  C_5 
REMARK    6  A    between atoms: C_6  and  C_11 
REMARK    7  A    between atoms: O_15  and  C_6 
REMARK    8  A    between atoms: O_17  and  C_8 
ROOT
ATOM      1  C   UNL d   1       1.173  -0.497  -0.057  0.00  0.00     0.222 C 
ATOM      2  N   UNL d   1       2.445  -0.591   0.491  0.00  0.00    -0.327 N 
ATOM      3  O   UNL d   1       0.906  -0.231  -1.223  0.00  0.00    -0.273 OA
ATOM      4  H   UNL d   1       2.492  -0.933   1.443  0.00  0.00     0.169 HD
ENDROOT
BRANCH   1   5
ATOM      5  C   UNL d   1       0.097  -0.872   0.978  0.00  0.00     0.113 C 
BRANCH   5   6
ATOM      6  C   UNL d   1      -1.405  -0.683   0.594  0.00  0.00    -0.023 C 
ATOM      7  C   UNL d   1      -1.761   0.824   0.443  0.00  0.00     0.010 C 
ATOM      8  C   UNL d   1      -1.843   1.597   1.758  0.00  0.00     0.001 C 
ATOM      9  C   UNL d   1      -2.810   0.940   2.731  0.00  0.00     0.000 C 
ATOM     10  C   UNL d   1      -2.409  -0.501   3.001  0.00  0.00     0.001 C 
ATOM     11  C   UNL d   1      -2.297  -1.312   1.712  0.00  0.00     0.010 C 
BRANCH   6  12
ATOM     12  C   UNL d   1      -1.766  -1.381  -0.751  0.00  0.00     0.119 C 
BRANCH  12  13
ATOM     13  C   UNL d   1      -1.379  -2.844  -0.830  0.00  0.00     0.140 C 
ATOM     14  O   UNL d   1      -1.892  -3.726  -0.162  0.00  0.00    -0.650 OA
BRANCH  13  15
ATOM     15  O   UNL d   1      -0.378  -3.084  -1.706  0.00  0.00    -0.776 OA
ATOM     16  H   UNL d   1      -0.036  -2.284  -2.152  0.00  0.00     0.167 HD
ENDBRANCH  13  15
ENDBRANCH  12  13
ENDBRANCH   6  12
ENDBRANCH   5   6
ENDBRANCH   1   5
BRANCH   2  17
ATOM     17  C   UNL d   1       3.696  -0.345  -0.120  0.00  0.00     0.037 A 
ATOM     18  C   UNL d   1       3.874   0.171  -1.408  0.00  0.00     0.069 A 
ATOM     19  C   UNL d   1       5.165   0.385  -1.923  0.00  0.00     0.103 A 
ATOM     20  C   UNL d   1       6.296   0.047  -1.151  0.00  0.00     0.101 A 
ATOM     21  C   UNL d   1       6.120  -0.449   0.139  0.00  0.00     0.042 A 
ATOM     22  C   UNL d   1       4.833  -0.641   0.648  0.00  0.00     0.032 A 
BRANCH  19  23
ATOM     23  O   UNL d   1       5.442   0.899  -3.168  0.00  0.00    -0.353 OA
ATOM     24  C   UNL d   1       4.354   1.340  -3.962  0.00  0.00     0.210 C 
ENDBRANCH  19  23
BRANCH  20  25
ATOM     25  O   UNL d   1       7.526   0.276  -1.718  0.00  0.00    -0.353 OA
ATOM     26  C   UNL d   1       8.609  -0.503  -1.224  0.00  0.00     0.210 C 
ENDBRANCH  20  25
ENDBRANCH   2  17
TORSDOF 8
