REMARK  8 active torsions:
REMARK  status: ('A' for Active; 'I' for Inactive)
REMARK    1  A    between atoms: O_11  and  C_7 
REMARK    2  A    between atoms: O_12  and  C_8 
REMARK    3  A    between atoms: O_13  and  C_9 
REMARK    4  A    between atoms: O_14  and  C_10 
REMARK    5  A    between atoms: C_15  and  O_11 
REMARK    6  A    between atoms: C_16  and  O_12 
REMARK    7  A    between atoms: C_17  and  O_13 
REMARK    8  A    between atoms: C_18  and  O_14 
ROOT
ATOM      1  C   UNL d   1      -1.004   0.723  -0.055  0.00  0.00     0.012 A 
ATOM      2  C   UNL d   1      -1.009  -0.688   0.073  0.00  0.00     0.012 A 
ATOM      3  C   UNL d   1       1.488   0.710  -0.059  0.00  0.00     0.012 A 
ATOM      4  C   UNL d   1       1.484  -0.695   0.099  0.00  0.00     0.012 A 
ATOM      5  C   UNL d   1       0.245   1.384  -0.137  0.00  0.00     0.030 A 
ATOM      6  C   UNL d   1       0.234  -1.361   0.161  0.00  0.00     0.030 A 
ATOM      7  C   UNL d   1      -2.260  -1.362   0.105  0.00  0.00     0.090 A 
ATOM      8  C   UNL d   1      -2.247   1.407  -0.089  0.00  0.00     0.090 A 
ATOM      9  C   UNL d   1       2.739   1.381  -0.128  0.00  0.00     0.090 A 
ATOM     10  C   UNL d   1       2.728  -1.373   0.187  0.00  0.00     0.090 A 
ATOM     11  C   UNL d   1       3.944  -0.688   0.111  0.00  0.00     0.041 A 
ATOM     12  C   UNL d   1      -3.467  -0.663   0.072  0.00  0.00     0.041 A 
ATOM     13  C   UNL d   1       3.946   0.694  -0.020  0.00  0.00     0.041 A 
ATOM     14  C   UNL d   1      -3.461   0.720  -0.049  0.00  0.00     0.041 A 
ENDROOT
BRANCH   7  15
ATOM     15  O   UNL d   1      -2.253  -2.781   0.224  0.00  0.00    -0.278 OA
BRANCH  15  16
ATOM     16  C   UNL d   1      -3.246  -3.574  -0.361  0.00  0.00     0.260 C 
ATOM     17  O   UNL d   1      -4.171  -3.192  -1.066  0.00  0.00    -0.265 OA
ATOM     18  C   UNL d   1      -2.986  -5.020  -0.058  0.00  0.00     0.126 C 
ENDBRANCH  15  16
ENDBRANCH   7  15
BRANCH   8  19
ATOM     19  O   UNL d   1      -2.229   2.827  -0.213  0.00  0.00    -0.278 OA
BRANCH  19  20
ATOM     20  C   UNL d   1      -3.210   3.630   0.380  0.00  0.00     0.260 C 
ATOM     21  O   UNL d   1      -4.124   3.259   1.103  0.00  0.00    -0.265 OA
ATOM     22  C   UNL d   1      -2.950   5.072   0.057  0.00  0.00     0.126 C 
ENDBRANCH  19  20
ENDBRANCH   8  19
BRANCH  10  23
ATOM     23  O   UNL d   1       2.700  -2.795   0.268  0.00  0.00    -0.278 OA
BRANCH  23  24
ATOM     24  C   UNL d   1       3.710  -3.556   0.859  0.00  0.00     0.260 C 
ATOM     25  O   UNL d   1       4.681  -3.138   1.477  0.00  0.00    -0.265 OA
ATOM     26  C   UNL d   1       3.413  -5.017   0.672  0.00  0.00     0.126 C 
ENDBRANCH  23  24
ENDBRANCH  10  23
BRANCH   9  27
ATOM     27  O   UNL d   1       2.716   2.800  -0.227  0.00  0.00    -0.278 OA
BRANCH  27  28
ATOM     28  C   UNL d   1       3.716   3.534  -0.871  0.00  0.00     0.260 C 
ATOM     29  O   UNL d   1       4.681   3.088  -1.473  0.00  0.00    -0.265 OA
ATOM     30  C   UNL d   1       3.432   5.002  -0.732  0.00  0.00     0.126 C 
ENDBRANCH  27  28
ENDBRANCH   9  27
TORSDOF 8
