REMARK  5 active torsions:
REMARK  status: ('A' for Active; 'I' for Inactive)
REMARK    1  A    between atoms: N_2  and  C_1 
REMARK    2  A    between atoms: N_8  and  C_1 
REMARK       I    between atoms: C_7  and  N_2 
REMARK    3  A    between atoms: C_9  and  C_7 
REMARK    4  A    between atoms: C_15  and  N_8 
REMARK    5  A    between atoms: C_17  and  C_15 
ROOT
ATOM      1  C   UNL d   1       2.015   0.007  -0.167  0.00  0.00     0.362 A 
ATOM      2  C   UNL d   1       1.091  -1.228  -0.165  0.00  0.00     0.228 A 
ATOM      3  C   UNL d   1       1.054   1.189   0.066  0.00  0.00     0.228 A 
ATOM      4  C   UNL d   1      -0.308   0.646   0.113  0.00  0.00     0.029 A 
ATOM      5  C   UNL d   1      -0.287  -0.742  -0.026  0.00  0.00     0.029 A 
ATOM      6  O   UNL d   1       1.334   2.366   0.229  0.00  0.00    -0.287 OA
ATOM      7  O   UNL d   1       1.390  -2.405  -0.281  0.00  0.00    -0.287 OA
ATOM      8  C   UNL d   1      -1.494   1.343   0.257  0.00  0.00     0.016 A 
ATOM      9  C   UNL d   1      -1.454  -1.484  -0.046  0.00  0.00     0.016 A 
ATOM     10  C   UNL d   1      -2.682   0.607   0.236  0.00  0.00     0.001 A 
ATOM     11  C   UNL d   1      -2.663  -0.793   0.082  0.00  0.00     0.001 A 
ENDROOT
BRANCH   1  12
ATOM     12  N   UNL d   1       2.807   0.098  -1.365  0.00  0.00    -0.309 N 
ATOM     13  C   UNL d   1       2.192   0.193  -2.597  0.00  0.00     0.254 C 
ATOM     14  O   UNL d   1       0.984   0.329  -2.734  0.00  0.00    -0.268 OA
ATOM     15  H   UNL d   1       3.690  -0.390  -1.321  0.00  0.00     0.166 HD
BRANCH  13  16
ATOM     16  C   UNL d   1       3.076   0.058  -3.782  0.00  0.00     0.032 A 
ATOM     17  C   UNL d   1       2.589  -0.593  -4.920  0.00  0.00     0.017 A 
ATOM     18  C   UNL d   1       3.408  -0.745  -6.043  0.00  0.00     0.007 A 
ATOM     19  C   UNL d   1       4.710  -0.227  -6.046  0.00  0.00    -0.062 A 
ATOM     20  C   UNL d   1       5.182   0.443  -4.910  0.00  0.00     0.007 A 
ATOM     21  C   UNL d   1       5.600  -0.435  -7.237  0.00  0.00     0.048 C 
ATOM     22  C   UNL d   1       4.370   0.589  -3.782  0.00  0.00     0.017 A 
ENDBRANCH  13  16
ENDBRANCH   1  12
BRANCH   1  23
ATOM     23  N   UNL d   1       3.053  -0.058   0.881  0.00  0.00     0.133 N 
ATOM     24  H   UNL d   1       3.586   0.811   0.809  0.00  0.00     0.320 HD
BRANCH  23  25
ATOM     25  C   UNL d   1       2.527  -0.137   2.247  0.00  0.00     0.312 C 
BRANCH  25  26
ATOM     26  C   UNL d   1       3.638  -0.261   3.268  0.00  0.00    -0.030 A 
ATOM     27  C   UNL d   1       3.806   0.711   4.267  0.00  0.00     0.010 A 
ATOM     28  C   UNL d   1       4.796   0.564   5.244  0.00  0.00     0.024 A 
ATOM     29  C   UNL d   1       5.626  -0.554   5.226  0.00  0.00     0.034 A 
ATOM     30  C   UNL d   1       5.478  -1.525   4.239  0.00  0.00     0.024 A 
ATOM     31 CL   UNL d   1       6.836  -0.740   6.436  0.00  0.00    -0.084 Cl
ATOM     32  C   UNL d   1       4.487  -1.379   3.264  0.00  0.00     0.010 A 
ENDBRANCH  25  26
ENDBRANCH  23  25
ENDBRANCH   1  23
TORSDOF 5
