REMARK  3 active torsions:
REMARK  status: ('A' for Active; 'I' for Inactive)
REMARK    1  A    between atoms: C_7  and  C_2 
REMARK    2  A    between atoms: O_14  and  C_2 
REMARK    3  A    between atoms: C_8  and  C_9 
ROOT
ATOM      1  C   UNL d   1       0.923  -0.105   0.843  0.00  0.00     0.158 C 
ATOM      2  C   UNL d   1       0.289  -1.079   0.149  0.00  0.00     0.107 C 
ATOM      3  C   UNL d   1       0.207   0.880   1.585  0.00  0.00     0.113 C 
ATOM      4  C   UNL d   1       2.343  -0.033   0.852  0.00  0.00     0.113 C 
ATOM      5  N   UNL d   1       3.502  -0.029   0.817  0.00  0.00    -0.191 NA
ATOM      6  N   UNL d   1      -0.358   1.687   2.199  0.00  0.00    -0.191 NA
ENDROOT
BRANCH   2   7
ATOM      7  C   UNL d   1      -1.179  -1.185   0.094  0.00  0.00    -0.001 A 
ATOM      8  C   UNL d   1      -1.901  -0.536  -0.909  0.00  0.00     0.015 A 
ATOM      9  C   UNL d   1      -3.301  -0.595  -0.925  0.00  0.00     0.009 A 
ATOM     10  C   UNL d   1      -4.021  -1.300   0.059  0.00  0.00    -0.051 A 
ATOM     11  C   UNL d   1      -3.272  -1.976   1.037  0.00  0.00     0.009 A 
ATOM     12  C   UNL d   1      -1.872  -1.921   1.056  0.00  0.00     0.015 A 
BRANCH  10  13
ATOM     13  C   UNL d   1      -5.562  -1.287   0.055  0.00  0.00    -0.024 C 
ATOM     14  C   UNL d   1      -6.191  -2.104   1.207  0.00  0.00     0.019 C 
ATOM     15  C   UNL d   1      -6.064   0.167   0.202  0.00  0.00     0.019 C 
ATOM     16  C   UNL d   1      -6.106  -1.872  -1.266  0.00  0.00     0.019 C 
ENDBRANCH  10  13
ENDBRANCH   2   7
BRANCH   2  17
ATOM     17  O   UNL d   1       0.911  -2.076  -0.581  0.00  0.00    -0.358 OA
ATOM     18  H   UNL d   1       1.881  -2.029  -0.512  0.00  0.00     0.217 HD
ENDBRANCH   2  17
TORSDOF 3
