REMARK  3 active torsions:
REMARK  status: ('A' for Active; 'I' for Inactive)
REMARK    1  A    between atoms: N_3  and  C_1 
REMARK       I    between atoms: C_9  and  N_3 
REMARK    2  A    between atoms: S_13  and  C_6 
REMARK    3  A    between atoms: C_10  and  C_9 
ROOT
ATOM      1  N   UNL d   1       0.404   2.439   0.187  0.00  0.00    -0.302 N 
ATOM      2  C   UNL d   1       1.477   3.206  -0.205  0.00  0.00     0.257 C 
ATOM      3  O   UNL d   1       1.701   4.369   0.112  0.00  0.00    -0.267 OA
ATOM      4  H   UNL d   1       0.401   1.444   0.014  0.00  0.00     0.171 HD
ENDROOT
BRANCH   1   5
ATOM      5  C   UNL d   1      -0.655   2.861   0.958  0.00  0.00     0.168 A 
ATOM      6  S   UNL d   1      -0.933   4.494   1.355  0.00  0.00    -0.026 SA
ATOM      7  C   UNL d   1      -2.310   3.977   2.228  0.00  0.00     0.129 A 
ATOM      8  N   UNL d   1      -2.525   2.679   2.176  0.00  0.00    -0.286 N 
ATOM      9  N   UNL d   1      -1.565   2.030   1.419  0.00  0.00    -0.278 N 
ATOM     10  HN  UNL d   1      -3.305   2.210   2.636  1.00  0.00     0.188 HD
ATOM     11  HN  UNL d   1      -1.562   1.026   1.241  1.00  0.00     0.189 HD
BRANCH   7  12
ATOM     12  S   UNL d   1      -3.338   5.088   3.103  0.00  0.00    -0.108 SA
ATOM     13  C   UNL d   1      -4.415   3.940   3.986  0.00  0.00     0.097 C 
ENDBRANCH   7  12
ENDBRANCH   1   5
BRANCH   2  14
ATOM     14  C   UNL d   1       2.483   2.511  -1.061  0.00  0.00     0.032 A 
ATOM     15  C   UNL d   1       2.127   1.507  -1.973  0.00  0.00     0.023 A 
ATOM     16  C   UNL d   1       3.107   0.895  -2.769  0.00  0.00    -0.061 A 
ATOM     17  C   UNL d   1       2.747  -0.175  -3.758  0.00  0.00     0.048 C 
ATOM     18  C   UNL d   1       4.440   1.312  -2.657  0.00  0.00     0.007 A 
ATOM     19  C   UNL d   1       4.795   2.319  -1.761  0.00  0.00     0.002 A 
ATOM     20  C   UNL d   1       3.820   2.918  -0.966  0.00  0.00     0.017 A 
ENDBRANCH   2  14
TORSDOF 3
