REMARK  5 active torsions:
REMARK  status: ('A' for Active; 'I' for Inactive)
REMARK    1  A    between atoms: O_11  and  C_3 
REMARK    2  A    between atoms: C_9  and  C_4 
REMARK    3  A    between atoms: N_10  and  C_5 
REMARK    4  A    between atoms: C_12  and  C_9 
REMARK    5  A    between atoms: C_14  and  C_12 
ROOT
ATOM      1  N   UNL d   1      -0.404   1.200   0.587  0.00  0.00    -0.313 N 
ATOM      2  HN  UNL d   1      -0.775   2.044   1.023  1.00  0.00     0.170 HD
ATOM      3  C   UNL d   1      -1.098   0.058   0.536  0.00  0.00     0.150 A 
ATOM      4  C   UNL d   1      -0.695  -1.117  -0.062  0.00  0.00     0.015 A 
ATOM      5  C   UNL d   1       0.803   1.160   0.032  0.00  0.00     0.157 A 
ATOM      6  N   UNL d   1       1.312   0.103  -0.599  0.00  0.00    -0.336 N 
ATOM      7  HN  UNL d   1       2.230   0.145  -1.040  1.00  0.00     0.168 HD
ATOM      8  C   UNL d   1       0.570  -1.029  -0.633  0.00  0.00     0.018 A 
ATOM      9  C   UNL d   1       1.227  -2.200  -1.308  0.00  0.00     0.069 C 
ENDROOT
BRANCH   4  10
ATOM     10  C   UNL d   1      -1.460  -2.415  -0.022  0.00  0.00     0.045 C 
BRANCH  10  11
ATOM     11  C   UNL d   1      -2.994  -2.378   0.001  0.00  0.00     0.009 C 
BRANCH  11  12
ATOM     12  C   UNL d   1      -3.655  -1.664  -1.192  0.00  0.00    -0.023 C 
ATOM     13  C   UNL d   1      -3.314  -2.320  -2.530  0.00  0.00     0.009 C 
ATOM     14  C   UNL d   1      -5.171  -1.647  -0.988  0.00  0.00     0.009 C 
ENDBRANCH  11  12
ENDBRANCH  10  11
ENDBRANCH   4  10
BRANCH   3  15
ATOM     15  O   UNL d   1      -2.287   0.174   1.176  0.00  0.00    -0.346 OA
ATOM     16  H   UNL d   1      -2.242   1.109   1.449  0.00  0.00     0.219 HD
ENDBRANCH   3  15
BRANCH   5  17
ATOM     17  N   UNL d   1       1.571   2.301   0.103  0.00  0.00    -0.274 NA
ATOM     18  H   UNL d   1       0.986   3.115   0.220  0.00  0.00     0.127 HD
ATOM     19  H   UNL d   1       2.248   2.310  -0.646  0.00  0.00     0.127 HD
ENDBRANCH   5  17
TORSDOF 5
