REMARK  5 active torsions:
REMARK  status: ('A' for Active; 'I' for Inactive)
REMARK    1  A    between atoms: N_2  and  S_1 
REMARK    2  A    between atoms: C_9  and  S_1 
REMARK    3  A    between atoms: C_3  and  N_2 
REMARK       I    between atoms: C_7  and  N_13 
REMARK       I    between atoms: N_14  and  C_7 
REMARK    4  A    between atoms: N_13  and  C_18 
REMARK    5  A    between atoms: C_19  and  N_14 
ROOT
ATOM      1  C   UNL d   1       0.969   1.622  -0.874  0.00  0.00     0.075 A 
ATOM      2  C   UNL d   1       0.191   1.674  -2.033  0.00  0.00     0.027 A 
ATOM      3  C   UNL d   1       1.304   2.794  -0.204  0.00  0.00     0.027 A 
ATOM      4  C   UNL d   1      -0.057   4.082  -1.772  0.00  0.00     0.036 A 
ATOM      5  C   UNL d   1       0.804   4.015  -0.667  0.00  0.00     0.031 A 
ATOM      6  C   UNL d   1      -0.308   2.904  -2.487  0.00  0.00     0.031 A 
ENDROOT
BRANCH   1   7
ATOM      7  S   UNL d   1       1.363   0.052  -0.152  0.00  0.00     0.247 S 
ATOM      8  O   UNL d   1       1.570   0.249   1.268  0.00  0.00    -0.205 OA
ATOM      9  O   UNL d   1       0.405  -0.928  -0.617  0.00  0.00    -0.205 OA
BRANCH   7  10
ATOM     10  N   UNL d   1       2.886  -0.307  -0.776  0.00  0.00    -0.165 NA
ATOM     11  H   UNL d   1       3.446  -0.670  -0.007  0.00  0.00     0.147 HD
BRANCH  10  12
ATOM     12  C   UNL d   1       2.927  -1.015  -1.968  0.00  0.00     0.117 A 
ATOM     13  N   UNL d   1       2.919  -0.406  -3.154  0.00  0.00    -0.249 N 
ATOM     14  O   UNL d   1       3.011  -1.419  -4.093  0.00  0.00    -0.241 OA
ATOM     15  HN  UNL d   1       2.858   0.597  -3.332  1.00  0.00     0.196 HD
ATOM     16  C   UNL d   1       3.059  -2.620  -3.456  0.00  0.00     0.075 A 
ATOM     17  C   UNL d   1       3.018  -2.414  -2.099  0.00  0.00     0.079 A 
ATOM     18  C   UNL d   1       3.138  -3.814  -4.313  0.00  0.00     0.079 C 
ENDBRANCH  10  12
ENDBRANCH   7  10
ENDBRANCH   1   7
BRANCH   4  19
ATOM     19  N   UNL d   1      -0.741   5.265  -2.167  0.00  0.00    -0.309 N 
ATOM     20  C   UNL d   1      -0.757   6.461  -1.468  0.00  0.00     0.325 C 
ATOM     21  N   UNL d   1      -1.623   7.400  -2.012  0.00  0.00    -0.309 N 
ATOM     22  O   UNL d   1      -0.090   6.660  -0.452  0.00  0.00    -0.247 OA
ATOM     23  H   UNL d   1      -2.177   7.120  -2.804  0.00  0.00     0.170 HD
ATOM     24  H   UNL d   1      -1.387   5.169  -2.937  0.00  0.00     0.170 HD
BRANCH  21  25
ATOM     25  C   UNL d   1      -1.930   8.667  -1.442  0.00  0.00     0.036 A 
ATOM     26  C   UNL d   1      -1.266   9.200  -0.330  0.00  0.00     0.029 A 
ATOM     27  C   UNL d   1      -1.687  10.393   0.265  0.00  0.00     0.002 A 
ATOM     28  C   UNL d   1      -2.770  11.086  -0.259  0.00  0.00     0.000 A 
ATOM     29  C   UNL d   1      -3.405  10.603  -1.401  0.00  0.00     0.002 A 
ATOM     30  C   UNL d   1      -2.982   9.405  -1.995  0.00  0.00     0.029 A 
ENDBRANCH  21  25
ENDBRANCH   4  19
TORSDOF 5
