REMARK  0 active torsions:
REMARK  status: ('A' for Active; 'I' for Inactive)
ROOT
ATOM      1  C   UNL d   1       1.583  -1.315   0.007  0.00  0.00     0.241 A 
ATOM      2  S   UNL d   1       2.773  -0.007   0.007  0.00  0.00     0.032 SA
ATOM      3  N   UNL d   1       1.611   1.200   0.008  0.00  0.00    -0.318 N 
ATOM      4  C   UNL d   1       0.245  -0.714   0.006  0.00  0.00     0.050 A 
ATOM      5  C   UNL d   1       0.319   0.689   0.006  0.00  0.00     0.055 A 
ATOM      6  O   UNL d   1       1.837  -2.505   0.008  0.00  0.00    -0.278 OA
ATOM      7  C   UNL d   1       1.955   2.602   0.002  0.00  0.00     0.165 C 
ATOM      8  C   UNL d   1      -0.951  -1.423   0.003  0.00  0.00     0.018 A 
ATOM      9  C   UNL d   1      -0.874   1.401   0.003  0.00  0.00     0.031 A 
ATOM     10  C   UNL d   1      -2.136  -0.694   0.001  0.00  0.00     0.001 A 
ATOM     11  C   UNL d   1      -2.098   0.708   0.000  0.00  0.00     0.002 A 
ENDROOT
TORSDOF 0
