REMARK  3 active torsions:
REMARK  status: ('A' for Active; 'I' for Inactive)
REMARK    1  A    between atoms: N_9  and  C_1 
REMARK    2  A    between atoms: C_10  and  N_6 
REMARK    3  A    between atoms: C_8  and  C_10 
ROOT
ATOM      1  C   UNL d   1      -0.124  -1.374   0.064  0.00  0.00     0.709 A 
ATOM      2  N   UNL d   1       1.119  -0.899   0.233  0.00  0.00    -0.116 N 
ATOM      3  HN  UNL d   1       1.983  -1.400   0.439  1.00  0.00     0.207 HD
ATOM      4  N   UNL d   1      -1.030  -0.368  -0.188  0.00  0.00    -0.113 N 
ATOM      5  HN  UNL d   1      -2.032  -0.480  -0.338  1.00  0.00     0.203 HD
ATOM      6  N   UNL d   1       0.912   0.417   0.055  0.00  0.00    -0.199 N 
ATOM      7  N   UNL d   1      -0.356   0.774  -0.201  0.00  0.00     0.011 NA
ENDROOT
BRANCH   6   8
ATOM      8  C   UNL d   1       2.008   1.369  -0.004  0.00  0.00     0.211 C 
BRANCH   8   9
ATOM      9  C   UNL d   1       2.324   1.931   1.357  0.00  0.00     0.023 A 
ATOM     10  C   UNL d   1       3.285   1.290   2.147  0.00  0.00     0.126 A 
ATOM     11  F   UNL d   1       3.974   0.255   1.647  0.00  0.00    -0.205 F 
ATOM     12  C   UNL d   1       3.561   1.698   3.450  0.00  0.00     0.043 A 
ATOM     13  C   UNL d   1       2.872   2.777   3.993  0.00  0.00     0.005 A 
ATOM     14  C   UNL d   1       1.934   3.455   3.216  0.00  0.00     0.024 A 
ATOM     15  C   UNL d   1       1.663   3.038   1.906  0.00  0.00     0.045 A 
ATOM     16 CL   UNL d   1       0.511   3.954   1.004  0.00  0.00    -0.084 Cl
ENDBRANCH   8   9
ENDBRANCH   6   8
BRANCH   1  17
ATOM     17  N   UNL d   1      -0.496  -2.680   0.089  0.00  0.00    -0.215 N 
ATOM     18  C   UNL d   1      -1.910  -2.996   0.295  0.00  0.00     0.141 C 
ATOM     19  C   UNL d   1      -2.229  -4.384  -0.259  0.00  0.00     0.020 C 
ATOM     20  C   UNL d   1      -1.285  -5.448   0.293  0.00  0.00     0.003 C 
ATOM     21  C   UNL d   1       0.170  -5.042   0.085  0.00  0.00     0.020 C 
ATOM     22  C   UNL d   1       0.451  -3.649   0.645  0.00  0.00     0.141 C 
ENDBRANCH   1  17
TORSDOF 3
