REMARK  3 active torsions:
REMARK  status: ('A' for Active; 'I' for Inactive)
REMARK    1  A    between atoms: C_6  and  C_1 
REMARK    2  A    between atoms: N_10  and  C_12 
REMARK    3  A    between atoms: C_17  and  C_11 
ROOT
ATOM      1  C   UNL d   1      -2.070   0.857  -0.139  0.00  0.00     0.123 C 
ATOM      2  N   UNL d   1      -1.256   0.253   0.967  0.00  0.00    -0.243 NA
ATOM      3  C   UNL d   1      -2.832  -0.368  -0.774  0.00  0.00     0.025 C 
ATOM      4  N   UNL d   1      -0.989   1.502  -0.895  0.00  0.00    -0.333 N 
ATOM      5  C   UNL d   1      -0.766  -0.939   0.209  0.00  0.00     0.020 A 
ATOM      6  C   UNL d   1      -1.628  -1.256  -0.866  0.00  0.00    -0.025 A 
ATOM      7  C   UNL d   1       0.067   1.869  -0.083  0.00  0.00     0.233 C 
ATOM      8  C   UNL d   1      -0.136   1.175   1.251  0.00  0.00     0.201 C 
ATOM      9  O   UNL d   1       0.971   2.625  -0.407  0.00  0.00    -0.272 OA
ATOM     10  C   UNL d   1      -3.555  -0.087  -2.091  0.00  0.00     0.024 C 
ATOM     11  C   UNL d   1      -3.835  -1.000   0.234  0.00  0.00     0.024 C 
ATOM     12  C   UNL d   1       0.472  -1.561   0.284  0.00  0.00     0.024 A 
ATOM     13  C   UNL d   1      -1.242  -2.080  -1.916  0.00  0.00     0.010 A 
ATOM     14  C   UNL d   1       0.037  -2.619  -1.886  0.00  0.00     0.001 A 
ATOM     15  C   UNL d   1       0.878  -2.379  -0.787  0.00  0.00     0.002 A 
ATOM     16  H   UNL d   1      -1.110   1.924  -1.797  0.00  0.00     0.165 HD
ENDROOT
BRANCH   1  17
ATOM     17  C   UNL d   1      -2.992   2.030   0.047  0.00  0.00     0.023 C 
ATOM     18  C   UNL d   1      -3.373   2.889   1.003  0.00  0.00     0.011 C 
BRANCH  18  19
ATOM     19  C   UNL d   1      -4.115   4.123   0.606  0.00  0.00    -0.036 A 
ATOM     20  C   UNL d   1      -3.929   4.738  -0.648  0.00  0.00     0.013 A 
ATOM     21  C   UNL d   1      -4.550   5.951  -0.989  0.00  0.00     0.030 A 
ATOM     22  C   UNL d   1      -5.360   6.636  -0.085  0.00  0.00     0.030 A 
ATOM     23  C   UNL d   1      -5.563   6.009   1.157  0.00  0.00     0.030 A 
ATOM     24  C   UNL d   1      -4.953   4.782   1.502  0.00  0.00     0.013 A 
BRANCH  22  25
ATOM     25  N   UNL d   1      -5.857   7.907  -0.341  0.00  0.00    -0.377 N 
ATOM     26  C   UNL d   1      -5.316   8.742  -1.432  0.00  0.00     0.149 C 
ATOM     27  C   UNL d   1      -5.514  10.227  -1.078  0.00  0.00     0.187 C 
ATOM     28  O   UNL d   1      -6.894  10.532  -0.818  0.00  0.00    -0.388 OA
ATOM     29  C   UNL d   1      -7.383   9.729   0.270  0.00  0.00     0.187 C 
ATOM     30  C   UNL d   1      -7.265   8.225  -0.038  0.00  0.00     0.149 C 
ENDBRANCH  22  25
ENDBRANCH  18  19
ENDBRANCH   1  17
TORSDOF 3
