REMARK  3 active torsions:
REMARK  status: ('A' for Active; 'I' for Inactive)
REMARK    1  A    between atoms: C_11  and  O_15 
REMARK    2  A    between atoms: C_13  and  C_12 
REMARK    3  A    between atoms: O_15  and  C_17 
ROOT
ATOM      1  C   UNL d   1      -1.084   0.698   0.067  0.00  0.00     0.046 A 
ATOM      2  C   UNL d   1      -0.668  -0.620   0.080  0.00  0.00     0.073 A 
ATOM      3  C   UNL d   1       0.131   1.532   0.032  0.00  0.00     0.195 A 
ATOM      4  N   UNL d   1      -1.528  -1.637   0.106  0.00  0.00    -0.299 N 
ATOM      5  HN  UNL d   1      -1.207  -2.605   0.119  1.00  0.00     0.187 HD
ATOM      6  C   UNL d   1       1.284   0.602   0.024  0.00  0.00     0.027 A 
ATOM      7  C   UNL d   1       0.767  -0.704   0.051  0.00  0.00     0.007 A 
ATOM      8  N   UNL d   1      -2.868  -1.323   0.116  0.00  0.00    -0.299 N 
ATOM      9  HN  UNL d   1      -3.552  -2.080   0.137  1.00  0.00     0.187 HD
ATOM     10  C   UNL d   1      -2.416   1.038   0.073  0.00  0.00     0.049 A 
ATOM     11  C   UNL d   1      -3.311  -0.026   0.097  0.00  0.00     0.059 A 
ATOM     12  O   UNL d   1       0.165   2.743   0.015  0.00  0.00    -0.287 OA
ATOM     13  C   UNL d   1       2.637   0.874  -0.005  0.00  0.00     0.016 A 
ATOM     14  C   UNL d   1       1.623  -1.787   0.041  0.00  0.00     0.015 A 
ATOM     15  C   UNL d   1       2.999  -1.538   0.011  0.00  0.00     0.001 A 
ATOM     16  C   UNL d   1       3.502  -0.220  -0.010  0.00  0.00     0.001 A 
ENDROOT
BRANCH  11  17
ATOM     17  C   UNL d   1      -4.777   0.144   0.059  0.00  0.00    -0.005 A 
ATOM     18  C   UNL d   1      -5.592  -0.828  -0.563  0.00  0.00     0.051 A 
ATOM     19  C   UNL d   1      -6.972  -0.660  -0.679  0.00  0.00     0.079 A 
ATOM     20  C   UNL d   1      -7.573   0.452  -0.089  0.00  0.00     0.037 A 
ATOM     21  C   UNL d   1      -6.800   1.413   0.557  0.00  0.00     0.004 A 
ATOM     22  C   UNL d   1      -5.413   1.266   0.620  0.00  0.00     0.014 A 
BRANCH  19  23
ATOM     23  O   UNL d   1      -7.836  -1.518  -1.288  0.00  0.00    -0.255 OA
BRANCH  23  24
ATOM     24  C   UNL d   1      -7.394  -2.293  -2.394  0.00  0.00     0.530 C 
ATOM     25  F   UNL d   1      -6.191  -1.929  -2.884  0.00  0.00    -0.144 F 
ATOM     26  F   UNL d   1      -7.350  -3.595  -2.041  0.00  0.00    -0.144 F 
ATOM     27  F   UNL d   1      -8.297  -2.159  -3.393  0.00  0.00    -0.144 F 
ENDBRANCH  23  24
ENDBRANCH  19  23
ENDBRANCH  11  17
TORSDOF 3
