REMARK  7 active torsions:
REMARK  status: ('A' for Active; 'I' for Inactive)
REMARK    1  A    between atoms: N_11  and  C_1 
REMARK    2  A    between atoms: C_9  and  N_6 
REMARK    3  A    between atoms: C_8  and  C_12 
REMARK    4  A    between atoms: C_10  and  C_9 
REMARK    5  A    between atoms: C_19  and  C_10 
REMARK    6  A    between atoms: C_12  and  O_16 
REMARK    7  A    between atoms: O_16  and  N_14 
ROOT
ATOM      1  C   UNL d   1       3.289   0.510  -0.099  0.00  0.00     0.064 C 
ATOM      2  N   UNL d   1       3.416  -0.745  -0.425  0.00  0.00    -0.259 N 
ATOM      3  HN  UNL d   1       4.321  -1.207  -0.513  1.00  0.00     0.194 HD
ENDROOT
BRANCH   1   4
ATOM      4  C   UNL d   1       1.973   1.197   0.193  0.00  0.00     0.227 C 
BRANCH   4   5
ATOM      5  N   UNL d   1       1.197   1.513  -0.988  0.00  0.00    -0.197 N 
ATOM      6  N   UNL d   1       1.220   0.781  -2.109  0.00  0.00    -0.116 N 
ATOM      7  C   UNL d   1       0.473   1.532  -2.918  0.00  0.00     0.709 A 
ATOM      8  HN  UNL d   1       1.682  -0.110  -2.294  1.00  0.00     0.207 HD
ATOM      9  N   UNL d   1      -0.051   2.627  -2.272  0.00  0.00    -0.113 N 
ATOM     10  N   UNL d   1       0.407   2.599  -1.028  0.00  0.00     0.011 NA
ATOM     11  HN  UNL d   1      -0.674   3.327  -2.673  1.00  0.00     0.203 HD
BRANCH   7  12
ATOM     12  N   UNL d   1       0.282   1.317  -4.233  0.00  0.00    -0.211 N 
ATOM     13  C   UNL d   1      -0.443   2.257  -5.081  0.00  0.00     0.167 C 
ATOM     14  C   UNL d   1       0.323   2.442  -6.401  0.00  0.00     0.188 C 
ATOM     15  O   UNL d   1       0.559   1.182  -7.052  0.00  0.00    -0.388 OA
ATOM     16  C   UNL d   1       1.355   0.331  -6.211  0.00  0.00     0.188 C 
ATOM     17  C   UNL d   1       0.662   0.056  -4.868  0.00  0.00     0.167 C 
ENDBRANCH   7  12
ENDBRANCH   4   5
ENDBRANCH   1   4
BRANCH   1  18
ATOM     18  C   UNL d   1       4.567   1.291   0.037  0.00  0.00    -0.010 A 
ATOM     19  C   UNL d   1       5.731   0.591   0.392  0.00  0.00     0.015 A 
ATOM     20  C   UNL d   1       6.954   1.255   0.516  0.00  0.00     0.024 A 
ATOM     21  C   UNL d   1       7.019   2.624   0.275  0.00  0.00     0.034 A 
ATOM     22  C   UNL d   1       5.872   3.326  -0.099  0.00  0.00     0.024 A 
ATOM     23 CL   UNL d   1       8.521   3.446   0.433  0.00  0.00    -0.084 Cl
ATOM     24  C   UNL d   1       4.645   2.663  -0.224  0.00  0.00     0.015 A 
ENDBRANCH   1  18
BRANCH   2  25
ATOM     25  O   UNL d   1       2.192  -1.408  -0.646  0.00  0.00    -0.195 OA
BRANCH  25  26
ATOM     26  C   UNL d   1       2.408  -2.373  -1.596  0.00  0.00     0.316 C 
ATOM     27  O   UNL d   1       3.478  -2.624  -2.155  0.00  0.00    -0.257 OA
BRANCH  26  28
ATOM     28  C   UNL d   1       1.189  -3.113  -1.993  0.00  0.00     0.063 A 
ATOM     29  C   UNL d   1       0.143  -3.480  -1.144  0.00  0.00     0.052 A 
ATOM     30  C   UNL d   1      -0.863  -4.343  -1.609  0.00  0.00     0.048 A 
ATOM     31 CL   UNL d   1       0.035  -2.990   0.509  0.00  0.00    -0.083 Cl
ATOM     32  C   UNL d   1      -0.831  -4.827  -2.917  0.00  0.00     0.035 A 
ATOM     33  C   UNL d   1       0.179  -4.435  -3.787  0.00  0.00     0.025 A 
ATOM     34 CL   UNL d   1      -2.024  -5.945  -3.450  0.00  0.00    -0.084 Cl
ATOM     35  C   UNL d   1       1.183  -3.581  -3.326  0.00  0.00     0.021 A 
ENDBRANCH  26  28
ENDBRANCH  25  26
ENDBRANCH   2  25
TORSDOF 7
