REMARK  2 active torsions:
REMARK  status: ('A' for Active; 'I' for Inactive)
REMARK    1  A    between atoms: C_6  and  N_1 
REMARK    2  A    between atoms: C_2  and  C_5 
ROOT
ATOM      1  C   UNL d   1       0.202   1.958  -3.229  0.00  0.00     0.007 A 
ATOM      2  C   UNL d   1       0.491   1.947  -4.586  0.00  0.00     0.038 A 
ATOM      3  S   UNL d   1      -1.186   2.946  -2.923  0.00  0.00    -0.101 SA
ATOM      4  C   UNL d   1      -0.408   2.742  -5.339  0.00  0.00     0.018 A 
ATOM      5  C   UNL d   1      -1.370   3.346  -4.574  0.00  0.00     0.069 A 
ATOM      6 BR   UNL d   1      -0.251   2.920  -7.210  0.00  0.00    -0.051 Br
ENDROOT
BRANCH   1   7
ATOM      7  C   UNL d   1       0.843   1.318  -2.125  0.00  0.00     0.042 C 
ATOM      8  C   UNL d   1       1.935   0.564  -2.301  0.00  0.00     0.169 C 
BRANCH   8   9
ATOM      9  N   UNL d   1       2.567  -0.064  -1.167  0.00  0.00    -0.127 N 
ATOM     10  O   UNL d   1       3.574  -0.736  -1.421  0.00  0.00    -0.532 OA
ATOM     11  O   UNL d   1       2.083   0.101  -0.041  0.00  0.00    -0.532 OA
ENDBRANCH   8   9
ENDBRANCH   1   7
TORSDOF 2
