REMARK  3 active torsions:
REMARK  status: ('A' for Active; 'I' for Inactive)
REMARK    1  A    between atoms: C_2  and  N_1 
REMARK    2  A    between atoms: N_7  and  C_3 
REMARK       I    between atoms: C_4  and  N_5 
REMARK       I    between atoms: N_6  and  C_4 
REMARK    3  A    between atoms: C_8  and  N_6 
ROOT
ATOM      1  C   UNL d   1      -3.162  -2.908  -3.866  0.00  0.00     0.323 C 
ATOM      2  N   UNL d   1      -3.034  -3.091  -2.498  0.00  0.00    -0.332 N 
ATOM      3  N   UNL d   1      -2.795  -3.994  -4.626  0.00  0.00    -0.308 N 
ATOM      4  N   UNL d   1      -1.491  -1.532  -0.525  0.00  0.00    -0.364 N 
ATOM      5  O   UNL d   1      -3.636  -1.873  -4.335  0.00  0.00    -0.247 OA
ATOM      6  C   UNL d   1      -3.648  -2.086  -1.619  0.00  0.00     0.147 C 
ATOM      7  C   UNL d   1      -2.692  -0.964  -1.172  0.00  0.00     0.144 C 
ATOM      8  C   UNL d   1      -0.650  -3.502  -1.744  0.00  0.00     0.040 C 
ATOM      9  C   UNL d   1      -2.089  -4.013  -1.845  0.00  0.00     0.129 C 
ATOM     10  C   UNL d   1      -0.484  -2.006  -1.485  0.00  0.00     0.126 C 
ATOM     11  H   UNL d   1      -2.915  -4.872  -4.152  0.00  0.00     0.170 HD
ENDROOT
BRANCH   3  12
ATOM     12  C   UNL d   1      -2.803  -4.027  -6.042  0.00  0.00     0.043 A 
ATOM     13  C   UNL d   1      -3.196  -5.198  -6.723  0.00  0.00    -0.013 A 
ATOM     14  C   UNL d   1      -3.007  -5.253  -8.120  0.00  0.00     0.042 A 
ATOM     15  C   UNL d   1      -3.886  -6.344  -6.025  0.00  0.00     0.052 C 
ATOM     16 CL   UNL d   1      -3.387  -6.675  -9.033  0.00  0.00    -0.084 Cl
ATOM     17  C   UNL d   1      -2.507  -4.156  -8.826  0.00  0.00     0.024 A 
ATOM     18  C   UNL d   1      -2.201  -2.980  -8.152  0.00  0.00     0.004 A 
ATOM     19  C   UNL d   1      -2.346  -2.918  -6.767  0.00  0.00     0.030 A 
ENDBRANCH   3  12
BRANCH   4  20
ATOM     20  C   UNL d   1      -1.079  -1.115   0.732  0.00  0.00     0.137 A 
ATOM     21  C   UNL d   1      -1.907  -0.957   1.849  0.00  0.00     0.146 A 
ATOM     22  C   UNL d   1      -1.418  -0.504   3.086  0.00  0.00     0.041 A 
ATOM     23  C   UNL d   1      -0.067  -0.236   3.207  0.00  0.00     0.020 A 
ATOM     24  C   UNL d   1       0.721  -0.444   2.094  0.00  0.00     0.090 A 
ATOM     25  N   UNL d   1       0.246  -0.866   0.896  0.00  0.00    -0.350 N 
ATOM     26  HN  UNL d   1       0.887  -0.998   0.113  1.00  0.00     0.166 HD
BRANCH  21  27
ATOM     27  N   UNL d   1      -3.284  -1.372   1.831  0.00  0.00    -0.112 N 
ATOM     28  O   UNL d   1      -3.516  -2.587   1.782  0.00  0.00    -0.532 OA
ATOM     29  O   UNL d   1      -4.139  -0.480   1.923  0.00  0.00    -0.532 OA
ENDBRANCH  21  27
ENDBRANCH   4  20
TORSDOF 3
