REMARK  2 active torsions:
REMARK  status: ('A' for Active; 'I' for Inactive)
REMARK    1  A    between atoms: C_6  and  C_1 
REMARK    2  A    between atoms: O_8  and  C_2 
ROOT
ATOM      1  C   UNL d   1      -2.512   0.010  -0.029  0.00  0.00     0.059 A 
ATOM      2  C   UNL d   1      -1.696   1.080  -0.019  0.00  0.00     0.091 A 
ATOM      3  C   UNL d   1      -1.640  -1.198  -0.018  0.00  0.00     0.197 A 
ATOM      4  C   UNL d   1      -0.306   0.671  -0.009  0.00  0.00     0.012 A 
ATOM      5  C   UNL d   1      -0.258  -0.717  -0.006  0.00  0.00     0.028 A 
ATOM      6  O   UNL d   1      -1.992  -2.359  -0.018  0.00  0.00    -0.286 OA
ATOM      7  C   UNL d   1       0.866   1.407  -0.005  0.00  0.00     0.015 A 
ATOM      8  C   UNL d   1       0.926  -1.430   0.003  0.00  0.00     0.016 A 
ATOM      9  C   UNL d   1       2.082   0.714   0.003  0.00  0.00     0.001 A 
ATOM     10  C   UNL d   1       2.112  -0.694   0.007  0.00  0.00     0.001 A 
ENDROOT
BRANCH   1  11
ATOM     11  C   UNL d   1      -3.965   0.021  -0.050  0.00  0.00    -0.019 A 
ATOM     12  C   UNL d   1      -4.650   0.057  -1.271  0.00  0.00     0.014 A 
ATOM     13  C   UNL d   1      -6.043   0.167  -1.293  0.00  0.00     0.020 A 
ATOM     14  C   UNL d   1      -6.750   0.239  -0.094  0.00  0.00     0.011 A 
ATOM     15  C   UNL d   1      -6.079   0.185   1.127  0.00  0.00     0.020 A 
ATOM     16 BR   UNL d   1      -8.630   0.431  -0.124  0.00  0.00    -0.051 Br
ATOM     17  C   UNL d   1      -4.686   0.077   1.148  0.00  0.00     0.014 A 
ENDBRANCH   1  11
BRANCH   2  18
ATOM     18  O   UNL d   1      -2.017   2.404  -0.018  0.00  0.00    -0.359 OA
ATOM     19  H   UNL d   1      -2.989   2.479  -0.015  0.00  0.00     0.217 HD
ENDBRANCH   2  18
TORSDOF 2
