REMARK  4 active torsions:
REMARK  status: ('A' for Active; 'I' for Inactive)
REMARK    1  A    between atoms: C_9  and  C_1 
REMARK    2  A    between atoms: S_10  and  C_2 
REMARK    3  A    between atoms: N_11  and  C_2 
REMARK    4  A    between atoms: N_3  and  N_5 
ROOT
ATOM      1  N   UNL d   1       0.517   5.158   0.248  0.00  0.00    -0.309 N 
ATOM      2  HN  UNL d   1       0.642   6.169   0.310  1.00  0.00     0.186 HD
ATOM      3  C   UNL d   1       1.496   4.314   0.162  0.00  0.00     0.123 C 
ENDROOT
BRANCH   1   4
ATOM      4  N   UNL d   1      -0.733   4.524   0.244  0.00  0.00    -0.285 N 
ATOM      5  C   UNL d   1      -1.699   5.391   0.225  0.00  0.00     0.130 C 
ATOM      6  HN  UNL d   1      -0.867   3.513   0.256  1.00  0.00     0.188 HD
BRANCH   5   7
ATOM      7  S   UNL d   1      -3.377   4.905   0.296  0.00  0.00    -0.103 SA
ATOM      8  C   UNL d   1      -3.224   3.111   0.321  0.00  0.00     0.098 C 
ENDBRANCH   5   7
BRANCH   5   9
ATOM      9  N   UNL d   1      -1.532   6.744   0.188  0.00  0.00    -0.282 NA
ATOM     10  H   UNL d   1      -0.568   6.966   0.424  0.00  0.00     0.126 HD
ATOM     11  H   UNL d   1      -2.226   7.256   0.713  0.00  0.00     0.126 HD
ENDBRANCH   5   9
ENDBRANCH   1   4
BRANCH   3  12
ATOM     12  C   UNL d   1       2.907   4.756   0.149  0.00  0.00     0.041 A 
ATOM     13  C   UNL d   1       3.961   3.833   0.101  0.00  0.00     0.048 A 
ATOM     14 CL   UNL d   1       3.717   2.122   0.053  0.00  0.00    -0.083 Cl
ATOM     15  C   UNL d   1       5.292   4.279   0.095  0.00  0.00     0.025 A 
ATOM     16  C   UNL d   1       5.583   5.643   0.134  0.00  0.00     0.005 A 
ATOM     17  C   UNL d   1       4.542   6.563   0.181  0.00  0.00     0.043 A 
ATOM     18  C   UNL d   1       3.219   6.121   0.189  0.00  0.00     0.129 A 
ATOM     19  F   UNL d   1       2.263   7.061   0.238  0.00  0.00    -0.205 F 
ENDBRANCH   3  12
TORSDOF 4
