REMARK  6 active torsions:
REMARK  status: ('A' for Active; 'I' for Inactive)
REMARK       I    between atoms: N_4  and  C_1 
REMARK    1  A    between atoms: C_10  and  C_1 
REMARK    2  A    between atoms: C_6  and  N_4 
REMARK    3  A    between atoms: C_5  and  C_12 
REMARK    4  A    between atoms: O_17  and  C_5 
REMARK    5  A    between atoms: C_7  and  C_10 
REMARK    6  A    between atoms: C_12  and  C_7 
ROOT
ATOM      1  C   UNL d   1       0.737   0.582  -0.420  0.00  0.00     0.222 C 
ATOM      2  N   UNL d   1      -0.222   0.400   0.562  0.00  0.00    -0.327 N 
ATOM      3  O   UNL d   1       0.535   1.097  -1.517  0.00  0.00    -0.273 OA
ATOM      4  H   UNL d   1       0.109   0.130   1.482  0.00  0.00     0.169 HD
ENDROOT
BRANCH   1   5
ATOM      5  C   UNL d   1       2.118   0.072  -0.031  0.00  0.00     0.112 C 
BRANCH   5   6
ATOM      6  C   UNL d   1       3.298   0.992  -0.457  0.00  0.00    -0.030 C 
ATOM      7  C   UNL d   1       4.610   0.389   0.091  0.00  0.00     0.016 C 
ATOM      8  C   UNL d   1       3.442   1.023  -1.998  0.00  0.00     0.016 C 
BRANCH   6   9
ATOM      9  C   UNL d   1       3.132   2.456   0.034  0.00  0.00     0.119 C 
BRANCH   9  10
ATOM     10  C   UNL d   1       2.955   2.652   1.527  0.00  0.00     0.140 C 
ATOM     11  O   UNL d   1       2.882   1.766   2.363  0.00  0.00    -0.650 OA
BRANCH  10  12
ATOM     12  O   UNL d   1       2.849   3.960   1.861  0.00  0.00    -0.776 OA
ATOM     13  H   UNL d   1       2.889   4.568   1.098  0.00  0.00     0.167 HD
ENDBRANCH  10  12
ENDBRANCH   9  10
ENDBRANCH   6   9
ENDBRANCH   5   6
ENDBRANCH   1   5
BRANCH   2  14
ATOM     14  C   UNL d   1      -1.592   0.730   0.453  0.00  0.00     0.036 A 
ATOM     15  C   UNL d   1      -2.224   1.023  -0.760  0.00  0.00     0.055 A 
ATOM     16  C   UNL d   1      -3.575   1.391  -0.797  0.00  0.00     0.058 A 
ATOM     17 CL   UNL d   1      -4.271   1.749  -2.339  0.00  0.00    -0.082 Cl
ATOM     18  C   UNL d   1      -4.310   1.458   0.388  0.00  0.00     0.055 A 
ATOM     19  C   UNL d   1      -3.696   1.134   1.599  0.00  0.00     0.028 A 
ATOM     20 CL   UNL d   1      -5.969   1.937   0.425  0.00  0.00    -0.083 Cl
ATOM     21  C   UNL d   1      -2.347   0.762   1.630  0.00  0.00     0.031 A 
ENDBRANCH   2  14
TORSDOF 6
