REMARK  0 active torsions:
REMARK  status: ('A' for Active; 'I' for Inactive)
ROOT
ATOM      1  C   UNL d   1      -0.048  -0.712   0.002  0.00  0.00     0.066 A 
ATOM      2  C   UNL d   1      -0.053   0.702   0.005  0.00  0.00     0.066 A 
ATOM      3  N   UNL d   1      -1.217  -1.396   0.001  0.00  0.00    -0.356 N 
ATOM      4  HN  UNL d   1      -1.221  -2.416  -0.001  1.00  0.00     0.166 HD
ATOM      5  N   UNL d   1      -1.226   1.381   0.006  0.00  0.00    -0.356 N 
ATOM      6  HN  UNL d   1      -1.234   2.400   0.009  1.00  0.00     0.166 HD
ATOM      7  C   UNL d   1       1.169   1.397   0.005  0.00  0.00    -0.026 A 
ATOM      8  C   UNL d   1       1.177  -1.403   0.001  0.00  0.00    -0.026 A 
ATOM      9  C   UNL d   1       2.414  -0.707   0.002  0.00  0.00    -0.047 A 
ATOM     10  C   UNL d   1       2.408   0.704  -0.000  0.00  0.00    -0.047 A 
ATOM     11  C   UNL d   1      -2.381  -0.704   0.003  0.00  0.00     0.028 A 
ATOM     12  C   UNL d   1      -2.388   0.682   0.005  0.00  0.00     0.028 A 
ATOM     13  C   UNL d   1       1.163   2.910   0.012  0.00  0.00     0.051 C 
ATOM     14  C   UNL d   1       1.163  -2.916  -0.000  0.00  0.00     0.051 C 
ATOM     15  C   UNL d   1       3.730  -1.452   0.000  0.00  0.00     0.049 C 
ATOM     16  C   UNL d   1       3.696   1.501  -0.007  0.00  0.00     0.049 C 
ATOM     17  C   UNL d   1      -3.637  -1.520   0.003  0.00  0.00     0.070 C 
ATOM     18  C   UNL d   1      -3.641   1.503   0.005  0.00  0.00     0.070 C 
ENDROOT
TORSDOF 0
