REMARK  1 active torsions:
REMARK  status: ('A' for Active; 'I' for Inactive)
REMARK    1  A    between atoms: C_2  and  N_1 
ROOT
ATOM      1  C   UNL d   1      -0.750  -2.485   0.010  0.00  0.00     0.038 A 
ATOM      2  C   UNL d   1      -0.277  -3.374   0.989  0.00  0.00     0.031 A 
ATOM      3  C   UNL d   1      -1.629  -2.969  -0.972  0.00  0.00     0.031 A 
ATOM      4  C   UNL d   1      -1.534  -5.183  -0.007  0.00  0.00     0.006 A 
ATOM      5  C   UNL d   1      -2.016  -4.314  -0.981  0.00  0.00     0.020 A 
ATOM      6  C   UNL d   1      -0.670  -4.717   0.980  0.00  0.00     0.020 A 
ATOM      7  I   UNL d   1      -2.100  -7.181  -0.030  0.00  0.00    -0.045 I 
ENDROOT
BRANCH   1   8
ATOM      8  N   UNL d   1      -0.339  -1.115   0.009  0.00  0.00    -0.333 N 
ATOM      9  C   UNL d   1       0.566  -0.523   0.873  0.00  0.00     0.096 A 
ATOM     10  C   UNL d   1       0.709   0.808   0.548  0.00  0.00     0.019 A 
ATOM     11  C   UNL d   1      -0.135   1.061  -0.548  0.00  0.00     0.019 A 
ATOM     12  C   UNL d   1      -0.763  -0.125  -0.860  0.00  0.00     0.096 A 
ENDBRANCH   1   8
TORSDOF 1
