REMARK  3 active torsions:
REMARK  status: ('A' for Active; 'I' for Inactive)
REMARK       I    between atoms: C_8  and  N_1 
REMARK    1  A    between atoms: C_10  and  C_4 
REMARK    2  A    between atoms: N_5  and  C_9 
REMARK    3  A    between atoms: C_14  and  C_6 
ROOT
ATOM      1  N   UNL d   1       0.176  -1.118   0.101  0.00  0.00    -0.252 N 
ATOM      2  N   UNL d   1       1.158  -0.164   0.036  0.00  0.00    -0.299 N 
ATOM      3  HN  UNL d   1       2.165  -0.329   0.039  1.00  0.00     0.187 HD
ATOM      4  C   UNL d   1       0.566   0.989  -0.031  0.00  0.00     0.038 A 
ATOM      5  C   UNL d   1      -1.176  -0.561   0.039  0.00  0.00     0.150 A 
ATOM      6  C   UNL d   1      -0.938   0.945  -0.035  0.00  0.00     0.091 A 
ATOM      7  C   UNL d   1       0.452  -2.469   0.003  0.00  0.00     0.234 C 
ATOM      8  O   UNL d   1      -0.425  -3.332  -0.066  0.00  0.00    -0.272 OA
ATOM      9  C   UNL d   1       1.910  -2.863  -0.054  0.00  0.00     0.119 C 
ENDROOT
BRANCH   4  10
ATOM     10  C   UNL d   1       1.309   2.268  -0.112  0.00  0.00    -0.010 A 
ATOM     11  C   UNL d   1       0.640   3.494  -0.139  0.00  0.00     0.049 A 
ATOM     12  C   UNL d   1       1.382   4.681  -0.224  0.00  0.00     0.103 A 
ATOM     13  C   UNL d   1       2.782   4.653  -0.281  0.00  0.00     0.036 A 
ATOM     14  C   UNL d   1       3.444   3.426  -0.249  0.00  0.00     0.003 A 
ATOM     15  C   UNL d   1       2.711   2.239  -0.165  0.00  0.00     0.013 A 
BRANCH  12  16
ATOM     16  N   UNL d   1       0.676   5.970  -0.255  0.00  0.00    -0.116 N 
ATOM     17  O   UNL d   1      -0.561   5.947  -0.211  0.00  0.00    -0.532 OA
ATOM     18  O   UNL d   1       1.361   6.999  -0.325  0.00  0.00    -0.532 OA
ENDBRANCH  12  16
ENDBRANCH   4  10
BRANCH   5  19
ATOM     19  C   UNL d   1      -2.081  -0.896   1.207  0.00  0.00    -0.033 A 
ATOM     20  C   UNL d   1      -1.578  -1.133   2.496  0.00  0.00     0.009 A 
ATOM     21  C   UNL d   1      -2.444  -1.403   3.558  0.00  0.00     0.001 A 
ATOM     22  C   UNL d   1      -3.821  -1.426   3.349  0.00  0.00     0.000 A 
ATOM     23  C   UNL d   1      -4.336  -1.179   2.079  0.00  0.00     0.001 A 
ATOM     24  C   UNL d   1      -3.473  -0.914   1.015  0.00  0.00     0.009 A 
ENDBRANCH   5  19
TORSDOF 3
