REMARK  3 active torsions:
REMARK  status: ('A' for Active; 'I' for Inactive)
REMARK    1  A    between atoms: C_7  and  C_1 
REMARK    2  A    between atoms: O_13  and  C_2 
REMARK    3  A    between atoms: N_4  and  C_8 
ROOT
ATOM      1  C   UNL d   1      -2.506   0.050  -0.024  0.00  0.00     0.059 A 
ATOM      2  C   UNL d   1      -1.684   1.116  -0.016  0.00  0.00     0.091 A 
ATOM      3  C   UNL d   1      -1.639  -1.160  -0.003  0.00  0.00     0.197 A 
ATOM      4  C   UNL d   1      -0.295   0.700  -0.004  0.00  0.00     0.012 A 
ATOM      5  C   UNL d   1      -0.254  -0.689   0.005  0.00  0.00     0.028 A 
ATOM      6  O   UNL d   1      -2.002  -2.320   0.003  0.00  0.00    -0.286 OA
ATOM      7  C   UNL d   1       0.882   1.429  -0.005  0.00  0.00     0.015 A 
ATOM      8  C   UNL d   1       0.927  -1.409   0.014  0.00  0.00     0.016 A 
ATOM      9  C   UNL d   1       2.117  -0.679   0.013  0.00  0.00     0.001 A 
ATOM     10  C   UNL d   1       2.095   0.728   0.004  0.00  0.00     0.001 A 
ENDROOT
BRANCH   1  11
ATOM     11  C   UNL d   1      -3.961   0.048  -0.064  0.00  0.00    -0.017 A 
ATOM     12  C   UNL d   1      -4.703   0.072   1.123  0.00  0.00     0.048 A 
ATOM     13  C   UNL d   1      -6.102   0.143   1.061  0.00  0.00     0.103 A 
ATOM     14  C   UNL d   1      -6.766   0.165  -0.173  0.00  0.00     0.036 A 
ATOM     15  C   UNL d   1      -6.021   0.123  -1.352  0.00  0.00     0.003 A 
ATOM     16  C   UNL d   1      -4.625   0.074  -1.297  0.00  0.00     0.012 A 
BRANCH  13  17
ATOM     17  N   UNL d   1      -6.880   0.238   2.303  0.00  0.00    -0.116 N 
ATOM     18  O   UNL d   1      -6.255   0.258   3.373  0.00  0.00    -0.532 OA
ATOM     19  O   UNL d   1      -8.113   0.319   2.207  0.00  0.00    -0.532 OA
ENDBRANCH  13  17
ENDBRANCH   1  11
BRANCH   2  20
ATOM     20  O   UNL d   1      -1.992   2.443  -0.024  0.00  0.00    -0.359 OA
ATOM     21  H   UNL d   1      -2.962   2.534  -0.002  0.00  0.00     0.217 HD
ENDBRANCH   2  20
TORSDOF 3
