REMARK  4 active torsions:
REMARK  status: ('A' for Active; 'I' for Inactive)
REMARK    1  A    between atoms: C_14  and  N_2 
REMARK    2  A    between atoms: C_16  and  C_9 
REMARK    3  A    between atoms: C_15  and  C_10 
REMARK    4  A    between atoms: C_19  and  C_14 
ROOT
ATOM      1  C   UNL d   1      -0.501  -1.247   0.107  0.00  0.00     0.106 A 
ATOM      2  N   UNL d   1       0.795  -0.797   0.112  0.00  0.00    -0.284 N 
ATOM      3  C   UNL d   1      -0.927  -2.604   0.035  0.00  0.00     0.200 A 
ATOM      4  N   UNL d   1      -2.094  -2.952  -0.461  0.00  0.00    -0.317 N 
ATOM      5  HN  UNL d   1      -2.848  -2.347  -0.787  1.00  0.00     0.169 HD
ATOM      6  N   UNL d   1       0.879   0.557   0.108  0.00  0.00    -0.301 N 
ATOM      7  HN  UNL d   1       1.725   1.128   0.110  1.00  0.00     0.187 HD
ATOM      8  C   UNL d   1      -1.286  -0.114   0.108  0.00  0.00     0.063 A 
ATOM      9  C   UNL d   1      -2.053  -4.327  -0.435  0.00  0.00     0.138 A 
ATOM     10  C   UNL d   1      -0.391   0.981   0.102  0.00  0.00     0.036 A 
ATOM     11  N   UNL d   1      -0.930  -4.823   0.109  0.00  0.00    -0.242 N 
ATOM     12  HN  UNL d   1      -0.680  -5.800   0.258  1.00  0.00     0.196 HD
ATOM     13  O   UNL d   1      -0.188  -3.687   0.420  0.00  0.00    -0.215 OA
ENDROOT
BRANCH   2  14
ATOM     14  C   UNL d   1       2.028  -1.565  -0.056  0.00  0.00     0.187 C 
BRANCH  14  15
ATOM     15  C   UNL d   1       2.609  -2.033   1.255  0.00  0.00    -0.038 A 
ATOM     16  C   UNL d   1       2.801  -3.401   1.503  0.00  0.00     0.009 A 
ATOM     17  C   UNL d   1       3.354  -3.834   2.709  0.00  0.00     0.001 A 
ATOM     18  C   UNL d   1       3.735  -2.906   3.676  0.00  0.00     0.000 A 
ATOM     19  C   UNL d   1       3.569  -1.545   3.436  0.00  0.00     0.001 A 
ATOM     20  C   UNL d   1       3.013  -1.109   2.232  0.00  0.00     0.009 A 
ENDBRANCH  14  15
ENDBRANCH   2  14
BRANCH  10  21
ATOM     21  C   UNL d   1      -0.748   2.458   0.051  0.00  0.00    -0.007 C 
ATOM     22  C   UNL d   1      -1.609   2.837   1.272  0.00  0.00     0.021 C 
ATOM     23  C   UNL d   1       0.503   3.362   0.049  0.00  0.00     0.021 C 
ATOM     24  C   UNL d   1      -1.550   2.755  -1.234  0.00  0.00     0.021 C 
ENDBRANCH  10  21
BRANCH   9  25
ATOM     25  C   UNL d   1      -3.105  -5.137  -1.040  0.00  0.00     0.010 A 
ATOM     26  C   UNL d   1      -4.198  -4.513  -1.661  0.00  0.00     0.016 A 
ATOM     27  C   UNL d   1      -5.166  -5.269  -2.328  0.00  0.00     0.007 A 
ATOM     28  C   UNL d   1      -5.061  -6.661  -2.386  0.00  0.00    -0.062 A 
ATOM     29  C   UNL d   1      -3.990  -7.291  -1.739  0.00  0.00     0.007 A 
ATOM     30  C   UNL d   1      -6.072  -7.455  -3.158  0.00  0.00     0.048 C 
ATOM     31  C   UNL d   1      -3.022  -6.534  -1.071  0.00  0.00     0.016 A 
ENDBRANCH   9  25
TORSDOF 4
