REMARK  6 active torsions:
REMARK  status: ('A' for Active; 'I' for Inactive)
REMARK    1  A    between atoms: C_2  and  C_1 
REMARK       I    between atoms: N_5  and  C_2 
REMARK       I    between atoms: C_4  and  N_6 
REMARK    2  A    between atoms: C_9  and  C_4 
REMARK    3  A    between atoms: N_6  and  N_5 
REMARK    4  A    between atoms: C_10  and  C_9 
REMARK    5  A    between atoms: C_21  and  C_18 
REMARK    6  A    between atoms: C_24  and  C_21 
ROOT
ATOM      1  C   UNL d   1      -1.429  -5.701  -0.295  0.00  0.00     0.244 C 
ATOM      2  N   UNL d   1      -0.303  -6.300  -0.829  0.00  0.00    -0.267 N 
ATOM      3  O   UNL d   1      -1.472  -4.493  -0.056  0.00  0.00    -0.271 OA
ATOM      4  H   UNL d   1      -0.192  -7.305  -0.956  0.00  0.00     0.190 HD
ENDROOT
BRANCH   1   5
ATOM      5  C   UNL d   1      -2.608  -6.652  -0.072  0.00  0.00     0.108 C 
ATOM      6  C   UNL d   1      -3.934  -5.886  -0.144  0.00  0.00     0.025 C 
BRANCH   5   7
ATOM      7  C   UNL d   1      -2.533  -7.422   1.237  0.00  0.00    -0.045 A 
ATOM      8  C   UNL d   1      -2.379  -6.763   2.465  0.00  0.00     0.008 A 
ATOM      9  C   UNL d   1      -2.413  -7.474   3.669  0.00  0.00     0.007 A 
ATOM     10  C   UNL d   1      -2.599  -8.862   3.676  0.00  0.00    -0.058 A 
ATOM     11  C   UNL d   1      -2.754  -9.523   2.452  0.00  0.00     0.007 A 
ATOM     12  C   UNL d   1      -2.718  -8.812   1.247  0.00  0.00     0.008 A 
BRANCH  10  13
ATOM     13  C   UNL d   1      -2.670  -9.614   4.987  0.00  0.00     0.042 C 
BRANCH  13  14
ATOM     14  C   UNL d   1      -1.624 -10.736   5.147  0.00  0.00    -0.019 C 
ATOM     15  C   UNL d   1      -0.192 -10.198   5.115  0.00  0.00     0.010 C 
ATOM     16  C   UNL d   1      -1.861 -11.484   6.463  0.00  0.00     0.010 C 
ENDBRANCH  13  14
ENDBRANCH  10  13
ENDBRANCH   5   7
ENDBRANCH   1   5
BRANCH   2  17
ATOM     17  N   UNL d   1       0.782  -5.489  -1.190  0.00  0.00    -0.263 N 
ATOM     18  C   UNL d   1       1.858  -6.060  -1.835  0.00  0.00     0.271 C 
ATOM     19  O   UNL d   1       1.925  -7.273  -2.041  0.00  0.00    -0.266 OA
ATOM     20  H   UNL d   1       0.651  -4.482  -1.076  0.00  0.00     0.190 HD
BRANCH  18  21
ATOM     21  C   UNL d   1       2.996  -5.171  -2.231  0.00  0.00     0.055 A 
ATOM     22  C   UNL d   1       2.909  -3.798  -2.506  0.00  0.00     0.051 A 
ATOM     23  C   UNL d   1       4.060  -3.064  -2.835  0.00  0.00     0.048 A 
ATOM     24 CL   UNL d   1       1.422  -2.916  -2.518  0.00  0.00    -0.083 Cl
ATOM     25  C   UNL d   1       5.300  -3.697  -2.905  0.00  0.00     0.035 A 
ATOM     26  C   UNL d   1       5.403  -5.061  -2.663  0.00  0.00     0.025 A 
ATOM     27 CL   UNL d   1       6.705  -2.788  -3.299  0.00  0.00    -0.084 Cl
ATOM     28  C   UNL d   1       4.257  -5.795  -2.332  0.00  0.00     0.020 A 
ENDBRANCH  18  21
ENDBRANCH   2  17
TORSDOF 6
