REMARK  5 active torsions:
REMARK  status: ('A' for Active; 'I' for Inactive)
REMARK    1  A    between atoms: C_3  and  C_1 
REMARK    2  A    between atoms: C_4  and  C_2 
REMARK    3  A    between atoms: C_7  and  C_3 
REMARK    4  A    between atoms: O_14  and  C_4 
REMARK    5  A    between atoms: C_5  and  C_6 
ROOT
ATOM      1  C   UNL d   1       4.823  -2.096  -2.935  0.00  0.00    -0.051 A 
ATOM      2  C   UNL d   1       3.306  -0.700  -0.978  0.00  0.00     0.014 A 
ATOM      3  C   UNL d   1       3.603  -1.478  -3.257  0.00  0.00     0.009 A 
ATOM      4  C   UNL d   1       5.249  -2.018  -1.595  0.00  0.00     0.009 A 
ATOM      5  C   UNL d   1       4.501  -1.334  -0.628  0.00  0.00     0.016 A 
ATOM      6  C   UNL d   1       2.851  -0.795  -2.294  0.00  0.00     0.016 A 
ENDROOT
BRANCH   2   7
ATOM      7  C   UNL d   1       2.560   0.046   0.073  0.00  0.00     0.182 C 
ATOM      8  O   UNL d   1       2.681  -0.251   1.258  0.00  0.00    -0.288 OA
BRANCH   7   9
ATOM      9  C   UNL d   1       1.708   1.186  -0.352  0.00  0.00     0.062 C 
ATOM     10  C   UNL d   1       0.981   1.846   0.562  0.00  0.00     0.085 C 
BRANCH  10  11
ATOM     11  C   UNL d   1       0.154   2.978   0.114  0.00  0.00     0.165 C 
ATOM     12  O   UNL d   1       0.051   3.335  -1.046  0.00  0.00    -0.647 OA
BRANCH  11  13
ATOM     13  O   UNL d   1      -0.485   3.580   1.134  0.00  0.00    -0.773 OA
ATOM     14  H   UNL d   1      -0.312   3.205   2.018  0.00  0.00     0.167 HD
ENDBRANCH  11  13
ENDBRANCH  10  11
ENDBRANCH   7   9
ENDBRANCH   2   7
BRANCH   1  15
ATOM     15  C   UNL d   1       5.676  -2.832  -3.985  0.00  0.00    -0.024 C 
ATOM     16  C   UNL d   1       5.052  -2.827  -5.400  0.00  0.00     0.019 C 
ATOM     17  C   UNL d   1       7.061  -2.158  -4.095  0.00  0.00     0.019 C 
ATOM     18  C   UNL d   1       5.865  -4.308  -3.577  0.00  0.00     0.019 C 
ENDBRANCH   1  15
TORSDOF 5
