REMARK  6 active torsions:
REMARK  status: ('A' for Active; 'I' for Inactive)
REMARK    1  A    between atoms: C_6  and  N_1 
REMARK    2  A    between atoms: C_8  and  C_4 
REMARK    3  A    between atoms: C_14  and  C_5 
REMARK    4  A    between atoms: O_16  and  C_8 
REMARK       I    between atoms: C_11  and  N_15 
REMARK    5  A    between atoms: C_20  and  C_11 
REMARK    6  A    between atoms: N_15  and  O_16 
ROOT
ATOM      1  N   UNL d   1       0.987  -0.782  -0.223  0.00  0.00    -0.256 N 
ATOM      2  N   UNL d   1       1.036   0.569  -0.364  0.00  0.00    -0.288 N 
ATOM      3  HN  UNL d   1       1.879   1.135  -0.468  1.00  0.00     0.188 HD
ATOM      4  C   UNL d   1      -0.219   1.018  -0.339  0.00  0.00     0.127 A 
ATOM      5  C   UNL d   1      -0.350  -1.223  -0.129  0.00  0.00     0.044 A 
ATOM      6  C   UNL d   1      -1.109  -0.059  -0.224  0.00  0.00     0.065 A 
ENDROOT
BRANCH   4   7
ATOM      7  C   UNL d   1      -0.556   2.437  -0.482  0.00  0.00     0.333 C 
ATOM      8  O   UNL d   1      -1.679   2.850  -0.769  0.00  0.00    -0.256 OA
BRANCH   7   9
ATOM      9  O   UNL d   1       0.523   3.265  -0.314  0.00  0.00    -0.191 OA
BRANCH   9  10
ATOM     10  N   UNL d   1       0.312   4.564  -0.860  0.00  0.00    -0.221 N 
ATOM     11  C   UNL d   1       1.502   5.097  -1.330  0.00  0.00     0.275 C 
ATOM     12  O   UNL d   1       2.603   4.675  -0.992  0.00  0.00    -0.265 OA
ATOM     13  H   UNL d   1      -0.570   4.687  -1.351  0.00  0.00     0.198 HD
BRANCH  11  14
ATOM     14  C   UNL d   1       1.423   6.181  -2.342  0.00  0.00     0.034 A 
ATOM     15  C   UNL d   1       0.273   6.938  -2.576  0.00  0.00     0.017 A 
ATOM     16  C   UNL d   1       0.281   7.932  -3.562  0.00  0.00     0.001 A 
ATOM     17  C   UNL d   1       1.436   8.171  -4.310  0.00  0.00     0.000 A 
ATOM     18  C   UNL d   1       2.586   7.427  -4.074  0.00  0.00     0.001 A 
ATOM     19  C   UNL d   1       2.582   6.434  -3.093  0.00  0.00     0.017 A 
ENDBRANCH  11  14
ENDBRANCH   9  10
ENDBRANCH   7   9
ENDBRANCH   4   7
BRANCH   1  20
ATOM     20  C   UNL d   1       2.261  -1.433  -0.209  0.00  0.00     0.100 A 
ATOM     21  C   UNL d   1       3.289  -0.912   0.618  0.00  0.00     0.066 A 
ATOM     22  C   UNL d   1       4.590  -1.438   0.581  0.00  0.00     0.050 A 
ATOM     23 CL   UNL d   1       3.048   0.328   1.810  0.00  0.00    -0.082 Cl
ATOM     24  C   UNL d   1       4.879  -2.515  -0.240  0.00  0.00     0.037 A 
ATOM     25  C   UNL d   1       3.895  -3.038  -1.066  0.00  0.00     0.050 A 
ATOM     26 CL   UNL d   1       6.461  -3.187  -0.261  0.00  0.00    -0.084 Cl
ATOM     27  C   UNL d   1       2.611  -2.466  -1.094  0.00  0.00     0.066 A 
ATOM     28 CL   UNL d   1       1.636  -3.018  -2.399  0.00  0.00    -0.082 Cl
ENDBRANCH   1  20
BRANCH   5  29
ATOM     29  C   UNL d   1      -0.935  -2.627   0.074  0.00  0.00    -0.007 C 
ATOM     30  C   UNL d   1      -0.013  -3.593   0.833  0.00  0.00     0.021 C 
ATOM     31  C   UNL d   1      -2.223  -2.552   0.953  0.00  0.00     0.021 C 
ATOM     32  C   UNL d   1      -1.406  -3.193  -1.286  0.00  0.00     0.021 C 
ENDBRANCH   5  29
TORSDOF 6
