REMARK  4 active torsions:
REMARK  status: ('A' for Active; 'I' for Inactive)
REMARK    1  A    between atoms: C_2  and  C_1 
REMARK    2  A    between atoms: O_8  and  C_2 
REMARK    3  A    between atoms: C_5  and  C_3 
REMARK    4  A    between atoms: C_11  and  O_8 
ROOT
ATOM      1  C   UNL d   1       1.013   0.168   0.118  0.00  0.00     0.120 C 
ATOM      2  C   UNL d   1       0.120  -0.810  -0.139  0.00  0.00     0.042 C 
ATOM      3  C   UNL d   1       0.628   1.494   0.458  0.00  0.00     0.105 C 
ATOM      4  N   UNL d   1       0.287   2.571   0.719  0.00  0.00    -0.191 NA
ENDROOT
BRANCH   1   5
ATOM      5  C   UNL d   1       2.456  -0.185   0.001  0.00  0.00     0.304 C 
ATOM      6  O   UNL d   1       2.853  -1.272  -0.394  0.00  0.00    -0.258 OA
BRANCH   5   7
ATOM      7  O   UNL d   1       3.238   0.862   0.356  0.00  0.00    -0.307 OA
BRANCH   7   8
ATOM      8  C   UNL d   1       4.688   0.795   0.235  0.00  0.00     0.060 C 
ATOM      9  C   UNL d   1       5.115   0.573  -1.221  0.00  0.00     0.046 C 
ATOM     10  C   UNL d   1       5.188   2.176   0.690  0.00  0.00     0.046 C 
ATOM     11  C   UNL d   1       5.281  -0.269   1.165  0.00  0.00     0.046 C 
ENDBRANCH   7   8
ENDBRANCH   5   7
ENDBRANCH   1   5
BRANCH   2  12
ATOM     12  C   UNL d   1      -1.346  -0.660  -0.129  0.00  0.00    -0.013 A 
ATOM     13  C   UNL d   1      -2.141  -0.954   0.995  0.00  0.00     0.045 A 
ATOM     14  C   UNL d   1      -3.534  -0.834   0.937  0.00  0.00     0.048 A 
ATOM     15 CL   UNL d   1      -1.436  -1.485   2.482  0.00  0.00    -0.083 Cl
ATOM     16  C   UNL d   1      -4.140  -0.418  -0.245  0.00  0.00     0.035 A 
ATOM     17  C   UNL d   1      -3.369  -0.116  -1.366  0.00  0.00     0.024 A 
ATOM     18 CL   UNL d   1      -5.853  -0.286  -0.327  0.00  0.00    -0.084 Cl
ATOM     19  C   UNL d   1      -1.978  -0.236  -1.308  0.00  0.00     0.015 A 
ENDBRANCH   2  12
TORSDOF 4
