REMARK  12 active torsions:
REMARK  status: ('A' for Active; 'I' for Inactive)
REMARK    1  A    between atoms: C_9  and  C_1 
REMARK    2  A    between atoms: C_10  and  C_1 
REMARK    3  A    between atoms: S_11  and  C_2 
REMARK    4  A    between atoms: N_12  and  C_2 
REMARK    5  A    between atoms: C_3  and  C_13 
REMARK       I    between atoms: N_18  and  C_9 
REMARK    6  A    between atoms: N_14  and  C_10 
REMARK    7  A    between atoms: C_13  and  S_11 
REMARK    8  A    between atoms: C_19  and  N_12 
REMARK    9  A    between atoms: C_33  and  N_18 
REMARK   10  A    between atoms: C_31  and  C_33 
REMARK   11  A    between atoms: C_34  and  C_31 
REMARK   12  A    between atoms: O_32  and  C_34 
ROOT
ATOM      1  C   UNL d   1       0.923  -0.055  -0.032  0.00  0.00     0.122 C 
ATOM      2  C   UNL d   1       0.167  -0.845   0.800  0.00  0.00     0.075 C 
ENDROOT
BRANCH   2   3
ATOM      3  S   UNL d   1      -1.613  -0.670   1.208  0.00  0.00    -0.112 SA
BRANCH   3   4
ATOM      4  C   UNL d   1      -2.676  -0.637  -0.286  0.00  0.00     0.120 C 
BRANCH   4   5
ATOM      5  C   UNL d   1      -4.167  -0.142  -0.156  0.00  0.00    -0.036 C 
ATOM      6  C   UNL d   1      -4.508   1.169   0.295  0.00  0.00    -0.048 C 
ATOM      7  C   UNL d   1      -5.840   1.679   0.147  0.00  0.00    -0.049 C 
ATOM      8  C   UNL d   1      -3.524   2.072   0.992  0.00  0.00     0.049 C 
ATOM      9  C   UNL d   1      -6.240   3.023   0.735  0.00  0.00     0.049 C 
ATOM     10  C   UNL d   1      -6.802   0.976  -0.612  0.00  0.00    -0.049 C 
ATOM     11  C   UNL d   1      -6.487  -0.315  -1.085  0.00  0.00    -0.049 C 
ATOM     12  C   UNL d   1      -8.149   1.623  -0.879  0.00  0.00     0.049 C 
ATOM     13  C   UNL d   1      -5.238  -0.921  -0.724  0.00  0.00    -0.048 C 
ATOM     14  C   UNL d   1      -7.485  -1.020  -1.981  0.00  0.00     0.049 C 
ATOM     15  C   UNL d   1      -5.137  -2.434  -0.757  0.00  0.00     0.049 C 
ENDBRANCH   4   5
ENDBRANCH   3   4
ENDBRANCH   2   3
BRANCH   2  16
ATOM     16  N   UNL d   1       0.805  -1.715   1.703  0.00  0.00    -0.253 NA
ATOM     17  H   UNL d   1       0.106  -2.030   2.384  0.00  0.00     0.134 HD
BRANCH  16  18
ATOM     18  C   UNL d   1       1.620  -2.806   1.348  0.00  0.00     0.013 A 
ATOM     19  C   UNL d   1       2.648  -3.170   2.231  0.00  0.00     0.027 A 
ATOM     20  C   UNL d   1       3.439  -4.288   1.979  0.00  0.00     0.044 A 
ATOM     21  C   UNL d   1       3.176  -5.059   0.853  0.00  0.00     0.116 A 
ATOM     22  C   UNL d   1       2.139  -4.742  -0.011  0.00  0.00     0.044 A 
ATOM     23  F   UNL d   1       3.938  -6.137   0.609  0.00  0.00    -0.206 F 
ATOM     24  C   UNL d   1       1.353  -3.617   0.240  0.00  0.00     0.027 A 
ENDBRANCH  16  18
ENDBRANCH   2  16
BRANCH   1  25
ATOM     25  C   UNL d   1       0.336   1.150  -0.765  0.00  0.00     0.263 C 
ATOM     26  O   UNL d   1      -0.748   1.640  -0.454  0.00  0.00    -0.267 OA
ATOM     27  N   UNL d   1       1.057   1.745  -1.778  0.00  0.00    -0.356 N 
ATOM     28  H   UNL d   1       1.974   1.408  -2.045  0.00  0.00     0.162 HD
BRANCH  27  29
ATOM     29  C   UNL d   1       0.507   2.881  -2.544  0.00  0.00     0.125 C 
BRANCH  29  30
ATOM     30  C   UNL d   1       0.521   4.212  -1.778  0.00  0.00     0.046 C 
BRANCH  30  31
ATOM     31  C   UNL d   1       0.157   5.433  -2.636  0.00  0.00     0.168 C 
BRANCH  31  32
ATOM     32  O   UNL d   1      -1.201   5.375  -3.071  0.00  0.00    -0.396 OA
ATOM     33  C   UNL d   1      -1.622   6.609  -3.652  0.00  0.00     0.201 C 
ENDBRANCH  31  32
ENDBRANCH  30  31
ENDBRANCH  29  30
ENDBRANCH  27  29
ENDBRANCH   1  25
BRANCH   1  34
ATOM     34  C   UNL d   1       2.443  -0.055  -0.032  0.00  0.00    -0.029 C 
BRANCH  34  35
ATOM     35  N   UNL d   1       3.704  -0.055  -0.032  0.00  0.00    -0.365 N 
ATOM     36  HN2 UNL d   1       2.684  -0.055  -0.032  1.00  0.00     0.165 HD
ATOM     37  HN1 UNL d   1       4.724  -0.055  -0.032  1.00  0.00     0.165 HD
ENDBRANCH  34  35
ENDBRANCH   1  34
TORSDOF 12
