REMARK  6 active torsions:
REMARK  status: ('A' for Active; 'I' for Inactive)
REMARK    1  A    between atoms: N_3  and  C_1 
REMARK    2  A    between atoms: C_5  and  N_3 
REMARK    3  A    between atoms: C_13  and  N_4 
REMARK    4  A    between atoms: C_6  and  C_5 
REMARK    5  A    between atoms: O_12  and  C_14 
REMARK    6  A    between atoms: C_14  and  C_13 
ROOT
ATOM      1  N   UNL d   1       0.418  -0.953  -0.216  0.00  0.00    -0.363 N 
ATOM      2  H   UNL d   1       0.862  -0.838   0.686  0.00  0.00     0.162 HD
ENDROOT
BRANCH   1   3
ATOM      3  C   UNL d   1       1.269  -1.219  -1.243  0.00  0.00     0.167 C 
ATOM      4  S   UNL d   1       2.891  -1.388  -0.905  0.00  0.00    -0.041 SA
ATOM      5  N   UNL d   1       0.680  -1.368  -2.461  0.00  0.00    -0.365 N 
ATOM      6  H   UNL d   1      -0.135  -0.787  -2.626  0.00  0.00     0.161 HD
BRANCH   5   7
ATOM      7  C   UNL d   1       1.301  -1.849  -3.690  0.00  0.00     0.148 C 
BRANCH   7   8
ATOM      8  C   UNL d   1       0.226  -2.418  -4.614  0.00  0.00     0.183 C 
BRANCH   8   9
ATOM      9  O   UNL d   1      -0.666  -1.377  -5.010  0.00  0.00    -0.399 OA
ATOM     10  H   UNL d   1      -1.327  -1.779  -5.600  0.00  0.00     0.209 HD
ENDBRANCH   8   9
ENDBRANCH   7   8
ENDBRANCH   5   7
ENDBRANCH   1   3
BRANCH   1  11
ATOM     11  C   UNL d   1      -1.036  -0.958  -0.238  0.00  0.00     0.160 C 
BRANCH  11  12
ATOM     12  C   UNL d   1      -1.657   0.410  -0.358  0.00  0.00    -0.041 A 
ATOM     13  C   UNL d   1      -0.902   1.589  -0.405  0.00  0.00     0.009 A 
ATOM     14  C   UNL d   1      -1.527   2.837  -0.432  0.00  0.00     0.007 A 
ATOM     15  C   UNL d   1      -2.922   2.933  -0.421  0.00  0.00    -0.062 A 
ATOM     16  C   UNL d   1      -3.682   1.762  -0.406  0.00  0.00     0.007 A 
ATOM     17  C   UNL d   1      -3.579   4.281  -0.347  0.00  0.00     0.048 C 
ATOM     18  C   UNL d   1      -3.056   0.512  -0.380  0.00  0.00     0.009 A 
ENDBRANCH  11  12
ENDBRANCH   1  11
TORSDOF 6
