REMARK  4 active torsions:
REMARK  status: ('A' for Active; 'I' for Inactive)
REMARK    1  A    between atoms: C_13  and  C_7 
REMARK    2  A    between atoms: C_10  and  C_8 
REMARK    3  A    between atoms: C_12  and  C_10 
REMARK       I    between atoms: N_15  and  C_12 
REMARK    4  A    between atoms: N_16  and  N_15 
ROOT
ATOM      1  N   UNL d   1      -1.471  -0.977   0.174  0.00  0.00    -0.319 N 
ATOM      2  HN  UNL d   1      -1.987  -1.854   0.235  1.00  0.00     0.169 HD
ATOM      3  N   UNL d   1       0.134   0.545   0.078  0.00  0.00    -0.235 N 
ATOM      4  C   UNL d   1      -0.189  -0.776   0.193  0.00  0.00     0.172 A 
ATOM      5  N   UNL d   1      -0.996   1.278  -0.007  0.00  0.00    -0.276 N 
ATOM      6  HN  UNL d   1      -1.102   2.288  -0.091  1.00  0.00     0.189 HD
ATOM      7  C   UNL d   1      -1.952   0.320   0.048  0.00  0.00     0.132 A 
ATOM      8  C   UNL d   1       1.497   0.798   0.017  0.00  0.00     0.052 A 
ATOM      9  S   UNL d   1       1.211  -1.792   0.242  0.00  0.00    -0.062 SA
ATOM     10  C   UNL d   1       2.213  -0.344   0.084  0.00  0.00     0.081 A 
ENDROOT
BRANCH   8  11
ATOM     11  C   UNL d   1       2.036   2.178  -0.143  0.00  0.00     0.163 C 
BRANCH  11  12
ATOM     12  C   UNL d   1       2.373   2.813   1.200  0.00  0.00     0.237 C 
ATOM     13  O   UNL d   1       2.511   2.183   2.246  0.00  0.00    -0.272 OA
ATOM     14  N   UNL d   1       2.580   4.188   1.115  0.00  0.00    -0.294 N 
ATOM     15  H   UNL d   1       2.617   4.652   0.209  0.00  0.00     0.183 HD
BRANCH  14  16
ATOM     16  N   UNL d   1       3.063   4.884   2.245  0.00  0.00    -0.247 NA
ATOM     17  H   UNL d   1       3.430   4.178   2.901  0.00  0.00     0.143 HD
ATOM     18  H   UNL d   1       2.255   5.272   2.742  0.00  0.00     0.143 HD
ENDBRANCH  14  16
ENDBRANCH  11  12
ENDBRANCH   8  11
BRANCH   7  19
ATOM     19  C   UNL d   1      -3.391   0.570  -0.058  0.00  0.00     0.009 A 
ATOM     20  C   UNL d   1      -3.909   1.866  -0.189  0.00  0.00     0.015 A 
ATOM     21  C   UNL d   1      -5.288   2.070  -0.314  0.00  0.00     0.001 A 
ATOM     22  C   UNL d   1      -6.162   0.983  -0.307  0.00  0.00     0.000 A 
ATOM     23  C   UNL d   1      -5.662  -0.309  -0.173  0.00  0.00     0.001 A 
ATOM     24  C   UNL d   1      -4.287  -0.513  -0.048  0.00  0.00     0.015 A 
ENDBRANCH   7  19
TORSDOF 4
