REMARK  3 active torsions:
REMARK  status: ('A' for Active; 'I' for Inactive)
REMARK    1  A    between atoms: N_2  and  C_1 
REMARK    2  A    between atoms: N_5  and  C_3 
REMARK    3  A    between atoms: C_4  and  C_8 
REMARK       I    between atoms: C_9  and  N_7 
ROOT
ATOM      1  C   UNL d   1       0.289  -0.420  -1.000  0.00  0.00     0.130 A 
ATOM      2  C   UNL d   1       0.526  -1.389   0.000  0.00  0.00     0.063 A 
ATOM      3  C   UNL d   1      -0.209   0.866  -0.722  0.00  0.00     0.054 A 
ATOM      4  C   UNL d   1      -0.483   1.238   0.596  0.00  0.00     0.050 A 
ATOM      5  C   UNL d   1       0.246  -0.978   1.315  0.00  0.00     0.032 A 
ATOM      6  C   UNL d   1      -0.251   0.302   1.611  0.00  0.00     0.018 A 
ENDROOT
BRANCH   2   7
ATOM      7  N   UNL d   1       1.027  -2.657  -0.261  0.00  0.00    -0.376 N 
ATOM      8  C   UNL d   1       1.817  -3.393   0.747  0.00  0.00     0.143 C 
ATOM      9  C   UNL d   1       2.788  -4.360   0.028  0.00  0.00     0.145 C 
ATOM     10  N   UNL d   1       2.075  -5.234  -0.919  0.00  0.00    -0.349 N 
ATOM     11  C   UNL d   1       1.226  -4.501  -1.875  0.00  0.00     0.145 C 
ATOM     12  C   UNL d   1       2.138  -6.607  -1.011  0.00  0.00     0.215 C 
ATOM     13  C   UNL d   1       0.250  -3.562  -1.142  0.00  0.00     0.143 C 
ATOM     14  O   UNL d   1       1.471  -7.237  -1.840  0.00  0.00    -0.274 OA
ATOM     15  C   UNL d   1       3.029  -7.392  -0.080  0.00  0.00     0.117 C 
ENDBRANCH   2   7
BRANCH   1  16
ATOM     16  N   UNL d   1       0.603  -0.685  -2.395  0.00  0.00    -0.113 N 
ATOM     17  O   UNL d   1       1.779  -0.940  -2.689  0.00  0.00    -0.532 OA
ATOM     18  O   UNL d   1      -0.334  -0.594  -3.203  0.00  0.00    -0.532 OA
ENDBRANCH   1  16
BRANCH   4  19
ATOM     19  C   UNL d   1      -1.013   2.612   0.926  0.00  0.00     0.417 C 
ATOM     20  F   UNL d   1      -1.145   3.415  -0.166  0.00  0.00    -0.166 F 
ATOM     21  F   UNL d   1      -2.241   2.567   1.510  0.00  0.00    -0.166 F 
ATOM     22  F   UNL d   1      -0.207   3.285   1.790  0.00  0.00    -0.166 F 
ENDBRANCH   4  19
TORSDOF 3
