REMARK  4 active torsions:
REMARK  status: ('A' for Active; 'I' for Inactive)
REMARK    1  A    between atoms: C_15  and  N_5 
REMARK    2  A    between atoms: C_18  and  C_11 
REMARK    3  A    between atoms: C_14  and  O_23 
REMARK    4  A    between atoms: O_23  and  C_29 
ROOT
ATOM      1  C   UNL d   1      -2.470  -0.769   0.110  0.00  0.00     0.089 A 
ATOM      2  C   UNL d   1      -5.001  -0.384  -0.007  0.00  0.00     0.145 C 
ATOM      3  C   UNL d   1      -3.732  -1.220   0.049  0.00  0.00     0.038 C 
ATOM      4  C   UNL d   1      -6.140  -1.410   0.089  0.00  0.00     0.126 C 
ATOM      5  N   UNL d   1      -5.878  -0.753  -2.147  0.00  0.00    -0.251 N 
ATOM      6  C   UNL d   1      -5.136   0.137  -1.407  0.00  0.00     0.242 C 
ATOM      7  C   UNL d   1      -6.603  -1.588  -1.331  0.00  0.00     0.239 C 
ATOM      8  C   UNL d   1      -1.966   0.636   0.166  0.00  0.00     0.199 A 
ATOM      9  C   UNL d   1      -1.300  -1.692   0.116  0.00  0.00     0.199 A 
ATOM     10  N   UNL d   1      -4.113  -2.555   0.069  0.00  0.00    -0.381 N 
ATOM     11  C   UNL d   1      -5.489  -2.722   0.550  0.00  0.00     0.145 C 
ATOM     12  C   UNL d   1      -0.502   0.518   0.087  0.00  0.00     0.029 A 
ATOM     13  C   UNL d   1      -0.123  -0.821   0.064  0.00  0.00     0.029 A 
ATOM     14  O   UNL d   1      -4.625   1.180  -1.795  0.00  0.00    -0.272 OA
ATOM     15  O   UNL d   1      -7.481  -2.390  -1.639  0.00  0.00    -0.272 OA
ATOM     16  O   UNL d   1      -1.289  -2.903   0.165  0.00  0.00    -0.286 OA
ATOM     17  O   UNL d   1      -2.597   1.658   0.315  0.00  0.00    -0.286 OA
ATOM     18  C   UNL d   1       0.444   1.526   0.061  0.00  0.00     0.016 A 
ATOM     19  C   UNL d   1       1.202  -1.215   0.010  0.00  0.00     0.016 A 
ATOM     20  C   UNL d   1       1.792   1.150   0.008  0.00  0.00     0.001 A 
ATOM     21  C   UNL d   1       2.168  -0.208  -0.016  0.00  0.00     0.001 A 
ATOM     22  H   UNL d   1      -3.400  -3.205   0.419  0.00  0.00     0.160 HD
ENDROOT
BRANCH  11  23
ATOM     23  C   UNL d   1      -5.473  -2.909   2.063  0.00  0.00     0.032 A 
ATOM     24  N   UNL d   1      -5.576  -1.808   2.853  0.00  0.00    -0.367 N 
ATOM     25  C   UNL d   1      -5.439  -1.983   4.186  0.00  0.00     0.088 A 
ATOM     26  HN  UNL d   1      -5.750  -0.885   2.456  1.00  0.00     0.165 HD
ATOM     27  C   UNL d   1      -5.200  -3.210   4.782  0.00  0.00     0.017 A 
ATOM     28  C   UNL d   1      -5.095  -4.327   3.964  0.00  0.00     0.003 A 
ATOM     29  C   UNL d   1      -5.228  -4.179   2.587  0.00  0.00     0.027 A 
ENDBRANCH  11  23
BRANCH   5  30
ATOM     30  C   UNL d   1      -5.837  -0.803  -3.571  0.00  0.00     0.045 A 
ATOM     31  C   UNL d   1      -4.712  -0.305  -4.246  0.00  0.00     0.033 A 
ATOM     32  C   UNL d   1      -4.601  -0.380  -5.635  0.00  0.00     0.039 A 
ATOM     33  C   UNL d   1      -5.610  -0.959  -6.399  0.00  0.00     0.078 A 
ATOM     34  C   UNL d   1      -6.742  -1.449  -5.752  0.00  0.00     0.039 A 
ATOM     35  C   UNL d   1      -6.843  -1.394  -4.347  0.00  0.00     0.033 A 
BRANCH  33  36
ATOM     36  O   UNL d   1      -5.359  -0.937  -7.733  0.00  0.00    -0.255 OA
BRANCH  36  37
ATOM     37  C   UNL d   1      -5.975  -1.871  -8.599  0.00  0.00     0.530 C 
ATOM     38  F   UNL d   1      -6.523  -2.929  -7.968  0.00  0.00    -0.144 F 
ATOM     39  F   UNL d   1      -6.924  -1.251  -9.331  0.00  0.00    -0.144 F 
ATOM     40  F   UNL d   1      -5.032  -2.342  -9.447  0.00  0.00    -0.144 F 
ENDBRANCH  36  37
ENDBRANCH  33  36
ENDBRANCH   5  30
TORSDOF 4
