REMARK  1 active torsions:
REMARK  status: ('A' for Active; 'I' for Inactive)
REMARK    1  A    between atoms: C_20  and  C_18 
ROOT
ATOM      1  N   UNL d   1       1.472   1.379   0.075  0.00  0.00    -0.289 N 
ATOM      2  N   UNL d   1       2.711  -0.619  -0.093  0.00  0.00    -0.270 N 
ATOM      3  C   UNL d   1       2.710   0.767   0.009  0.00  0.00     0.332 A 
ATOM      4  C   UNL d   1       0.263   0.659   0.035  0.00  0.00     0.127 A 
ATOM      5  C   UNL d   1       0.284  -0.718  -0.042  0.00  0.00     0.077 A 
ATOM      6  C   UNL d   1       1.573  -1.413  -0.067  0.00  0.00     0.265 A 
ATOM      7  N   UNL d   1      -0.899   1.356   0.078  0.00  0.00    -0.341 N 
ATOM      8  HN  UNL d   1      -0.888   2.374   0.136  1.00  0.00     0.167 HD
ATOM      9  C   UNL d   1      -0.923  -1.419  -0.087  0.00  0.00     0.034 A 
ATOM     10  C   UNL d   1      -2.133  -0.715  -0.045  0.00  0.00    -0.008 A 
ATOM     11  C   UNL d   1      -2.066   0.689   0.045  0.00  0.00     0.044 A 
ATOM     12  O   UNL d   1       3.757   1.416   0.046  0.00  0.00    -0.246 OA
ATOM     13  O   UNL d   1       1.590  -2.641  -0.055  0.00  0.00    -0.267 OA
ATOM     14  C   UNL d   1      -3.383  -1.363  -0.083  0.00  0.00     0.021 A 
ATOM     15  C   UNL d   1       1.379   2.828   0.182  0.00  0.00     0.163 C 
ATOM     16  C   UNL d   1       3.988  -1.309  -0.140  0.00  0.00     0.164 C 
ATOM     17  C   UNL d   1      -3.253   1.403   0.101  0.00  0.00     0.031 A 
ATOM     18  C   UNL d   1      -4.573  -0.626  -0.032  0.00  0.00    -0.058 A 
ATOM     19  C   UNL d   1      -4.497   0.764   0.070  0.00  0.00     0.009 A 
ENDROOT
BRANCH  18  20
ATOM     20  C   UNL d   1      -5.913  -1.316  -0.062  0.00  0.00     0.034 C 
ATOM     21  C   UNL d   1      -6.397  -1.689   1.331  0.00  0.00     0.010 C 
ENDBRANCH  18  20
TORSDOF 1
