REMARK  4 active torsions:
REMARK  status: ('A' for Active; 'I' for Inactive)
REMARK    1  A    between atoms: C_10  and  C_1 
REMARK    2  A    between atoms: C_9  and  C_2 
REMARK    3  A    between atoms: O_16  and  C_9 
REMARK    4  A    between atoms: O_15  and  C_10 
ROOT
ATOM      1  C   UNL d   1      -1.176   0.051  -0.357  0.00  0.00     0.060 A 
ATOM      2  C   UNL d   1      -0.974   0.589   1.753  0.00  0.00     0.060 A 
ATOM      3  C   UNL d   1      -0.860   1.354   0.432  0.00  0.00     0.029 A 
ATOM      4  C   UNL d   1      -1.292  -0.681   1.000  0.00  0.00     0.030 A 
ATOM      5  C   UNL d   1       0.532   0.278   1.661  0.00  0.00     0.015 A 
ATOM      6  C   UNL d   1       0.195  -1.028   0.922  0.00  0.00     0.003 A 
ATOM      7  C   UNL d   1       0.138  -0.748  -0.593  0.00  0.00     0.010 C 
ATOM      8  C   UNL d   1       0.656   1.453   0.655  0.00  0.00    -0.002 C 
ATOM      9  C   UNL d   1       1.377  -0.077  -1.157  0.00  0.00     0.007 C 
ATOM     10  C   UNL d   1       1.519   1.317  -0.581  0.00  0.00     0.006 C 
ENDROOT
BRANCH   1  11
ATOM     11  C   UNL d   1      -2.365   0.035  -1.324  0.00  0.00     0.149 C 
ATOM     12  O   UNL d   1      -3.521   0.274  -0.985  0.00  0.00    -0.649 OA
BRANCH  11  13
ATOM     13  O   UNL d   1      -2.056  -0.234  -2.617  0.00  0.00    -0.776 OA
ATOM     14  H   UNL d   1      -1.106  -0.383  -2.782  0.00  0.00     0.167 HD
ENDBRANCH  11  13
ENDBRANCH   1  11
BRANCH   2  15
ATOM     15  C   UNL d   1      -1.639   1.050   3.031  0.00  0.00     0.150 C 
ATOM     16  O   UNL d   1      -1.254   0.761   4.160  0.00  0.00    -0.649 OA
BRANCH  15  17
ATOM     17  O   UNL d   1      -2.720   1.856   2.859  0.00  0.00    -0.776 OA
ATOM     18  H   UNL d   1      -2.988   1.975   1.928  0.00  0.00     0.167 HD
ENDBRANCH  15  17
ENDBRANCH   2  15
TORSDOF 4
