REMARK  4 active torsions:
REMARK  status: ('A' for Active; 'I' for Inactive)
REMARK    1  A    between atoms: C_6  and  S_1 
REMARK    2  A    between atoms: C_10  and  S_1 
REMARK    3  A    between atoms: C_4  and  C_6 
REMARK    4  A    between atoms: C_9  and  C_5 
ROOT
ATOM      1  N   UNL d   1       0.178  -3.186   1.638  0.00  0.00    -0.352 N 
ATOM      2  HN  UNL d   1      -0.837  -3.120   1.571  1.00  0.00     0.166 HD
ATOM      3  C   UNL d   1       1.007  -2.159   1.569  0.00  0.00     0.065 A 
ATOM      4  C   UNL d   1       0.888  -4.366   1.813  0.00  0.00     0.049 A 
ATOM      5  S   UNL d   1       2.669  -2.556   1.797  0.00  0.00    -0.085 SA
ATOM      6  C   UNL d   1       2.259  -4.212   1.859  0.00  0.00     0.081 A 
ENDROOT
BRANCH   3   7
ATOM      7  C   UNL d   1       0.568  -0.735   1.470  0.00  0.00     0.206 C 
BRANCH   7   8
ATOM      8  S   UNL d   1       1.137  -0.028  -0.075  0.00  0.00     0.157 S 
ATOM      9  O   UNL d   1       0.452  -0.700  -1.165  0.00  0.00    -0.227 OA
ATOM     10  O   UNL d   1       2.588   0.026  -0.055  0.00  0.00    -0.227 OA
BRANCH   8  11
ATOM     11  C   UNL d   1       0.559   1.710  -0.057  0.00  0.00     0.053 C 
ATOM     12  C   UNL d   1       1.155   2.458   1.144  0.00  0.00     0.031 C 
ATOM     13  C   UNL d   1       1.044   2.385  -1.353  0.00  0.00     0.031 C 
ATOM     14  C   UNL d   1      -0.972   1.770  -0.005  0.00  0.00     0.031 C 
ENDBRANCH   8  11
ENDBRANCH   7   8
ENDBRANCH   3   7
BRANCH   4  15
ATOM     15  C   UNL d   1       0.219  -5.658   1.927  0.00  0.00    -0.007 A 
ATOM     16  C   UNL d   1       0.788  -6.708   2.664  0.00  0.00     0.039 A 
ATOM     17  C   UNL d   1       0.148  -7.950   2.753  0.00  0.00     0.056 A 
ATOM     18 CL   UNL d   1       0.927  -9.185   3.677  0.00  0.00    -0.083 Cl
ATOM     19  C   UNL d   1      -1.075  -8.153   2.107  0.00  0.00     0.055 A 
ATOM     20  C   UNL d   1      -1.657  -7.107   1.386  0.00  0.00     0.026 A 
ATOM     21 CL   UNL d   1      -1.912  -9.662   2.164  0.00  0.00    -0.083 Cl
ATOM     22  C   UNL d   1      -1.016  -5.866   1.301  0.00  0.00     0.015 A 
ENDBRANCH   4  15
TORSDOF 4
