REMARK  1 active torsions:
REMARK  status: ('A' for Active; 'I' for Inactive)
REMARK    1  A    between atoms: C_2  and  N_1 
ROOT
ATOM      1  N   UNL d   1       0.011  -0.904  -0.033  0.00  0.00    -0.252 N 
ATOM      2  C   UNL d   1      -1.235  -0.280   0.143  0.00  0.00     0.231 C 
ATOM      3  C   UNL d   1       1.257  -0.262   0.040  0.00  0.00     0.231 C 
ATOM      4  O   UNL d   1      -2.318  -0.867   0.187  0.00  0.00    -0.273 OA
ATOM      5  O   UNL d   1       2.346  -0.836   0.034  0.00  0.00    -0.273 OA
ATOM      6  C   UNL d   1       1.240   1.247   0.159  0.00  0.00     0.104 C 
ATOM      7  C   UNL d   1      -1.201   1.209   0.395  0.00  0.00     0.104 C 
ATOM      8  C   UNL d   1      -0.051   1.854  -0.340  0.00  0.00     0.019 C 
ENDROOT
BRANCH   1   9
ATOM      9  C   UNL d   1       0.014  -2.325  -0.236  0.00  0.00     0.052 A 
ATOM     10  C   UNL d   1       0.703  -3.140   0.681  0.00  0.00     0.054 A 
ATOM     11  C   UNL d   1       0.722  -4.523   0.520  0.00  0.00     0.036 A 
ATOM     12 CL   UNL d   1       1.555  -5.506   1.662  0.00  0.00    -0.084 Cl
ATOM     13  C   UNL d   1       0.070  -5.117  -0.553  0.00  0.00     0.024 A 
ATOM     14  C   UNL d   1      -0.606  -4.319  -1.477  0.00  0.00     0.011 A 
ATOM     15  C   UNL d   1      -0.638  -2.919  -1.338  0.00  0.00    -0.035 A 
ATOM     16  C   UNL d   1      -1.331  -2.139  -2.424  0.00  0.00     0.050 C 
ENDBRANCH   1   9
TORSDOF 1
