REMARK  6 active torsions:
REMARK  status: ('A' for Active; 'I' for Inactive)
REMARK    1  A    between atoms: C_2  and  S_1 
REMARK    2  A    between atoms: O_6  and  S_1 
REMARK    3  A    between atoms: N_4  and  C_3 
REMARK    4  A    between atoms: C_5  and  O_6 
REMARK    5  A    between atoms: O_20  and  C_10 
REMARK    6  A    between atoms: O_21  and  C_16 
ROOT
ATOM      1  S   UNL d   1       1.198  -0.122  -0.187  0.00  0.00     0.306 S 
ATOM      2  O   UNL d   1       0.597   0.936  -0.974  0.00  0.00    -0.193 OA
ATOM      3  O   UNL d   1       2.615  -0.423  -0.262  0.00  0.00    -0.193 OA
ENDROOT
BRANCH   1   4
ATOM      4  C   UNL d   1       0.329  -1.624  -0.564  0.00  0.00     0.122 A 
ATOM      5  C   UNL d   1      -0.474  -2.137   0.480  0.00  0.00     0.065 A 
ATOM      6  C   UNL d   1      -1.216  -3.302   0.328  0.00  0.00     0.069 A 
ATOM      7  C   UNL d   1      -1.151  -3.975  -0.883  0.00  0.00     0.039 A 
ATOM      8  C   UNL d   1      -0.376  -3.464  -1.930  0.00  0.00     0.041 A 
ATOM      9  C   UNL d   1       0.373  -2.281  -1.797  0.00  0.00     0.092 A 
BRANCH   6  10
ATOM     10  O   UNL d   1      -2.027  -3.851   1.281  0.00  0.00    -0.356 OA
ATOM     11  C   UNL d   1      -2.124  -3.150   2.521  0.00  0.00     0.210 C 
ENDBRANCH   6  10
BRANCH   9  12
ATOM     12  O   UNL d   1       0.944  -1.928  -2.983  0.00  0.00    -0.354 OA
ATOM     13  C   UNL d   1       2.198  -1.269  -3.022  0.00  0.00     0.210 C 
ENDBRANCH   9  12
ENDBRANCH   1   4
BRANCH   1  14
ATOM     14  O   UNL d   1       0.849   0.159   1.386  0.00  0.00    -0.226 OA
BRANCH  14  15
ATOM     15  C   UNL d   1       1.594   0.986   2.182  0.00  0.00     0.122 A 
ATOM     16  C   UNL d   1       1.554   0.819   3.574  0.00  0.00     0.138 A 
ATOM     17  C   UNL d   1       2.248   1.672   4.444  0.00  0.00     0.045 A 
ATOM     18  C   UNL d   1       3.025   2.706   3.915  0.00  0.00    -0.059 A 
ATOM     19  C   UNL d   1       3.099   2.858   2.526  0.00  0.00     0.010 A 
ATOM     20  C   UNL d   1       3.739   3.659   4.827  0.00  0.00     0.048 C 
ATOM     21  C   UNL d   1       2.379   2.019   1.669  0.00  0.00     0.041 A 
BRANCH  16  22
ATOM     22  N   UNL d   1       0.825  -0.289   4.170  0.00  0.00    -0.113 N 
ATOM     23  O   UNL d   1      -0.367  -0.428   3.858  0.00  0.00    -0.532 OA
ATOM     24  O   UNL d   1       1.441  -1.007   4.963  0.00  0.00    -0.532 OA
ENDBRANCH  16  22
ENDBRANCH  14  15
ENDBRANCH   1  14
TORSDOF 6
