REMARK  3 active torsions:
REMARK  status: ('A' for Active; 'I' for Inactive)
REMARK    1  A    between atoms: C_6  and  N_1 
REMARK    2  A    between atoms: C_7  and  N_2 
REMARK    3  A    between atoms: N_10  and  C_4 
ROOT
ATOM      1  N   UNL d   1      -0.727  -0.869  -0.276  0.00  0.00    -0.246 N 
ATOM      2  N   UNL d   1       1.102   0.409   0.183  0.00  0.00    -0.250 N 
ATOM      3  C   UNL d   1       0.638  -0.899   0.002  0.00  0.00     0.341 C 
ATOM      4  C   UNL d   1      -1.169   0.410  -0.155  0.00  0.00     0.149 C 
ATOM      5  C   UNL d   1       0.050   1.271   0.011  0.00  0.00     0.156 C 
ATOM      6  S   UNL d   1      -0.078   2.912  -0.202  0.00  0.00    -0.056 SA
ATOM      7  O   UNL d   1       1.315  -1.919   0.063  0.00  0.00    -0.245 OA
ENDROOT
BRANCH   1   8
ATOM      8  C   UNL d   1      -1.492  -1.981  -0.704  0.00  0.00     0.047 A 
ATOM      9  C   UNL d   1      -1.275  -3.268  -0.197  0.00  0.00     0.056 A 
ATOM     10  C   UNL d   1      -2.043  -4.354  -0.644  0.00  0.00     0.058 A 
ATOM     11 CL   UNL d   1      -1.752  -5.897   0.078  0.00  0.00    -0.082 Cl
ATOM     12  C   UNL d   1      -3.015  -4.168  -1.633  0.00  0.00     0.055 A 
ATOM     13  C   UNL d   1      -3.221  -2.895  -2.163  0.00  0.00     0.028 A 
ATOM     14 CL   UNL d   1      -3.984  -5.459  -2.245  0.00  0.00    -0.083 Cl
ATOM     15  C   UNL d   1      -2.472  -1.811  -1.697  0.00  0.00     0.032 A 
ENDBRANCH   1   8
BRANCH   4  16
ATOM     16  N   UNL d   1      -2.387   0.827  -0.102  0.00  0.00    -0.382 N 
ATOM     17  H   UNL d   1      -3.054   0.052  -0.136  0.00  0.00     0.157 HD
ATOM     18  HN  UNL d   1      -2.654   1.809  -0.034  1.00  0.00     0.157 HD
ENDBRANCH   4  16
BRANCH   2  19
ATOM     19  C   UNL d   1       2.475   0.755   0.384  0.00  0.00     0.047 A 
ATOM     20  C   UNL d   1       3.512  -0.057  -0.103  0.00  0.00     0.055 A 
ATOM     21  C   UNL d   1       4.860   0.308   0.045  0.00  0.00     0.058 A 
ATOM     22 CL   UNL d   1       6.056  -0.746  -0.626  0.00  0.00    -0.082 Cl
ATOM     23  C   UNL d   1       5.198   1.494   0.698  0.00  0.00     0.055 A 
ATOM     24  C   UNL d   1       4.184   2.296   1.216  0.00  0.00     0.028 A 
ATOM     25 CL   UNL d   1       6.829   2.020   0.900  0.00  0.00    -0.083 Cl
ATOM     26  C   UNL d   1       2.842   1.925   1.066  0.00  0.00     0.032 A 
ENDBRANCH   2  19
TORSDOF 3
