REMARK  8 active torsions:
REMARK  status: ('A' for Active; 'I' for Inactive)
REMARK    1  A    between atoms: C_9  and  C_1 
REMARK    2  A    between atoms: C_11  and  N_4 
REMARK    3  A    between atoms: C_8  and  C_10 
REMARK    4  A    between atoms: C_13  and  C_11 
REMARK    5  A    between atoms: C_12  and  N_17 
REMARK    6  A    between atoms: N_16  and  C_12 
REMARK       I    between atoms: N_18  and  C_13 
REMARK    7  A    between atoms: C_20  and  N_16 
REMARK    8  A    between atoms: N_17  and  N_18 
ROOT
ATOM      1  C   UNL d   1       1.729   1.222  -0.197  0.00  0.00     0.271 C 
ENDROOT
BRANCH   1   2
ATOM      2  N   UNL d   1       0.500   0.485   0.006  0.00  0.00    -0.207 N 
ATOM      3  N   UNL d   1      -0.654   0.971  -0.506  0.00  0.00    -0.268 N 
ATOM      4  C   UNL d   1      -1.555   0.319   0.249  0.00  0.00     0.145 A 
ATOM      5  HN  UNL d   1      -0.800   1.645  -1.257  1.00  0.00     0.190 HD
ATOM      6  N   UNL d   1      -0.968  -0.469   1.207  0.00  0.00    -0.266 N 
ATOM      7  N   UNL d   1       0.345  -0.328   1.069  0.00  0.00    -0.002 NA
ATOM      8  HN  UNL d   1      -1.448  -1.052   1.893  1.00  0.00     0.186 HD
BRANCH   4   9
ATOM      9  C   UNL d   1      -2.982   0.577   0.195  0.00  0.00     0.025 A 
ATOM     10  C   UNL d   1      -3.958  -0.435   0.183  0.00  0.00     0.061 A 
ATOM     11  C   UNL d   1      -5.319  -0.061   0.198  0.00  0.00     0.017 A 
ATOM     12  C   UNL d   1      -5.708   1.277   0.200  0.00  0.00     0.001 A 
ATOM     13  C   UNL d   1      -4.741   2.276   0.186  0.00  0.00     0.001 A 
ATOM     14  C   UNL d   1      -3.390   1.927   0.185  0.00  0.00     0.016 A 
BRANCH  10  15
ATOM     15  C   UNL d   1      -3.638  -1.914   0.152  0.00  0.00     0.418 C 
ATOM     16  F   UNL d   1      -2.388  -2.233  -0.257  0.00  0.00    -0.166 F 
ATOM     17  F   UNL d   1      -3.817  -2.498   1.368  0.00  0.00    -0.166 F 
ATOM     18  F   UNL d   1      -4.473  -2.584  -0.698  0.00  0.00    -0.166 F 
ENDBRANCH  10  15
ENDBRANCH   4   9
ENDBRANCH   1   2
BRANCH   1  19
ATOM     19  C   UNL d   1       2.849   0.398  -0.768  0.00  0.00     0.257 C 
ATOM     20  N   UNL d   1       4.045   1.117  -0.793  0.00  0.00    -0.266 N 
ATOM     21  H   UNL d   1       4.129   2.056  -0.416  0.00  0.00     0.190 HD
ATOM     22  O   UNL d   1       2.740  -0.743  -1.206  0.00  0.00    -0.270 OA
BRANCH  20  23
ATOM     23  N   UNL d   1       5.246   0.476  -1.132  0.00  0.00    -0.273 N 
ATOM     24  H   UNL d   1       5.302   0.147  -2.096  0.00  0.00     0.189 HD
BRANCH  23  25
ATOM     25  C   UNL d   1       5.925  -0.309  -0.213  0.00  0.00     0.191 C 
ATOM     26  S   UNL d   1       5.524  -0.542   1.392  0.00  0.00    -0.039 SA
BRANCH  25  27
ATOM     27  N   UNL d   1       7.027  -0.947  -0.737  0.00  0.00    -0.332 N 
ATOM     28  H   UNL d   1       7.277  -1.811  -0.263  0.00  0.00     0.168 HD
BRANCH  27  29
ATOM     29  C   UNL d   1       8.110  -0.302  -1.383  0.00  0.00     0.036 A 
ATOM     30  C   UNL d   1       9.107  -1.100  -1.950  0.00  0.00     0.055 A 
ATOM     31  C   UNL d   1      10.249  -0.513  -2.513  0.00  0.00     0.058 A 
ATOM     32 CL   UNL d   1      11.424  -1.563  -3.223  0.00  0.00    -0.082 Cl
ATOM     33  C   UNL d   1      10.411   0.876  -2.480  0.00  0.00     0.055 A 
ATOM     34  C   UNL d   1       9.419   1.673  -1.907  0.00  0.00     0.028 A 
ATOM     35 CL   UNL d   1      11.813   1.665  -3.106  0.00  0.00    -0.083 Cl
ATOM     36  C   UNL d   1       8.267   1.088  -1.373  0.00  0.00     0.031 A 
ENDBRANCH  27  29
ENDBRANCH  25  27
ENDBRANCH  23  25
ENDBRANCH  20  23
ENDBRANCH   1  19
TORSDOF 8
