REMARK  5 active torsions:
REMARK  status: ('A' for Active; 'I' for Inactive)
REMARK    1  A    between atoms: C_7  and  C_1 
REMARK    2  A    between atoms: O_16  and  C_2 
REMARK    3  A    between atoms: N_4  and  C_10 
REMARK    4  A    between atoms: C_9  and  C_7 
REMARK    5  A    between atoms: C_14  and  C_9 
ROOT
ATOM      1  C   UNL d   1       1.779  -0.803  -0.151  0.00  0.00     0.059 C 
ATOM      2  C   UNL d   1       1.456   0.506  -0.172  0.00  0.00     0.091 C 
ATOM      3  C   UNL d   1       0.713  -1.812  -0.452  0.00  0.00     0.297 C 
ATOM      4  O   UNL d   1      -0.505  -1.368  -0.934  0.00  0.00    -0.274 OA
ATOM      5  C   UNL d   1       0.100   0.941  -0.527  0.00  0.00     0.032 A 
ATOM      6  C   UNL d   1      -0.826  -0.006  -0.939  0.00  0.00     0.092 A 
ATOM      7  O   UNL d   1       0.928  -3.013  -0.311  0.00  0.00    -0.259 OA
ATOM      8  C   UNL d   1      -0.307   2.283  -0.491  0.00  0.00     0.017 A 
ATOM      9  C   UNL d   1      -2.114   0.343  -1.347  0.00  0.00     0.038 A 
ATOM     10  C   UNL d   1      -1.599   2.651  -0.880  0.00  0.00     0.001 A 
ATOM     11  C   UNL d   1      -2.499   1.682  -1.319  0.00  0.00     0.003 A 
ENDROOT
BRANCH   1  12
ATOM     12  C   UNL d   1       3.103  -1.504   0.118  0.00  0.00     0.131 C 
BRANCH  12  13
ATOM     13  C   UNL d   1       4.370  -0.687   0.326  0.00  0.00     0.164 C 
ATOM     14  O   UNL d   1       4.370   0.428   0.844  0.00  0.00    -0.292 OA
BRANCH  13  15
ATOM     15  C   UNL d   1       5.684  -1.270  -0.060  0.00  0.00     0.010 A 
ATOM     16  C   UNL d   1       6.706  -0.388  -0.447  0.00  0.00     0.017 A 
ATOM     17  C   UNL d   1       7.983  -0.869  -0.743  0.00  0.00     0.037 A 
ATOM     18  C   UNL d   1       8.242  -2.241  -0.640  0.00  0.00     0.102 A 
ATOM     19  C   UNL d   1       7.222  -3.131  -0.269  0.00  0.00     0.037 A 
ATOM     20  C   UNL d   1       5.941  -2.644   0.019  0.00  0.00     0.017 A 
BRANCH  18  21
ATOM     21  N   UNL d   1       9.598  -2.746  -0.899  0.00  0.00    -0.116 N 
ATOM     22  O   UNL d   1      10.463  -1.926  -1.236  0.00  0.00    -0.532 OA
ATOM     23  O   UNL d   1       9.794  -3.961  -0.757  0.00  0.00    -0.532 OA
ENDBRANCH  18  21
ENDBRANCH  13  15
ENDBRANCH  12  13
ENDBRANCH   1  12
BRANCH   2  24
ATOM     24  O   UNL d   1       2.300   1.556   0.091  0.00  0.00    -0.359 OA
ATOM     25  H   UNL d   1       3.132   1.245   0.506  0.00  0.00     0.217 HD
ENDBRANCH   2  24
TORSDOF 5
