REMARK  5 active torsions:
REMARK  status: ('A' for Active; 'I' for Inactive)
REMARK    1  A    between atoms: C_3  and  S_1 
REMARK    2  A    between atoms: C_5  and  S_1 
REMARK    3  A    between atoms: S_2  and  C_4 
REMARK    4  A    between atoms: C_6  and  S_2 
REMARK    5  A    between atoms: C_4  and  C_3 
ROOT
ATOM      1  C   UNL d   1       0.527  -0.549   1.571  0.00  0.00     0.162 C 
ENDROOT
BRANCH   1   2
ATOM      2  S   UNL d   1       1.183  -0.092  -0.007  0.00  0.00     0.191 S 
ATOM      3  O   UNL d   1       0.616  -0.992  -0.996  0.00  0.00    -0.221 OA
ATOM      4  O   UNL d   1       2.623   0.032   0.138  0.00  0.00    -0.221 OA
BRANCH   2   5
ATOM      5  C   UNL d   1       0.544   1.536  -0.337  0.00  0.00     0.128 A 
ATOM      6  N   UNL d   1      -0.281   2.027   0.624  0.00  0.00    -0.357 N 
ATOM      7  C   UNL d   1      -0.751   3.275   0.409  0.00  0.00     0.089 A 
ATOM      8  HN  UNL d   1      -0.529   1.489   1.455  1.00  0.00     0.166 HD
ATOM      9  C   UNL d   1      -0.433   4.038  -0.706  0.00  0.00     0.017 A 
ATOM     10  C   UNL d   1       0.415   3.493  -1.669  0.00  0.00     0.004 A 
ATOM     11  C   UNL d   1       0.920   2.209  -1.488  0.00  0.00     0.042 A 
ENDBRANCH   2   5
ENDBRANCH   1   2
BRANCH   1  12
ATOM     12  C   UNL d   1       1.024  -1.921   1.988  0.00  0.00     0.161 C 
BRANCH  12  13
ATOM     13  S   UNL d   1       0.340  -2.331   3.572  0.00  0.00     0.176 S 
ATOM     14  O   UNL d   1       0.876  -1.398   4.544  0.00  0.00    -0.223 OA
ATOM     15  O   UNL d   1      -1.093  -2.486   3.411  0.00  0.00    -0.223 OA
BRANCH  13  16
ATOM     16  C   UNL d   1       1.004  -3.934   3.965  0.00  0.00     0.059 A 
ATOM     17  C   UNL d   1       2.211  -4.028   4.667  0.00  0.00     0.025 A 
ATOM     18  C   UNL d   1       2.684  -5.282   5.063  0.00  0.00     0.025 A 
ATOM     19  C   UNL d   1       1.947  -6.429   4.767  0.00  0.00     0.034 A 
ATOM     20  C   UNL d   1       0.738  -6.334   4.075  0.00  0.00     0.025 A 
ATOM     21 CL   UNL d   1       2.522  -7.969   5.275  0.00  0.00    -0.084 Cl
ATOM     22  C   UNL d   1       0.260  -5.084   3.676  0.00  0.00     0.025 A 
ENDBRANCH  13  16
ENDBRANCH  12  13
ENDBRANCH   1  12
TORSDOF 5
