REMARK  5 active torsions:
REMARK  status: ('A' for Active; 'I' for Inactive)
REMARK    1  A    between atoms: N_2  and  C_1 
REMARK       I    between atoms: C_3  and  N_2 
REMARK    2  A    between atoms: C_10  and  C_3 
REMARK    3  A    between atoms: S_4  and  C_10 
REMARK    4  A    between atoms: C_7  and  S_4 
REMARK    5  A    between atoms: N_11  and  C_9 
ROOT
ATOM      1  N   UNL d   1       2.579   2.633   0.807  0.00  0.00    -0.321 N 
ATOM      2  C   UNL d   1       1.520   3.127   0.071  0.00  0.00     0.231 C 
ATOM      3  O   UNL d   1       0.648   2.461  -0.474  0.00  0.00    -0.272 OA
ATOM      4  H   UNL d   1       3.216   3.341   1.168  0.00  0.00     0.169 HD
ENDROOT
BRANCH   2   5
ATOM      5  C   UNL d   1       1.433   4.660   0.025  0.00  0.00     0.182 C 
BRANCH   5   6
ATOM      6  S   UNL d   1       3.024   5.474   0.445  0.00  0.00    -0.119 SA
BRANCH   6   7
ATOM      7  C   UNL d   1       2.788   7.136  -0.191  0.00  0.00     0.021 A 
ATOM      8  C   UNL d   1       1.734   7.988   0.200  0.00  0.00     0.022 A 
ATOM      9  C   UNL d   1       1.655   9.270  -0.362  0.00  0.00     0.024 A 
ATOM     10  C   UNL d   1       2.666   9.756  -1.193  0.00  0.00     0.002 A 
ATOM     11  C   UNL d   1       3.741   8.940  -1.524  0.00  0.00     0.001 A 
ATOM     12  C   UNL d   1       3.795   7.634  -1.035  0.00  0.00     0.020 A 
BRANCH   8  13
ATOM     13  N   UNL d   1       0.666   7.540   1.002  0.00  0.00    -0.302 NA
ATOM     14  H   UNL d   1       0.985   6.875   1.703  0.00  0.00     0.124 HD
ATOM     15  H   UNL d   1       0.132   8.295   1.422  0.00  0.00     0.124 HD
ENDBRANCH   8  13
ENDBRANCH   6   7
ENDBRANCH   5   6
ENDBRANCH   2   5
BRANCH   1  16
ATOM     16  C   UNL d   1       2.966   1.300   1.070  0.00  0.00     0.112 A 
ATOM     17  C   UNL d   1       2.313   0.133   0.673  0.00  0.00     0.146 A 
ATOM     18  F   UNL d   1       1.171   0.149  -0.018  0.00  0.00    -0.204 F 
ATOM     19  C   UNL d   1       2.829  -1.129   0.992  0.00  0.00     0.045 A 
ATOM     20  C   UNL d   1       4.013  -1.251   1.721  0.00  0.00     0.006 A 
ATOM     21  C   UNL d   1       4.676  -0.103   2.134  0.00  0.00     0.045 A 
ATOM     22  C   UNL d   1       4.152   1.149   1.807  0.00  0.00     0.146 A 
ATOM     23  F   UNL d   1       4.814   2.243   2.219  0.00  0.00    -0.204 F 
ENDBRANCH   1  16
TORSDOF 5
