REMARK  4 active torsions:
REMARK  status: ('A' for Active; 'I' for Inactive)
REMARK    1  A    between atoms: C_9  and  N_1 
REMARK    2  A    between atoms: N_5  and  C_2 
REMARK    3  A    between atoms: N_8  and  C_3 
REMARK       I    between atoms: C_6  and  N_7 
REMARK    4  A    between atoms: C_21  and  C_6 
ROOT
ATOM      1  C   UNL d   1      -0.201  -1.897  -2.771  0.00  0.00     0.067 A 
ATOM      2  C   UNL d   1      -0.982  -1.004  -3.558  0.00  0.00     0.058 A 
ATOM      3  C   UNL d   1       0.344  -1.505  -1.537  0.00  0.00     0.068 A 
ATOM      4  C   UNL d   1       0.213  -0.178  -1.117  0.00  0.00     0.105 A 
ATOM      5  C   UNL d   1      -1.077   0.325  -3.100  0.00  0.00     0.034 A 
ATOM      6  C   UNL d   1      -0.479   0.745  -1.903  0.00  0.00     0.038 A 
ENDROOT
BRANCH   2   7
ATOM      7  N   UNL d   1      -1.663  -1.412  -4.699  0.00  0.00    -0.376 N 
ATOM      8  C   UNL d   1      -2.046  -0.494  -5.786  0.00  0.00     0.143 C 
ATOM      9  C   UNL d   1      -2.028  -1.269  -7.121  0.00  0.00     0.146 C 
ATOM     10  N   UNL d   1      -2.777  -2.538  -7.092  0.00  0.00    -0.345 N 
ATOM     11  C   UNL d   1      -3.210  -3.054  -8.321  0.00  0.00     0.253 C 
ATOM     12  C   UNL d   1      -2.623  -3.348  -5.872  0.00  0.00     0.146 C 
ATOM     13  O   UNL d   1      -3.307  -2.357  -9.332  0.00  0.00    -0.267 OA
ATOM     14  C   UNL d   1      -2.631  -2.524  -4.574  0.00  0.00     0.143 C 
BRANCH  11  15
ATOM     15  C   UNL d   1      -3.610  -4.482  -8.431  0.00  0.00     0.032 A 
ATOM     16  C   UNL d   1      -4.820  -4.787  -9.063  0.00  0.00     0.017 A 
ATOM     17  C   UNL d   1      -5.241  -6.114  -9.171  0.00  0.00     0.001 A 
ATOM     18  C   UNL d   1      -4.453  -7.143  -8.648  0.00  0.00     0.000 A 
ATOM     19  C   UNL d   1      -3.227  -6.850  -8.056  0.00  0.00     0.001 A 
ATOM     20  C   UNL d   1      -2.790  -5.525  -7.977  0.00  0.00     0.017 A 
ENDBRANCH  11  15
ENDBRANCH   2   7
BRANCH   1  21
ATOM     21  N   UNL d   1       0.156  -3.196  -3.242  0.00  0.00    -0.331 N 
ATOM     22  C   UNL d   1       0.292  -4.339  -2.478  0.00  0.00     0.097 A 
ATOM     23  C   UNL d   1       0.563  -5.404  -3.313  0.00  0.00     0.019 A 
ATOM     24  C   UNL d   1       0.684  -4.892  -4.620  0.00  0.00     0.019 A 
ATOM     25  C   UNL d   1       0.476  -3.533  -4.542  0.00  0.00     0.097 A 
ENDBRANCH   1  21
BRANCH   4  26
ATOM     26  N   UNL d   1       0.840   0.254   0.141  0.00  0.00    -0.116 N 
ATOM     27  O   UNL d   1       1.397  -0.609   0.832  0.00  0.00    -0.532 OA
ATOM     28  O   UNL d   1       0.772   1.455   0.434  0.00  0.00    -0.532 OA
ENDBRANCH   4  26
TORSDOF 4
