REMARK  1 active torsions:
REMARK  status: ('A' for Active; 'I' for Inactive)
REMARK    1  A    between atoms: C_8  and  C_4 
ROOT
ATOM      1  S   UNL d   1       0.636  -1.702  -0.139  0.00  0.00    -0.108 SA
ATOM      2  C   UNL d   1       1.897   0.722   0.091  0.00  0.00     0.240 C 
ATOM      3  N   UNL d   1       0.761   1.350  -0.369  0.00  0.00    -0.325 N 
ATOM      4  C   UNL d   1       1.741  -0.610   0.848  0.00  0.00     0.177 C 
ATOM      5  C   UNL d   1      -0.746  -0.578  -0.201  0.00  0.00     0.028 A 
ATOM      6  C   UNL d   1      -0.535   0.803  -0.333  0.00  0.00     0.051 A 
ATOM      7  O   UNL d   1       2.983   1.298  -0.005  0.00  0.00    -0.272 OA
ATOM      8  C   UNL d   1      -2.045  -1.080  -0.123  0.00  0.00     0.021 A 
ATOM      9  C   UNL d   1      -1.624   1.670  -0.414  0.00  0.00     0.031 A 
ATOM     10  C   UNL d   1      -3.132  -0.204  -0.151  0.00  0.00     0.002 A 
ATOM     11  C   UNL d   1      -2.922   1.166  -0.299  0.00  0.00     0.002 A 
ATOM     12  H   UNL d   1       0.895   2.304  -0.678  0.00  0.00     0.169 HD
ENDROOT
BRANCH   4  13
ATOM     13  C   UNL d   1       1.245  -0.468   2.293  0.00  0.00    -0.035 A 
ATOM     14  C   UNL d   1       0.987   0.780   2.887  0.00  0.00     0.009 A 
ATOM     15  C   UNL d   1       0.447   0.869   4.173  0.00  0.00     0.001 A 
ATOM     16  C   UNL d   1       0.173  -0.285   4.898  0.00  0.00     0.000 A 
ATOM     17  C   UNL d   1       0.462  -1.531   4.350  0.00  0.00     0.001 A 
ATOM     18  C   UNL d   1       1.004  -1.621   3.065  0.00  0.00     0.009 A 
ENDBRANCH   4  13
TORSDOF 1
