REMARK  4 active torsions:
REMARK  status: ('A' for Active; 'I' for Inactive)
REMARK    1  A    between atoms: C_9  and  C_3 
REMARK    2  A    between atoms: C_8  and  C_4 
REMARK    3  A    between atoms: O_17  and  C_11 
REMARK    4  A    between atoms: O_18  and  C_12 
ROOT
ATOM      1  N   UNL d   1       0.782   0.057   0.701  0.00  0.00    -0.319 N 
ATOM      2  HN  UNL d   1       1.410   0.130   1.501  1.00  0.00     0.169 HD
ATOM      3  C   UNL d   1      -0.034   1.026   0.157  0.00  0.00     0.138 A 
ATOM      4  C   UNL d   1       0.550  -0.983  -0.067  0.00  0.00     0.182 A 
ATOM      5  N   UNL d   1      -0.742   0.605  -0.905  0.00  0.00    -0.242 N 
ATOM      6  HN  UNL d   1      -1.407   1.135  -1.468  1.00  0.00     0.196 HD
ATOM      7  O   UNL d   1      -0.354  -0.726  -1.056  0.00  0.00    -0.217 OA
ENDROOT
BRANCH   4   8
ATOM      8  C   UNL d   1       1.090  -2.333   0.024  0.00  0.00     0.020 A 
ATOM      9  C   UNL d   1       1.919  -2.661   1.111  0.00  0.00     0.055 A 
ATOM     10  C   UNL d   1       2.447  -3.951   1.283  0.00  0.00     0.102 A 
ATOM     11  C   UNL d   1       2.153  -4.933   0.322  0.00  0.00     0.101 A 
ATOM     12  C   UNL d   1       1.335  -4.602  -0.770  0.00  0.00     0.040 A 
ATOM     13  C   UNL d   1       0.804  -3.320  -0.919  0.00  0.00     0.019 A 
BRANCH  10  14
ATOM     14  O   UNL d   1       3.229  -4.294   2.353  0.00  0.00    -0.353 OA
ATOM     15  C   UNL d   1       3.514  -3.303   3.332  0.00  0.00     0.210 C 
ENDBRANCH  10  14
BRANCH  11  16
ATOM     16  O   UNL d   1       2.561  -6.240   0.276  0.00  0.00    -0.353 OA
ATOM     17  C   UNL d   1       3.398  -6.738   1.307  0.00  0.00     0.210 C 
ENDBRANCH  11  16
ENDBRANCH   4   8
BRANCH   3  18
ATOM     18  C   UNL d   1      -0.096   2.376   0.706  0.00  0.00     0.010 A 
ATOM     19  C   UNL d   1       0.748   2.741   1.768  0.00  0.00     0.022 A 
ATOM     20  C   UNL d   1       0.720   4.037   2.303  0.00  0.00    -0.061 A 
ATOM     21  C   UNL d   1       1.639   4.428   3.421  0.00  0.00     0.048 C 
ATOM     22  C   UNL d   1      -0.172   4.973   1.768  0.00  0.00     0.007 A 
ATOM     23  C   UNL d   1      -1.022   4.620   0.720  0.00  0.00     0.002 A 
ATOM     24  C   UNL d   1      -0.983   3.330   0.190  0.00  0.00     0.015 A 
ENDBRANCH   3  18
TORSDOF 4
