REMARK  2 active torsions:
REMARK  status: ('A' for Active; 'I' for Inactive)
REMARK    1  A    between atoms: C_6  and  C_3 
REMARK    2  A    between atoms: C_10  and  C_4 
ROOT
ATOM      1  N   UNL d   1      -0.466   1.612  -0.794  0.00  0.00    -0.358 N 
ATOM      2  HN  UNL d   1      -0.291   2.187  -1.619  1.00  0.00     0.166 HD
ATOM      3  C   UNL d   1      -2.377  -0.579   0.594  0.00  0.00     0.096 C 
ATOM      4  C   UNL d   1      -1.601   1.719  -0.171  0.00  0.00     0.021 C 
ATOM      5  S   UNL d   1      -1.195  -1.520  -0.465  0.00  0.00    -0.117 SA
ATOM      6  C   UNL d   1      -1.981   0.846   1.013  0.00  0.00     0.078 C 
ATOM      7  C   UNL d   1       0.526   0.716  -0.353  0.00  0.00     0.049 A 
ATOM      8  C   UNL d   1       0.347  -0.669  -0.162  0.00  0.00     0.028 A 
ATOM      9  C   UNL d   1       1.798   1.268  -0.140  0.00  0.00     0.031 A 
ATOM     10  C   UNL d   1       1.440  -1.459   0.231  0.00  0.00     0.021 A 
ATOM     11  C   UNL d   1       2.875   0.478   0.263  0.00  0.00     0.002 A 
ATOM     12  C   UNL d   1       2.695  -0.888   0.448  0.00  0.00     0.002 A 
ENDROOT
BRANCH   3  13
ATOM     13  C   UNL d   1      -3.805  -0.610   0.053  0.00  0.00     0.017 A 
ATOM     14  C   UNL d   1      -4.915  -0.829   0.894  0.00  0.00     0.044 A 
ATOM     15 CL   UNL d   1      -4.748  -1.157   2.584  0.00  0.00    -0.084 Cl
ATOM     16  C   UNL d   1      -6.226  -0.759   0.398  0.00  0.00     0.024 A 
ATOM     17  C   UNL d   1      -6.460  -0.464  -0.943  0.00  0.00     0.005 A 
ATOM     18  C   UNL d   1      -5.383  -0.248  -1.789  0.00  0.00     0.043 A 
ATOM     19  C   UNL d   1      -4.082  -0.319  -1.292  0.00  0.00     0.125 A 
ATOM     20  F   UNL d   1      -3.092  -0.056  -2.154  0.00  0.00    -0.205 F 
ENDBRANCH   3  13
BRANCH   4  21
ATOM     21  C   UNL d   1      -2.562   2.767  -0.642  0.00  0.00    -0.013 A 
ATOM     22  C   UNL d   1      -2.628   3.063  -2.013  0.00  0.00     0.022 A 
ATOM     23  C   UNL d   1      -3.472   4.078  -2.499  0.00  0.00    -0.039 A 
ATOM     24  C   UNL d   1      -3.521   4.361  -3.974  0.00  0.00     0.050 C 
ATOM     25  C   UNL d   1      -4.229   4.816  -1.578  0.00  0.00     0.040 A 
ATOM     26  C   UNL d   1      -4.169   4.524  -0.213  0.00  0.00     0.025 A 
ATOM     27 CL   UNL d   1      -5.242   6.123  -2.078  0.00  0.00    -0.084 Cl
ATOM     28  C   UNL d   1      -3.340   3.502   0.256  0.00  0.00     0.015 A 
ENDBRANCH   4  21
TORSDOF 2
