REMARK  3 active torsions:
REMARK  status: ('A' for Active; 'I' for Inactive)
REMARK    1  A    between atoms: N_2  and  S_1 
REMARK    2  A    between atoms: C_4  and  S_1 
REMARK    3  A    between atoms: C_3  and  N_2 
ROOT
ATOM      1  S   UNL d   1       0.983  -0.045  -0.066  0.00  0.00     0.247 S 
ATOM      2  O   UNL d   1       0.330   1.016  -0.810  0.00  0.00    -0.205 OA
ATOM      3  O   UNL d   1       2.425  -0.130  -0.007  0.00  0.00    -0.205 OA
ENDROOT
BRANCH   1   4
ATOM      4  N   UNL d   1       0.408  -1.536  -0.670  0.00  0.00    -0.165 NA
ATOM      5  H   UNL d   1       0.929  -2.296  -0.236  0.00  0.00     0.147 HD
BRANCH   4   6
ATOM      6  C   UNL d   1      -1.012  -1.679  -0.686  0.00  0.00     0.111 A 
ATOM      7  N   UNL d   1      -1.910  -1.182  -1.597  0.00  0.00    -0.285 N 
ATOM      8  N   UNL d   1      -3.186  -1.511  -1.301  0.00  0.00    -0.309 N 
ATOM      9  C   UNL d   1      -1.625  -0.549  -2.863  0.00  0.00     0.179 C 
ATOM     10  C   UNL d   1      -3.074  -2.277  -0.213  0.00  0.00     0.110 A 
ATOM     11  HN  UNL d   1      -4.037  -1.239  -1.794  1.00  0.00     0.186 HD
ATOM     12  C   UNL d   1      -1.737  -2.440   0.196  0.00  0.00     0.063 A 
ENDBRANCH   4   6
ENDBRANCH   1   4
BRANCH   1  13
ATOM     13  C   UNL d   1       0.392   0.002   1.633  0.00  0.00     0.082 A 
ATOM     14  C   UNL d   1       0.705  -0.998   2.586  0.00  0.00    -0.017 A 
ATOM     15  C   UNL d   1       0.125  -0.878   3.868  0.00  0.00     0.041 A 
ATOM     16  C   UNL d   1       1.578  -2.190   2.293  0.00  0.00     0.052 C 
ATOM     17 CL   UNL d   1       0.338  -2.093   5.086  0.00  0.00    -0.084 Cl
ATOM     18  C   UNL d   1      -0.668   0.221   4.214  0.00  0.00     0.024 A 
ATOM     19  C   UNL d   1      -0.921   1.220   3.282  0.00  0.00     0.003 A 
ATOM     20  C   UNL d   1      -0.402   1.107   1.994  0.00  0.00     0.025 A 
ENDBRANCH   1  13
TORSDOF 3
