REMARK  6 active torsions:
REMARK  status: ('A' for Active; 'I' for Inactive)
REMARK    1  A    between atoms: S_5  and  C_1 
REMARK    2  A    between atoms: S_7  and  C_1 
REMARK    3  A    between atoms: C_2  and  C_6 
REMARK    4  A    between atoms: C_12  and  S_5 
REMARK    5  A    between atoms: C_6  and  C_10 
REMARK    6  A    between atoms: C_10  and  S_7 
ROOT
ATOM      1  C   UNL d   1      -2.468   1.066  -2.093  0.00  0.00     0.169 C 
ATOM      2  O   UNL d   1      -3.552   1.482  -1.670  0.00  0.00    -0.291 OA
ENDROOT
BRANCH   1   3
ATOM      3  C   UNL d   1      -2.207   1.140  -3.562  0.00  0.00     0.012 A 
ATOM      4  C   UNL d   1      -0.926   1.177  -4.125  0.00  0.00     0.040 A 
ATOM      5  C   UNL d   1      -0.754   1.381  -5.500  0.00  0.00     0.056 A 
ATOM      6 CL   UNL d   1       0.869   1.515  -6.089  0.00  0.00    -0.083 Cl
ATOM      7  C   UNL d   1      -1.865   1.501  -6.341  0.00  0.00     0.055 A 
ATOM      8  C   UNL d   1      -3.147   1.408  -5.797  0.00  0.00     0.026 A 
ATOM      9 CL   UNL d   1      -1.721   1.779  -8.038  0.00  0.00    -0.083 Cl
ATOM     10  C   UNL d   1      -3.315   1.240  -4.418  0.00  0.00     0.017 A 
ENDBRANCH   1   3
BRANCH   1  11
ATOM     11  C   UNL d   1      -1.481   0.405  -1.142  0.00  0.00     0.164 C 
BRANCH  11  12
ATOM     12  S   UNL d   1      -0.001   1.409  -0.868  0.00  0.00    -0.104 SA
BRANCH  12  13
ATOM     13  C   UNL d   1       0.991   0.339   0.121  0.00  0.00     0.105 C 
ATOM     14  S   UNL d   1       1.217  -1.295  -0.177  0.00  0.00    -0.065 SA
BRANCH  13  15
ATOM     15  S   UNL d   1       1.663   1.138   1.534  0.00  0.00    -0.102 SA
BRANCH  15  16
ATOM     16  C   UNL d   1       3.337   1.697   0.997  0.00  0.00     0.003 C 
ATOM     17  C   UNL d   1       3.268   2.716  -0.147  0.00  0.00     0.026 C 
ATOM     18  C   UNL d   1       3.952   2.384   2.230  0.00  0.00     0.026 C 
ATOM     19  C   UNL d   1       4.238   0.523   0.601  0.00  0.00     0.026 C 
ENDBRANCH  15  16
ENDBRANCH  13  15
ENDBRANCH  12  13
ENDBRANCH  11  12
ENDBRANCH   1  11
TORSDOF 6
