REMARK  8 active torsions:
REMARK  status: ('A' for Active; 'I' for Inactive)
REMARK    1  A    between atoms: C_2  and  S_1 
REMARK    2  A    between atoms: C_3  and  S_1 
REMARK    3  A    between atoms: C_4  and  C_8 
REMARK    4  A    between atoms: C_5  and  C_9 
REMARK    5  A    between atoms: C_6  and  C_10 
REMARK    6  A    between atoms: C_7  and  C_11 
REMARK    7  A    between atoms: N_21  and  C_12 
REMARK    8  A    between atoms: C_22  and  N_21 
ROOT
ATOM      1  C   UNL d   1       0.393  -0.313   1.566  0.00  0.00     0.159 C 
ATOM      2  C   UNL d   1      -0.389   0.539   2.251  0.00  0.00     0.123 C 
ATOM      3  C   UNL d   1       0.857  -0.041   0.258  0.00  0.00     0.113 C 
ATOM      4  N   UNL d   1       1.233   0.220  -0.805  0.00  0.00    -0.191 NA
ENDROOT
BRANCH   1   5
ATOM      5  S   UNL d   1       0.791  -1.831   2.295  0.00  0.00     0.218 S 
ATOM      6  O   UNL d   1      -0.151  -2.839   1.847  0.00  0.00    -0.216 OA
ATOM      7  O   UNL d   1       1.032  -1.651   3.716  0.00  0.00    -0.216 OA
BRANCH   5   8
ATOM      8  C   UNL d   1       2.373  -2.265   1.584  0.00  0.00     0.066 A 
ATOM      9  C   UNL d   1       3.551  -1.865   2.224  0.00  0.00     0.040 A 
ATOM     10  C   UNL d   1       4.795  -2.237   1.693  0.00  0.00     0.050 A 
ATOM     11  C   UNL d   1       4.828  -3.014   0.520  0.00  0.00     0.032 A 
ATOM     12  C   UNL d   1       3.646  -3.438  -0.115  0.00  0.00     0.050 A 
ATOM     13  C   UNL d   1       2.413  -3.058   0.431  0.00  0.00     0.040 A 
BRANCH  10  14
ATOM     14  C   UNL d   1       6.089  -1.843   2.371  0.00  0.00     0.417 C 
ATOM     15  F   UNL d   1       5.904  -1.126   3.512  0.00  0.00    -0.166 F 
ATOM     16  F   UNL d   1       6.837  -2.924   2.720  0.00  0.00    -0.166 F 
ATOM     17  F   UNL d   1       6.879  -1.079   1.569  0.00  0.00    -0.166 F 
ENDBRANCH  10  14
BRANCH  12  18
ATOM     18  C   UNL d   1       3.721  -4.312  -1.347  0.00  0.00     0.417 C 
ATOM     19  F   UNL d   1       2.501  -4.667  -1.835  0.00  0.00    -0.166 F 
ATOM     20  F   UNL d   1       4.378  -3.708  -2.372  0.00  0.00    -0.166 F 
ATOM     21  F   UNL d   1       4.384  -5.476  -1.107  0.00  0.00    -0.166 F 
ENDBRANCH  12  18
ENDBRANCH   5   8
ENDBRANCH   1   5
BRANCH   2  22
ATOM     22  N   UNL d   1      -0.882   1.759   1.838  0.00  0.00    -0.364 N 
ATOM     23  H   UNL d   1      -0.772   2.000   0.854  0.00  0.00     0.165 HD
BRANCH  22  24
ATOM     24  C   UNL d   1      -1.690   2.636   2.578  0.00  0.00     0.033 A 
ATOM     25  C   UNL d   1      -1.612   2.729   3.971  0.00  0.00     0.045 A 
ATOM     26  C   UNL d   1      -2.518   3.510   4.707  0.00  0.00     0.050 A 
ATOM     27  C   UNL d   1      -3.525   4.209   4.025  0.00  0.00     0.032 A 
ATOM     28  C   UNL d   1      -3.628   4.131   2.627  0.00  0.00     0.050 A 
ATOM     29  C   UNL d   1      -2.694   3.356   1.918  0.00  0.00     0.045 A 
BRANCH  26  30
ATOM     30  C   UNL d   1      -2.408   3.533   6.212  0.00  0.00     0.417 C 
ATOM     31  F   UNL d   1      -3.380   4.267   6.819  0.00  0.00    -0.166 F 
ATOM     32  F   UNL d   1      -2.491   2.284   6.748  0.00  0.00    -0.166 F 
ATOM     33  F   UNL d   1      -1.223   4.046   6.639  0.00  0.00    -0.166 F 
ENDBRANCH  26  30
BRANCH  28  34
ATOM     34  C   UNL d   1      -4.750   4.814   1.881  0.00  0.00     0.417 C 
ATOM     35  F   UNL d   1      -5.639   5.445   2.696  0.00  0.00    -0.166 F 
ATOM     36  F   UNL d   1      -4.302   5.757   1.009  0.00  0.00    -0.166 F 
ATOM     37  F   UNL d   1      -5.482   3.936   1.140  0.00  0.00    -0.166 F 
ENDBRANCH  28  34
ENDBRANCH  22  24
ENDBRANCH   2  22
TORSDOF 8
