REMARK  3 active torsions:
REMARK  status: ('A' for Active; 'I' for Inactive)
REMARK       I    between atoms: N_2  and  C_1 
REMARK       I    between atoms: N_6  and  C_1 
REMARK    1  A    between atoms: C_3  and  C_7 
REMARK    2  A    between atoms: C_5  and  N_4 
REMARK    3  A    between atoms: C_16  and  N_6 
ROOT
ATOM      1  C   UNL d   1       0.891   0.064  -0.078  0.00  0.00     0.323 C 
ATOM      2  N   UNL d   1       0.266   1.305  -0.067  0.00  0.00    -0.331 N 
ATOM      3  N   UNL d   1      -0.681   3.977  -0.071  0.00  0.00    -0.364 N 
ATOM      4  N   UNL d   1       0.651  -0.718   1.026  0.00  0.00    -0.309 N 
ATOM      5  O   UNL d   1       1.618  -0.266  -1.013  0.00  0.00    -0.247 OA
ATOM      6  C   UNL d   1       0.473   2.170  -1.244  0.00  0.00     0.147 C 
ATOM      7  C   UNL d   1      -0.880   1.707   0.779  0.00  0.00     0.147 C 
ATOM      8  C   UNL d   1      -0.816   3.201   1.162  0.00  0.00     0.144 C 
ATOM      9  C   UNL d   1       0.505   3.661  -0.869  0.00  0.00     0.144 C 
ATOM     10  H   UNL d   1       0.277  -0.249   1.831  0.00  0.00     0.170 HD
ENDROOT
BRANCH   4  11
ATOM     11  C   UNL d   1       1.085  -2.043   1.253  0.00  0.00     0.037 A 
ATOM     12  C   UNL d   1       1.716  -2.835   0.292  0.00  0.00     0.053 A 
ATOM     13  C   UNL d   1       2.116  -4.136   0.614  0.00  0.00     0.036 A 
ATOM     14 CL   UNL d   1       2.905  -5.103  -0.574  0.00  0.00    -0.084 Cl
ATOM     15  C   UNL d   1       1.887  -4.658   1.881  0.00  0.00     0.024 A 
ATOM     16  C   UNL d   1       1.248  -3.878   2.843  0.00  0.00     0.004 A 
ATOM     17  C   UNL d   1       0.849  -2.576   2.528  0.00  0.00     0.029 A 
ENDBRANCH   4  11
BRANCH   3  18
ATOM     18  C   UNL d   1      -1.428   5.112  -0.249  0.00  0.00     0.103 A 
ATOM     19  C   UNL d   1      -1.750   5.551  -1.531  0.00  0.00     0.064 A 
ATOM     20  C   UNL d   1      -2.609   6.640  -1.716  0.00  0.00     0.052 A 
ATOM     21  C   UNL d   1      -3.098   7.296  -0.589  0.00  0.00     0.033 A 
ATOM     22  C   UNL d   1      -2.729   6.815   0.651  0.00  0.00     0.090 A 
ATOM     23  N   UNL d   1      -1.932   5.740   0.833  0.00  0.00    -0.352 N 
ATOM     24  HN  UNL d   1      -1.714   5.409   1.773  1.00  0.00     0.166 HD
BRANCH  20  25
ATOM     25  C   UNL d   1      -3.029   7.063  -3.095  0.00  0.00     0.417 C 
ATOM     26  F   UNL d   1      -2.492   6.300  -4.088  0.00  0.00    -0.166 F 
ATOM     27  F   UNL d   1      -4.379   6.999  -3.267  0.00  0.00    -0.166 F 
ATOM     28  F   UNL d   1      -2.676   8.346  -3.377  0.00  0.00    -0.166 F 
ENDBRANCH  20  25
ENDBRANCH   3  18
TORSDOF 3
