REMARK  2 active torsions:
REMARK  status: ('A' for Active; 'I' for Inactive)
REMARK    1  A    between atoms: N_2  and  C_1 
REMARK       I    between atoms: C_6  and  N_2 
REMARK    2  A    between atoms: C_7  and  N_2 
REMARK       I    between atoms: N_10  and  C_6 
ROOT
ATOM      1  N   UNL d   1       2.223   1.416  -0.240  0.00  0.00    -0.244 N 
ATOM      2  C   UNL d   1       3.505   0.836  -0.357  0.00  0.00     0.328 C 
ATOM      3  O   UNL d   1       4.525   1.290   0.162  0.00  0.00    -0.246 OA
ATOM      4  N   UNL d   1       3.551  -0.289  -1.161  0.00  0.00    -0.347 N 
ATOM      5  C   UNL d   1       4.774  -1.017  -1.402  0.00  0.00     0.151 C 
ATOM      6  H   UNL d   1       2.681  -0.756  -1.374  0.00  0.00     0.163 HD
ENDROOT
BRANCH   1   7
ATOM      7  C   UNL d   1       1.062   0.666  -0.033  0.00  0.00     0.151 C 
ATOM      8  N   UNL d   1      -0.135   1.073  -0.317  0.00  0.00    -0.369 N 
ATOM      9  C   UNL d   1      -1.131   0.027  -0.025  0.00  0.00     0.137 C 
ATOM     10  HN  UNL d   1      -0.358   1.994  -0.694  1.00  0.00     0.161 HD
ATOM     11  C   UNL d   1      -0.599  -0.922   1.041  0.00  0.00     0.069 C 
ATOM     12  S   UNL d   1       1.173  -0.935   0.679  0.00  0.00    -0.087 SA
ATOM     13  C   UNL d   1      -0.861  -0.420   2.455  0.00  0.00     0.023 C 
ENDBRANCH   1   7
BRANCH   1  14
ATOM     14  C   UNL d   1       2.160   2.869  -0.164  0.00  0.00     0.046 A 
ATOM     15  C   UNL d   1       3.162   3.668  -0.749  0.00  0.00     0.037 A 
ATOM     16  C   UNL d   1       3.135   5.072  -0.672  0.00  0.00    -0.060 A 
ATOM     17  C   UNL d   1       4.229   5.899  -1.280  0.00  0.00     0.048 C 
ATOM     18  C   UNL d   1       2.078   5.699  -0.010  0.00  0.00     0.007 A 
ATOM     19  C   UNL d   1       1.073   4.934   0.573  0.00  0.00     0.003 A 
ATOM     20  C   UNL d   1       1.119   3.538   0.501  0.00  0.00     0.030 A 
ENDBRANCH   1  14
TORSDOF 2
