REMARK  7 active torsions:
REMARK  status: ('A' for Active; 'I' for Inactive)
REMARK    1  A    between atoms: C_4  and  N_1 
REMARK    2  A    between atoms: C_6  and  O_7 
REMARK    3  A    between atoms: C_15  and  C_6 
REMARK    4  A    between atoms: O_7  and  C_12 
REMARK    5  A    between atoms: N_10  and  N_8 
REMARK    6  A    between atoms: C_14  and  C_19 
REMARK    7  A    between atoms: O_26  and  C_17 
ROOT
ATOM      1  N   UNL d   1       3.180  -0.101   0.043  0.00  0.00    -0.309 N 
ATOM      2  HN  UNL d   1       3.440  -0.678  -0.756  1.00  0.00     0.186 HD
ATOM      3  C   UNL d   1       3.989   0.298   0.974  0.00  0.00     0.121 C 
ENDROOT
BRANCH   1   4
ATOM      4  N   UNL d   1       1.899   0.382   0.304  0.00  0.00    -0.280 N 
ATOM      5  C   UNL d   1       0.949  -0.078  -0.443  0.00  0.00     0.169 C 
ATOM      6  N   UNL d   1      -0.319   0.457  -0.466  0.00  0.00    -0.258 N 
ATOM      7  S   UNL d   1       1.053  -1.466  -1.502  0.00  0.00    -0.083 SA
ATOM      8  C   UNL d   1      -1.268  -0.213  -1.218  0.00  0.00     0.240 C 
ATOM      9  C   UNL d   1      -0.716  -1.476  -1.820  0.00  0.00     0.186 C 
ATOM     10  O   UNL d   1      -2.426   0.143  -1.423  0.00  0.00    -0.272 OA
ATOM     11  HN  UNL d   1       1.721   1.060   1.045  1.00  0.00     0.189 HD
BRANCH   6  12
ATOM     12  C   UNL d   1      -0.650   1.683   0.175  0.00  0.00     0.077 A 
ATOM     13  C   UNL d   1       0.065   2.881  -0.018  0.00  0.00     0.095 A 
ATOM     14  C   UNL d   1      -0.300   4.032   0.695  0.00  0.00     0.039 A 
ATOM     15  C   UNL d   1      -1.375   4.010   1.583  0.00  0.00     0.003 A 
ATOM     16  C   UNL d   1      -2.094   2.834   1.769  0.00  0.00     0.002 A 
ATOM     17  C   UNL d   1      -1.742   1.685   1.060  0.00  0.00     0.033 A 
BRANCH  13  18
ATOM     18  O   UNL d   1       1.137   3.054  -0.854  0.00  0.00    -0.354 OA
ATOM     19  C   UNL d   1       0.897   2.711  -2.215  0.00  0.00     0.210 C 
ENDBRANCH  13  18
ENDBRANCH   6  12
ENDBRANCH   1   4
BRANCH   3  20
ATOM     20  C   UNL d   1       5.452   0.319   0.799  0.00  0.00     0.015 A 
ATOM     21  C   UNL d   1       6.277   0.640   1.884  0.00  0.00     0.091 A 
ATOM     22  C   UNL d   1       7.593   1.047   1.657  0.00  0.00     0.038 A 
ATOM     23  C   UNL d   1       8.091   1.088   0.351  0.00  0.00     0.003 A 
ATOM     24  C   UNL d   1       7.302   0.660  -0.718  0.00  0.00     0.001 A 
ATOM     25  C   UNL d   1       5.979   0.278  -0.497  0.00  0.00     0.015 A 
BRANCH  21  26
ATOM     26  O   UNL d   1       5.780   0.371   3.186  0.00  0.00    -0.274 OA
BRANCH  26  27
ATOM     27  C   UNL d   1       6.284   0.971   4.329  0.00  0.00     0.298 C 
ATOM     28  O   UNL d   1       6.939   2.000   4.383  0.00  0.00    -0.259 OA
BRANCH  27  29
ATOM     29  C   UNL d   1       5.932   0.164   5.534  0.00  0.00     0.040 A 
ATOM     30  C   UNL d   1       6.280   0.680   6.793  0.00  0.00     0.019 A 
ATOM     31  C   UNL d   1       6.010  -0.043   7.959  0.00  0.00     0.025 A 
ATOM     32  C   UNL d   1       5.396  -1.290   7.872  0.00  0.00     0.034 A 
ATOM     33  C   UNL d   1       5.050  -1.824   6.626  0.00  0.00     0.025 A 
ATOM     34 CL   UNL d   1       5.066  -2.183   9.306  0.00  0.00    -0.084 Cl
ATOM     35  C   UNL d   1       5.320  -1.094   5.458  0.00  0.00     0.019 A 
ENDBRANCH  27  29
ENDBRANCH  26  27
ENDBRANCH  21  26
ENDBRANCH   3  20
TORSDOF 7
