REMARK  4 active torsions:
REMARK  status: ('A' for Active; 'I' for Inactive)
REMARK       I    between atoms: N_2  and  C_1 
REMARK    1  A    between atoms: C_3  and  C_1 
REMARK       I    between atoms: C_4  and  N_2 
REMARK       I    between atoms: N_11  and  C_4 
REMARK    2  A    between atoms: C_5  and  C_8 
REMARK    3  A    between atoms: C_6  and  C_7 
REMARK    4  A    between atoms: C_10  and  N_11 
ROOT
ATOM      1  C   UNL d   1       0.931  -4.956   0.807  0.00  0.00     0.263 C 
ATOM      2  N   UNL d   1       0.373  -3.692   0.816  0.00  0.00    -0.275 N 
ATOM      3  C   UNL d   1       0.988  -2.466   0.750  0.00  0.00     0.327 C 
ATOM      4  N   UNL d   1       2.356  -2.481   0.584  0.00  0.00    -0.309 N 
ATOM      5  O   UNL d   1       2.144  -5.122   0.730  0.00  0.00    -0.267 OA
ATOM      6  O   UNL d   1       0.270  -1.471   0.810  0.00  0.00    -0.247 OA
ATOM      7  H   UNL d   1      -0.622  -3.586   0.944  0.00  0.00     0.173 HD
ATOM      8  H   UNL d   1       2.756  -3.401   0.408  0.00  0.00     0.170 HD
ENDROOT
BRANCH   4   9
ATOM      9  C   UNL d   1       3.172  -1.352   0.388  0.00  0.00     0.037 A 
ATOM     10  C   UNL d   1       2.752  -0.065   0.726  0.00  0.00     0.045 A 
ATOM     11  C   UNL d   1       3.498   1.063   0.358  0.00  0.00     0.050 A 
ATOM     12  C   UNL d   1       4.717   0.881  -0.305  0.00  0.00     0.032 A 
ATOM     13  C   UNL d   1       5.185  -0.408  -0.611  0.00  0.00     0.050 A 
ATOM     14  C   UNL d   1       4.414  -1.524  -0.231  0.00  0.00     0.045 A 
BRANCH  11  15
ATOM     15  C   UNL d   1       2.923   2.432   0.621  0.00  0.00     0.417 C 
ATOM     16  F   UNL d   1       3.663   3.440   0.083  0.00  0.00    -0.166 F 
ATOM     17  F   UNL d   1       1.672   2.575   0.100  0.00  0.00    -0.166 F 
ATOM     18  F   UNL d   1       2.812   2.714   1.948  0.00  0.00    -0.166 F 
ENDBRANCH  11  15
BRANCH  13  19
ATOM     19  C   UNL d   1       6.455  -0.599  -1.407  0.00  0.00     0.417 C 
ATOM     20  F   UNL d   1       7.011   0.573  -1.825  0.00  0.00    -0.166 F 
ATOM     21  F   UNL d   1       7.426  -1.246  -0.709  0.00  0.00    -0.166 F 
ATOM     22  F   UNL d   1       6.248  -1.332  -2.536  0.00  0.00    -0.166 F 
ENDBRANCH  13  19
ENDBRANCH   4   9
BRANCH   1  23
ATOM     23  C   UNL d   1      -0.008  -6.130   0.883  0.00  0.00     0.075 A 
ATOM     24  C   UNL d   1       0.362  -7.354   0.285  0.00  0.00     0.051 A 
ATOM     25 CL   UNL d   1       1.747  -7.557  -0.738  0.00  0.00    -0.083 Cl
ATOM     26  C   UNL d   1      -0.432  -8.502   0.440  0.00  0.00     0.025 A 
ATOM     27  C   UNL d   1      -1.619  -8.450   1.160  0.00  0.00     0.003 A 
ATOM     28  C   UNL d   1      -2.027  -7.243   1.712  0.00  0.00     0.025 A 
ATOM     29  C   UNL d   1      -1.234  -6.092   1.581  0.00  0.00     0.051 A 
ATOM     30 CL   UNL d   1      -1.876  -4.679   2.352  0.00  0.00    -0.083 Cl
ENDBRANCH   1  23
TORSDOF 4
