REMARK  8 active torsions:
REMARK  status: ('A' for Active; 'I' for Inactive)
REMARK    1  A    between atoms: N_5  and  C_1 
REMARK    2  A    between atoms: N_6  and  C_4 
REMARK       I    between atoms: C_7  and  N_6 
REMARK    3  A    between atoms: C_11  and  C_7 
REMARK    4  A    between atoms: O_19  and  C_8 
REMARK    5  A    between atoms: C_9  and  C_11 
REMARK    6  A    between atoms: C_14  and  C_9 
REMARK    7  A    between atoms: C_10  and  C_14 
REMARK    8  A    between atoms: O_18  and  C_10 
ROOT
ATOM      1  C   UNL d   1      -0.786   1.103  -0.754  0.00  0.00     0.112 A 
ATOM      2  N   UNL d   1      -1.715   0.119  -0.692  0.00  0.00    -0.326 N 
ATOM      3  HN  UNL d   1      -2.515   0.107  -1.325  1.00  0.00     0.169 HD
ATOM      4  C   UNL d   1       0.327   1.123   0.127  0.00  0.00     0.073 A 
ATOM      5  C   UNL d   1      -1.542  -0.848   0.241  0.00  0.00     0.142 A 
ATOM      6  C   UNL d   1       0.478   0.104   1.063  0.00  0.00     0.037 A 
ATOM      7  C   UNL d   1      -0.486  -0.890   1.134  0.00  0.00     0.058 A 
ENDROOT
BRANCH   4   8
ATOM      8  N   UNL d   1       1.191   2.245   0.134  0.00  0.00    -0.324 N 
ATOM      9  C   UNL d   1       2.554   2.182   0.342  0.00  0.00     0.223 C 
ATOM     10  O   UNL d   1       3.198   1.146   0.470  0.00  0.00    -0.273 OA
ATOM     11  H   UNL d   1       0.799   3.064  -0.318  0.00  0.00     0.169 HD
BRANCH   9  12
ATOM     12  C   UNL d   1       3.224   3.550   0.359  0.00  0.00     0.113 C 
BRANCH  12  13
ATOM     13  C   UNL d   1       4.446   3.702  -0.592  0.00  0.00    -0.023 C 
ATOM     14  C   UNL d   1       5.601   2.751  -0.227  0.00  0.00     0.010 C 
ATOM     15  C   UNL d   1       6.881   3.458  -0.659  0.00  0.00     0.001 C 
ATOM     16  C   UNL d   1       6.589   4.947  -0.550  0.00  0.00     0.001 C 
ATOM     17  C   UNL d   1       5.085   5.087  -0.333  0.00  0.00     0.010 C 
BRANCH  13  18
ATOM     18  C   UNL d   1       3.948   3.569  -2.053  0.00  0.00     0.119 C 
BRANCH  18  19
ATOM     19  C   UNL d   1       4.983   3.443  -3.141  0.00  0.00     0.140 C 
ATOM     20  O   UNL d   1       5.471   4.393  -3.728  0.00  0.00    -0.650 OA
BRANCH  19  21
ATOM     21  O   UNL d   1       5.313   2.160  -3.419  0.00  0.00    -0.776 OA
ATOM     22  H   UNL d   1       4.880   1.488  -2.850  0.00  0.00     0.167 HD
ENDBRANCH  19  21
ENDBRANCH  18  19
ENDBRANCH  13  18
ENDBRANCH  12  13
ENDBRANCH   9  12
ENDBRANCH   4   8
BRANCH   1  23
ATOM     23  N   UNL d   1      -0.952   2.162  -1.664  0.00  0.00    -0.263 NA
ATOM     24  C   UNL d   1      -2.292   2.287  -2.272  0.00  0.00     0.123 C 
ATOM     25  C   UNL d   1      -2.384   3.690  -2.908  0.00  0.00     0.182 C 
ATOM     26  O   UNL d   1      -1.328   3.933  -3.860  0.00  0.00    -0.389 OA
ATOM     27  C   UNL d   1      -0.035   3.721  -3.269  0.00  0.00     0.182 C 
ATOM     28  C   UNL d   1       0.080   2.291  -2.716  0.00  0.00     0.123 C 
ENDBRANCH   1  23
BRANCH   5  29
ATOM     29  O   UNL d   1      -2.478  -1.855   0.389  0.00  0.00    -0.341 OA
ATOM     30  C   UNL d   1      -3.384  -1.950  -0.701  0.00  0.00     0.211 C 
ENDBRANCH   5  29
TORSDOF 8
