REMARK  3 active torsions:
REMARK  status: ('A' for Active; 'I' for Inactive)
REMARK    1  A    between atoms: C_2  and  C_1 
REMARK    2  A    between atoms: C_16  and  C_5 
REMARK    3  A    between atoms: C_15  and  C_10 
ROOT
ATOM      1  N   UNL d   1      -2.030  -7.187   0.503  0.00  0.00    -0.197 NA
ATOM      2  C   UNL d   1      -1.341  -6.666  -0.274  0.00  0.00     0.065 C 
ATOM      3  C   UNL d   1      -0.459  -6.029  -1.264  0.00  0.00     0.188 C 
ENDROOT
BRANCH   3   4
ATOM      4  C   UNL d   1       0.171  -4.807  -0.678  0.00  0.00     0.064 A 
ATOM      5  N   UNL d   1      -0.309  -3.589  -0.819  0.00  0.00    -0.352 N 
ATOM      6  C   UNL d   1       0.448  -2.685  -0.099  0.00  0.00     0.054 A 
ATOM      7  HN  UNL d   1      -1.125  -3.347  -1.380  1.00  0.00     0.166 HD
ATOM      8  C   UNL d   1       1.561  -3.222   0.514  0.00  0.00     0.082 A 
ATOM      9  S   UNL d   1       1.624  -4.914   0.238  0.00  0.00    -0.085 SA
BRANCH   6  10
ATOM     10  C   UNL d   1       0.011  -1.292  -0.047  0.00  0.00     0.052 A 
ATOM     11  C   UNL d   1      -1.335  -0.801  -0.011  0.00  0.00     0.080 A 
ATOM     12  N   UNL d   1      -1.322   0.546  -0.013  0.00  0.00    -0.259 N 
ATOM     13  O   UNL d   1      -0.001   0.932  -0.010  0.00  0.00    -0.241 OA
ATOM     14  HN  UNL d   1      -2.135   1.161  -0.016  1.00  0.00     0.195 HD
ATOM     15  C   UNL d   1       0.798  -0.164  -0.018  0.00  0.00     0.087 A 
ATOM     16  C   UNL d   1       2.251   0.094  -0.012  0.00  0.00     0.080 C 
BRANCH  11  17
ATOM     17  C   UNL d   1      -2.614  -1.522   0.048  0.00  0.00    -0.007 A 
ATOM     18  C   UNL d   1      -3.757  -0.992  -0.573  0.00  0.00     0.014 A 
ATOM     19  C   UNL d   1      -4.972  -1.685  -0.544  0.00  0.00     0.001 A 
ATOM     20  C   UNL d   1      -5.059  -2.917   0.101  0.00  0.00     0.000 A 
ATOM     21  C   UNL d   1      -3.942  -3.442   0.743  0.00  0.00     0.001 A 
ATOM     22  C   UNL d   1      -2.737  -2.737   0.736  0.00  0.00     0.014 A 
ENDBRANCH  11  17
ENDBRANCH   6  10
ENDBRANCH   3   4
TORSDOF 3
