REMARK  3 active torsions:
REMARK  status: ('A' for Active; 'I' for Inactive)
REMARK    1  A    between atoms: C_4  and  C_1 
REMARK       I    between atoms: N_8  and  C_4 
REMARK    2  A    between atoms: C_10  and  N_8 
REMARK    3  A    between atoms: C_12  and  C_10 
ROOT
ATOM      1  C   UNL d   1      -0.016   2.418   0.044  0.00  0.00     0.256 C 
ATOM      2  N   UNL d   1      -1.022   3.351   0.156  0.00  0.00    -0.352 N 
ATOM      3  O   UNL d   1      -0.276   1.220  -0.058  0.00  0.00    -0.267 OA
ATOM      4  H   UNL d   1      -0.821   4.327   0.301  0.00  0.00     0.163 HD
ENDROOT
BRANCH   1   5
ATOM      5  C   UNL d   1       1.361   2.888   0.048  0.00  0.00     0.087 A 
ATOM      6  C   UNL d   1       2.444   2.023   0.032  0.00  0.00     0.090 A 
ATOM      7  O   UNL d   1       3.602   2.724   0.013  0.00  0.00    -0.242 OA
ATOM      8  C   UNL d   1       2.577   0.550   0.023  0.00  0.00     0.080 C 
ATOM      9  N   UNL d   1       3.322   4.069   0.013  0.00  0.00    -0.265 N 
ATOM     10  C   UNL d   1       1.985   4.172   0.029  0.00  0.00     0.047 A 
ATOM     11  HN  UNL d   1       3.995   4.835   0.003  1.00  0.00     0.194 HD
ATOM     12  C   UNL d   1       1.403   5.534   0.004  0.00  0.00     0.071 C 
ENDBRANCH   1   5
BRANCH   2  13
ATOM     13  C   UNL d   1      -2.410   2.961  -0.006  0.00  0.00     0.161 C 
BRANCH  13  14
ATOM     14  C   UNL d   1      -3.187   2.781   1.280  0.00  0.00    -0.040 A 
ATOM     15  C   UNL d   1      -4.582   2.964   1.255  0.00  0.00     0.010 A 
ATOM     16  C   UNL d   1      -5.360   2.730   2.393  0.00  0.00     0.024 A 
ATOM     17  C   UNL d   1      -4.752   2.302   3.568  0.00  0.00     0.034 A 
ATOM     18  C   UNL d   1      -3.375   2.098   3.611  0.00  0.00     0.024 A 
ATOM     19 CL   UNL d   1      -5.708   2.007   4.968  0.00  0.00    -0.084 Cl
ATOM     20  C   UNL d   1      -2.598   2.327   2.469  0.00  0.00     0.010 A 
ENDBRANCH  13  14
ENDBRANCH   2  13
TORSDOF 3
