REMARK  5 active torsions:
REMARK  status: ('A' for Active; 'I' for Inactive)
REMARK    1  A    between atoms: C_8  and  C_1 
REMARK    2  A    between atoms: C_9  and  C_2 
REMARK    3  A    between atoms: N_7  and  C_3 
REMARK       I    between atoms: C_10  and  N_7 
REMARK    4  A    between atoms: C_14  and  C_10 
REMARK    5  A    between atoms: C_11  and  C_12 
ROOT
ATOM      1  C   UNL d   1       1.634   0.921  -0.189  0.00  0.00     0.147 A 
ATOM      2  C   UNL d   1       1.621  -0.505  -0.059  0.00  0.00     0.053 A 
ATOM      3  C   UNL d   1       0.276  -0.856  -0.018  0.00  0.00     0.138 A 
ATOM      4  N   UNL d   1       0.379   1.401  -0.236  0.00  0.00    -0.292 N 
ATOM      5  HN  UNL d   1       0.094   2.379  -0.292  1.00  0.00     0.187 HD
ATOM      6  N   UNL d   1      -0.423   0.319  -0.194  0.00  0.00    -0.280 N 
ATOM      7  C   UNL d   1      -1.845   0.570  -0.169  0.00  0.00     0.179 C 
ENDROOT
BRANCH   2   8
ATOM      8  C   UNL d   1       2.734  -1.452  -0.102  0.00  0.00    -0.019 A 
ATOM      9  C   UNL d   1       2.669  -2.595  -0.921  0.00  0.00     0.028 A 
ATOM     10  C   UNL d   1       3.761  -3.474  -1.043  0.00  0.00     0.048 A 
ATOM     11  C   UNL d   1       4.952  -3.161  -0.379  0.00  0.00     0.016 A 
ATOM     12  C   UNL d   1       5.030  -2.031   0.434  0.00  0.00     0.002 A 
ATOM     13  C   UNL d   1       3.920  -1.199   0.595  0.00  0.00     0.012 A 
BRANCH  10  14
ATOM     14  C   UNL d   1       3.676  -4.725  -1.885  0.00  0.00     0.417 C 
ATOM     15  F   UNL d   1       2.430  -4.939  -2.392  0.00  0.00    -0.166 F 
ATOM     16  F   UNL d   1       4.516  -4.705  -2.950  0.00  0.00    -0.166 F 
ATOM     17  F   UNL d   1       3.979  -5.846  -1.174  0.00  0.00    -0.166 F 
ENDBRANCH  10  14
ENDBRANCH   2   8
BRANCH   1  18
ATOM     18  C   UNL d   1       2.828   1.845  -0.257  0.00  0.00     0.434 C 
ATOM     19  F   UNL d   1       3.899   1.268  -0.865  0.00  0.00    -0.165 F 
ATOM     20  F   UNL d   1       2.578   2.993  -0.938  0.00  0.00    -0.165 F 
ATOM     21  F   UNL d   1       3.241   2.204   0.989  0.00  0.00    -0.165 F 
ENDBRANCH   1  18
BRANCH   3  22
ATOM     22  N   UNL d   1      -0.147  -2.169   0.205  0.00  0.00    -0.310 N 
ATOM     23  C   UNL d   1      -1.298  -2.774  -0.401  0.00  0.00     0.231 C 
ATOM     24  O   UNL d   1      -2.022  -2.088  -1.115  0.00  0.00    -0.272 OA
ATOM     25  H   UNL d   1       0.513  -2.757   0.698  0.00  0.00     0.170 HD
BRANCH  23  26
ATOM     26  C   UNL d   1      -1.454  -4.292  -0.237  0.00  0.00     0.030 C 
ATOM     27  C   UNL d   1      -0.862  -4.817   1.077  0.00  0.00     0.025 C 
ATOM     28  C   UNL d   1      -2.948  -4.650  -0.281  0.00  0.00     0.025 C 
ATOM     29  C   UNL d   1      -0.745  -4.975  -1.416  0.00  0.00     0.025 C 
ENDBRANCH  23  26
ENDBRANCH   3  22
TORSDOF 5
