REMARK  5 active torsions:
REMARK  status: ('A' for Active; 'I' for Inactive)
REMARK    1  A    between atoms: C_8  and  N_1 
REMARK    2  A    between atoms: C_4  and  C_10 
REMARK    3  A    between atoms: C_19  and  C_5 
REMARK    4  A    between atoms: O_12  and  C_19 
REMARK    5  A    between atoms: C_13  and  O_12 
ROOT
ATOM      1  N   UNL d   1      -2.566  -5.295   1.804  0.00  0.00    -0.351 N 
ATOM      2  HN  UNL d   1      -2.450  -4.797   2.686  1.00  0.00     0.166 HD
ATOM      3  C   UNL d   1      -2.055  -4.878   0.583  0.00  0.00     0.049 A 
ATOM      4  C   UNL d   1      -3.224  -6.430   1.658  0.00  0.00     0.075 A 
ATOM      5  S   UNL d   1      -3.245  -7.064   0.055  0.00  0.00    -0.084 SA
ATOM      6  C   UNL d   1      -2.295  -5.740  -0.469  0.00  0.00     0.082 A 
ENDROOT
BRANCH   3   7
ATOM      7  C   UNL d   1      -1.297  -3.636   0.457  0.00  0.00    -0.009 A 
ATOM      8  C   UNL d   1      -0.574  -3.143   1.555  0.00  0.00     0.016 A 
ATOM      9  C   UNL d   1       0.160  -1.957   1.455  0.00  0.00     0.037 A 
ATOM     10  C   UNL d   1       0.168  -1.248   0.247  0.00  0.00     0.102 A 
ATOM     11  C   UNL d   1      -0.555  -1.719  -0.854  0.00  0.00     0.037 A 
ATOM     12  C   UNL d   1      -1.283  -2.908  -0.744  0.00  0.00     0.016 A 
BRANCH  10  13
ATOM     13  N   UNL d   1       0.934   0.000   0.134  0.00  0.00    -0.116 N 
ATOM     14  O   UNL d   1       0.908   0.595  -0.954  0.00  0.00    -0.532 OA
ATOM     15  O   UNL d   1       1.561   0.385   1.130  0.00  0.00    -0.532 OA
ENDBRANCH  10  13
ENDBRANCH   3   7
BRANCH   4  16
ATOM     16  C   UNL d   1      -3.853  -7.218   2.774  0.00  0.00     0.240 C 
BRANCH  16  17
ATOM     17  O   UNL d   1      -5.225  -6.844   2.861  0.00  0.00    -0.343 OA
BRANCH  17  18
ATOM     18  C   UNL d   1      -6.003  -7.352   3.868  0.00  0.00     0.090 A 
ATOM     19  C   UNL d   1      -5.749  -8.381   4.790  0.00  0.00     0.067 A 
ATOM     20 CL   UNL d   1      -4.300  -9.320   4.881  0.00  0.00    -0.081 Cl
ATOM     21  C   UNL d   1      -6.729  -8.737   5.733  0.00  0.00     0.026 A 
ATOM     22  C   UNL d   1      -7.959  -8.086   5.774  0.00  0.00     0.002 A 
ATOM     23  C   UNL d   1      -8.223  -7.070   4.866  0.00  0.00     0.003 A 
ATOM     24  C   UNL d   1      -7.255  -6.712   3.924  0.00  0.00     0.038 A 
ENDBRANCH  17  18
ENDBRANCH  16  17
ENDBRANCH   4  16
TORSDOF 5
