REMARK  9 active torsions:
REMARK  status: ('A' for Active; 'I' for Inactive)
REMARK    1  A    between atoms: C_3  and  S_1 
REMARK    2  A    between atoms: N_8  and  S_1 
REMARK    3  A    between atoms: C_4  and  N_2 
REMARK    4  A    between atoms: N_5  and  C_20 
REMARK    5  A    between atoms: C_22  and  N_8 
REMARK    6  A    between atoms: O_19  and  C_11 
REMARK    7  A    between atoms: C_20  and  C_26 
REMARK    8  A    between atoms: C_27  and  C_22 
REMARK    9  A    between atoms: C_26  and  C_27 
ROOT
ATOM      1  C   UNL d   1       6.912  -0.682  -2.356  0.00  0.00     0.272 C 
ENDROOT
BRANCH   1   2
ATOM      2  N   UNL d   1       7.242  -1.367  -3.611  0.00  0.00     0.091 N 
ATOM      3  C   UNL d   1       6.697  -0.688  -4.808  0.00  0.00     0.292 C 
ATOM      4  C   UNL d   1       7.415   0.618  -5.216  0.00  0.00     0.153 C 
ATOM      5  N   UNL d   1       8.846   0.354  -5.448  0.00  0.00    -0.375 N 
ATOM      6  C   UNL d   1       9.498  -0.256  -4.272  0.00  0.00     0.153 C 
ATOM      7  C   UNL d   1       8.711  -1.517  -3.801  0.00  0.00     0.292 C 
BRANCH   5   8
ATOM      8  C   UNL d   1       9.542   1.008  -6.468  0.00  0.00     0.064 A 
ATOM      9  C   UNL d   1      10.800   0.594  -6.991  0.00  0.00     0.094 A 
ATOM     10  C   UNL d   1      11.361   1.236  -8.118  0.00  0.00     0.039 A 
ATOM     11  C   UNL d   1      10.726   2.307  -8.736  0.00  0.00     0.003 A 
ATOM     12  C   UNL d   1       9.524   2.758  -8.227  0.00  0.00     0.002 A 
ATOM     13  C   UNL d   1       8.958   2.125  -7.115  0.00  0.00     0.032 A 
BRANCH   9  14
ATOM     14  O   UNL d   1      11.420  -0.512  -6.449  0.00  0.00    -0.354 OA
ATOM     15  C   UNL d   1      12.840  -0.559  -6.580  0.00  0.00     0.210 C 
ENDBRANCH   9  14
ENDBRANCH   5   8
ENDBRANCH   1   2
BRANCH   1  16
ATOM     16  C   UNL d   1       5.400  -0.646  -2.054  0.00  0.00     0.032 C 
BRANCH  16  17
ATOM     17  C   UNL d   1       4.711  -2.019  -1.984  0.00  0.00     0.022 C 
BRANCH  17  18
ATOM     18  C   UNL d   1       5.279  -2.962  -0.924  0.00  0.00     0.132 C 
BRANCH  18  19
ATOM     19  N   UNL d   1       5.137  -2.365   0.410  0.00  0.00    -0.315 N 
ATOM     20  H   UNL d   1       5.266  -1.360   0.501  0.00  0.00     0.172 HD
BRANCH  19  21
ATOM     21  S   UNL d   1       5.794  -3.164   1.736  0.00  0.00     0.258 S 
ATOM     22  O   UNL d   1       5.489  -2.358   2.891  0.00  0.00    -0.201 OA
ATOM     23  O   UNL d   1       5.429  -4.564   1.655  0.00  0.00    -0.201 OA
BRANCH  21  24
ATOM     24  C   UNL d   1       7.539  -3.025   1.427  0.00  0.00     0.079 A 
ATOM     25  C   UNL d   1       8.236  -1.916   1.916  0.00  0.00     0.026 A 
ATOM     26  C   UNL d   1       9.613  -1.825   1.706  0.00  0.00     0.008 A 
ATOM     27  C   UNL d   1      10.295  -2.836   1.014  0.00  0.00    -0.062 A 
ATOM     28  C   UNL d   1       9.581  -3.940   0.530  0.00  0.00     0.008 A 
ATOM     29  C   UNL d   1      11.781  -2.744   0.830  0.00  0.00     0.048 C 
ATOM     30  C   UNL d   1       8.207  -4.042   0.744  0.00  0.00     0.026 A 
ENDBRANCH  21  24
ENDBRANCH  19  21
ENDBRANCH  18  19
ENDBRANCH  17  18
ENDBRANCH  16  17
ENDBRANCH   1  16
TORSDOF 9
