REMARK  6 active torsions:
REMARK  status: ('A' for Active; 'I' for Inactive)
REMARK    1  A    between atoms: C_2  and  N_1 
REMARK    2  A    between atoms: C_3  and  C_5 
REMARK    3  A    between atoms: C_6  and  C_7 
REMARK    4  A    between atoms: C_8  and  C_9 
REMARK    5  A    between atoms: N_19  and  C_8 
REMARK    6  A    between atoms: O_20  and  N_12 
ROOT
ATOM      1  C   UNL d   1       2.301  -5.665  -2.957  0.00  0.00     0.114 A 
ATOM      2  C   UNL d   1       3.033  -6.255  -4.001  0.00  0.00     0.053 A 
ATOM      3  C   UNL d   1       2.557  -7.426  -4.609  0.00  0.00     0.050 A 
ATOM      4  C   UNL d   1       1.084  -6.199  -2.510  0.00  0.00    -0.003 A 
ATOM      5  C   UNL d   1       1.353  -7.984  -4.148  0.00  0.00     0.017 A 
ATOM      6  C   UNL d   1       0.624  -7.375  -3.119  0.00  0.00     0.014 A 
ENDROOT
BRANCH   4   7
ATOM      7  C   UNL d   1       0.249  -5.586  -1.471  0.00  0.00     0.017 C 
ATOM      8  C   UNL d   1      -0.771  -4.775  -1.786  0.00  0.00     0.044 C 
BRANCH   8   9
ATOM      9  C   UNL d   1      -1.646  -4.152  -0.751  0.00  0.00     0.098 C 
ATOM     10  N   UNL d   1      -2.564  -3.330  -1.189  0.00  0.00    -0.258 N 
ATOM     11  HN  UNL d   1      -2.693  -3.077  -2.169  1.00  0.00     0.195 HD
BRANCH  10  12
ATOM     12  O   UNL d   1      -3.350  -2.842  -0.130  0.00  0.00    -0.289 OA
ATOM     13  H   UNL d   1      -3.920  -2.193  -0.583  0.00  0.00     0.244 HD
ENDBRANCH  10  12
BRANCH   9  14
ATOM     14  N   UNL d   1      -1.520  -4.439   0.584  0.00  0.00    -0.287 NA
ATOM     15  H   UNL d   1      -1.343  -5.408   0.811  0.00  0.00     0.125 HD
ATOM     16  H   UNL d   1      -2.322  -4.065   1.087  0.00  0.00     0.125 HD
ENDBRANCH   9  14
ENDBRANCH   8   9
ENDBRANCH   4   7
BRANCH   1  17
ATOM     17  N   UNL d   1       2.863  -4.480  -2.330  0.00  0.00    -0.115 N 
ATOM     18  O   UNL d   1       3.136  -3.529  -3.076  0.00  0.00    -0.532 OA
ATOM     19  O   UNL d   1       3.080  -4.530  -1.113  0.00  0.00    -0.532 OA
ENDBRANCH   1  17
BRANCH   3  20
ATOM     20  C   UNL d   1       3.312  -8.091  -5.737  0.00  0.00     0.417 C 
ATOM     21  F   UNL d   1       4.438  -7.420  -6.103  0.00  0.00    -0.166 F 
ATOM     22  F   UNL d   1       3.712  -9.351  -5.418  0.00  0.00    -0.166 F 
ATOM     23  F   UNL d   1       2.559  -8.208  -6.865  0.00  0.00    -0.166 F 
ENDBRANCH   3  20
TORSDOF 6
