REMARK  1 active torsions:
REMARK  status: ('A' for Active; 'I' for Inactive)
REMARK    1  A    between atoms: S_8  and  C_3 
ROOT
ATOM      1  N   UNL d   1      -1.618  -1.140  -0.003  0.00  0.00    -0.335 N 
ATOM      2  HN  UNL d   1      -1.939  -2.108  -0.004  1.00  0.00     0.168 HD
ATOM      3  C   UNL d   1      -2.348  -0.053  -0.001  0.00  0.00     0.142 A 
ATOM      4  N   UNL d   1      -1.598   1.083  -0.000  0.00  0.00    -0.335 N 
ATOM      5  C   UNL d   1      -0.319  -0.682  -0.004  0.00  0.00     0.061 A 
ATOM      6  C   UNL d   1      -0.279   0.710  -0.002  0.00  0.00     0.061 A 
ATOM      7  C   UNL d   1       0.888  -1.400  -0.006  0.00  0.00     0.038 A 
ATOM      8  C   UNL d   1       0.907   1.444  -0.002  0.00  0.00     0.032 A 
ATOM      9  C   UNL d   1       2.104  -0.694  -0.006  0.00  0.00    -0.060 A 
ATOM     10  C   UNL d   1       2.099   0.710  -0.004  0.00  0.00     0.009 A 
ATOM     11  C   UNL d   1       3.414  -1.429  -0.010  0.00  0.00     0.048 C 
ATOM     12  H   UNL d   1      -1.962   2.023   0.002  0.00  0.00     0.168 HD
ENDROOT
BRANCH   3  13
ATOM     13  S   UNL d   1      -4.064   0.035   0.002  0.00  0.00    -0.107 SA
ATOM     14  H   UNL d   1      -4.286  -1.287   0.002  0.00  0.00     0.110 HD
ENDBRANCH   3  13
TORSDOF 1
