REMARK  2 active torsions:
REMARK  status: ('A' for Active; 'I' for Inactive)
REMARK    1  A    between atoms: O_2  and  C_1 
REMARK    2  A    between atoms: C_5  and  O_2 
ROOT
ATOM      1  C   UNL d   1      -0.680   1.669  -0.068  0.00  0.00     0.090 A 
ATOM      2  N   UNL d   1      -1.103  -1.067   0.190  0.00  0.00    -0.359 N 
ATOM      3  HN  UNL d   1      -1.269  -2.071   0.257  1.00  0.00     0.166 HD
ATOM      4  C   UNL d   1       0.423   0.790  -0.019  0.00  0.00     0.025 A 
ATOM      5  C   UNL d   1       0.148  -0.584   0.106  0.00  0.00     0.045 A 
ATOM      6  C   UNL d   1      -1.972   1.174   0.085  0.00  0.00     0.062 A 
ATOM      7  C   UNL d   1      -2.139  -0.199   0.183  0.00  0.00     0.008 A 
ATOM      8  C   UNL d   1       1.768   1.225  -0.102  0.00  0.00     0.016 A 
ATOM      9  C   UNL d   1       1.216  -1.473   0.134  0.00  0.00     0.030 A 
ATOM     10  C   UNL d   1      -3.518  -0.788   0.244  0.00  0.00     0.068 C 
ATOM     11  C   UNL d   1       2.820   0.314  -0.062  0.00  0.00     0.001 A 
ATOM     12  C   UNL d   1       2.543  -1.042   0.051  0.00  0.00     0.002 A 
ENDROOT
BRANCH   1  13
ATOM     13  O   UNL d   1      -0.386   3.004  -0.260  0.00  0.00    -0.309 OA
BRANCH  13  14
ATOM     14  C   UNL d   1      -1.305   3.855  -0.837  0.00  0.00     0.088 A 
ATOM     15  C   UNL d   1      -1.528   5.071  -0.159  0.00  0.00    -0.028 A 
ATOM     16  C   UNL d   1      -2.389   6.024  -0.722  0.00  0.00     0.009 A 
ATOM     17  C   UNL d   1      -0.820   5.424   1.121  0.00  0.00     0.051 C 
ATOM     18  C   UNL d   1      -3.025   5.775  -1.934  0.00  0.00     0.001 A 
ATOM     19  C   UNL d   1      -2.781   4.584  -2.614  0.00  0.00     0.009 A 
ATOM     20  C   UNL d   1      -1.892   3.625  -2.099  0.00  0.00    -0.028 A 
ATOM     21  C   UNL d   1      -1.635   2.401  -2.934  0.00  0.00     0.051 C 
ENDBRANCH  13  14
ENDBRANCH   1  13
TORSDOF 2
