REMARK  4 active torsions:
REMARK  status: ('A' for Active; 'I' for Inactive)
REMARK    1  A    between atoms: C_10  and  C_3 
REMARK    2  A    between atoms: C_8  and  C_4 
REMARK    3  A    between atoms: O_17  and  C_11 
REMARK    4  A    between atoms: O_18  and  C_14 
ROOT
ATOM      1  N   UNL d   1       0.785   0.062   0.705  0.00  0.00    -0.317 N 
ATOM      2  HN  UNL d   1       1.401   0.127   1.515  1.00  0.00     0.169 HD
ATOM      3  C   UNL d   1      -0.014   1.043   0.151  0.00  0.00     0.154 A 
ATOM      4  C   UNL d   1       0.556  -0.975  -0.066  0.00  0.00     0.182 A 
ATOM      5  N   UNL d   1      -0.711   0.625  -0.923  0.00  0.00    -0.241 N 
ATOM      6  HN  UNL d   1      -1.364   1.159  -1.497  1.00  0.00     0.196 HD
ATOM      7  O   UNL d   1      -0.332  -0.709  -1.067  0.00  0.00    -0.217 OA
ENDROOT
BRANCH   4   8
ATOM      8  C   UNL d   1       1.088  -2.329   0.026  0.00  0.00     0.020 A 
ATOM      9  C   UNL d   1       1.913  -2.662   1.115  0.00  0.00     0.055 A 
ATOM     10  C   UNL d   1       2.440  -3.953   1.283  0.00  0.00     0.102 A 
ATOM     11  C   UNL d   1       2.146  -4.932   0.318  0.00  0.00     0.101 A 
ATOM     12  C   UNL d   1       1.329  -4.597  -0.772  0.00  0.00     0.040 A 
ATOM     13  C   UNL d   1       0.801  -3.313  -0.920  0.00  0.00     0.019 A 
BRANCH  10  14
ATOM     14  O   UNL d   1       3.221  -4.301   2.353  0.00  0.00    -0.353 OA
ATOM     15  C   UNL d   1       3.511  -3.309   3.330  0.00  0.00     0.210 C 
ENDBRANCH  10  14
BRANCH  11  16
ATOM     16  O   UNL d   1       2.554  -6.239   0.268  0.00  0.00    -0.353 OA
ATOM     17  C   UNL d   1       3.400  -6.738   1.292  0.00  0.00     0.210 C 
ENDBRANCH  11  16
ENDBRANCH   4   8
BRANCH   3  18
ATOM     18  C   UNL d   1      -0.087   2.402   0.697  0.00  0.00     0.078 A 
ATOM     19  N   UNL d   1       0.733   2.687   1.745  0.00  0.00    -0.363 N 
ATOM     20  C   UNL d   1       0.681   3.936   2.257  0.00  0.00     0.088 A 
ATOM     21  HN  UNL d   1       1.364   1.983   2.129  1.00  0.00     0.165 HD
ATOM     22  C   UNL d   1      -0.155   4.929   1.779  0.00  0.00     0.017 A 
ATOM     23  C   UNL d   1      -0.990   4.628   0.711  0.00  0.00     0.004 A 
ATOM     24  C   UNL d   1      -0.959   3.348   0.160  0.00  0.00     0.033 A 
ENDBRANCH   3  18
TORSDOF 4
