REMARK  1 active torsions:
REMARK  status: ('A' for Active; 'I' for Inactive)
REMARK    1  A    between atoms: N_2  and  C_1 
REMARK       I    between atoms: C_3  and  N_2 
ROOT
ATOM      1  C   UNL d   1       0.236   0.959   0.006  0.00  0.00     0.112 A 
ATOM      2  C   UNL d   1       1.334   0.094   0.003  0.00  0.00     0.146 A 
ATOM      3  C   UNL d   1      -1.038   0.367   0.004  0.00  0.00     0.146 A 
ATOM      4  F   UNL d   1       2.598   0.529  -0.000  0.00  0.00    -0.204 F 
ATOM      5  F   UNL d   1      -2.127   1.154   0.004  0.00  0.00    -0.204 F 
ATOM      6  C   UNL d   1      -0.111  -1.855   0.002  0.00  0.00     0.006 A 
ATOM      7  C   UNL d   1      -1.220  -1.017   0.002  0.00  0.00     0.045 A 
ATOM      8  C   UNL d   1       1.164  -1.295   0.002  0.00  0.00     0.045 A 
ENDROOT
BRANCH   1   9
ATOM      9  N   UNL d   1       0.265   2.378   0.011  0.00  0.00    -0.322 N 
ATOM     10  C   UNL d   1       1.360   3.217   0.018  0.00  0.00     0.218 C 
ATOM     11  O   UNL d   1       2.541   2.898   0.015  0.00  0.00    -0.274 OA
ATOM     12  C   UNL d   1       0.994   4.681   0.027  0.00  0.00     0.117 C 
ATOM     13  H   UNL d   1      -0.652   2.812   0.013  0.00  0.00     0.169 HD
ENDBRANCH   1   9
TORSDOF 1
