REMARK  8 active torsions:
REMARK  status: ('A' for Active; 'I' for Inactive)
REMARK    1  A    between atoms: C_12  and  N_1 
REMARK    2  A    between atoms: N_2  and  C_11 
REMARK    3  A    between atoms: C_11  and  N_13 
REMARK    4  A    between atoms: N_13  and  C_12 
REMARK    5  A    between atoms: C_26  and  N_13 
REMARK    6  A    between atoms: N_16  and  C_25 
REMARK    7  A    between atoms: C_24  and  C_26 
REMARK    8  A    between atoms: C_25  and  C_24 
ROOT
ATOM      1  N   UNL d   1       3.806   1.360  -0.029  0.00  0.00     0.124 N 
ENDROOT
BRANCH   1   2
ATOM      2  C   UNL d   1       3.476   1.847   1.338  0.00  0.00     0.410 C 
BRANCH   2   3
ATOM      3  N   UNL d   1       3.961   3.196   1.554  0.00  0.00    -0.252 N 
ATOM      4  C   UNL d   1       3.288   4.333   1.198  0.00  0.00     0.263 C 
ATOM      5  C   UNL d   1       4.161   5.457   1.546  0.00  0.00     0.048 A 
ATOM      6  O   UNL d   1       2.179   4.462   0.714  0.00  0.00    -0.267 OA
ATOM      7  C   UNL d   1       4.044   6.808   1.276  0.00  0.00     0.018 A 
ATOM      8  C   UNL d   1       5.268   4.938   2.191  0.00  0.00     0.048 A 
ATOM      9  C   UNL d   1       5.109   7.633   1.656  0.00  0.00     0.001 A 
ATOM     10  C   UNL d   1       6.240   7.100   2.310  0.00  0.00     0.001 A 
ATOM     11  C   UNL d   1       6.322   5.734   2.597  0.00  0.00     0.018 A 
ATOM     12  C   UNL d   1       5.100   3.488   2.252  0.00  0.00     0.263 C 
ATOM     13  O   UNL d   1       5.872   2.738   2.818  0.00  0.00    -0.267 OA
ENDBRANCH   2   3
ENDBRANCH   1   2
BRANCH   1  14
ATOM     14  C   UNL d   1       3.260  -0.005  -0.244  0.00  0.00     0.410 C 
BRANCH  14  15
ATOM     15  N   UNL d   1       1.828  -0.028  -0.141  0.00  0.00    -0.252 N 
ATOM     16  C   UNL d   1       0.968   0.205  -1.175  0.00  0.00     0.263 C 
ATOM     17  C   UNL d   1      -0.381   0.151  -0.589  0.00  0.00     0.048 A 
ATOM     18  O   UNL d   1       1.201   0.395  -2.348  0.00  0.00    -0.267 OA
ATOM     19  C   UNL d   1      -1.606   0.481  -1.123  0.00  0.00     0.018 A 
ATOM     20  C   UNL d   1      -0.240  -0.227   0.734  0.00  0.00     0.048 A 
ATOM     21  C   UNL d   1      -2.702   0.465  -0.251  0.00  0.00     0.001 A 
ATOM     22  C   UNL d   1      -2.552   0.093   1.104  0.00  0.00     0.001 A 
ATOM     23  C   UNL d   1      -1.307  -0.277   1.609  0.00  0.00     0.018 A 
ATOM     24  C   UNL d   1       1.180  -0.413   0.995  0.00  0.00     0.263 C 
ATOM     25  O   UNL d   1       1.642  -0.808   2.048  0.00  0.00    -0.267 OA
ENDBRANCH  14  15
ENDBRANCH   1  14
BRANCH   1  26
ATOM     26  C   UNL d   1       5.271   1.331  -0.233  0.00  0.00     0.278 C 
BRANCH  26  27
ATOM     27  C   UNL d   1       5.739   0.817  -1.602  0.00  0.00     0.050 C 
BRANCH  27  28
ATOM     28  C   UNL d   1       5.146   1.606  -2.769  0.00  0.00     0.131 C 
BRANCH  28  29
ATOM     29  N   UNL d   1       5.540   1.034  -4.042  0.00  0.00    -0.352 N 
ATOM     30  C   UNL d   1       4.845   0.090  -4.742  0.00  0.00     0.182 A 
ATOM     31  N   UNL d   1       5.479  -0.251  -5.842  0.00  0.00    -0.361 N 
ATOM     32  C   UNL d   1       6.615   0.518  -5.857  0.00  0.00     0.106 A 
ATOM     33  HN  UNL d   1       5.189  -0.939  -6.536  1.00  0.00     0.166 HD
ATOM     34  C   UNL d   1       6.673   1.327  -4.745  0.00  0.00     0.108 A 
ENDBRANCH  28  29
ENDBRANCH  27  28
ENDBRANCH  26  27
ENDBRANCH   1  26
TORSDOF 8
