REMARK  5 active torsions:
REMARK  status: ('A' for Active; 'I' for Inactive)
REMARK    1  A    between atoms: N_7  and  C_1 
REMARK    2  A    between atoms: N_10  and  C_1 
REMARK    3  A    between atoms: C_2  and  N_8 
REMARK    4  A    between atoms: C_3  and  C_4 
REMARK    5  A    between atoms: C_22  and  N_10 
ROOT
ATOM      1  N   UNL d   1       0.037  -0.823   0.721  0.00  0.00    -0.356 N 
ATOM      2  N   UNL d   1      -1.649  -2.841   2.036  0.00  0.00    -0.364 N 
ATOM      3  C   UNL d   1      -0.696  -1.850  -0.040  0.00  0.00     0.145 C 
ATOM      4  C   UNL d   1      -1.964  -2.379   0.668  0.00  0.00     0.144 C 
ATOM      5  C   UNL d   1      -0.284  -1.131   3.191  0.00  0.00     0.040 C 
ATOM      6  C   UNL d   1       0.631  -1.281   1.983  0.00  0.00     0.127 C 
ATOM      7  C   UNL d   1      -1.661  -1.774   3.047  0.00  0.00     0.126 C 
ENDROOT
BRANCH   2   8
ATOM      8  C   UNL d   1      -2.222  -4.052   2.431  0.00  0.00     0.125 A 
ATOM      9  N   UNL d   1      -3.336  -4.476   1.784  0.00  0.00    -0.350 N 
ATOM     10  C   UNL d   1      -3.857  -5.687   2.095  0.00  0.00     0.106 A 
ATOM     11  HN  UNL d   1      -3.775  -3.892   1.073  1.00  0.00     0.166 HD
ATOM     12  C   UNL d   1      -3.324  -6.540   3.046  0.00  0.00     0.065 A 
ATOM     13  C   UNL d   1      -2.189  -6.104   3.727  0.00  0.00     0.045 A 
ATOM     14  C   UNL d   1      -1.629  -4.862   3.420  0.00  0.00     0.078 A 
ATOM     15 CL   UNL d   1      -0.154  -4.459   4.230  0.00  0.00    -0.080 Cl
BRANCH  12  16
ATOM     16  C   UNL d   1      -3.941  -7.880   3.286  0.00  0.00     0.418 C 
ATOM     17  F   UNL d   1      -3.297  -8.607   4.240  0.00  0.00    -0.166 F 
ATOM     18  F   UNL d   1      -5.236  -7.792   3.693  0.00  0.00    -0.166 F 
ATOM     19  F   UNL d   1      -3.950  -8.655   2.169  0.00  0.00    -0.166 F 
ENDBRANCH  12  16
ENDBRANCH   2   8
BRANCH   1  20
ATOM     20  C   UNL d   1       0.736   0.188   0.068  0.00  0.00     0.174 C 
ATOM     21  S   UNL d   1       1.826  -0.051  -1.173  0.00  0.00    -0.041 SA
BRANCH  20  22
ATOM     22  N   UNL d   1       0.605   1.437   0.634  0.00  0.00    -0.332 N 
ATOM     23  H   UNL d   1       1.376   2.077   0.487  0.00  0.00     0.168 HD
BRANCH  22  24
ATOM     24  C   UNL d   1      -0.551   1.936   1.270  0.00  0.00     0.049 A 
ATOM     25  C   UNL d   1      -1.827   1.450   1.010  0.00  0.00     0.117 A 
ATOM     26  N   UNL d   1      -2.960   1.884   1.616  0.00  0.00    -0.373 N 
ATOM     27  C   UNL d   1      -2.806   2.869   2.524  0.00  0.00     0.088 A 
ATOM     28  HN  UNL d   1      -3.875   1.489   1.397  1.00  0.00     0.164 HD
ATOM     29  C   UNL d   1      -1.583   3.447   2.828  0.00  0.00     0.019 A 
ATOM     30  C   UNL d   1      -0.436   2.985   2.175  0.00  0.00     0.032 A 
ENDBRANCH  22  24
ENDBRANCH  20  22
ENDBRANCH   1  20
TORSDOF 5
