REMARK  4 active torsions:
REMARK  status: ('A' for Active; 'I' for Inactive)
REMARK    1  A    between atoms: O_7  and  C_3 
REMARK    2  A    between atoms: O_12  and  N_4 
REMARK    3  A    between atoms: C_6  and  C_10 
REMARK    4  A    between atoms: C_10  and  O_7 
ROOT
ATOM      1  C   UNL d   1      -9.523  -3.154   0.583  0.00  0.00     0.069 A 
ATOM      2  C   UNL d   1     -10.846  -2.735   0.420  0.00  0.00     0.050 A 
ATOM      3  C   UNL d   1      -8.461  -2.418   0.030  0.00  0.00     0.091 A 
ATOM      4  C   UNL d   1      -8.752  -1.274  -0.720  0.00  0.00     0.040 A 
ATOM      5  C   UNL d   1     -11.113  -1.579  -0.305  0.00  0.00     0.035 A 
ATOM      6 CL   UNL d   1      -9.236  -4.592   1.501  0.00  0.00    -0.081 Cl
ATOM      7  C   UNL d   1     -10.075  -0.851  -0.882  0.00  0.00     0.026 A 
ATOM      8 CL   UNL d   1     -12.737  -1.044  -0.495  0.00  0.00    -0.084 Cl
ENDROOT
BRANCH   3   9
ATOM      9  O   UNL d   1      -7.192  -2.886   0.255  0.00  0.00    -0.344 OA
BRANCH   9  10
ATOM     10  C   UNL d   1      -6.125  -1.969   0.059  0.00  0.00     0.229 C 
BRANCH  10  11
ATOM     11  C   UNL d   1      -4.873  -2.491   0.752  0.00  0.00     0.030 C 
ATOM     12  N   UNL d   1      -3.768  -2.530   0.064  0.00  0.00    -0.276 N 
ATOM     13  HN  UNL d   1      -3.698  -2.258  -0.917  1.00  0.00     0.193 HD
ATOM     14  C   UNL d   1      -5.008  -2.865   2.212  0.00  0.00     0.068 C 
BRANCH  12  15
ATOM     15  O   UNL d   1      -2.691  -2.987   0.827  0.00  0.00    -0.290 OA
ATOM     16  H   UNL d   1      -1.955  -2.969   0.188  0.00  0.00     0.244 HD
ENDBRANCH  12  15
ENDBRANCH  10  11
ENDBRANCH   9  10
ENDBRANCH   3   9
TORSDOF 4
