REMARK  8 active torsions:
REMARK  status: ('A' for Active; 'I' for Inactive)
REMARK    1  A    between atoms: S_7  and  C_11 
REMARK    2  A    between atoms: C_13  and  S_7 
REMARK    3  A    between atoms: N_9  and  C_17 
REMARK    4  A    between atoms: C_16  and  N_9 
REMARK    5  A    between atoms: C_17  and  C_10 
REMARK    6  A    between atoms: C_11  and  C_12 
REMARK    7  A    between atoms: C_12  and  C_16 
REMARK    8  A    between atoms: O_15  and  C_12 
ROOT
ATOM      1  N   UNL d   1       4.543  -0.575  -0.170  0.00  0.00     0.090 N 
ATOM      2  H   UNL d   1       4.365   0.001   0.651  0.00  0.00     0.316 HD
ENDROOT
BRANCH   1   3
ATOM      3  C   UNL d   1       3.444  -1.532  -0.293  0.00  0.00     0.308 C 
BRANCH   3   4
ATOM      4  C   UNL d   1       2.126  -0.791  -0.343  0.00  0.00    -0.028 A 
ATOM      5  C   UNL d   1       1.170  -0.960   0.673  0.00  0.00     0.048 A 
ATOM      6  C   UNL d   1       0.003  -0.231   0.591  0.00  0.00     0.105 A 
ATOM      7  C   UNL d   1      -0.242   0.639  -0.444  0.00  0.00     0.105 A 
ATOM      8  O   UNL d   1      -1.019  -0.266   1.491  0.00  0.00    -0.323 OA
ATOM      9  O   UNL d   1      -1.445   1.263  -0.327  0.00  0.00    -0.323 OA
ATOM     10  C   UNL d   1       0.667   0.830  -1.461  0.00  0.00     0.040 A 
ATOM     11  C   UNL d   1      -1.931   0.685   0.902  0.00  0.00     0.352 A 
ATOM     12  C   UNL d   1       1.860   0.104  -1.407  0.00  0.00     0.012 A 
ENDBRANCH   3   4
ENDBRANCH   1   3
BRANCH   1  13
ATOM     13  C   UNL d   1       5.840  -1.242  -0.073  0.00  0.00     0.302 C 
BRANCH  13  14
ATOM     14  C   UNL d   1       7.037  -0.261  -0.038  0.00  0.00     0.155 C 
BRANCH  14  15
ATOM     15  C   UNL d   1       6.979   0.689   1.174  0.00  0.00     0.113 C 
BRANCH  15  16
ATOM     16  S   UNL d   1       8.321   1.933   1.121  0.00  0.00    -0.127 SA
BRANCH  16  17
ATOM     17  C   UNL d   1       8.101   2.863   2.636  0.00  0.00     0.000 A 
ATOM     18  C   UNL d   1       7.045   2.700   3.538  0.00  0.00     0.018 A 
ATOM     19  C   UNL d   1       6.976   3.469   4.706  0.00  0.00     0.001 A 
ATOM     20  C   UNL d   1       7.962   4.415   4.981  0.00  0.00     0.000 A 
ATOM     21  C   UNL d   1       9.011   4.598   4.087  0.00  0.00     0.001 A 
ATOM     22  C   UNL d   1       9.078   3.828   2.923  0.00  0.00     0.018 A 
ENDBRANCH  16  17
ENDBRANCH  15  16
ENDBRANCH  14  15
BRANCH  14  23
ATOM     23  O   UNL d   1       8.238  -1.047  -0.021  0.00  0.00    -0.393 OA
ATOM     24  H   UNL d   1       8.359  -1.405   0.874  0.00  0.00     0.210 HD
ENDBRANCH  14  23
ENDBRANCH  13  14
ENDBRANCH   1  13
TORSDOF 8
