REMARK  3 active torsions:
REMARK  status: ('A' for Active; 'I' for Inactive)
REMARK    1  A    between atoms: N_6  and  N_1 
REMARK       I    between atoms: C_3  and  N_6 
REMARK       I    between atoms: N_9  and  C_3 
REMARK    2  A    between atoms: C_4  and  C_5 
REMARK    3  A    between atoms: O_10  and  C_7 
ROOT
ATOM      1  N   UNL d   1       0.949  -0.018  -0.135  0.00  0.00    -0.300 N 
ATOM      2  HN  UNL d   1       1.966  -0.006  -0.214  1.00  0.00     0.186 HD
ATOM      3  C   UNL d   1       0.250   1.029  -0.471  0.00  0.00     0.035 C 
ATOM      4  C   UNL d   1      -1.262   1.096  -0.430  0.00  0.00     0.070 C 
ENDROOT
BRANCH   3   5
ATOM      5  C   UNL d   1       1.014   2.214  -0.967  0.00  0.00     0.021 A 
ATOM      6  C   UNL d   1       2.228   2.031  -1.649  0.00  0.00     0.077 A 
ATOM      7  C   UNL d   1       2.949   3.124  -2.123  0.00  0.00     0.037 A 
ATOM      8  C   UNL d   1       2.476   4.415  -1.897  0.00  0.00     0.003 A 
ATOM      9  C   UNL d   1       1.286   4.611  -1.195  0.00  0.00     0.001 A 
ATOM     10  C   UNL d   1       0.554   3.514  -0.730  0.00  0.00     0.016 A 
BRANCH   6  11
ATOM     11  O   UNL d   1       2.774   0.798  -1.891  0.00  0.00    -0.360 OA
ATOM     12  H   UNL d   1       2.249   0.139  -1.387  0.00  0.00     0.217 HD
ENDBRANCH   6  11
ENDBRANCH   3   5
BRANCH   1  13
ATOM     13  N   UNL d   1       0.308  -1.127   0.322  0.00  0.00    -0.252 N 
ATOM     14  C   UNL d   1       1.003  -2.267   0.645  0.00  0.00     0.332 C 
ATOM     15  O   UNL d   1       0.467  -3.272   1.097  0.00  0.00    -0.246 OA
ATOM     16  N   UNL d   1       2.337  -2.196   0.408  0.00  0.00    -0.351 N 
ATOM     17  H   UNL d   1       2.723  -1.262   0.417  0.00  0.00     0.160 HD
ATOM     18  H   UNL d   1       2.902  -2.948   0.775  0.00  0.00     0.160 HD
ATOM     19  H   UNL d   1      -0.690  -1.142   0.489  0.00  0.00     0.191 HD
ENDBRANCH   1  13
TORSDOF 3
