REMARK  3 active torsions:
REMARK  status: ('A' for Active; 'I' for Inactive)
REMARK    1  A    between atoms: C_7  and  N_1 
REMARK    2  A    between atoms: C_4  and  O_10 
REMARK    3  A    between atoms: O_10  and  C_16 
ROOT
ATOM      1  C   UNL d   1      -1.610  -2.036  -0.702  0.00  0.00     0.045 A 
ATOM      2  C   UNL d   1      -1.569  -3.289  -0.068  0.00  0.00     0.033 A 
ATOM      3  C   UNL d   1      -2.537  -1.879  -1.742  0.00  0.00     0.033 A 
ATOM      4  C   UNL d   1      -3.353  -4.147  -1.470  0.00  0.00     0.078 A 
ATOM      5  C   UNL d   1      -2.427  -4.337  -0.451  0.00  0.00     0.039 A 
ATOM      6  C   UNL d   1      -3.384  -2.921  -2.127  0.00  0.00     0.039 A 
ENDROOT
BRANCH   1   7
ATOM      7  N   UNL d   1      -0.716  -0.976  -0.368  0.00  0.00    -0.252 N 
ATOM      8  C   UNL d   1       0.455  -1.114   0.344  0.00  0.00     0.232 C 
ATOM      9  C   UNL d   1       1.121   0.230   0.443  0.00  0.00     0.117 C 
ATOM     10  O   UNL d   1       0.942  -2.112   0.857  0.00  0.00    -0.273 OA
ATOM     11  C   UNL d   1       0.377   1.081  -0.567  0.00  0.00     0.083 C 
ATOM     12  C   UNL d   1      -0.917   0.342  -0.723  0.00  0.00     0.235 C 
ATOM     13  C   UNL d   1       1.068   1.135  -1.926  0.00  0.00     0.020 C 
ATOM     14  O   UNL d   1      -1.937   0.887  -1.131  0.00  0.00    -0.272 OA
ENDBRANCH   1   7
BRANCH   4  15
ATOM     15  O   UNL d   1      -4.247  -5.053  -1.946  0.00  0.00    -0.255 OA
BRANCH  15  16
ATOM     16  C   UNL d   1      -4.702  -6.087  -1.091  0.00  0.00     0.530 C 
ATOM     17  F   UNL d   1      -4.614  -5.777   0.220  0.00  0.00    -0.144 F 
ATOM     18  F   UNL d   1      -6.003  -6.325  -1.372  0.00  0.00    -0.144 F 
ATOM     19  F   UNL d   1      -4.006  -7.219  -1.328  0.00  0.00    -0.144 F 
ENDBRANCH  15  16
ENDBRANCH   4  15
TORSDOF 3
