REMARK  1 active torsions:
REMARK  status: ('A' for Active; 'I' for Inactive)
REMARK    1  A    between atoms: C_6  and  N_1 
ROOT
ATOM      1  N   UNL d   1       0.617   1.075   0.102  0.00  0.00    -0.224 N 
ATOM      2  C   UNL d   1       1.145  -0.219  -0.035  0.00  0.00     0.248 A 
ATOM      3  N   UNL d   1      -0.766   1.106   0.157  0.00  0.00    -0.299 N 
ATOM      4  HN  UNL d   1      -1.356   1.933   0.256  1.00  0.00     0.187 HD
ATOM      5  C   UNL d   1      -0.052  -1.119  -0.021  0.00  0.00     0.158 A 
ATOM      6  C   UNL d   1      -1.161  -0.124   0.058  0.00  0.00     0.009 A 
ATOM      7  O   UNL d   1       2.299  -0.609  -0.130  0.00  0.00    -0.271 OA
ATOM      8  C   UNL d   1      -2.591  -0.541   0.038  0.00  0.00     0.065 C 
ENDROOT
BRANCH   1   9
ATOM      9  C   UNL d   1       1.327   2.301   0.163  0.00  0.00     0.061 A 
ATOM     10  C   UNL d   1       2.709   2.367  -0.051  0.00  0.00     0.055 A 
ATOM     11  C   UNL d   1       3.380   3.592   0.014  0.00  0.00     0.036 A 
ATOM     12 CL   UNL d   1       5.076   3.652  -0.276  0.00  0.00    -0.084 Cl
ATOM     13  C   UNL d   1       2.693   4.767   0.304  0.00  0.00     0.024 A 
ATOM     14  C   UNL d   1       1.319   4.720   0.523  0.00  0.00     0.004 A 
ATOM     15  C   UNL d   1       0.643   3.498   0.445  0.00  0.00     0.032 A 
ENDBRANCH   1   9
TORSDOF 1
