REMARK  10 active torsions:
REMARK  status: ('A' for Active; 'I' for Inactive)
REMARK    1  A    between atoms: C_2  and  C_1 
REMARK       I    between atoms: N_4  and  C_1 
REMARK    2  A    between atoms: N_3  and  C_2 
REMARK    3  A    between atoms: C_6  and  C_2 
REMARK       I    between atoms: C_5  and  N_3 
REMARK    4  A    between atoms: C_10  and  N_4 
REMARK    5  A    between atoms: C_11  and  C_6 
REMARK    6  A    between atoms: C_9  and  C_10 
REMARK    7  A    between atoms: O_12  and  C_9 
REMARK    8  A    between atoms: O_13  and  C_9 
REMARK    9  A    between atoms: C_16  and  O_12 
REMARK   10  A    between atoms: C_15  and  O_13 
ROOT
ATOM      1  C   UNL d   1       0.277  -1.062   0.384  0.00  0.00     0.180 C 
ENDROOT
BRANCH   1   2
ATOM      2  C   UNL d   1       1.015   0.210  -0.110  0.00  0.00     0.240 C 
ATOM      3  N   UNL d   1       0.376   1.400   0.160  0.00  0.00    -0.355 N 
ATOM      4  H   UNL d   1      -0.254   1.367   0.962  0.00  0.00     0.162 HD
ATOM      5  O   UNL d   1       2.145   0.159  -0.589  0.00  0.00    -0.271 OA
BRANCH   3   6
ATOM      6  C   UNL d   1       1.006   2.685  -0.091  0.00  0.00     0.183 C 
BRANCH   6   7
ATOM      7  C   UNL d   1       1.421   3.002  -1.555  0.00  0.00     0.277 C 
BRANCH   7   8
ATOM      8  O   UNL d   1       0.259   2.859  -2.388  0.00  0.00    -0.360 OA
BRANCH   8   9
ATOM      9  C   UNL d   1       0.485   3.120  -3.772  0.00  0.00     0.166 C 
ATOM     10  C   UNL d   1       1.367   2.083  -4.446  0.00  0.00     0.033 C 
ENDBRANCH   8   9
ENDBRANCH   7   8
BRANCH   7  11
ATOM     11  O   UNL d   1       1.905   4.352  -1.653  0.00  0.00    -0.360 OA
BRANCH  11  12
ATOM     12  C   UNL d   1       3.139   4.569  -0.977  0.00  0.00     0.166 C 
ATOM     13  C   UNL d   1       3.562   6.010  -1.189  0.00  0.00     0.033 C 
ENDBRANCH  11  12
ENDBRANCH   7  11
ENDBRANCH   6   7
ENDBRANCH   3   6
ENDBRANCH   1   2
BRANCH   1  14
ATOM     14  N   UNL d   1       0.614  -1.334   1.792  0.00  0.00    -0.348 N 
ATOM     15  C   UNL d   1       0.206  -0.531   2.831  0.00  0.00     0.214 C 
ATOM     16  O   UNL d   1      -0.397   0.524   2.667  0.00  0.00    -0.274 OA
ATOM     17  C   UNL d   1       0.553  -1.046   4.202  0.00  0.00     0.117 C 
ATOM     18  H   UNL d   1       1.005  -2.243   2.003  0.00  0.00     0.163 HD
ENDBRANCH   1  14
BRANCH   1  19
ATOM     19  C   UNL d   1      -1.241  -1.083   0.139  0.00  0.00     0.073 C 
BRANCH  19  20
ATOM     20  C   UNL d   1      -1.667  -1.013  -1.309  0.00  0.00    -0.056 A 
ATOM     21  C   UNL d   1      -1.778  -2.173  -2.084  0.00  0.00     0.007 A 
ATOM     22  C   UNL d   1      -2.252  -2.102  -3.397  0.00  0.00     0.001 A 
ATOM     23  C   UNL d   1      -2.604  -0.871  -3.950  0.00  0.00     0.000 A 
ATOM     24  C   UNL d   1      -2.466   0.291  -3.197  0.00  0.00     0.001 A 
ATOM     25  C   UNL d   1      -2.000   0.221  -1.885  0.00  0.00     0.007 A 
ENDBRANCH  19  20
ENDBRANCH   1  19
TORSDOF 10
