REMARK  2 active torsions:
REMARK  status: ('A' for Active; 'I' for Inactive)
REMARK    1  A    between atoms: C_9  and  N_1 
REMARK    2  A    between atoms: C_11  and  C_9 
ROOT
ATOM      1  N   UNL d   1       2.392  -0.531  -0.133  0.00  0.00    -0.298 N 
ATOM      2  C   UNL d   1      -0.048  -0.684  -0.073  0.00  0.00     0.061 A 
ATOM      3  C   UNL d   1       1.266  -1.351  -0.063  0.00  0.00     0.261 A 
ATOM      4  N   UNL d   1       1.113   1.450  -0.168  0.00  0.00    -0.344 N 
ATOM      5  HN  UNL d   1       1.077   2.469  -0.200  1.00  0.00     0.167 HD
ATOM      6  C   UNL d   1      -0.072   0.708  -0.103  0.00  0.00     0.067 A 
ATOM      7  C   UNL d   1       2.255   0.841  -0.189  0.00  0.00     0.083 A 
ATOM      8  C   UNL d   1      -1.323   1.347  -0.065  0.00  0.00     0.040 A 
ATOM      9  C   UNL d   1      -1.228  -1.438  -0.025  0.00  0.00     0.038 A 
ATOM     10  C   UNL d   1      -2.511   0.609  -0.016  0.00  0.00     0.040 A 
ATOM     11  O   UNL d   1       1.306  -2.574   0.033  0.00  0.00    -0.267 OA
ATOM     12  C   UNL d   1      -2.455  -0.781  -0.002  0.00  0.00     0.013 A 
ATOM     13 BR   UNL d   1      -1.460   3.243  -0.069  0.00  0.00    -0.049 Br
ATOM     14 BR   UNL d   1      -4.056  -1.784   0.055  0.00  0.00    -0.051 Br
ATOM     15  C   UNL d   1       3.487   1.712  -0.247  0.00  0.00     0.089 C 
ENDROOT
BRANCH   1  16
ATOM     16  C   UNL d   1       3.689  -1.193   0.019  0.00  0.00     0.179 C 
BRANCH  16  17
ATOM     17  C   UNL d   1       4.267  -1.656  -1.292  0.00  0.00     0.001 A 
ATOM     18  S   UNL d   1       5.887  -1.244  -1.697  0.00  0.00    -0.105 SA
ATOM     19  C   UNL d   1       5.866  -2.228  -3.093  0.00  0.00     0.050 A 
ATOM     20  C   UNL d   1       4.646  -2.834  -3.277  0.00  0.00     0.008 A 
ATOM     21  C   UNL d   1       3.720  -2.497  -2.246  0.00  0.00     0.017 A 
ENDBRANCH  16  17
ENDBRANCH   1  16
TORSDOF 2
