REMARK  7 active torsions:
REMARK  status: ('A' for Active; 'I' for Inactive)
REMARK    1  A    between atoms: C_7  and  C_1 
REMARK    2  A    between atoms: N_3  and  C_2 
REMARK       I    between atoms: C_5  and  N_3 
REMARK    3  A    between atoms: C_12  and  C_5 
REMARK    4  A    between atoms: C_9  and  C_15 
REMARK    5  A    between atoms: O_16  and  C_9 
REMARK    6  A    between atoms: C_10  and  C_12 
REMARK    7  A    between atoms: C_15  and  C_10 
ROOT
ATOM      1  N   UNL d   1       3.032   1.578   1.022  0.00  0.00    -0.326 N 
ATOM      2  C   UNL d   1       2.657   2.856   0.617  0.00  0.00     0.222 C 
ATOM      3  O   UNL d   1       1.498   3.259   0.627  0.00  0.00    -0.273 OA
ATOM      4  H   UNL d   1       3.988   1.441   1.320  0.00  0.00     0.169 HD
ENDROOT
BRANCH   2   5
ATOM      5  C   UNL d   1       3.829   3.714   0.163  0.00  0.00     0.112 C 
BRANCH   5   6
ATOM      6  C   UNL d   1       3.534   5.241   0.027  0.00  0.00    -0.030 C 
ATOM      7  C   UNL d   1       4.810   5.953  -0.478  0.00  0.00     0.016 C 
ATOM      8  C   UNL d   1       2.452   5.494  -1.050  0.00  0.00     0.016 C 
BRANCH   6   9
ATOM      9  C   UNL d   1       3.060   5.891   1.357  0.00  0.00     0.119 C 
BRANCH   9  10
ATOM     10  C   UNL d   1       4.002   5.769   2.545  0.00  0.00     0.140 C 
ATOM     11  O   UNL d   1       5.040   5.130   2.571  0.00  0.00    -0.650 OA
BRANCH  10  12
ATOM     12  O   UNL d   1       3.545   6.438   3.628  0.00  0.00    -0.776 OA
ATOM     13  H   UNL d   1       2.687   6.887   3.484  0.00  0.00     0.167 HD
ENDBRANCH  10  12
ENDBRANCH   9  10
ENDBRANCH   6   9
ENDBRANCH   5   6
ENDBRANCH   2   5
BRANCH   1  14
ATOM     14  C   UNL d   1       2.086   0.594   1.314  0.00  0.00     0.056 A 
ATOM     15  C   UNL d   1       2.233  -0.385   2.287  0.00  0.00     0.077 A 
ATOM     16  S   UNL d   1       0.906  -1.484   2.283  0.00  0.00    -0.096 SA
ATOM     17  C   UNL d   1       0.103  -0.630   1.050  0.00  0.00     0.053 A 
ATOM     18  C   UNL d   1       0.839   0.448   0.619  0.00  0.00     0.038 A 
BRANCH  15  19
ATOM     19  C   UNL d   1       3.239  -0.573   3.323  0.00  0.00     0.164 C 
ATOM     20  O   UNL d   1       3.560  -1.677   3.769  0.00  0.00    -0.292 OA
ATOM     21  C   UNL d   1       3.906   0.658   3.889  0.00  0.00     0.097 C 
ENDBRANCH  15  19
ENDBRANCH   1  14
TORSDOF 7
