REMARK  6 active torsions:
REMARK  status: ('A' for Active; 'I' for Inactive)
REMARK    1  A    between atoms: N_4  and  C_1 
REMARK       I    between atoms: C_2  and  N_3 
REMARK    2  A    between atoms: C_6  and  C_2 
REMARK    3  A    between atoms: N_3  and  N_4 
REMARK    4  A    between atoms: C_5  and  C_20 
REMARK    5  A    between atoms: C_20  and  N_9 
REMARK    6  A    between atoms: C_10  and  C_11 
ROOT
ATOM      1  C   UNL d   1       0.224  -3.691   1.059  0.00  0.00     0.270 C 
ATOM      2  N   UNL d   1       0.787  -3.644   2.322  0.00  0.00    -0.264 N 
ATOM      3  O   UNL d   1       0.884  -3.666   0.026  0.00  0.00    -0.266 OA
ATOM      4  H   UNL d   1       0.236  -3.369   3.133  0.00  0.00     0.190 HD
ENDROOT
BRANCH   2   5
ATOM      5  N   UNL d   1       2.173  -3.435   2.430  0.00  0.00    -0.274 N 
ATOM      6  H   UNL d   1       2.684  -3.558   1.561  0.00  0.00     0.189 HD
BRANCH   5   7
ATOM      7  C   UNL d   1       2.689  -2.755   3.503  0.00  0.00     0.186 C 
ATOM      8  S   UNL d   1       1.809  -2.313   4.859  0.00  0.00    -0.040 SA
ATOM      9  N   UNL d   1       4.008  -2.440   3.471  0.00  0.00    -0.360 N 
ATOM     10  H   UNL d   1       4.362  -2.019   4.325  0.00  0.00     0.162 HD
BRANCH   9  11
ATOM     11  C   UNL d   1       5.014  -2.812   2.495  0.00  0.00     0.187 C 
BRANCH  11  12
ATOM     12  C   UNL d   1       6.220  -1.976   2.712  0.00  0.00     0.070 A 
ATOM     13  O   UNL d   1       6.775  -2.007   3.960  0.00  0.00    -0.325 OA
ATOM     14  C   UNL d   1       7.843  -1.167   3.942  0.00  0.00     0.142 A 
ATOM     15  C   UNL d   1       7.986  -0.598   2.699  0.00  0.00     0.027 A 
ATOM     16  C   UNL d   1       6.938  -1.119   1.902  0.00  0.00     0.036 A 
ENDBRANCH  11  12
ENDBRANCH   9  11
ENDBRANCH   5   7
ENDBRANCH   2   5
BRANCH   1  17
ATOM     17  C   UNL d   1      -1.266  -3.740   1.028  0.00  0.00     0.033 A 
ATOM     18  C   UNL d   1      -1.950  -3.189  -0.056  0.00  0.00     0.017 A 
ATOM     19  C   UNL d   1      -3.352  -3.204  -0.087  0.00  0.00     0.009 A 
ATOM     20  C   UNL d   1      -4.108  -3.783   0.954  0.00  0.00    -0.051 A 
ATOM     21  C   UNL d   1      -3.395  -4.356   2.020  0.00  0.00     0.009 A 
ATOM     22  C   UNL d   1      -1.995  -4.339   2.059  0.00  0.00     0.017 A 
BRANCH  20  23
ATOM     23  C   UNL d   1      -5.648  -3.768   0.906  0.00  0.00    -0.024 C 
ATOM     24  C   UNL d   1      -6.315  -4.471   2.111  0.00  0.00     0.019 C 
ATOM     25  C   UNL d   1      -6.153  -2.309   0.894  0.00  0.00     0.019 C 
ATOM     26  C   UNL d   1      -6.148  -4.485  -0.367  0.00  0.00     0.019 C 
ENDBRANCH  20  23
ENDBRANCH   1  17
TORSDOF 6
