REMARK  15 active torsions:
REMARK  status: ('A' for Active; 'I' for Inactive)
REMARK    1  A    between atoms: C_13  and  C_6 
REMARK    2  A    between atoms: O_10  and  N_8 
REMARK    3  A    between atoms: C_15  and  C_13 
REMARK    4  A    between atoms: C_26  and  C_15 
REMARK    5  A    between atoms: C_16  and  C_17 
REMARK    6  A    between atoms: C_17  and  C_25 
REMARK    7  A    between atoms: C_18  and  C_27 
REMARK    8  A    between atoms: C_19  and  C_18 
REMARK    9  A    between atoms: C_20  and  C_19 
REMARK   10  A    between atoms: C_21  and  C_20 
REMARK   11  A    between atoms: C_22  and  C_21 
REMARK   12  A    between atoms: C_23  and  C_22 
REMARK   13  A    between atoms: C_24  and  C_23 
REMARK   14  A    between atoms: C_25  and  C_24 
REMARK   15  A    between atoms: C_27  and  C_26 
ROOT
ATOM      1  C   UNL d   1      -4.287   2.712  -0.350  0.00  0.00     0.060 C 
ENDROOT
BRANCH   1   2
ATOM      2  C   UNL d   1      -3.623   1.491   0.206  0.00  0.00     0.047 A 
ATOM      3  N   UNL d   1      -4.381   0.508   0.728  0.00  0.00    -0.264 N 
ATOM      4  O   UNL d   1      -3.515  -0.480   1.142  0.00  0.00    -0.241 OA
ATOM      5  HN  UNL d   1      -5.399   0.497   0.802  1.00  0.00     0.194 HD
ATOM      6  C   UNL d   1      -2.257  -0.088   0.872  0.00  0.00     0.090 A 
ATOM      7  C   UNL d   1      -2.240   1.153   0.271  0.00  0.00     0.044 A 
ATOM      8  C   UNL d   1      -1.131  -0.981   1.218  0.00  0.00     0.068 C 
ATOM      9  C   UNL d   1      -0.947   1.710  -0.104  0.00  0.00     0.046 C 
ATOM     10  N   UNL d   1      -0.664   2.921  -0.469  0.00  0.00    -0.272 N 
ATOM     11  C   UNL d   1       0.237   0.729  -0.057  0.00  0.00     0.060 C 
ATOM     12  HN  UNL d   1       0.271   3.204  -0.763  1.00  0.00     0.194 HD
ATOM     13  C   UNL d   1       0.166  -0.159   1.193  0.00  0.00     0.013 C 
BRANCH  10  14
ATOM     14  O   UNL d   1      -1.737   3.800  -0.429  0.00  0.00    -0.290 OA
ATOM     15  H   UNL d   1      -1.328   4.651  -0.678  0.00  0.00     0.244 HD
ENDBRANCH  10  14
ENDBRANCH   1   2
BRANCH   1  16
ATOM     16  C   UNL d   1      -5.817   2.714  -0.313  0.00  0.00     0.006 C 
BRANCH  16  17
ATOM     17  C   UNL d   1      -6.380   4.008  -0.904  0.00  0.00     0.000 C 
BRANCH  17  18
ATOM     18  C   UNL d   1      -7.903   4.016  -0.827  0.00  0.00     0.000 C 
BRANCH  18  19
ATOM     19  C   UNL d   1      -8.485   5.297  -1.415  0.00  0.00     0.000 C 
BRANCH  19  20
ATOM     20  C   UNL d   1     -10.007   5.278  -1.327  0.00  0.00     0.000 C 
BRANCH  20  21
ATOM     21  C   UNL d   1     -10.602   6.551  -1.914  0.00  0.00     0.000 C 
BRANCH  21  22
ATOM     22  C   UNL d   1     -12.122   6.521  -1.821  0.00  0.00     0.000 C 
BRANCH  22  23
ATOM     23  C   UNL d   1     -12.718   7.793  -2.407  0.00  0.00     0.000 C 
BRANCH  23  24
ATOM     24  C   UNL d   1     -14.237   7.763  -2.314  0.00  0.00     0.000 C 
BRANCH  24  25
ATOM     25  C   UNL d   1     -14.832   9.035  -2.904  0.00  0.00     0.000 C 
BRANCH  25  26
ATOM     26  C   UNL d   1     -16.352   9.010  -2.810  0.00  0.00     0.000 C 
BRANCH  26  27
ATOM     27  C   UNL d   1     -16.946  10.284  -3.401  0.00  0.00    -0.000 C 
BRANCH  27  28
ATOM     28  C   UNL d   1     -18.468  10.267  -3.313  0.00  0.00    -0.005 C 
ATOM     29  C   UNL d   1     -19.059  11.536  -3.901  0.00  0.00     0.005 C 
ENDBRANCH  27  28
ENDBRANCH  26  27
ENDBRANCH  25  26
ENDBRANCH  24  25
ENDBRANCH  23  24
ENDBRANCH  22  23
ENDBRANCH  21  22
ENDBRANCH  20  21
ENDBRANCH  19  20
ENDBRANCH  18  19
ENDBRANCH  17  18
ENDBRANCH  16  17
ENDBRANCH   1  16
TORSDOF 15
