REMARK  19 active torsions:
REMARK  status: ('A' for Active; 'I' for Inactive)
REMARK    1  A    between atoms: C_2  and  C_1 
REMARK    2  A    between atoms: C_3  and  C_1 
REMARK    3  A    between atoms: C_1  and  O_8 
REMARK    4  A    between atoms: C_2  and  O_9 
REMARK    5  A    between atoms: C_4  and  C_2 
REMARK    6  A    between atoms: O_6  and  C_3 
REMARK    7  A    between atoms: O_7  and  C_3 
REMARK    8  A    between atoms: C_4  and  O_10 
REMARK    9  A    between atoms: C_4  and  C_5 
REMARK   10  A    between atoms: C_5  and  O_11 
REMARK   11  A    between atoms: C_19  and  C_5 
REMARK   12  A    between atoms: C_12  and  O_6 
REMARK   13  A    between atoms: C_13  and  O_7 
REMARK   14  A    between atoms: C_15  and  O_8 
REMARK   15  A    between atoms: C_14  and  O_9 
REMARK   16  A    between atoms: C_16  and  O_10 
REMARK   17  A    between atoms: C_17  and  O_11 
REMARK   18  A    between atoms: C_18  and  O_20 
REMARK   19  A    between atoms: O_20  and  C_19 
ROOT
ATOM      1  C   UNL d   1      -1.299   1.347   2.676  0.00  0.00     0.198 C 
ENDROOT
BRANCH   1   2
ATOM      2  C   UNL d   1      -2.758   1.812   2.919  0.00  0.00     0.220 C 
BRANCH   2   3
ATOM      3  C   UNL d   1      -3.083   2.178   4.391  0.00  0.00     0.311 C 
BRANCH   3   4
ATOM      4  O   UNL d   1      -4.497   2.406   4.556  0.00  0.00    -0.287 OA
BRANCH   4   5
ATOM      5  C   UNL d   1      -4.947   3.656   4.314  0.00  0.00     0.257 C 
ATOM      6  O   UNL d   1      -4.244   4.629   4.066  0.00  0.00    -0.266 OA
ATOM      7  C   UNL d   1      -6.448   3.691   4.317  0.00  0.00     0.126 C 
ENDBRANCH   4   5
ENDBRANCH   3   4
BRANCH   3   8
ATOM      8  O   UNL d   1      -2.664   1.153   5.337  0.00  0.00    -0.287 OA
BRANCH   8   9
ATOM      9  C   UNL d   1      -3.263  -0.066   5.260  0.00  0.00     0.257 C 
ATOM     10  O   UNL d   1      -4.042  -0.429   4.392  0.00  0.00    -0.266 OA
ATOM     11  C   UNL d   1      -2.869  -0.933   6.416  0.00  0.00     0.126 C 
ENDBRANCH   8   9
ENDBRANCH   3   8
ENDBRANCH   2   3
BRANCH   2  12
ATOM     12  O   UNL d   1      -3.014   2.911   2.012  0.00  0.00    -0.308 OA
BRANCH  12  13
ATOM     13  C   UNL d   1      -4.144   2.847   1.262  0.00  0.00     0.255 C 
ATOM     14  O   UNL d   1      -5.047   2.041   1.415  0.00  0.00    -0.266 OA
ATOM     15  C   UNL d   1      -4.092   3.846   0.150  0.00  0.00     0.126 C 
ENDBRANCH  12  13
ENDBRANCH   2  12
ENDBRANCH   1   2
BRANCH   1  16
ATOM     16  O   UNL d   1      -0.324   2.371   3.071  0.00  0.00    -0.311 OA
BRANCH  16  17
ATOM     17  C   UNL d   1       0.050   3.389   2.250  0.00  0.00     0.255 C 
ATOM     18  O   UNL d   1      -0.393   3.612   1.131  0.00  0.00    -0.266 OA
ATOM     19  C   UNL d   1       1.089   4.247   2.915  0.00  0.00     0.126 C 
ENDBRANCH  16  17
ENDBRANCH   1  16
BRANCH   1  20
ATOM     20  C   UNL d   1      -1.090   0.787   1.228  0.00  0.00     0.195 C 
BRANCH  20  21
ATOM     21  O   UNL d   1       0.301   0.444   0.944  0.00  0.00    -0.311 OA
BRANCH  21  22
ATOM     22  C   UNL d   1       1.012  -0.373   1.758  0.00  0.00     0.255 C 
ATOM     23  O   UNL d   1       0.612  -0.888   2.795  0.00  0.00    -0.266 OA
ATOM     24  C   UNL d   1       2.418  -0.519   1.255  0.00  0.00     0.126 C 
ENDBRANCH  21  22
ENDBRANCH  20  21
BRANCH  20  25
ATOM     25  C   UNL d   1      -2.071  -0.364   0.848  0.00  0.00     0.188 C 
BRANCH  25  26
ATOM     26  O   UNL d   1      -1.867  -1.485   1.729  0.00  0.00    -0.311 OA
BRANCH  26  27
ATOM     27  C   UNL d   1      -2.905  -2.357   1.841  0.00  0.00     0.255 C 
ATOM     28  O   UNL d   1      -3.994  -2.231   1.298  0.00  0.00    -0.266 OA
ATOM     29  C   UNL d   1      -2.515  -3.523   2.693  0.00  0.00     0.126 C 
ENDBRANCH  26  27
ENDBRANCH  25  26
BRANCH  25  30
ATOM     30  C   UNL d   1      -1.924  -0.809  -0.613  0.00  0.00     0.213 C 
BRANCH  30  31
ATOM     31  O   UNL d   1      -2.344   0.251  -1.487  0.00  0.00    -0.319 OA
BRANCH  31  32
ATOM     32  C   UNL d   1      -1.699   0.321  -2.679  0.00  0.00     0.254 C 
ATOM     33  O   UNL d   1      -0.720  -0.343  -2.999  0.00  0.00    -0.266 OA
ATOM     34  C   UNL d   1      -2.383   1.300  -3.582  0.00  0.00     0.126 C 
ENDBRANCH  31  32
ENDBRANCH  30  31
ENDBRANCH  25  30
ENDBRANCH  20  25
ENDBRANCH   1  20
TORSDOF 19
