REMARK  3 active torsions:
REMARK  status: ('A' for Active; 'I' for Inactive)
REMARK    1  A    between atoms: C_5  and  C_3 
REMARK    2  A    between atoms: C_11  and  C_4 
REMARK    3  A    between atoms: O_16  and  C_13 
ROOT
ATOM      1  N   UNL d   1       1.276   0.196  -0.071  0.00  0.00    -0.318 N 
ATOM      2  HN  UNL d   1       2.277   0.364  -0.169  1.00  0.00     0.169 HD
ATOM      3  C   UNL d   1       0.648  -0.951   0.025  0.00  0.00     0.183 A 
ATOM      4  C   UNL d   1       0.256   1.119  -0.009  0.00  0.00     0.138 A 
ATOM      5  N   UNL d   1      -0.966   0.568   0.088  0.00  0.00    -0.242 N 
ATOM      6  HN  UNL d   1      -1.869   1.040   0.135  1.00  0.00     0.196 HD
ATOM      7  O   UNL d   1      -0.709  -0.803   0.111  0.00  0.00    -0.217 OA
ENDROOT
BRANCH   3   8
ATOM      8  C   UNL d   1       1.166  -2.314   0.046  0.00  0.00     0.037 A 
ATOM      9  C   UNL d   1       2.416  -2.638   0.603  0.00  0.00     0.025 A 
ATOM     10  C   UNL d   1       2.885  -3.955   0.570  0.00  0.00     0.023 A 
ATOM     11 BR   UNL d   1       3.540  -1.374   1.477  0.00  0.00    -0.050 Br
ATOM     12  C   UNL d   1       2.115  -4.960  -0.013  0.00  0.00     0.038 A 
ATOM     13  C   UNL d   1       0.869  -4.667  -0.564  0.00  0.00     0.069 A 
ATOM     14  C   UNL d   1       0.400  -3.351  -0.533  0.00  0.00     0.054 A 
BRANCH  13  15
ATOM     15  O   UNL d   1       0.221  -5.744  -1.099  0.00  0.00    -0.356 OA
ATOM     16  C   UNL d   1      -1.058  -5.513  -1.679  0.00  0.00     0.210 C 
ENDBRANCH  13  15
ENDBRANCH   3   8
BRANCH   4  17
ATOM     17  C   UNL d   1       0.519   2.552  -0.044  0.00  0.00     0.010 A 
ATOM     18  C   UNL d   1       1.838   3.019  -0.171  0.00  0.00     0.015 A 
ATOM     19  C   UNL d   1       2.112   4.388  -0.204  0.00  0.00     0.001 A 
ATOM     20  C   UNL d   1       1.069   5.307  -0.110  0.00  0.00     0.000 A 
ATOM     21  C   UNL d   1      -0.244   4.859   0.020  0.00  0.00     0.001 A 
ATOM     22  C   UNL d   1      -0.519   3.489   0.053  0.00  0.00     0.015 A 
ENDBRANCH   4  17
TORSDOF 3
