REMARK  3 active torsions:
REMARK  status: ('A' for Active; 'I' for Inactive)
REMARK    1  A    between atoms: C_3  and  C_1 
REMARK    2  A    between atoms: C_5  and  C_2 
REMARK    3  A    between atoms: N_9  and  C_3 
ROOT
ATOM      1  C   UNL d   1      -0.919   0.414   0.906  0.00  0.00     0.083 C 
ATOM      2  C   UNL d   1       0.258  -0.224   1.074  0.00  0.00     0.038 C 
ATOM      3  C   UNL d   1      -1.300   0.727  -0.441  0.00  0.00     0.102 C 
ATOM      4  N   UNL d   1      -1.552   0.968  -1.547  0.00  0.00    -0.191 NA
ENDROOT
BRANCH   1   5
ATOM      5  C   UNL d   1      -1.875   0.785   2.004  0.00  0.00     0.115 C 
ATOM      6  S   UNL d   1      -3.546   0.850   1.877  0.00  0.00    -0.059 SA
BRANCH   5   7
ATOM      7  N   UNL d   1      -1.341   1.152   3.205  0.00  0.00    -0.389 N 
ATOM      8  H   UNL d   1      -0.354   1.151   3.424  0.00  0.00     0.157 HD
ATOM      9  H   UNL d   1      -1.973   1.399   3.958  0.00  0.00     0.157 HD
ENDBRANCH   5   7
ENDBRANCH   1   5
BRANCH   2  10
ATOM     10  C   UNL d   1       0.914  -0.700   2.302  0.00  0.00    -0.024 A 
ATOM     11  C   UNL d   1       0.588  -1.930   2.935  0.00  0.00    -0.016 A 
ATOM     12  C   UNL d   1       1.362  -2.341   4.051  0.00  0.00    -0.025 A 
ATOM     13  C   UNL d   1      -0.453  -2.788   2.508  0.00  0.00     0.013 A 
ATOM     14  C   UNL d   1       1.095  -3.569   4.679  0.00  0.00     0.012 A 
ATOM     15  C   UNL d   1       2.404  -1.526   4.520  0.00  0.00     0.012 A 
ATOM     16  C   UNL d   1       0.065  -4.393   4.232  0.00  0.00     0.001 A 
ATOM     17  C   UNL d   1      -0.713  -4.000   3.152  0.00  0.00     0.001 A 
ATOM     18  C   UNL d   1       2.698  -0.314   3.903  0.00  0.00     0.002 A 
ATOM     19  C   UNL d   1       1.965   0.093   2.794  0.00  0.00     0.012 A 
ENDBRANCH   2  10
TORSDOF 3
