REMARK  8 active torsions:
REMARK  status: ('A' for Active; 'I' for Inactive)
REMARK    1  A    between atoms: S_7  and  C_1 
REMARK    2  A    between atoms: C_2  and  S_8 
REMARK    3  A    between atoms: N_9  and  C_3 
REMARK    4  A    between atoms: N_10  and  C_4 
REMARK    5  A    between atoms: C_5  and  C_11 
REMARK    6  A    between atoms: C_12  and  C_6 
REMARK    7  A    between atoms: C_11  and  S_7 
REMARK    8  A    between atoms: S_8  and  C_12 
ROOT
ATOM      1  C   UNL d   1       3.673   3.744  -0.169  0.00  0.00    -0.020 C 
ATOM      2  C   UNL d   1       5.013   3.814  -0.058  0.00  0.00    -0.020 C 
ENDROOT
BRANCH   1   3
ATOM      3  C   UNL d   1       2.895   2.453  -0.096  0.00  0.00     0.106 C 
BRANCH   3   4
ATOM      4  S   UNL d   1       1.130   2.820   0.212  0.00  0.00    -0.124 SA
BRANCH   4   5
ATOM      5  C   UNL d   1       0.415   1.189  -0.040  0.00  0.00     0.021 A 
ATOM      6  C   UNL d   1       0.542   0.160   0.915  0.00  0.00     0.022 A 
ATOM      7  C   UNL d   1      -0.028  -1.092   0.643  0.00  0.00     0.024 A 
ATOM      8  C   UNL d   1      -0.809  -1.290  -0.496  0.00  0.00     0.002 A 
ATOM      9  C   UNL d   1      -0.993  -0.252  -1.400  0.00  0.00     0.001 A 
ATOM     10  C   UNL d   1      -0.376   0.982  -1.180  0.00  0.00     0.020 A 
BRANCH   6  11
ATOM     11  N   UNL d   1       1.389   0.294   2.035  0.00  0.00    -0.302 NA
ATOM     12  H   UNL d   1       1.468   1.270   2.317  0.00  0.00     0.124 HD
ATOM     13  H   UNL d   1       1.127  -0.306   2.810  0.00  0.00     0.124 HD
ENDBRANCH   6  11
ENDBRANCH   4   5
ENDBRANCH   3   4
ENDBRANCH   1   3
BRANCH   2  14
ATOM     14  C   UNL d   1       5.788   5.107  -0.123  0.00  0.00     0.106 C 
BRANCH  14  15
ATOM     15  S   UNL d   1       7.548   4.750  -0.471  0.00  0.00    -0.124 SA
BRANCH  15  16
ATOM     16  C   UNL d   1       8.270   6.364  -0.143  0.00  0.00     0.021 A 
ATOM     17  C   UNL d   1       8.135   7.441  -1.045  0.00  0.00     0.022 A 
ATOM     18  C   UNL d   1       8.713   8.675  -0.712  0.00  0.00     0.024 A 
ATOM     19  C   UNL d   1       9.506   8.814   0.431  0.00  0.00     0.002 A 
ATOM     20  C   UNL d   1       9.692   7.732   1.281  0.00  0.00     0.001 A 
ATOM     21  C   UNL d   1       9.072   6.512   1.000  0.00  0.00     0.020 A 
BRANCH  17  22
ATOM     22  N   UNL d   1       7.277   7.368  -2.159  0.00  0.00    -0.302 NA
ATOM     23  H   UNL d   1       7.191   6.408  -2.489  0.00  0.00     0.124 HD
ATOM     24  H   UNL d   1       7.537   8.005  -2.904  0.00  0.00     0.124 HD
ENDBRANCH  17  22
ENDBRANCH  15  16
ENDBRANCH  14  15
ENDBRANCH   2  14
TORSDOF 8
