REMARK  5 active torsions:
REMARK  status: ('A' for Active; 'I' for Inactive)
REMARK    1  A    between atoms: C_2  and  N_1 
REMARK    2  A    between atoms: C_3  and  C_4 
REMARK    3  A    between atoms: C_5  and  C_8 
REMARK       I    between atoms: C_10  and  N_19 
REMARK       I    between atoms: N_25  and  C_10 
REMARK    4  A    between atoms: C_18  and  C_11 
REMARK    5  A    between atoms: N_19  and  N_13 
ROOT
ATOM      1  C   UNL d   1       1.939  -2.442   0.592  0.00  0.00     0.088 A 
ATOM      2  O   UNL d   1       3.123  -3.029   0.240  0.00  0.00    -0.308 OA
ATOM      3  C   UNL d   1       2.001  -2.006   1.900  0.00  0.00     0.041 A 
ATOM      4  C   UNL d   1       3.938  -2.978   1.333  0.00  0.00     0.093 A 
ATOM      5  C   UNL d   1       3.284  -2.352   2.375  0.00  0.00     0.041 A 
ENDROOT
BRANCH   1   6
ATOM      6  C   UNL d   1       0.937  -2.321  -0.459  0.00  0.00     0.031 A 
ATOM      7  C   UNL d   1       0.715  -3.277  -1.460  0.00  0.00     0.116 A 
ATOM      8  C   UNL d   1      -0.197  -3.063  -2.509  0.00  0.00     0.053 A 
ATOM      9  C   UNL d   1      -0.924  -1.866  -2.568  0.00  0.00     0.050 A 
ATOM     10  C   UNL d   1      -0.747  -0.921  -1.547  0.00  0.00     0.017 A 
ATOM     11  C   UNL d   1       0.167  -1.146  -0.511  0.00  0.00     0.017 A 
BRANCH   7  12
ATOM     12  N   UNL d   1       1.398  -4.558  -1.430  0.00  0.00    -0.115 N 
ATOM     13  O   UNL d   1       1.173  -5.298  -0.464  0.00  0.00    -0.532 OA
ATOM     14  O   UNL d   1       2.102  -4.839  -2.411  0.00  0.00    -0.532 OA
ENDBRANCH   7  12
BRANCH   9  15
ATOM     15  C   UNL d   1      -1.870  -1.569  -3.708  0.00  0.00     0.417 C 
ATOM     16  F   UNL d   1      -1.935  -2.567  -4.630  0.00  0.00    -0.166 F 
ATOM     17  F   UNL d   1      -3.145  -1.362  -3.284  0.00  0.00    -0.166 F 
ATOM     18  F   UNL d   1      -1.512  -0.448  -4.391  0.00  0.00    -0.166 F 
ENDBRANCH   9  15
ENDBRANCH   1   6
BRANCH   4  19
ATOM     19  C   UNL d   1       5.264  -3.520   1.251  0.00  0.00     0.144 C 
ATOM     20  N   UNL d   1       6.038  -3.394   2.280  0.00  0.00    -0.305 N 
ATOM     21  HN  UNL d   1       5.724  -2.928   3.131  1.00  0.00     0.186 HD
BRANCH  20  22
ATOM     22  N   UNL d   1       7.296  -3.913   2.173  0.00  0.00    -0.252 N 
ATOM     23  C   UNL d   1       8.180  -3.816   3.220  0.00  0.00     0.332 C 
ATOM     24  O   UNL d   1       9.337  -4.215   3.162  0.00  0.00    -0.246 OA
ATOM     25  N   UNL d   1       7.655  -3.238   4.331  0.00  0.00    -0.351 N 
ATOM     26  H   UNL d   1       6.780  -2.754   4.194  0.00  0.00     0.160 HD
ATOM     27  H   UNL d   1       8.266  -2.992   5.093  0.00  0.00     0.160 HD
ATOM     28  H   UNL d   1       7.626  -4.347   1.318  0.00  0.00     0.191 HD
ENDBRANCH  20  22
ENDBRANCH   4  19
TORSDOF 5
