REMARK  7 active torsions:
REMARK  status: ('A' for Active; 'I' for Inactive)
REMARK    1  A    between atoms: C_5  and  C_1 
REMARK    2  A    between atoms: C_10  and  C_2 
REMARK    3  A    between atoms: C_6  and  N_9 
REMARK    4  A    between atoms: N_9  and  N_13 
REMARK    5  A    between atoms: O_25  and  C_10 
REMARK    6  A    between atoms: N_17  and  O_25 
REMARK    7  A    between atoms: C_19  and  C_23 
ROOT
ATOM      1  N   UNL d   1       5.477  -7.899   0.285  0.00  0.00    -0.267 N 
ATOM      2  HN  UNL d   1       4.804  -8.571   0.655  1.00  0.00     0.194 HD
ATOM      3  C   UNL d   1       5.188  -6.712  -0.131  0.00  0.00     0.140 C 
ENDROOT
BRANCH   1   4
ATOM      4  O   UNL d   1       6.862  -8.131   0.151  0.00  0.00    -0.195 OA
BRANCH   4   5
ATOM      5  C   UNL d   1       7.156  -9.467   0.374  0.00  0.00     0.320 C 
ATOM      6  O   UNL d   1       6.363 -10.330   0.720  0.00  0.00    -0.257 OA
BRANCH   5   7
ATOM      7  C   UNL d   1       8.547  -9.766   0.095  0.00  0.00     0.102 A 
ATOM      8  C   UNL d   1       9.110 -10.935  -0.518  0.00  0.00     0.087 A 
ATOM      9  N   UNL d   1      10.446 -10.801  -0.605  0.00  0.00    -0.259 N 
ATOM     10  O   UNL d   1      10.767  -9.605  -0.018  0.00  0.00    -0.241 OA
ATOM     11  HN  UNL d   1      11.096 -11.463  -1.028  1.00  0.00     0.195 HD
ATOM     12  C   UNL d   1       9.636  -8.970   0.382  0.00  0.00     0.091 A 
ATOM     13  C   UNL d   1       9.856  -7.667   1.040  0.00  0.00     0.080 C 
BRANCH   8  14
ATOM     14  C   UNL d   1       8.464 -12.136  -1.077  0.00  0.00     0.037 A 
ATOM     15  C   UNL d   1       7.390 -12.042  -1.987  0.00  0.00     0.048 A 
ATOM     16 CL   UNL d   1       6.800 -10.535  -2.614  0.00  0.00    -0.083 Cl
ATOM     17  C   UNL d   1       6.785 -13.192  -2.521  0.00  0.00     0.025 A 
ATOM     18  C   UNL d   1       7.278 -14.456  -2.220  0.00  0.00     0.003 A 
ATOM     19  C   UNL d   1       8.366 -14.575  -1.364  0.00  0.00     0.025 A 
ATOM     20  C   UNL d   1       8.941 -13.434  -0.779  0.00  0.00     0.048 A 
ATOM     21 CL   UNL d   1      10.244 -13.745   0.325  0.00  0.00    -0.083 Cl
ENDBRANCH   8  14
ENDBRANCH   5   7
ENDBRANCH   4   5
ENDBRANCH   1   4
BRANCH   3  22
ATOM     22  C   UNL d   1       3.754  -6.241  -0.143  0.00  0.00     0.039 C 
ATOM     23  N   UNL d   1       2.871  -7.069  -0.612  0.00  0.00    -0.303 N 
ATOM     24  HN  UNL d   1       3.160  -7.984  -0.956  1.00  0.00     0.186 HD
ATOM     25  C   UNL d   1       3.524  -4.850   0.373  0.00  0.00     0.071 C 
BRANCH  23  26
ATOM     26  N   UNL d   1       1.570  -6.714  -0.645  0.00  0.00    -0.297 N 
ATOM     27  H   UNL d   1       1.290  -5.752  -0.834  0.00  0.00     0.187 HD
BRANCH  26  28
ATOM     28  C   UNL d   1       0.623  -7.653  -1.133  0.00  0.00     0.091 A 
ATOM     29  C   UNL d   1      -0.693  -7.611  -0.612  0.00  0.00     0.065 A 
ATOM     30  C   UNL d   1      -1.675  -8.524  -1.010  0.00  0.00     0.050 A 
ATOM     31 CL   UNL d   1      -1.149  -6.420   0.564  0.00  0.00    -0.082 Cl
ATOM     32  C   UNL d   1      -1.363  -9.491  -1.956  0.00  0.00     0.037 A 
ATOM     33  C   UNL d   1      -0.092  -9.545  -2.514  0.00  0.00     0.050 A 
ATOM     34 CL   UNL d   1      -2.567 -10.610  -2.463  0.00  0.00    -0.084 Cl
ATOM     35  C   UNL d   1       0.894  -8.633  -2.113  0.00  0.00     0.065 A 
ATOM     36 CL   UNL d   1       2.392  -8.731  -2.984  0.00  0.00    -0.082 Cl
ENDBRANCH  26  28
ENDBRANCH  23  26
ENDBRANCH   3  22
TORSDOF 7
