REMARK  2 active torsions:
REMARK  status: ('A' for Active; 'I' for Inactive)
REMARK    1  A    between atoms: C_6  and  C_8 
REMARK    2  A    between atoms: C_14  and  C_7 
ROOT
ATOM      1  C   UNL d   1       1.746  -0.081   0.013  0.00  0.00     0.067 A 
ATOM      2  C   UNL d   1       0.833  -1.251   0.068  0.00  0.00     0.197 A 
ATOM      3  C   UNL d   1       0.923   1.162  -0.005  0.00  0.00     0.197 A 
ATOM      4  C   UNL d   1      -0.519  -0.690   0.046  0.00  0.00     0.029 A 
ATOM      5  C   UNL d   1      -0.475   0.701   0.004  0.00  0.00     0.029 A 
ATOM      6  C   UNL d   1       3.084  -0.076  -0.042  0.00  0.00     0.031 C 
ATOM      7  O   UNL d   1       1.099  -2.433   0.132  0.00  0.00    -0.286 OA
ATOM      8  O   UNL d   1       1.306   2.312  -0.035  0.00  0.00    -0.286 OA
ATOM      9  C   UNL d   1      -1.636   1.453  -0.032  0.00  0.00     0.016 A 
ATOM     10  C   UNL d   1      -1.713  -1.388   0.056  0.00  0.00     0.016 A 
ATOM     11  C   UNL d   1      -2.894  -0.645   0.021  0.00  0.00     0.001 A 
ATOM     12  C   UNL d   1      -2.856   0.763  -0.024  0.00  0.00     0.001 A 
ENDROOT
BRANCH   6  13
ATOM     13  C   UNL d   1       3.919  -1.279  -0.097  0.00  0.00    -0.035 A 
ATOM     14  C   UNL d   1       4.272  -1.830  -1.333  0.00  0.00     0.012 A 
ATOM     15  C   UNL d   1       5.091  -2.962  -1.394  0.00  0.00     0.017 A 
ATOM     16  C   UNL d   1       5.582  -3.555  -0.222  0.00  0.00     0.048 A 
ATOM     17  C   UNL d   1       5.211  -3.008   1.016  0.00  0.00     0.017 A 
ATOM     18  C   UNL d   1       4.381  -1.882   1.077  0.00  0.00     0.012 A 
BRANCH  16  19
ATOM     19  C   UNL d   1       6.516  -4.739  -0.291  0.00  0.00     0.417 C 
ATOM     20  F   UNL d   1       6.796  -5.133  -1.566  0.00  0.00    -0.166 F 
ATOM     21  F   UNL d   1       7.724  -4.480   0.286  0.00  0.00    -0.166 F 
ATOM     22  F   UNL d   1       6.030  -5.842   0.340  0.00  0.00    -0.166 F 
ENDBRANCH  16  19
ENDBRANCH   6  13
TORSDOF 2
