REMARK  2 active torsions:
REMARK  status: ('A' for Active; 'I' for Inactive)
REMARK       I    between atoms: C_4  and  N_1 
REMARK    1  A    between atoms: C_2  and  C_4 
REMARK    2  A    between atoms: C_14  and  N_10 
ROOT
ATOM      1  N   UNL d   1       1.019   0.220  -0.025  0.00  0.00    -0.279 N 
ATOM      2  C   UNL d   1       0.522  -1.100  -0.047  0.00  0.00     0.155 C 
ATOM      3  C   UNL d   1       2.338   0.609   0.317  0.00  0.00     0.269 C 
ATOM      4  S   UNL d   1      -1.179  -1.130  -0.489  0.00  0.00    -0.057 SA
ATOM      5  C   UNL d   1       0.158   1.169  -0.797  0.00  0.00     0.068 C 
ATOM      6  C   UNL d   1      -1.249   0.590  -0.653  0.00  0.00     0.005 C 
ATOM      7  N   UNL d   1       1.248  -2.135   0.219  0.00  0.00    -0.335 N 
ATOM      8  HN  UNL d   1       2.236  -1.979   0.416  1.00  0.00     0.168 HD
ATOM      9  O   UNL d   1       2.749   1.732   0.014  0.00  0.00    -0.266 OA
ATOM     10  C   UNL d   1      -2.425   1.224  -0.546  0.00  0.00     0.029 C 
ATOM     11  C   UNL d   1       0.201   2.644  -0.342  0.00  0.00     0.044 C 
ATOM     12  C   UNL d   1       0.563   1.112  -2.292  0.00  0.00     0.044 C 
ENDROOT
BRANCH   3  13
ATOM     13  C   UNL d   1       3.257  -0.331   0.944  0.00  0.00     0.096 C 
ATOM     14  S   UNL d   1       4.836  -0.408   0.278  0.00  0.00    -0.082 SA
ATOM     15  C   UNL d   1       5.261  -1.768   1.227  0.00  0.00     0.017 A 
ATOM     16  C   UNL d   1       6.468  -2.489   1.155  0.00  0.00     0.020 A 
ATOM     17  C   UNL d   1       4.238  -2.115   2.111  0.00  0.00     0.004 A 
ATOM     18  C   UNL d   1       6.614  -3.637   1.931  0.00  0.00     0.001 A 
ATOM     19  C   UNL d   1       5.594  -4.045   2.777  0.00  0.00     0.001 A 
ATOM     20  C   UNL d   1       4.424  -3.285   2.894  0.00  0.00     0.014 A 
ATOM     21  C   UNL d   1       3.152  -1.164   2.042  0.00  0.00     0.068 C 
ATOM     22 CL   UNL d   1       1.845  -1.178   3.162  0.00  0.00    -0.082 Cl
ENDBRANCH   3  13
BRANCH   7  23
ATOM     23  C   UNL d   1       0.778  -3.460   0.256  0.00  0.00     0.056 A 
ATOM     24  C   UNL d   1       1.458  -4.472  -0.443  0.00  0.00     0.060 A 
ATOM     25 CL   UNL d   1       2.849  -4.109  -1.407  0.00  0.00    -0.082 Cl
ATOM     26  C   UNL d   1       1.047  -5.806  -0.358  0.00  0.00     0.026 A 
ATOM     27  C   UNL d   1      -0.049  -6.152   0.432  0.00  0.00     0.002 A 
ATOM     28  C   UNL d   1      -0.710  -5.170   1.163  0.00  0.00     0.002 A 
ATOM     29  C   UNL d   1      -0.281  -3.841   1.095  0.00  0.00     0.031 A 
ENDBRANCH   7  23
TORSDOF 2
