REMARK  7 active torsions:
REMARK  status: ('A' for Active; 'I' for Inactive)
REMARK    1  A    between atoms: C_8  and  N_1 
REMARK    2  A    between atoms: C_5  and  C_2 
REMARK    3  A    between atoms: O_11  and  C_3 
REMARK    4  A    between atoms: C_4  and  C_7 
REMARK       I    between atoms: N_9  and  C_5 
REMARK       I    between atoms: C_7  and  N_10 
REMARK    5  A    between atoms: N_10  and  N_9 
REMARK    6  A    between atoms: C_22  and  O_11 
REMARK    7  A    between atoms: N_21  and  C_12 
ROOT
ATOM      1  C   UNL d   1      -5.334   1.540  -0.386  0.00  0.00     0.274 C 
ATOM      2  N   UNL d   1      -4.150   1.544   0.339  0.00  0.00    -0.263 N 
ATOM      3  O   UNL d   1      -5.561   0.708  -1.255  0.00  0.00    -0.266 OA
ATOM      4  H   UNL d   1      -3.949   2.185   1.103  0.00  0.00     0.190 HD
ENDROOT
BRANCH   2   5
ATOM      5  N   UNL d   1      -3.238   0.489   0.213  0.00  0.00    -0.263 N 
ATOM      6  C   UNL d   1      -2.416   0.240   1.299  0.00  0.00     0.272 C 
ATOM      7  O   UNL d   1      -2.448   0.932   2.314  0.00  0.00    -0.266 OA
ATOM      8  H   UNL d   1      -3.341  -0.151  -0.577  0.00  0.00     0.190 HD
BRANCH   6   9
ATOM      9  C   UNL d   1      -1.485  -0.923   1.213  0.00  0.00     0.057 A 
ATOM     10  C   UNL d   1      -1.151  -1.546   2.429  0.00  0.00     0.055 A 
ATOM     11  C   UNL d   1      -0.306  -2.660   2.436  0.00  0.00     0.103 A 
ATOM     12  C   UNL d   1       0.192  -3.175   1.237  0.00  0.00     0.038 A 
ATOM     13  C   UNL d   1      -0.135  -2.546   0.031  0.00  0.00     0.027 A 
ATOM     14  C   UNL d   1      -0.919  -1.380   0.003  0.00  0.00     0.021 A 
BRANCH  11  15
ATOM     15  N   UNL d   1       0.055  -3.301   3.708  0.00  0.00    -0.116 N 
ATOM     16  O   UNL d   1      -0.399  -2.809   4.750  0.00  0.00    -0.532 OA
ATOM     17  O   UNL d   1       0.795  -4.293   3.662  0.00  0.00    -0.532 OA
ENDBRANCH  11  15
BRANCH  14  18
ATOM     18  N   UNL d   1      -1.227  -0.820  -1.250  0.00  0.00    -0.302 NA
ATOM     19  H   UNL d   1      -0.603  -1.114  -2.000  0.00  0.00     0.124 HD
ATOM     20  H   UNL d   1      -1.301   0.197  -1.228  0.00  0.00     0.124 HD
ENDBRANCH  14  18
ENDBRANCH   6   9
ENDBRANCH   2   5
BRANCH   1  21
ATOM     21  C   UNL d   1      -6.302   2.626  -0.043  0.00  0.00     0.085 A 
ATOM     22  C   UNL d   1      -7.253   3.097  -0.949  0.00  0.00     0.164 A 
ATOM     23  N   UNL d   1      -8.063   4.164  -0.681  0.00  0.00    -0.346 N 
ATOM     24  C   UNL d   1      -7.998   4.726   0.539  0.00  0.00     0.090 A 
ATOM     25  HN  UNL d   1      -8.703   4.525  -1.389  1.00  0.00     0.167 HD
ATOM     26  C   UNL d   1      -7.148   4.281   1.528  0.00  0.00     0.018 A 
ATOM     27  C   UNL d   1      -6.290   3.222   1.232  0.00  0.00     0.023 A 
BRANCH  22  28
ATOM     28  O   UNL d   1      -7.384   2.503  -2.198  0.00  0.00    -0.293 OA
BRANCH  28  29
ATOM     29  C   UNL d   1      -8.616   2.598  -2.813  0.00  0.00     0.077 A 
ATOM     30  C   UNL d   1      -8.633   2.920  -4.172  0.00  0.00     0.037 A 
ATOM     31  C   UNL d   1      -9.850   3.045  -4.847  0.00  0.00     0.003 A 
ATOM     32  C   UNL d   1     -11.052   2.837  -4.169  0.00  0.00     0.000 A 
ATOM     33  C   UNL d   1     -11.037   2.477  -2.823  0.00  0.00     0.003 A 
ATOM     34  C   UNL d   1      -9.822   2.340  -2.150  0.00  0.00     0.037 A 
ENDBRANCH  28  29
ENDBRANCH  22  28
ENDBRANCH   1  21
TORSDOF 7
