REMARK  4 active torsions:
REMARK  status: ('A' for Active; 'I' for Inactive)
REMARK    1  A    between atoms: C_2  and  C_1 
REMARK       I    between atoms: N_4  and  C_1 
REMARK    2  A    between atoms: O_5  and  C_3 
REMARK    3  A    between atoms: C_9  and  N_4 
REMARK    4  A    between atoms: C_10  and  O_5 
ROOT
ATOM      1  C   UNL d   1       0.229   0.887  -0.860  0.00  0.00     0.083 A 
ATOM      2  C   UNL d   1      -0.578   1.829  -0.223  0.00  0.00     0.163 A 
ATOM      3  N   UNL d   1      -1.050   2.937  -0.860  0.00  0.00    -0.346 N 
ATOM      4  HN  UNL d   1      -1.587   3.642  -0.356  1.00  0.00     0.167 HD
ATOM      5  C   UNL d   1       0.495   1.072  -2.227  0.00  0.00     0.023 A 
ATOM      6  C   UNL d   1      -0.787   3.076  -2.174  0.00  0.00     0.090 A 
ATOM      7  C   UNL d   1      -0.026   2.177  -2.895  0.00  0.00     0.018 A 
ENDROOT
BRANCH   1   8
ATOM      8  C   UNL d   1       0.698  -0.351  -0.188  0.00  0.00     0.260 C 
ATOM      9  N   UNL d   1       1.945  -0.809  -0.593  0.00  0.00    -0.323 N 
ATOM     10  H   UNL d   1       2.540  -0.160  -1.092  0.00  0.00     0.169 HD
ATOM     11  O   UNL d   1      -0.035  -0.897   0.626  0.00  0.00    -0.267 OA
BRANCH   9  12
ATOM     12  C   UNL d   1       2.478  -2.102  -0.383  0.00  0.00     0.035 A 
ATOM     13  C   UNL d   1       1.741  -3.159   0.162  0.00  0.00     0.032 A 
ATOM     14  C   UNL d   1       2.304  -4.434   0.278  0.00  0.00     0.044 A 
ATOM     15  C   UNL d   1       3.607  -4.652  -0.145  0.00  0.00     0.116 A 
ATOM     16  C   UNL d   1       4.360  -3.616  -0.685  0.00  0.00     0.044 A 
ATOM     17  F   UNL d   1       4.141  -5.874  -0.044  0.00  0.00    -0.206 F 
ATOM     18  C   UNL d   1       3.794  -2.341  -0.806  0.00  0.00     0.032 A 
ENDBRANCH   9  12
ENDBRANCH   1   8
BRANCH   2  19
ATOM     19  O   UNL d   1      -0.876   1.673   1.127  0.00  0.00    -0.293 OA
BRANCH  19  20
ATOM     20  C   UNL d   1      -1.946   2.383   1.630  0.00  0.00     0.077 A 
ATOM     21  C   UNL d   1      -3.204   2.392   1.019  0.00  0.00     0.037 A 
ATOM     22  C   UNL d   1      -4.238   3.159   1.558  0.00  0.00     0.003 A 
ATOM     23  C   UNL d   1      -4.030   3.881   2.732  0.00  0.00     0.000 A 
ATOM     24  C   UNL d   1      -2.794   3.825   3.376  0.00  0.00     0.003 A 
ATOM     25  C   UNL d   1      -1.753   3.070   2.830  0.00  0.00     0.037 A 
ENDBRANCH  19  20
ENDBRANCH   2  19
TORSDOF 4
