REMARK  10 active torsions:
REMARK  status: ('A' for Active; 'I' for Inactive)
REMARK    1  A    between atoms: N_14  and  C_1 
REMARK    2  A    between atoms: C_2  and  N_16 
REMARK    3  A    between atoms: S_3  and  N_14 
REMARK    4  A    between atoms: N_16  and  S_3 
REMARK    5  A    between atoms: C_21  and  C_4 
REMARK    6  A    between atoms: C_19  and  C_5 
REMARK    7  A    between atoms: C_18  and  C_6 
REMARK    8  A    between atoms: C_20  and  C_7 
REMARK    9  A    between atoms: C_22  and  C_8 
REMARK   10  A    between atoms: C_23  and  C_9 
ROOT
ATOM      1  S   UNL d   1       3.896  -1.271   0.773  0.00  0.00     0.068 SA
ENDROOT
BRANCH   1   2
ATOM      2  N   UNL d   1       2.992  -0.308   0.019  0.00  0.00    -0.312 N 
ATOM      3  HN  UNL d   1       3.353   0.340  -0.681  1.00  0.00     0.176 HD
BRANCH   2   4
ATOM      4  C   UNL d   1       1.659  -0.367   0.342  0.00  0.00     0.053 A 
ATOM      5  C   UNL d   1       1.098   0.040   1.616  0.00  0.00    -0.022 A 
ATOM      6  C   UNL d   1      -0.314  -0.119   1.823  0.00  0.00     0.018 A 
ATOM      7  C   UNL d   1      -1.224  -0.579   0.876  0.00  0.00    -0.049 A 
ATOM      8  C   UNL d   1      -0.686  -0.867  -0.367  0.00  0.00     0.018 A 
ATOM      9  C   UNL d   1       0.709  -0.785  -0.684  0.00  0.00    -0.022 A 
BRANCH   5  10
ATOM     10  C   UNL d   1       1.821   0.677   2.861  0.00  0.00    -0.022 C 
ATOM     11  C   UNL d   1       3.338   0.952   2.861  0.00  0.00     0.019 C 
ATOM     12  C   UNL d   1       1.195   2.079   3.125  0.00  0.00     0.019 C 
ATOM     13  C   UNL d   1       1.555  -0.218   4.109  0.00  0.00     0.019 C 
ENDBRANCH   5  10
BRANCH   7  14
ATOM     14  C   UNL d   1      -2.707  -0.748   1.224  0.00  0.00    -0.024 C 
ATOM     15  C   UNL d   1      -3.570  -1.297   0.064  0.00  0.00     0.019 C 
ATOM     16  C   UNL d   1      -2.850  -1.742   2.399  0.00  0.00     0.019 C 
ATOM     17  C   UNL d   1      -3.314   0.611   1.636  0.00  0.00     0.019 C 
ENDBRANCH   7  14
BRANCH   9  18
ATOM     18  C   UNL d   1       1.027  -1.182  -2.176  0.00  0.00    -0.022 C 
ATOM     19  C   UNL d   1       2.491  -1.251  -2.650  0.00  0.00     0.019 C 
ATOM     20  C   UNL d   1       0.434  -2.588  -2.500  0.00  0.00     0.019 C 
ATOM     21  C   UNL d   1       0.340  -0.153  -3.117  0.00  0.00     0.019 C 
ENDBRANCH   9  18
ENDBRANCH   2   4
ENDBRANCH   1   2
BRANCH   1  22
ATOM     22  N   UNL d   1       4.617  -2.201  -0.174  0.00  0.00    -0.312 N 
ATOM     23  HN  UNL d   1       4.625  -2.027  -1.179  1.00  0.00     0.176 HD
BRANCH  22  24
ATOM     24  C   UNL d   1       5.259  -3.284   0.361  0.00  0.00     0.053 C 
ATOM     25  C   UNL d   1       4.573  -4.430   0.953  0.00  0.00    -0.022 C 
ATOM     26  C   UNL d   1       5.271  -5.664   1.037  0.00  0.00     0.018 C 
ATOM     27  C   UNL d   1       6.587  -5.871   0.628  0.00  0.00    -0.049 C 
ATOM     28  C   UNL d   1       7.264  -4.747   0.194  0.00  0.00     0.018 C 
ATOM     29  C   UNL d   1       6.673  -3.449   0.079  0.00  0.00    -0.022 C 
BRANCH  25  30
ATOM     30  C   UNL d   1       3.127  -4.437   1.572  0.00  0.00    -0.022 C 
ATOM     31  C   UNL d   1       2.026  -4.035   0.577  0.00  0.00     0.019 C 
ATOM     32  C   UNL d   1       2.623  -5.848   2.047  0.00  0.00     0.019 C 
ATOM     33  C   UNL d   1       3.122  -3.640   2.900  0.00  0.00     0.019 C 
ENDBRANCH  25  30
BRANCH  27  34
ATOM     34  C   UNL d   1       7.188  -7.276   0.697  0.00  0.00    -0.024 C 
ATOM     35  C   UNL d   1       8.661  -7.353   0.244  0.00  0.00     0.019 C 
ATOM     36  C   UNL d   1       7.127  -7.801   2.150  0.00  0.00     0.019 C 
ATOM     37  C   UNL d   1       6.378  -8.222  -0.219  0.00  0.00     0.019 C 
ENDBRANCH  27  34
BRANCH  29  38
ATOM     38  C   UNL d   1       7.675  -2.313  -0.343  0.00  0.00    -0.022 C 
ATOM     39  C   UNL d   1       7.192  -0.847  -0.312  0.00  0.00     0.019 C 
ATOM     40  C   UNL d   1       8.899  -2.334   0.626  0.00  0.00     0.019 C 
ATOM     41  C   UNL d   1       8.190  -2.580  -1.778  0.00  0.00     0.019 C 
ENDBRANCH  29  38
ENDBRANCH  22  24
ENDBRANCH   1  22
TORSDOF 10
