REMARK  5 active torsions:
REMARK  status: ('A' for Active; 'I' for Inactive)
REMARK    1  A    between atoms: N_2  and  C_1 
REMARK    2  A    between atoms: N_6  and  C_1 
REMARK    3  A    between atoms: C_9  and  N_2 
REMARK    4  A    between atoms: C_4  and  C_5 
REMARK    5  A    between atoms: C_15  and  N_6 
ROOT
ATOM      1  C   UNL d   1       2.234  -4.640   1.786  0.00  0.00    -0.051 A 
ATOM      2  C   UNL d   1       1.353  -4.638   0.690  0.00  0.00     0.010 A 
ATOM      3  C   UNL d   1       2.403  -3.424   2.463  0.00  0.00     0.010 A 
ATOM      4  C   UNL d   1       0.876  -2.265   0.965  0.00  0.00     0.034 A 
ATOM      5  C   UNL d   1       0.695  -3.470   0.279  0.00  0.00     0.030 A 
ATOM      6  C   UNL d   1       1.743  -2.256   2.054  0.00  0.00     0.030 A 
ENDROOT
BRANCH   4   7
ATOM      7  N   UNL d   1       0.228  -1.117   0.452  0.00  0.00    -0.333 N 
ATOM      8  H   UNL d   1      -0.209  -1.251  -0.447  0.00  0.00     0.168 HD
BRANCH   7   9
ATOM      9  C   UNL d   1      -0.036   0.098   1.031  0.00  0.00     0.172 C 
ATOM     10  S   UNL d   1      -0.096   0.493   2.653  0.00  0.00    -0.041 SA
BRANCH   9  11
ATOM     11  N   UNL d   1      -0.324   1.116   0.162  0.00  0.00    -0.367 N 
ATOM     12  H   UNL d   1      -0.472   2.002   0.633  0.00  0.00     0.161 HD
BRANCH  11  13
ATOM     13  C   UNL d   1      -0.264   1.155  -1.290  0.00  0.00     0.117 C 
ATOM     14  C   UNL d   1       1.159   1.195  -1.815  0.00  0.00     0.026 C 
ENDBRANCH  11  13
ENDBRANCH   9  11
ENDBRANCH   7   9
ENDBRANCH   4   7
BRANCH   1  15
ATOM     15  C   UNL d   1       2.989  -5.920   2.184  0.00  0.00    -0.024 C 
ATOM     16  C   UNL d   1       3.968  -5.724   3.365  0.00  0.00     0.019 C 
ATOM     17  C   UNL d   1       1.986  -7.016   2.597  0.00  0.00     0.019 C 
ATOM     18  C   UNL d   1       3.824  -6.420   0.984  0.00  0.00     0.019 C 
ENDBRANCH   1  15
TORSDOF 5
