REMARK  6 active torsions:
REMARK  status: ('A' for Active; 'I' for Inactive)
REMARK    1  A    between atoms: N_2  and  C_1 
REMARK    2  A    between atoms: C_3  and  N_5 
REMARK    3  A    between atoms: N_7  and  C_3 
REMARK    4  A    between atoms: N_5  and  C_4 
REMARK    5  A    between atoms: C_12  and  N_7 
REMARK    6  A    between atoms: O_15  and  C_13 
ROOT
ATOM      1  C   UNL d   1       0.824  -0.563   1.040  0.00  0.00     0.132 C 
ATOM      2  C   UNL d   1       0.507  -1.717   0.296  0.00  0.00     0.067 C 
ATOM      3  C   UNL d   1      -0.032   0.552   1.013  0.00  0.00     0.075 C 
ATOM      4  C   UNL d   1      -0.760  -1.798  -0.294  0.00  0.00     0.035 C 
ATOM      5  C   UNL d   1      -1.244   0.497   0.328  0.00  0.00     0.070 C 
ATOM      6  C   UNL d   1      -1.628  -0.694  -0.285  0.00  0.00     0.039 C 
ENDROOT
BRANCH   2   7
ATOM      7  N   UNL d   1       1.413  -2.781   0.021  0.00  0.00    -0.331 N 
ATOM      8  H   UNL d   1       0.998  -3.662  -0.253  0.00  0.00     0.168 HD
BRANCH   7   9
ATOM      9  C   UNL d   1       2.652  -2.595  -0.527  0.00  0.00     0.172 C 
ATOM     10  S   UNL d   1       3.211  -1.215  -1.307  0.00  0.00    -0.041 SA
BRANCH   9  11
ATOM     11  N   UNL d   1       3.533  -3.629  -0.472  0.00  0.00    -0.359 N 
ATOM     12  H   UNL d   1       4.419  -3.368  -0.895  0.00  0.00     0.162 HD
BRANCH  11  13
ATOM     13  C   UNL d   1       3.516  -4.958   0.170  0.00  0.00     0.021 C 
ATOM     14  C   UNL d   1       2.556  -5.906  -0.561  0.00  0.00     0.037 C 
ATOM     15  C   UNL d   1       4.944  -5.534   0.051  0.00  0.00     0.037 C 
ATOM     16  C   UNL d   1       3.162  -4.876   1.661  0.00  0.00     0.037 C 
ENDBRANCH  11  13
ENDBRANCH   9  11
ENDBRANCH   7   9
ENDBRANCH   2   7
BRANCH   1  17
ATOM     17  N   UNL d   1       1.962  -0.514   1.972  0.00  0.00    -0.113 N 
ATOM     18  O   UNL d   1       2.465  -1.580   2.347  0.00  0.00    -0.532 OA
ATOM     19  O   UNL d   1       2.300   0.599   2.406  0.00  0.00    -0.532 OA
ENDBRANCH   1  17
BRANCH   5  20
ATOM     20  O   UNL d   1      -1.938   1.673   0.328  0.00  0.00    -0.356 OA
ATOM     21  C   UNL d   1      -3.297   1.635  -0.084  0.00  0.00     0.210 C 
ENDBRANCH   5  20
TORSDOF 6
