REMARK  7 active torsions:
REMARK  status: ('A' for Active; 'I' for Inactive)
REMARK    1  A    between atoms: C_5  and  C_1 
REMARK    2  A    between atoms: N_8  and  C_2 
REMARK       I    between atoms: C_9  and  N_8 
REMARK    3  A    between atoms: O_19  and  C_9 
REMARK    4  A    between atoms: C_14  and  O_24 
REMARK    5  A    between atoms: C_29  and  O_19 
REMARK    6  A    between atoms: O_24  and  C_30 
REMARK    7  A    between atoms: C_30  and  C_29 
ROOT
ATOM      1  N   UNL d   1       0.848  -2.368  -0.586  0.00  0.00    -0.298 N 
ATOM      2  C   UNL d   1       1.942  -2.915  -0.003  0.00  0.00     0.365 C 
ATOM      3  O   UNL d   1       2.715  -2.396   0.785  0.00  0.00    -0.238 OA
ATOM      4  H   UNL d   1       0.394  -2.987  -1.245  0.00  0.00     0.171 HD
ENDROOT
BRANCH   1   5
ATOM      5  C   UNL d   1       0.181  -1.197  -0.260  0.00  0.00     0.098 A 
ATOM      6  C   UNL d   1      -0.960  -0.692  -0.975  0.00  0.00     0.098 A 
ATOM      7  N   UNL d   1      -1.420   0.427  -0.400  0.00  0.00    -0.258 N 
ATOM      8  O   UNL d   1      -0.591   0.679   0.667  0.00  0.00    -0.240 OA
ATOM      9  HN  UNL d   1      -2.224   0.981  -0.695  1.00  0.00     0.195 HD
ATOM     10  C   UNL d   1       0.353  -0.300   0.775  0.00  0.00     0.101 A 
ATOM     11  C   UNL d   1       1.227  -0.151   1.955  0.00  0.00     0.081 C 
BRANCH   6  12
ATOM     12  C   UNL d   1      -1.578  -1.235  -2.183  0.00  0.00     0.038 A 
ATOM     13  C   UNL d   1      -2.089  -2.550  -2.221  0.00  0.00     0.048 A 
ATOM     14 CL   UNL d   1      -2.138  -3.582  -0.827  0.00  0.00    -0.083 Cl
ATOM     15  C   UNL d   1      -2.585  -3.097  -3.410  0.00  0.00     0.025 A 
ATOM     16  C   UNL d   1      -2.620  -2.332  -4.574  0.00  0.00     0.003 A 
ATOM     17  C   UNL d   1      -2.157  -1.023  -4.547  0.00  0.00     0.025 A 
ATOM     18  C   UNL d   1      -1.630  -0.477  -3.371  0.00  0.00     0.048 A 
ATOM     19 CL   UNL d   1      -1.008   1.137  -3.488  0.00  0.00    -0.083 Cl
ENDBRANCH   6  12
ENDBRANCH   1   5
BRANCH   2  20
ATOM     20  O   UNL d   1       1.992  -4.226  -0.376  0.00  0.00    -0.302 OA
BRANCH  20  21
ATOM     21  C   UNL d   1       2.736  -5.078   0.514  0.00  0.00     0.207 C 
BRANCH  21  22
ATOM     22  C   UNL d   1       1.981  -5.200   1.840  0.00  0.00     0.202 C 
BRANCH  22  23
ATOM     23  O   UNL d   1       2.723  -5.959   2.791  0.00  0.00    -0.347 OA
BRANCH  23  24
ATOM     24  C   UNL d   1       2.143  -6.017   4.036  0.00  0.00     0.090 A 
ATOM     25  C   UNL d   1       2.254  -7.213   4.762  0.00  0.00     0.069 A 
ATOM     26  C   UNL d   1       1.696  -7.322   6.040  0.00  0.00     0.050 A 
ATOM     27 CL   UNL d   1       3.052  -8.595   4.099  0.00  0.00    -0.081 Cl
ATOM     28  C   UNL d   1       1.038  -6.234   6.602  0.00  0.00     0.035 A 
ATOM     29  C   UNL d   1       0.940  -5.033   5.906  0.00  0.00     0.026 A 
ATOM     30 CL   UNL d   1       0.347  -6.361   8.172  0.00  0.00    -0.084 Cl
ATOM     31  C   UNL d   1       1.504  -4.921   4.633  0.00  0.00     0.040 A 
ENDBRANCH  23  24
ENDBRANCH  22  23
ENDBRANCH  21  22
ENDBRANCH  20  21
ENDBRANCH   2  20
TORSDOF 7
