REMARK  6 active torsions:
REMARK  status: ('A' for Active; 'I' for Inactive)
REMARK    1  A    between atoms: C_8  and  N_1 
REMARK    2  A    between atoms: C_11  and  C_2 
REMARK    3  A    between atoms: S_9  and  C_5 
REMARK    4  A    between atoms: C_15  and  S_9 
REMARK    5  A    between atoms: C_12  and  C_15 
REMARK    6  A    between atoms: C_13  and  C_14 
ROOT
ATOM      1  N   UNL d   1      -0.363  -1.260   0.008  0.00  0.00    -0.275 N 
ATOM      2  C   UNL d   1       0.899  -0.639   0.011  0.00  0.00     0.139 A 
ATOM      3  N   UNL d   1       0.723   0.671   0.061  0.00  0.00    -0.282 N 
ATOM      4  HN  UNL d   1       1.466   1.366   0.141  1.00  0.00     0.188 HD
ATOM      5  C   UNL d   1      -1.258  -0.195  -0.074  0.00  0.00     0.168 A 
ATOM      6  N   UNL d   1      -0.611   0.945  -0.012  0.00  0.00    -0.278 N 
ATOM      7  HN  UNL d   1      -1.033   1.874  -0.016  1.00  0.00     0.189 HD
ENDROOT
BRANCH   2   8
ATOM      8  C   UNL d   1       2.232  -1.268  -0.080  0.00  0.00     0.010 A 
ATOM      9  C   UNL d   1       2.494  -2.397  -0.862  0.00  0.00     0.016 A 
ATOM     10  C   UNL d   1       3.762  -3.000  -0.864  0.00  0.00     0.009 A 
ATOM     11  C   UNL d   1       4.836  -2.465  -0.130  0.00  0.00    -0.051 A 
ATOM     12  C   UNL d   1       4.582  -1.290   0.594  0.00  0.00     0.009 A 
ATOM     13  C   UNL d   1       3.305  -0.704   0.619  0.00  0.00     0.016 A 
BRANCH  11  14
ATOM     14  C   UNL d   1       6.210  -3.163  -0.136  0.00  0.00    -0.024 C 
ATOM     15  C   UNL d   1       7.291  -2.409   0.671  0.00  0.00     0.019 C 
ATOM     16  C   UNL d   1       6.078  -4.573   0.481  0.00  0.00     0.019 C 
ATOM     17  C   UNL d   1       6.737  -3.301  -1.581  0.00  0.00     0.019 C 
ENDBRANCH  11  14
ENDBRANCH   2   8
BRANCH   1  18
ATOM     18  C   UNL d   1      -0.633  -2.661   0.088  0.00  0.00     0.046 A 
ATOM     19  C   UNL d   1      -1.659  -3.241  -0.665  0.00  0.00     0.072 A 
ATOM     20  C   UNL d   1      -1.837  -4.622  -0.638  0.00  0.00     0.118 A 
ATOM     21  F   UNL d   1      -2.805  -5.173  -1.381  0.00  0.00    -0.206 F 
ATOM     22  C   UNL d   1      -1.010  -5.446   0.117  0.00  0.00     0.042 A 
ATOM     23  C   UNL d   1       0.002  -4.877   0.884  0.00  0.00     0.005 A 
ATOM     24  C   UNL d   1       0.179  -3.490   0.885  0.00  0.00     0.030 A 
ENDBRANCH   1  18
BRANCH   5  25
ATOM     25  S   UNL d   1      -2.998  -0.305  -0.065  0.00  0.00    -0.087 SA
BRANCH  25  26
ATOM     26  C   UNL d   1      -3.475   1.448  -0.230  0.00  0.00     0.122 C 
BRANCH  26  27
ATOM     27  C   UNL d   1      -4.970   1.624  -0.388  0.00  0.00    -0.027 A 
ATOM     28  C   UNL d   1      -5.614   1.636  -1.639  0.00  0.00     0.041 A 
ATOM     29 CL   UNL d   1      -4.740   1.438  -3.116  0.00  0.00    -0.084 Cl
ATOM     30  C   UNL d   1      -6.999   1.819  -1.731  0.00  0.00     0.024 A 
ATOM     31  C   UNL d   1      -7.766   1.986  -0.581  0.00  0.00     0.002 A 
ATOM     32  C   UNL d   1      -7.151   1.967   0.668  0.00  0.00     0.001 A 
ATOM     33  C   UNL d   1      -5.769   1.786   0.763  0.00  0.00     0.009 A 
ENDBRANCH  26  27
ENDBRANCH  25  26
ENDBRANCH   5  25
TORSDOF 6
