REMARK  5 active torsions:
REMARK  status: ('A' for Active; 'I' for Inactive)
REMARK    1  A    between atoms: N_2  and  S_1 
REMARK    2  A    between atoms: C_8  and  S_1 
REMARK    3  A    between atoms: C_3  and  N_2 
REMARK    4  A    between atoms: C_5  and  O_14 
REMARK    5  A    between atoms: O_14  and  C_20 
ROOT
ATOM      1  C   UNL d   1       3.178  -1.609   0.089  0.00  0.00     0.084 A 
ATOM      2  C   UNL d   1       3.171  -2.753  -0.677  0.00  0.00     0.074 A 
ATOM      3  C   UNL d   1       2.675  -2.840  -2.019  0.00  0.00     0.102 C 
ATOM      4  S   UNL d   1       3.950  -1.832   1.592  0.00  0.00    -0.088 SA
ATOM      5  N   UNL d   1       2.287  -2.934  -3.107  0.00  0.00    -0.191 NA
ATOM      6  C   UNL d   1       3.761  -3.853   0.022  0.00  0.00     0.032 A 
ATOM      7  C   UNL d   1       4.208  -3.494   1.276  0.00  0.00     0.053 A 
ENDROOT
BRANCH   1   8
ATOM      8  N   UNL d   1       2.704  -0.319  -0.322  0.00  0.00    -0.173 NA
ATOM      9  H   UNL d   1       3.195   0.419   0.190  0.00  0.00     0.146 HD
BRANCH   8  10
ATOM     10  S   UNL d   1       1.060  -0.043   0.078  0.00  0.00     0.246 S 
ATOM     11  O   UNL d   1       1.055   1.158   0.886  0.00  0.00    -0.206 OA
ATOM     12  O   UNL d   1       0.437  -1.268   0.532  0.00  0.00    -0.206 OA
BRANCH  10  13
ATOM     13  C   UNL d   1       0.391   0.360  -1.513  0.00  0.00     0.075 A 
ATOM     14  C   UNL d   1      -0.166  -0.656  -2.292  0.00  0.00     0.027 A 
ATOM     15  C   UNL d   1      -0.676  -0.365  -3.560  0.00  0.00     0.038 A 
ATOM     16  C   UNL d   1      -0.694   0.950  -4.022  0.00  0.00     0.078 A 
ATOM     17  C   UNL d   1      -0.135   1.962  -3.229  0.00  0.00     0.038 A 
ATOM     18  C   UNL d   1       0.401   1.677  -1.971  0.00  0.00     0.027 A 
BRANCH  16  19
ATOM     19  O   UNL d   1      -1.185   1.379  -5.216  0.00  0.00    -0.255 OA
BRANCH  19  20
ATOM     20  C   UNL d   1      -2.186   0.626  -5.887  0.00  0.00     0.530 C 
ATOM     21  F   UNL d   1      -2.804  -0.289  -5.111  0.00  0.00    -0.144 F 
ATOM     22  F   UNL d   1      -3.132   1.485  -6.332  0.00  0.00    -0.144 F 
ATOM     23  F   UNL d   1      -1.647   0.006  -6.957  0.00  0.00    -0.144 F 
ENDBRANCH  19  20
ENDBRANCH  16  19
ENDBRANCH  10  13
ENDBRANCH   8  10
ENDBRANCH   1   8
TORSDOF 5
