REMARK  4 active torsions:
REMARK  status: ('A' for Active; 'I' for Inactive)
REMARK    1  A    between atoms: N_6  and  C_1 
REMARK    2  A    between atoms: N_7  and  C_1 
REMARK    3  A    between atoms: N_2  and  N_6 
REMARK    4  A    between atoms: C_11  and  N_7 
ROOT
ATOM      1  N   UNL d   1       2.289  -1.883   1.684  0.00  0.00    -0.276 N 
ATOM      2  H   UNL d   1       2.782  -2.334   2.446  0.00  0.00     0.189 HD
ENDROOT
BRANCH   1   3
ATOM      3  N   UNL d   1       0.946  -2.050   1.587  0.00  0.00    -0.301 N 
ATOM      4  C   UNL d   1       0.440  -3.208   1.915  0.00  0.00     0.046 C 
ATOM      5  C   UNL d   1      -1.048  -3.339   2.024  0.00  0.00    -0.004 A 
ATOM      6  C   UNL d   1       1.255  -4.458   2.198  0.00  0.00     0.133 C 
ATOM      7  C   UNL d   1      -1.695  -4.589   1.982  0.00  0.00    -0.037 A 
ATOM      8  C   UNL d   1      -1.801  -2.168   2.217  0.00  0.00     0.014 A 
ATOM      9  C   UNL d   1      -3.093  -4.628   2.158  0.00  0.00     0.009 A 
ATOM     10  C   UNL d   1      -0.988  -5.907   1.808  0.00  0.00     0.113 C 
ATOM     11  C   UNL d   1      -3.830  -3.461   2.356  0.00  0.00     0.001 A 
ATOM     12  C   UNL d   1      -3.185  -2.231   2.385  0.00  0.00     0.001 A 
ATOM     13  S   UNL d   1       0.680  -5.804   1.138  0.00  0.00    -0.158 SA
ATOM     14  HN  UNL d   1       0.346  -1.290   1.266  1.00  0.00     0.186 HD
ENDBRANCH   1   3
BRANCH   1  15
ATOM     15  C   UNL d   1       2.999  -0.985   0.912  0.00  0.00     0.191 C 
ATOM     16  S   UNL d   1       2.518  -0.371  -0.565  0.00  0.00    -0.039 SA
BRANCH  15  17
ATOM     17  N   UNL d   1       4.264  -0.703   1.377  0.00  0.00    -0.332 N 
ATOM     18  H   UNL d   1       4.920  -0.380   0.673  0.00  0.00     0.168 HD
BRANCH  17  19
ATOM     19  C   UNL d   1       4.671  -0.581   2.722  0.00  0.00     0.034 A 
ATOM     20  C   UNL d   1       3.766  -0.282   3.747  0.00  0.00     0.036 A 
ATOM     21  C   UNL d   1       4.196  -0.133   5.076  0.00  0.00    -0.054 A 
ATOM     22  C   UNL d   1       3.185   0.199   6.140  0.00  0.00     0.049 C 
ATOM     23  C   UNL d   1       5.560  -0.295   5.378  0.00  0.00    -0.056 A 
ATOM     24  C   UNL d   1       6.463  -0.578   4.340  0.00  0.00     0.009 A 
ATOM     25  C   UNL d   1       6.070  -0.166   6.787  0.00  0.00     0.049 C 
ATOM     26  C   UNL d   1       6.025  -0.700   3.019  0.00  0.00     0.030 A 
ENDBRANCH  17  19
ENDBRANCH  15  17
ENDBRANCH   1  15
TORSDOF 4
