REMARK  3 active torsions:
REMARK  status: ('A' for Active; 'I' for Inactive)
REMARK    1  A    between atoms: O_2  and  C_1 
REMARK    2  A    between atoms: C_3  and  O_2 
REMARK    3  A    between atoms: C_4  and  C_3 
ROOT
ATOM      1  C   UNL d   1      -0.399   2.950  -0.634  0.00  0.00     0.114 A 
ATOM      2  C   UNL d   1      -0.128   4.265  -0.240  0.00  0.00     0.047 A 
ATOM      3  C   UNL d   1       0.348   2.364  -1.664  0.00  0.00     0.047 A 
ATOM      4  N   UNL d   1       3.452   5.773  -3.149  0.00  0.00    -0.191 NA
ATOM      5  C   UNL d   1       2.614   5.172  -2.614  0.00  0.00     0.099 C 
ATOM      6  C   UNL d   1       1.589   4.422  -1.949  0.00  0.00     0.047 A 
ATOM      7  C   UNL d   1       0.853   5.005  -0.909  0.00  0.00     0.044 A 
ATOM      8  C   UNL d   1       1.340   3.096  -2.321  0.00  0.00     0.044 A 
ATOM      9 BR   UNL d   1      -1.010   5.081   1.228  0.00  0.00    -0.048 Br
ATOM     10 BR   UNL d   1       0.077   0.560  -2.186  0.00  0.00    -0.048 Br
ENDROOT
BRANCH   1  11
ATOM     11  O   UNL d   1      -1.329   2.155   0.052  0.00  0.00    -0.272 OA
BRANCH  11  12
ATOM     12  C   UNL d   1      -2.649   2.399  -0.283  0.00  0.00     0.298 C 
ATOM     13  O   UNL d   1      -3.087   3.329  -0.939  0.00  0.00    -0.259 OA
BRANCH  12  14
ATOM     14  C   UNL d   1      -3.504   1.327   0.289  0.00  0.00     0.043 A 
ATOM     15  C   UNL d   1      -4.855   1.599   0.537  0.00  0.00     0.041 A 
ATOM     16  C   UNL d   1      -5.688   0.584   1.010  0.00  0.00     0.036 A 
ATOM     17 CL   UNL d   1      -7.349   0.916   1.317  0.00  0.00    -0.084 Cl
ATOM     18  C   UNL d   1      -5.195  -0.700   1.229  0.00  0.00     0.047 A 
ATOM     19  C   UNL d   1      -3.852  -0.965   0.978  0.00  0.00     0.036 A 
ATOM     20  C   UNL d   1      -3.002   0.038   0.515  0.00  0.00     0.041 A 
ATOM     21 CL   UNL d   1      -3.234  -2.552   1.222  0.00  0.00    -0.084 Cl
ENDBRANCH  12  14
ENDBRANCH  11  12
ENDBRANCH   1  11
TORSDOF 3
