REMARK  2 active torsions:
REMARK  status: ('A' for Active; 'I' for Inactive)
REMARK    1  A    between atoms: C_17  and  C_9 
REMARK    2  A    between atoms: C_10  and  C_15 
ROOT
ATOM      1  N   UNL d   1       1.207   1.381  -0.019  0.00  0.00    -0.289 N 
ATOM      2  N   UNL d   1       2.405  -0.654  -0.007  0.00  0.00    -0.270 N 
ATOM      3  C   UNL d   1       2.435   0.737  -0.005  0.00  0.00     0.332 A 
ATOM      4  C   UNL d   1      -0.019   0.682  -0.031  0.00  0.00     0.130 A 
ATOM      5  C   UNL d   1       1.248  -1.418  -0.003  0.00  0.00     0.266 A 
ATOM      6  C   UNL d   1      -0.007  -0.687  -0.010  0.00  0.00     0.092 A 
ATOM      7  N   UNL d   1      -1.175   1.380  -0.047  0.00  0.00    -0.327 N 
ATOM      8  HN  UNL d   1      -1.178   2.400  -0.079  1.00  0.00     0.169 HD
ATOM      9  C   UNL d   1      -2.327   0.674  -0.019  0.00  0.00     0.117 A 
ATOM     10  N   UNL d   1      -2.393  -0.668   0.015  0.00  0.00    -0.350 N 
ATOM     11  HN  UNL d   1      -3.286  -1.161   0.043  1.00  0.00     0.166 HD
ATOM     12  C   UNL d   1      -1.222  -1.326   0.011  0.00  0.00     0.110 A 
ATOM     13  O   UNL d   1       3.496   1.362   0.009  0.00  0.00    -0.246 OA
ATOM     14  O   UNL d   1       1.222  -2.642   0.009  0.00  0.00    -0.267 OA
ATOM     15  C   UNL d   1       1.159   2.836   0.004  0.00  0.00     0.163 C 
ATOM     16  C   UNL d   1       3.660  -1.384  -0.000  0.00  0.00     0.164 C 
ENDROOT
BRANCH   9  17
ATOM     17  C   UNL d   1      -3.597   1.415   0.002  0.00  0.00     0.008 A 
ATOM     18  C   UNL d   1      -3.619   2.819  -0.027  0.00  0.00     0.016 A 
ATOM     19  C   UNL d   1      -4.820   3.528   0.011  0.00  0.00     0.017 A 
ATOM     20  C   UNL d   1      -6.046   2.855   0.085  0.00  0.00     0.048 A 
ATOM     21  C   UNL d   1      -6.044   1.454   0.116  0.00  0.00     0.017 A 
ATOM     22  C   UNL d   1      -4.836   0.748   0.070  0.00  0.00     0.016 A 
BRANCH  20  23
ATOM     23  C   UNL d   1      -7.337   3.636   0.123  0.00  0.00     0.417 C 
ATOM     24  F   UNL d   1      -7.142   4.985   0.087  0.00  0.00    -0.166 F 
ATOM     25  F   UNL d   1      -8.152   3.352  -0.929  0.00  0.00    -0.166 F 
ATOM     26  F   UNL d   1      -8.072   3.399   1.244  0.00  0.00    -0.166 F 
ENDBRANCH  20  23
ENDBRANCH   9  17
TORSDOF 2
