REMARK  2 active torsions:
REMARK  status: ('A' for Active; 'I' for Inactive)
REMARK    1  A    between atoms: C_9  and  N_2 
REMARK    2  A    between atoms: C_18  and  C_9 
ROOT
ATOM      1  C   UNL d   1      -1.938   0.195  -0.166  0.00  0.00     0.103 C 
ATOM      2  N   UNL d   1      -2.031   0.494   1.297  0.00  0.00    -0.323 N 
ATOM      3  N   UNL d   1      -1.113  -1.082  -0.139  0.00  0.00    -0.246 NA
ATOM      4  C   UNL d   1      -1.085   1.134  -1.132  0.00  0.00     0.021 C 
ATOM      5  C   UNL d   1      -1.842  -0.696   2.042  0.00  0.00     0.235 C 
ATOM      6  C   UNL d   1       0.290   0.745  -0.654  0.00  0.00    -0.025 A 
ATOM      7  C   UNL d   1       0.229  -0.566  -0.165  0.00  0.00     0.020 A 
ATOM      8  C   UNL d   1      -1.413  -1.794   1.099  0.00  0.00     0.201 C 
ATOM      9  C   UNL d   1       1.382  -1.197   0.278  0.00  0.00     0.025 A 
ATOM     10  C   UNL d   1       1.464   1.484  -0.602  0.00  0.00     0.016 A 
ATOM     11  O   UNL d   1      -2.080  -0.869   3.232  0.00  0.00    -0.272 OA
ATOM     12  C   UNL d   1      -3.335  -0.120  -0.733  0.00  0.00     0.058 C 
ATOM     13  C   UNL d   1      -1.383   2.625  -1.125  0.00  0.00     0.024 C 
ATOM     14  C   UNL d   1      -1.195   0.673  -2.618  0.00  0.00     0.024 C 
ATOM     15  C   UNL d   1       2.565  -0.457   0.352  0.00  0.00     0.008 A 
ATOM     16  C   UNL d   1       2.605   0.891  -0.046  0.00  0.00    -0.061 A 
ATOM     17  C   UNL d   1       3.870   1.680   0.135  0.00  0.00     0.048 C 
ENDROOT
BRANCH   2  18
ATOM     18  C   UNL d   1      -3.001   1.402   1.909  0.00  0.00     0.166 C 
BRANCH  18  19
ATOM     19  C   UNL d   1      -2.780   2.889   1.877  0.00  0.00    -0.040 A 
ATOM     20  C   UNL d   1      -3.907   3.725   1.814  0.00  0.00     0.009 A 
ATOM     21  C   UNL d   1      -3.786   5.110   1.933  0.00  0.00     0.001 A 
ATOM     22  C   UNL d   1      -2.530   5.680   2.111  0.00  0.00     0.000 A 
ATOM     23  C   UNL d   1      -1.402   4.864   2.197  0.00  0.00     0.001 A 
ATOM     24  C   UNL d   1      -1.528   3.473   2.113  0.00  0.00     0.009 A 
ENDBRANCH  18  19
ENDBRANCH   2  18
TORSDOF 2
