REMARK  4 active torsions:
REMARK  status: ('A' for Active; 'I' for Inactive)
REMARK    1  A    between atoms: N_2  and  C_1 
REMARK    2  A    between atoms: N_3  and  C_6 
REMARK    3  A    between atoms: S_8  and  C_4 
REMARK    4  A    between atoms: C_14  and  S_8 
ROOT
ATOM      1  C   UNL d   1      -1.063   1.219  -0.098  0.00  0.00     0.122 A 
ATOM      2  C   UNL d   1       0.347   1.208  -0.037  0.00  0.00     0.044 A 
ATOM      3  C   UNL d   1      -1.838   0.048  -0.102  0.00  0.00     0.073 A 
ATOM      4  C   UNL d   1      -1.187  -1.182  -0.032  0.00  0.00     0.105 A 
ATOM      5  C   UNL d   1       0.981  -0.053   0.100  0.00  0.00    -0.040 A 
ATOM      6  C   UNL d   1       0.208  -1.236   0.069  0.00  0.00     0.044 A 
ATOM      7  C   UNL d   1       2.474  -0.223   0.258  0.00  0.00     0.049 C 
ENDROOT
BRANCH   2   8
ATOM      8  S   UNL d   1       1.311   2.720  -0.022  0.00  0.00    -0.087 SA
BRANCH   8   9
ATOM      9  C   UNL d   1       1.627   3.114  -1.736  0.00  0.00     0.005 A 
ATOM     10  C   UNL d   1       1.724   4.472  -2.083  0.00  0.00     0.020 A 
ATOM     11  C   UNL d   1       2.114   4.861  -3.369  0.00  0.00     0.025 A 
ATOM     12  C   UNL d   1       2.412   3.892  -4.321  0.00  0.00     0.034 A 
ATOM     13  C   UNL d   1       2.294   2.540  -4.004  0.00  0.00     0.025 A 
ATOM     14 CL   UNL d   1       2.955   4.361  -5.884  0.00  0.00    -0.084 Cl
ATOM     15  C   UNL d   1       1.903   2.153  -2.714  0.00  0.00     0.020 A 
ENDBRANCH   8   9
ENDBRANCH   2   8
BRANCH   1  16
ATOM     16  N   UNL d   1      -1.801   2.469  -0.101  0.00  0.00    -0.114 N 
ATOM     17  O   UNL d   1      -1.758   3.155   0.927  0.00  0.00    -0.532 OA
ATOM     18  O   UNL d   1      -2.483   2.708  -1.106  0.00  0.00    -0.532 OA
ENDBRANCH   1  16
BRANCH   4  19
ATOM     19  N   UNL d   1      -1.969  -2.426  -0.036  0.00  0.00    -0.116 N 
ATOM     20  O   UNL d   1      -3.201  -2.326  -0.066  0.00  0.00    -0.532 OA
ATOM     21  O   UNL d   1      -1.345  -3.497  -0.013  0.00  0.00    -0.532 OA
ENDBRANCH   4  19
TORSDOF 4
