REMARK  7 active torsions:
REMARK  status: ('A' for Active; 'I' for Inactive)
REMARK    1  A    between atoms: C_4  and  S_1 
REMARK    2  A    between atoms: N_5  and  S_1 
REMARK    3  A    between atoms: C_7  and  C_2 
REMARK    4  A    between atoms: C_3  and  N_5 
REMARK    5  A    between atoms: O_20  and  C_7 
REMARK    6  A    between atoms: O_21  and  C_11 
REMARK    7  A    between atoms: O_22  and  C_12 
ROOT
ATOM      1  C   UNL d   1       2.148  -2.831  -0.952  0.00  0.00     0.067 A 
ATOM      2  C   UNL d   1       0.851  -2.643  -0.462  0.00  0.00     0.062 A 
ATOM      3  C   UNL d   1       2.433  -3.981  -1.704  0.00  0.00     0.060 A 
ATOM      4  C   UNL d   1      -0.127  -3.624  -0.706  0.00  0.00     0.071 A 
ATOM      5  C   UNL d   1       1.447  -4.934  -1.989  0.00  0.00     0.102 A 
ATOM      6  C   UNL d   1       0.155  -4.771  -1.468  0.00  0.00     0.103 A 
ENDROOT
BRANCH   2   7
ATOM      7  N   UNL d   1       0.435  -1.455   0.225  0.00  0.00    -0.279 N 
ATOM      8  H   UNL d   1       0.883  -0.591  -0.095  0.00  0.00     0.179 HD
BRANCH   7   9
ATOM      9  S   UNL d   1       0.205  -1.426   1.897  0.00  0.00     0.263 S 
ATOM     10  O   UNL d   1      -0.239  -0.081   2.201  0.00  0.00    -0.200 OA
ATOM     11  O   UNL d   1      -0.597  -2.560   2.297  0.00  0.00    -0.200 OA
BRANCH   9  12
ATOM     12  C   UNL d   1       1.856  -1.586   2.606  0.00  0.00     0.086 A 
ATOM     13  C   UNL d   1       2.560  -0.380   2.825  0.00  0.00     0.034 A 
ATOM     14  C   UNL d   1       3.818  -0.358   3.455  0.00  0.00    -0.039 A 
ATOM     15  C   UNL d   1       4.553   0.943   3.621  0.00  0.00     0.050 C 
ATOM     16  C   UNL d   1       4.335  -1.563   3.934  0.00  0.00     0.040 A 
ATOM     17  C   UNL d   1       3.640  -2.760   3.731  0.00  0.00     0.032 A 
ATOM     18 CL   UNL d   1       5.828  -1.629   4.801  0.00  0.00    -0.084 Cl
ATOM     19  C   UNL d   1       2.408  -2.802   3.042  0.00  0.00    -0.037 A 
ATOM     20  C   UNL d   1       1.780  -4.157   2.887  0.00  0.00     0.050 C 
ENDBRANCH   9  12
ENDBRANCH   7   9
ENDBRANCH   2   7
BRANCH   1  21
ATOM     21  C   UNL d   1       3.287  -1.901  -0.750  0.00  0.00     0.178 C 
ATOM     22  O   UNL d   1       4.441  -2.127  -1.036  0.00  0.00    -0.646 OA
BRANCH  21  23
ATOM     23  O   UNL d   1       2.945  -0.721  -0.196  0.00  0.00    -0.773 OA
ATOM     24  H   UNL d   1       3.824  -0.302  -0.050  0.00  0.00     0.167 HD
ENDBRANCH  21  23
ENDBRANCH   1  21
BRANCH   6  25
ATOM     25  O   UNL d   1      -0.756  -5.760  -1.724  0.00  0.00    -0.353 OA
ATOM     26  C   UNL d   1      -2.081  -5.603  -1.235  0.00  0.00     0.210 C 
ENDBRANCH   6  25
BRANCH   5  27
ATOM     27  O   UNL d   1       1.916  -5.982  -2.739  0.00  0.00    -0.353 OA
ATOM     28  C   UNL d   1       1.002  -6.597  -3.640  0.00  0.00     0.210 C 
ENDBRANCH   5  27
TORSDOF 7
