REMARK  4 active torsions:
REMARK  status: ('A' for Active; 'I' for Inactive)
REMARK    1  A    between atoms: C_8  and  C_6 
REMARK    2  A    between atoms: C_11  and  C_7 
REMARK    3  A    between atoms: C_12  and  C_9 
REMARK    4  A    between atoms: O_18  and  C_13 
ROOT
ATOM      1  C   UNL d   1       0.361  -0.740   0.112  0.00  0.00     0.111 A 
ATOM      2  N   UNL d   1       1.552  -0.060   0.133  0.00  0.00    -0.332 N 
ATOM      3  HN  UNL d   1       2.499  -0.438   0.170  1.00  0.00     0.168 HD
ATOM      4  C   UNL d   1      -0.776   0.227   0.074  0.00  0.00     0.316 A 
ATOM      5  O   UNL d   1      -0.143   1.435   0.063  0.00  0.00    -0.256 OA
ATOM      6  C   UNL d   1       1.182   1.176   0.094  0.00  0.00     0.152 A 
ATOM      7  C   UNL d   1       0.283  -2.077   0.102  0.00  0.00     0.047 C 
ATOM      8  O   UNL d   1      -1.974   0.041   0.054  0.00  0.00    -0.257 OA
ENDROOT
BRANCH   7   9
ATOM      9  C   UNL d   1      -0.952  -2.855   0.031  0.00  0.00    -0.034 A 
ATOM     10  C   UNL d   1      -1.483  -3.210  -1.213  0.00  0.00     0.014 A 
ATOM     11  C   UNL d   1      -2.670  -3.947  -1.292  0.00  0.00     0.037 A 
ATOM     12  C   UNL d   1      -3.332  -4.330  -0.125  0.00  0.00     0.068 A 
ATOM     13  C   UNL d   1      -2.785  -4.003   1.116  0.00  0.00     0.037 A 
ATOM     14  C   UNL d   1      -1.604  -3.260   1.198  0.00  0.00     0.014 A 
BRANCH  12  15
ATOM     15  O   UNL d   1      -4.489  -5.060  -0.084  0.00  0.00    -0.356 OA
ATOM     16  C   UNL d   1      -5.372  -4.861  -1.184  0.00  0.00     0.210 C 
ENDBRANCH  12  15
ENDBRANCH   7   9
BRANCH   6  17
ATOM     17  C   UNL d   1       2.072   2.339   0.058  0.00  0.00     0.057 C 
ATOM     18  C   UNL d   1       1.638   3.608   0.001  0.00  0.00     0.015 C 
BRANCH  18  19
ATOM     19  C   UNL d   1       2.533   4.775  -0.087  0.00  0.00    -0.036 A 
ATOM     20  C   UNL d   1       3.776   4.719  -0.734  0.00  0.00     0.011 A 
ATOM     21  C   UNL d   1       4.580   5.857  -0.838  0.00  0.00     0.001 A 
ATOM     22  C   UNL d   1       4.146   7.068  -0.308  0.00  0.00     0.000 A 
ATOM     23  C   UNL d   1       2.907   7.144   0.324  0.00  0.00     0.001 A 
ATOM     24  C   UNL d   1       2.103   6.004   0.430  0.00  0.00     0.011 A 
ENDBRANCH  18  19
ENDBRANCH   6  17
TORSDOF 4
