REMARK  7 active torsions:
REMARK  status: ('A' for Active; 'I' for Inactive)
REMARK    1  A    between atoms: N_2  and  C_1 
REMARK    2  A    between atoms: C_3  and  C_6 
REMARK    3  A    between atoms: O_9  and  C_5 
REMARK    4  A    between atoms: C_7  and  C_13 
REMARK    5  A    between atoms: N_21  and  C_7 
REMARK    6  A    between atoms: C_22  and  O_9 
REMARK    7  A    between atoms: O_23  and  N_11 
ROOT
ATOM      1  C   UNL d   1       7.874   0.593  -2.008  0.00  0.00     0.004 A 
ATOM      2  C   UNL d   1       7.038  -0.172  -2.831  0.00  0.00     0.017 A 
ATOM      3  C   UNL d   1       9.252   0.620  -2.242  0.00  0.00     0.017 A 
ATOM      4  C   UNL d   1       8.970  -0.917  -4.088  0.00  0.00     0.076 A 
ATOM      5  C   UNL d   1       9.792  -0.106  -3.302  0.00  0.00     0.038 A 
ATOM      6  C   UNL d   1       7.588  -0.932  -3.871  0.00  0.00     0.038 A 
ENDROOT
BRANCH   4   7
ATOM      7  O   UNL d   1       9.450  -1.718  -5.106  0.00  0.00    -0.308 OA
BRANCH   7   8
ATOM      8  C   UNL d   1      10.679  -2.315  -4.924  0.00  0.00     0.109 A 
ATOM      9  C   UNL d   1      11.591  -2.384  -5.979  0.00  0.00     0.137 A 
ATOM     10  C   UNL d   1      12.858  -2.970  -5.819  0.00  0.00     0.055 A 
ATOM     11  C   UNL d   1      13.227  -3.499  -4.573  0.00  0.00     0.050 A 
ATOM     12  C   UNL d   1      12.297  -3.466  -3.521  0.00  0.00     0.019 A 
ATOM     13  C   UNL d   1      11.028  -2.908  -3.704  0.00  0.00     0.040 A 
BRANCH   9  14
ATOM     14  N   UNL d   1      11.256  -1.829  -7.278  0.00  0.00    -0.113 N 
ATOM     15  O   UNL d   1      11.383  -2.579  -8.255  0.00  0.00    -0.532 OA
ATOM     16  O   UNL d   1      10.930  -0.636  -7.322  0.00  0.00    -0.532 OA
ENDBRANCH   9  14
BRANCH  11  17
ATOM     17  C   UNL d   1      14.596  -4.091  -4.335  0.00  0.00     0.417 C 
ATOM     18  F   UNL d   1      15.353  -4.171  -5.463  0.00  0.00    -0.166 F 
ATOM     19  F   UNL d   1      15.324  -3.360  -3.447  0.00  0.00    -0.166 F 
ATOM     20  F   UNL d   1      14.537  -5.351  -3.829  0.00  0.00    -0.166 F 
ENDBRANCH  11  17
ENDBRANCH   7   8
ENDBRANCH   4   7
BRANCH   1  21
ATOM     21  C   UNL d   1       7.321   1.418  -0.896  0.00  0.00     0.108 C 
ATOM     22  N   UNL d   1       8.070   1.639   0.145  0.00  0.00    -0.258 N 
ATOM     23  HN  UNL d   1       9.007   1.255   0.273  1.00  0.00     0.195 HD
BRANCH  22  24
ATOM     24  O   UNL d   1       7.420   2.475   1.067  0.00  0.00    -0.289 OA
ATOM     25  H   UNL d   1       8.063   2.507   1.798  0.00  0.00     0.244 HD
ENDBRANCH  22  24
BRANCH  21  26
ATOM     26  N   UNL d   1       6.059   1.948  -1.027  0.00  0.00    -0.287 NA
ATOM     27  H   UNL d   1       5.844   2.299  -1.952  0.00  0.00     0.125 HD
ATOM     28  H   UNL d   1       5.925   2.661  -0.313  0.00  0.00     0.125 HD
ENDBRANCH  21  26
ENDBRANCH   1  21
TORSDOF 7
