REMARK  5 active torsions:
REMARK  status: ('A' for Active; 'I' for Inactive)
REMARK    1  A    between atoms: N_4  and  C_1 
REMARK    2  A    between atoms: C_6  and  C_2 
REMARK       I    between atoms: C_8  and  N_4 
REMARK       I    between atoms: N_12  and  C_6 
REMARK    3  A    between atoms: C_13  and  C_8 
REMARK    4  A    between atoms: S_10  and  C_13 
REMARK    5  A    between atoms: C_14  and  S_10 
ROOT
ATOM      1  N   UNL d   1       0.641  -2.575   0.101  0.00  0.00    -0.320 N 
ATOM      2  C   UNL d   1       1.671  -3.216  -0.561  0.00  0.00     0.232 C 
ATOM      3  O   UNL d   1       2.418  -2.692  -1.388  0.00  0.00    -0.272 OA
ATOM      4  H   UNL d   1      -0.158  -3.178   0.278  0.00  0.00     0.169 HD
ENDROOT
BRANCH   1   5
ATOM      5  C   UNL d   1       0.307  -1.261  -0.182  0.00  0.00     0.092 A 
ATOM      6  C   UNL d   1       0.967  -0.038  -0.155  0.00  0.00     0.072 A 
ATOM      7  C   UNL d   1       0.039   1.028  -0.549  0.00  0.00    -0.037 A 
ATOM      8  C   UNL d   1       0.343   2.493  -0.645  0.00  0.00     0.050 C 
ATOM      9  C   UNL d   1      -1.221   0.533  -0.832  0.00  0.00     0.059 A 
ATOM     10  S   UNL d   1      -1.353  -1.132  -0.541  0.00  0.00    -0.083 SA
BRANCH   6  11
ATOM     11  C   UNL d   1       2.332   0.219   0.323  0.00  0.00     0.252 C 
ATOM     12  O   UNL d   1       2.656   1.245   0.917  0.00  0.00    -0.268 OA
ATOM     13  N   UNL d   1       3.289  -0.708   0.055  0.00  0.00    -0.366 N 
ATOM     14  H   UNL d   1       3.135  -1.375  -0.698  0.00  0.00     0.159 HD
ATOM     15  H   UNL d   1       4.242  -0.433   0.237  0.00  0.00     0.159 HD
ENDBRANCH   6  11
ENDBRANCH   1   5
BRANCH   2  16
ATOM     16  C   UNL d   1       1.870  -4.665  -0.140  0.00  0.00     0.182 C 
BRANCH  16  17
ATOM     17  S   UNL d   1       0.333  -5.617  -0.378  0.00  0.00    -0.121 SA
BRANCH  17  18
ATOM     18  C   UNL d   1       0.788  -7.246   0.204  0.00  0.00     0.001 A 
ATOM     19  C   UNL d   1      -0.230  -8.035   0.758  0.00  0.00     0.020 A 
ATOM     20  C   UNL d   1       0.023  -9.343   1.184  0.00  0.00     0.025 A 
ATOM     21  C   UNL d   1       1.303  -9.874   1.049  0.00  0.00     0.034 A 
ATOM     22  C   UNL d   1       2.326  -9.107   0.500  0.00  0.00     0.025 A 
ATOM     23 CL   UNL d   1       1.614 -11.492   1.546  0.00  0.00    -0.084 Cl
ATOM     24  C   UNL d   1       2.069  -7.797   0.075  0.00  0.00     0.020 A 
ENDBRANCH  17  18
ENDBRANCH  16  17
ENDBRANCH   2  16
TORSDOF 5
