REMARK  5 active torsions:
REMARK  status: ('A' for Active; 'I' for Inactive)
REMARK    1  A    between atoms: C_2  and  N_1 
REMARK       I    between atoms: N_4  and  C_8 
REMARK    2  A    between atoms: C_5  and  N_4 
REMARK    3  A    between atoms: S_11  and  C_6 
REMARK    4  A    between atoms: C_8  and  C_16 
REMARK    5  A    between atoms: C_16  and  S_11 
ROOT
ATOM      1  N   UNL d   1      -0.862  -4.246  -1.648  0.00  0.00    -0.324 N 
ATOM      2  C   UNL d   1      -1.234  -3.609  -0.471  0.00  0.00     0.231 C 
ATOM      3  O   UNL d   1      -2.140  -3.978   0.269  0.00  0.00    -0.272 OA
ATOM      4  H   UNL d   1       0.014  -3.981  -2.086  0.00  0.00     0.169 HD
ENDROOT
BRANCH   2   5
ATOM      5  C   UNL d   1      -0.421  -2.343  -0.216  0.00  0.00     0.182 C 
BRANCH   5   6
ATOM      6  S   UNL d   1      -0.318  -1.959   1.567  0.00  0.00    -0.118 SA
BRANCH   6   7
ATOM      7  C   UNL d   1       0.402  -0.330   1.485  0.00  0.00     0.034 A 
ATOM      8  C   UNL d   1      -0.290   0.843   1.145  0.00  0.00     0.121 A 
ATOM      9  C   UNL d   1       0.341   2.091   1.067  0.00  0.00     0.061 A 
ATOM     10  C   UNL d   1       1.698   2.171   1.360  0.00  0.00     0.036 A 
ATOM     11 CL   UNL d   1       2.504   3.686   1.261  0.00  0.00    -0.084 Cl
ATOM     12  C   UNL d   1       2.407   1.031   1.734  0.00  0.00     0.025 A 
ATOM     13  C   UNL d   1       1.764  -0.211   1.798  0.00  0.00     0.023 A 
BRANCH   8  14
ATOM     14  N   UNL d   1      -1.703   0.809   0.863  0.00  0.00    -0.114 N 
ATOM     15  O   UNL d   1      -2.026   0.813  -0.333  0.00  0.00    -0.532 OA
ATOM     16  O   UNL d   1      -2.476   0.835   1.828  0.00  0.00    -0.532 OA
ENDBRANCH   8  14
ENDBRANCH   6   7
ENDBRANCH   5   6
ENDBRANCH   2   5
BRANCH   1  17
ATOM     17  C   UNL d   1      -1.514  -5.347  -2.246  0.00  0.00     0.073 A 
ATOM     18  C   UNL d   1      -0.840  -6.016  -3.278  0.00  0.00     0.145 A 
ATOM     19  C   UNL d   1      -1.395  -7.119  -3.918  0.00  0.00     0.086 A 
ATOM     20  F   UNL d   1       0.380  -5.596  -3.648  0.00  0.00    -0.204 F 
ATOM     21  C   UNL d   1      -2.657  -7.545  -3.535  0.00  0.00     0.119 A 
ATOM     22  C   UNL d   1      -3.364  -6.885  -2.535  0.00  0.00     0.044 A 
ATOM     23  F   UNL d   1      -3.208  -8.605  -4.139  0.00  0.00    -0.206 F 
ATOM     24  C   UNL d   1      -2.792  -5.784  -1.887  0.00  0.00     0.036 A 
ENDBRANCH   1  17
TORSDOF 5
