REMARK  2 active torsions:
REMARK  status: ('A' for Active; 'I' for Inactive)
REMARK    1  A    between atoms: C_2  and  C_1 
REMARK    2  A    between atoms: C_10  and  N_3 
ROOT
ATOM      1  C   UNL d   1      -0.078   2.175   0.079  0.00  0.00     0.103 C 
ATOM      2  N   UNL d   1      -1.129   2.889  -0.171  0.00  0.00    -0.365 N 
ATOM      3  HN  UNL d   1      -2.011   2.436  -0.409  1.00  0.00     0.165 HD
ENDROOT
BRANCH   2   4
ATOM      4  C   UNL d   1      -1.049   4.290  -0.115  0.00  0.00     0.033 A 
ATOM      5  C   UNL d   1       0.035   5.024  -0.608  0.00  0.00     0.055 A 
ATOM      6  C   UNL d   1       0.031   6.423  -0.569  0.00  0.00     0.058 A 
ATOM      7 CL   UNL d   1       1.423   7.247  -1.178  0.00  0.00    -0.082 Cl
ATOM      8  C   UNL d   1      -1.078   7.107  -0.057  0.00  0.00     0.055 A 
ATOM      9  C   UNL d   1      -2.171   6.385   0.422  0.00  0.00     0.028 A 
ATOM     10 CL   UNL d   1      -1.162   8.831  -0.003  0.00  0.00    -0.083 Cl
ATOM     11  C   UNL d   1      -2.152   4.986   0.392  0.00  0.00     0.031 A 
ENDBRANCH   2   4
BRANCH   1  12
ATOM     12  C   UNL d   1      -0.092   0.696   0.023  0.00  0.00     0.023 A 
ATOM     13  C   UNL d   1       1.023   0.031  -0.516  0.00  0.00     0.047 A 
ATOM     14 CL   UNL d   1       2.382   0.872  -1.179  0.00  0.00    -0.083 Cl
ATOM     15  C   UNL d   1       1.063  -1.369  -0.562  0.00  0.00     0.025 A 
ATOM     16  C   UNL d   1      -0.003  -2.117  -0.071  0.00  0.00     0.003 A 
ATOM     17  C   UNL d   1      -1.111  -1.466   0.466  0.00  0.00     0.025 A 
ATOM     18  C   UNL d   1      -1.162  -0.066   0.519  0.00  0.00     0.047 A 
ATOM     19 CL   UNL d   1      -2.551   0.620   1.287  0.00  0.00    -0.083 Cl
ENDBRANCH   1  12
TORSDOF 2
