REMARK  6 active torsions:
REMARK  status: ('A' for Active; 'I' for Inactive)
REMARK    1  A    between atoms: C_3  and  S_1 
REMARK    2  A    between atoms: N_11  and  S_1 
REMARK    3  A    between atoms: S_2  and  C_14 
REMARK    4  A    between atoms: N_4  and  S_2 
REMARK    5  A    between atoms: C_5  and  N_4 
REMARK    6  A    between atoms: C_22  and  N_11 
ROOT
ATOM      1  C   UNL d   1       1.587  -5.306  -1.351  0.00  0.00     0.075 A 
ATOM      2  C   UNL d   1       0.850  -2.856  -0.263  0.00  0.00     0.042 A 
ATOM      3  C   UNL d   1       2.533  -4.279  -1.244  0.00  0.00     0.027 A 
ATOM      4  C   UNL d   1       0.272  -5.112  -0.927  0.00  0.00     0.027 A 
ATOM      5  C   UNL d   1      -0.094  -3.881  -0.374  0.00  0.00     0.031 A 
ATOM      6  C   UNL d   1       2.164  -3.054  -0.685  0.00  0.00     0.031 A 
ENDROOT
BRANCH   2   7
ATOM      7  N   UNL d   1       0.461  -1.583   0.230  0.00  0.00    -0.281 N 
ATOM      8  H   UNL d   1      -0.322  -1.127  -0.237  0.00  0.00     0.179 HD
BRANCH   7   9
ATOM      9  S   UNL d   1       0.435  -1.305   1.891  0.00  0.00     0.264 S 
ATOM     10  O   UNL d   1      -0.619  -0.346   2.142  0.00  0.00    -0.200 OA
ATOM     11  O   UNL d   1       0.461  -2.571   2.592  0.00  0.00    -0.200 OA
BRANCH   9  12
ATOM     12  C   UNL d   1       1.974  -0.473   2.186  0.00  0.00     0.102 A 
ATOM     13  C   UNL d   1       2.292   0.719   1.535  0.00  0.00     0.059 A 
ATOM     14  C   UNL d   1       3.498   1.363   1.831  0.00  0.00     0.050 A 
ATOM     15 CL   UNL d   1       1.287   1.482   0.356  0.00  0.00    -0.083 Cl
ATOM     16  C   UNL d   1       4.380   0.834   2.778  0.00  0.00     0.041 A 
ATOM     17  C   UNL d   1       4.071  -0.357   3.450  0.00  0.00    -0.039 A 
ATOM     18 CL   UNL d   1       5.838   1.711   3.071  0.00  0.00    -0.084 Cl
ATOM     19  C   UNL d   1       2.859  -1.006   3.141  0.00  0.00     0.035 A 
ATOM     20  C   UNL d   1       4.956  -0.976   4.498  0.00  0.00     0.050 C 
ENDBRANCH   9  12
ENDBRANCH   7   9
ENDBRANCH   2   7
BRANCH   1  21
ATOM     21  S   UNL d   1       2.054  -6.833  -2.123  0.00  0.00     0.247 S 
ATOM     22  O   UNL d   1       0.851  -7.473  -2.612  0.00  0.00    -0.205 OA
ATOM     23  O   UNL d   1       3.169  -6.585  -3.014  0.00  0.00    -0.205 OA
BRANCH  21  24
ATOM     24  N   UNL d   1       2.568  -7.775  -0.820  0.00  0.00    -0.165 NA
ATOM     25  H   UNL d   1       2.178  -8.709  -0.939  0.00  0.00     0.147 HD
BRANCH  24  26
ATOM     26  C   UNL d   1       3.906  -7.695  -0.462  0.00  0.00     0.117 A 
ATOM     27  N   UNL d   1       4.346  -6.814   0.438  0.00  0.00    -0.249 N 
ATOM     28  O   UNL d   1       5.706  -7.048   0.554  0.00  0.00    -0.241 OA
ATOM     29  HN  UNL d   1       3.797  -6.114   0.935  1.00  0.00     0.196 HD
ATOM     30  C   UNL d   1       6.062  -8.058  -0.285  0.00  0.00     0.075 A 
ATOM     31  C   UNL d   1       4.945  -8.519  -0.937  0.00  0.00     0.079 A 
ATOM     32  C   UNL d   1       7.493  -8.409  -0.317  0.00  0.00     0.079 C 
ENDBRANCH  24  26
ENDBRANCH  21  24
ENDBRANCH   1  21
TORSDOF 6
