REMARK  4 active torsions:
REMARK  status: ('A' for Active; 'I' for Inactive)
REMARK    1  A    between atoms: C_2  and  S_1 
REMARK    2  A    between atoms: C_6  and  S_1 
REMARK    3  A    between atoms: N_9  and  C_3 
REMARK    4  A    between atoms: C_13  and  N_9 
ROOT
ATOM      1  C   UNL d   1       0.444   0.449   1.503  0.00  0.00     0.159 C 
ATOM      2  C   UNL d   1      -0.332   1.531   1.714  0.00  0.00     0.123 C 
ATOM      3  C   UNL d   1       0.892   0.075   0.212  0.00  0.00     0.113 C 
ATOM      4  N   UNL d   1       1.246  -0.187  -0.859  0.00  0.00    -0.191 NA
ENDROOT
BRANCH   1   5
ATOM      5  S   UNL d   1       0.841  -0.563   2.855  0.00  0.00     0.218 S 
ATOM      6  O   UNL d   1      -0.124  -1.646   2.947  0.00  0.00    -0.216 OA
ATOM      7  O   UNL d   1       1.107   0.256   4.026  0.00  0.00    -0.216 OA
BRANCH   5   8
ATOM      8  C   UNL d   1       2.401  -1.315   2.413  0.00  0.00     0.065 A 
ATOM      9  C   UNL d   1       3.598  -0.713   2.816  0.00  0.00     0.025 A 
ATOM     10  C   UNL d   1       4.814  -1.308   2.472  0.00  0.00     0.025 A 
ATOM     11  C   UNL d   1       4.826  -2.498   1.743  0.00  0.00     0.034 A 
ATOM     12  C   UNL d   1       3.630  -3.110   1.364  0.00  0.00     0.025 A 
ATOM     13 CL   UNL d   1       6.327  -3.224   1.321  0.00  0.00    -0.084 Cl
ATOM     14  C   UNL d   1       2.410  -2.525   1.708  0.00  0.00     0.025 A 
ENDBRANCH   5   8
ENDBRANCH   1   5
BRANCH   2  15
ATOM     15  N   UNL d   1      -0.828   2.390   0.759  0.00  0.00    -0.364 N 
ATOM     16  H   UNL d   1      -0.706   2.124  -0.216  0.00  0.00     0.165 HD
BRANCH  15  17
ATOM     17  C   UNL d   1      -1.572   3.570   0.939  0.00  0.00     0.034 A 
ATOM     18  C   UNL d   1      -1.469   4.376   2.075  0.00  0.00     0.071 A 
ATOM     19  C   UNL d   1      -2.278   5.503   2.207  0.00  0.00     0.118 A 
ATOM     20  F   UNL d   1      -2.151   6.280   3.291  0.00  0.00    -0.206 F 
ATOM     21  C   UNL d   1      -3.217   5.838   1.238  0.00  0.00     0.042 A 
ATOM     22  C   UNL d   1      -3.341   5.039   0.107  0.00  0.00     0.005 A 
ATOM     23  C   UNL d   1      -2.519   3.917  -0.041  0.00  0.00     0.029 A 
ENDBRANCH  15  17
ENDBRANCH   2  15
TORSDOF 4
