REMARK  3 active torsions:
REMARK  status: ('A' for Active; 'I' for Inactive)
REMARK    1  A    between atoms: C_4  and  C_2 
REMARK    2  A    between atoms: C_8  and  C_2 
REMARK    3  A    between atoms: O_13  and  C_7 
ROOT
ATOM      1  C   UNL d   1      -0.844  -0.540  -0.143  0.00  0.00     0.232 C 
ATOM      2  C   UNL d   1       0.385  -1.355  -0.694  0.00  0.00     0.068 C 
ATOM      3  N   UNL d   1      -0.732   0.831   0.068  0.00  0.00    -0.356 N 
ATOM      4  O   UNL d   1      -1.920  -1.107   0.071  0.00  0.00    -0.272 OA
ATOM      5  C   UNL d   1       1.546  -1.219   0.337  0.00  0.00     0.024 C 
ATOM      6  C   UNL d   1      -1.940   1.571   0.413  0.00  0.00     0.152 C 
ATOM      7  C   UNL d   1       0.448   1.638  -0.217  0.00  0.00     0.125 C 
ATOM      8  C   UNL d   1       2.370   0.071   0.338  0.00  0.00     0.003 C 
ATOM      9  C   UNL d   1       1.611   1.333   0.709  0.00  0.00     0.020 C 
ENDROOT
BRANCH   2  10
ATOM     10  C   UNL d   1       0.718  -0.980  -2.152  0.00  0.00    -0.038 A 
ATOM     11  C   UNL d   1      -0.287  -0.483  -3.008  0.00  0.00     0.045 A 
ATOM     12  C   UNL d   1      -0.005  -0.113  -4.324  0.00  0.00     0.068 A 
ATOM     13  C   UNL d   1       1.269  -0.323  -4.840  0.00  0.00     0.037 A 
ATOM     14  C   UNL d   1       2.272  -0.848  -4.029  0.00  0.00     0.003 A 
ATOM     15  C   UNL d   1       1.999  -1.168  -2.698  0.00  0.00     0.008 A 
BRANCH  12  16
ATOM     16  O   UNL d   1      -0.914   0.438  -5.186  0.00  0.00    -0.356 OA
ATOM     17  C   UNL d   1      -1.911   1.246  -4.562  0.00  0.00     0.210 C 
ENDBRANCH  12  16
ENDBRANCH   2  10
BRANCH   2  18
ATOM     18  C   UNL d   1      -0.088  -2.863  -0.711  0.00  0.00     0.020 C 
ATOM     19  C   UNL d   1       0.890  -3.915  -1.230  0.00  0.00     0.006 C 
ENDBRANCH   2  18
TORSDOF 3
