REMARK  12 active torsions:
REMARK  status: ('A' for Active; 'I' for Inactive)
REMARK       I    between atoms: N_17  and  C1_1 
REMARK    1  A    between atoms: O1_4  and  C1_1 
REMARK    2  A    between atoms: C2_2  and  C3_3 
REMARK    3  A    between atoms: C3_3  and  O1_4 
REMARK    4  A    between atoms: O6_12  and  C9_9 
REMARK    5  A    between atoms: O5_11  and  C10_10 
REMARK    6  A    between atoms: CA_19  and  N_17 
REMARK    7  A    between atoms: OXT_21  and  C_18 
REMARK    8  A    between atoms: CA_19  and  C_18 
REMARK    9  A    between atoms: CB_22  and  CA_19 
REMARK   10  A    between atoms: CG_24  and  CB_22 
REMARK   11  A    between atoms: SD_23  and  CG_24 
REMARK   12  A    between atoms: C_29  and  N_28 
ROOT
ATOM      1  C   UNL d   1      -0.606  -0.939   0.447  0.00  0.00     0.218 C 
ATOM      2  C   UNL d   1       0.306  -2.159   0.561  0.00  0.00     0.035 C 
ATOM      3  C   UNL d   1      -0.079   0.147   1.382  0.00  0.00     0.035 C 
ATOM      4  C   UNL d   1       1.218   0.662   0.774  0.00  0.00     0.002 C 
ATOM      5  C   UNL d   1       1.809  -1.853   0.493  0.00  0.00     0.002 C 
ATOM      6  C   UNL d   1       2.286  -0.423   0.783  0.00  0.00     0.000 C 
ENDROOT
BRANCH   1   7
ATOM      7  N   UNL d   1      -1.984  -1.301   0.761  0.00  0.00     0.082 N 
ATOM      8  H   UNL d   1      -2.303  -2.037   0.133  0.00  0.00     0.313 HD
ATOM      9  H   UNL d   1      -2.605  -0.505   0.602  0.00  0.00     0.313 HD
ENDBRANCH   1   7
TORSDOF 12
