REMARK  5 active torsions:
REMARK  status: ('A' for Active; 'I' for Inactive)
REMARK    1  A    between atoms: C_3  and  C_1 
REMARK    2  A    between atoms: C_2  and  C_4 
REMARK       I    between atoms: C_5  and  N_8 
REMARK       I    between atoms: N_13  and  C_5 
REMARK    3  A    between atoms: N_8  and  C_7 
REMARK    4  A    between atoms: N_9  and  N_13 
REMARK    5  A    between atoms: C_22  and  C_21 
ROOT
ATOM      1  C   UNL d   1      -2.119  -3.136  -4.308  0.00  0.00     0.339 C 
ATOM      2  N   UNL d   1      -1.826  -1.850  -3.882  0.00  0.00    -0.308 N 
ATOM      3  N   UNL d   1      -3.360  -3.175  -4.961  0.00  0.00    -0.252 N 
ATOM      4  O   UNL d   1      -1.371  -4.102  -4.207  0.00  0.00    -0.245 OA
ATOM      5  H   UNL d   1      -2.515  -1.148  -4.112  0.00  0.00     0.170 HD
ATOM      6  H   UNL d   1      -4.097  -2.632  -4.525  0.00  0.00     0.191 HD
ENDROOT
BRANCH   2   7
ATOM      7  C   UNL d   1      -0.582  -1.392  -3.401  0.00  0.00     0.037 A 
ATOM      8  C   UNL d   1       0.501  -2.229  -3.117  0.00  0.00     0.045 A 
ATOM      9  C   UNL d   1       1.752  -1.705  -2.746  0.00  0.00     0.050 A 
ATOM     10  C   UNL d   1       1.899  -0.316  -2.639  0.00  0.00     0.032 A 
ATOM     11  C   UNL d   1       0.820   0.543  -2.901  0.00  0.00     0.050 A 
ATOM     12  C   UNL d   1      -0.421  -0.010  -3.261  0.00  0.00     0.045 A 
BRANCH   9  13
ATOM     13  C   UNL d   1       2.905  -2.647  -2.492  0.00  0.00     0.417 C 
ATOM     14  F   UNL d   1       4.086  -2.002  -2.276  0.00  0.00    -0.166 F 
ATOM     15  F   UNL d   1       3.132  -3.491  -3.535  0.00  0.00    -0.166 F 
ATOM     16  F   UNL d   1       2.706  -3.435  -1.401  0.00  0.00    -0.166 F 
ENDBRANCH   9  13
BRANCH  11  17
ATOM     17  C   UNL d   1       0.982   2.040  -2.796  0.00  0.00     0.417 C 
ATOM     18  F   UNL d   1       2.247   2.459  -3.069  0.00  0.00    -0.166 F 
ATOM     19  F   UNL d   1       0.171   2.719  -3.656  0.00  0.00    -0.166 F 
ATOM     20  F   UNL d   1       0.686   2.507  -1.554  0.00  0.00    -0.166 F 
ENDBRANCH  11  17
ENDBRANCH   2   7
BRANCH   3  21
ATOM     21  N   UNL d   1      -3.835  -4.337  -5.535  0.00  0.00    -0.307 N 
ATOM     22  C   UNL d   1      -2.970  -4.995  -6.245  0.00  0.00     0.118 C 
ATOM     23  HN  UNL d   1      -4.796  -4.656  -5.410  1.00  0.00     0.186 HD
BRANCH  22  24
ATOM     24  C   UNL d   1      -3.233  -6.349  -6.759  0.00  0.00    -0.019 A 
ATOM     25  C   UNL d   1      -4.520  -6.894  -6.742  0.00  0.00     0.016 A 
ATOM     26  C   UNL d   1      -4.711  -8.213  -7.154  0.00  0.00     0.043 A 
ATOM     27  C   UNL d   1      -3.619  -8.970  -7.569  0.00  0.00     0.116 A 
ATOM     28  C   UNL d   1      -2.336  -8.429  -7.599  0.00  0.00     0.043 A 
ATOM     29  F   UNL d   1      -3.802 -10.245  -7.937  0.00  0.00    -0.206 F 
ATOM     30  C   UNL d   1      -2.141  -7.108  -7.196  0.00  0.00     0.016 A 
ENDBRANCH  22  24
ENDBRANCH   3  21
TORSDOF 5
