REMARK  2 active torsions:
REMARK  status: ('A' for Active; 'I' for Inactive)
REMARK    1  A    between atoms: C_7  and  C_1 
REMARK    2  A    between atoms: C_10  and  C_6 
ROOT
ATOM      1  N   UNL d   1      -0.436   4.349   3.370  0.00  0.00    -0.353 N 
ATOM      2  HN  UNL d   1      -0.149   5.291   3.104  1.00  0.00     0.166 HD
ATOM      3  N   UNL d   1      -1.255   1.749   4.070  0.00  0.00    -0.362 N 
ATOM      4  HN  UNL d   1      -1.564   0.812   4.329  1.00  0.00     0.165 HD
ATOM      5  C   UNL d   1      -1.121   4.121   4.519  0.00  0.00     0.058 A 
ATOM      6  C   UNL d   1       0.526   1.098   0.946  0.00  0.00     0.050 A 
ATOM      7  C   UNL d   1      -0.148   3.287   2.592  0.00  0.00     0.059 A 
ATOM      8  C   UNL d   1      -0.555   1.979   2.947  0.00  0.00     0.059 A 
ATOM      9  C   UNL d   1      -0.215   0.914   2.123  0.00  0.00     0.048 A 
ATOM     10  C   UNL d   1      -1.527   2.831   4.840  0.00  0.00     0.118 A 
ATOM     11  C   UNL d   1       0.913   2.396   0.598  0.00  0.00     0.018 A 
ATOM     12  C   UNL d   1       0.572   3.473   1.420  0.00  0.00     0.032 A 
ENDROOT
BRANCH   5  13
ATOM     13  C   UNL d   1      -1.375   5.302   5.366  0.00  0.00    -0.006 A 
ATOM     14  C   UNL d   1      -1.471   5.212   6.767  0.00  0.00     0.039 A 
ATOM     15  C   UNL d   1      -1.692   6.348   7.559  0.00  0.00     0.056 A 
ATOM     16 CL   UNL d   1      -1.786   6.122   9.271  0.00  0.00    -0.083 Cl
ATOM     17  C   UNL d   1      -1.821   7.604   6.963  0.00  0.00     0.055 A 
ATOM     18  C   UNL d   1      -1.725   7.718   5.577  0.00  0.00     0.026 A 
ATOM     19 CL   UNL d   1      -2.092   9.044   7.875  0.00  0.00    -0.083 Cl
ATOM     20  C   UNL d   1      -1.502   6.581   4.793  0.00  0.00     0.015 A 
ENDBRANCH   5  13
BRANCH   6  21
ATOM     21  C   UNL d   1       0.910  -0.071   0.074  0.00  0.00     0.417 C 
ATOM     22  F   UNL d   1       0.485  -1.272   0.552  0.00  0.00    -0.166 F 
ATOM     23  F   UNL d   1       2.258  -0.183  -0.075  0.00  0.00    -0.166 F 
ATOM     24  F   UNL d   1       0.401   0.033  -1.184  0.00  0.00    -0.166 F 
ENDBRANCH   6  21
TORSDOF 2
