REMARK  6 active torsions:
REMARK  status: ('A' for Active; 'I' for Inactive)
REMARK    1  A    between atoms: C_2  and  C_1 
REMARK    2  A    between atoms: O_5  and  C_1 
REMARK    3  A    between atoms: N_3  and  O_5 
REMARK    4  A    between atoms: C_7  and  C_9 
REMARK    5  A    between atoms: C_10  and  C_8 
REMARK    6  A    between atoms: C_22  and  C_8 
ROOT
ATOM      1  C   UNL d   1       0.400  -5.998   1.347  0.00  0.00    -0.023 A 
ATOM      2  C   UNL d   1      -0.922  -3.520   0.790  0.00  0.00    -0.012 A 
ATOM      3  C   UNL d   1       0.801  -4.790   1.943  0.00  0.00     0.013 A 
ATOM      4  C   UNL d   1      -0.681  -5.925   0.452  0.00  0.00     0.013 A 
ATOM      5  C   UNL d   1      -1.325  -4.709   0.170  0.00  0.00     0.014 A 
ATOM      6  C   UNL d   1       0.147  -3.576   1.685  0.00  0.00     0.014 A 
ENDROOT
BRANCH   2   7
ATOM      7  C   UNL d   1      -1.668  -2.244   0.495  0.00  0.00     0.042 C 
ATOM      8  N   UNL d   1      -2.727  -2.317  -0.259  0.00  0.00    -0.261 N 
ATOM      9  HN  UNL d   1      -3.056  -3.184  -0.684  1.00  0.00     0.194 HD
BRANCH   8  10
ATOM     10  O   UNL d   1      -3.372  -1.076  -0.429  0.00  0.00    -0.194 OA
BRANCH  10  11
ATOM     11  C   UNL d   1      -4.399  -1.196  -1.344  0.00  0.00     0.322 C 
ATOM     12  O   UNL d   1      -4.667  -2.211  -1.980  0.00  0.00    -0.257 OA
BRANCH  11  13
ATOM     13  C   UNL d   1      -5.139   0.054  -1.482  0.00  0.00     0.082 A 
ATOM     14  S   UNL d   1      -4.819   1.447  -0.539  0.00  0.00    -0.096 SA
ATOM     15  C   UNL d   1      -6.072   2.335  -1.292  0.00  0.00     0.050 A 
ATOM     16  C   UNL d   1      -6.725   1.595  -2.249  0.00  0.00     0.009 A 
ATOM     17  C   UNL d   1      -6.188   0.280  -2.359  0.00  0.00     0.026 A 
ENDBRANCH  11  13
ENDBRANCH  10  11
ENDBRANCH   8  10
BRANCH   7  18
ATOM     18  C   UNL d   1      -1.173  -0.937   1.107  0.00  0.00     0.055 C 
ATOM     19  C   UNL d   1      -1.823  -0.696   2.460  0.00  0.00     0.011 C 
ENDBRANCH   7  18
ENDBRANCH   2   7
BRANCH   1  20
ATOM     20  C   UNL d   1       1.097  -7.278   1.644  0.00  0.00     0.013 A 
ATOM     21  C   UNL d   1       1.682  -7.548   2.896  0.00  0.00     0.127 A 
ATOM     22  F   UNL d   1       1.585  -6.665   3.903  0.00  0.00    -0.205 F 
ATOM     23  C   UNL d   1       2.377  -8.730   3.159  0.00  0.00     0.043 A 
ATOM     24  C   UNL d   1       2.490  -9.702   2.172  0.00  0.00     0.003 A 
ATOM     25  C   UNL d   1       1.904  -9.485   0.929  0.00  0.00     0.001 A 
ATOM     26  C   UNL d   1       1.222  -8.288   0.668  0.00  0.00     0.015 A 
ENDBRANCH   1  20
TORSDOF 6
