REMARK  3 active torsions:
REMARK  status: ('A' for Active; 'I' for Inactive)
REMARK    1  A    between atoms: C_3  and  C_1 
REMARK    2  A    between atoms: N_4  and  C_2 
REMARK       I    between atoms: C_6  and  N_5 
REMARK    3  A    between atoms: C_14  and  C_6 
ROOT
ATOM      1  N   UNL d   1      -1.345   2.394   0.343  0.00  0.00    -0.266 NA
ATOM      2  N   UNL d   1      -2.855   4.781   0.672  0.00  0.00    -0.350 N 
ATOM      3  C   UNL d   1      -3.643   5.909   0.899  0.00  0.00     0.224 C 
ATOM      4  C   UNL d   1      -1.480   3.295  -0.818  0.00  0.00     0.117 C 
ATOM      5  C   UNL d   1      -2.598   2.345   1.123  0.00  0.00     0.117 C 
ATOM      6  C   UNL d   1      -2.840   3.743   1.713  0.00  0.00     0.140 C 
ATOM      7  C   UNL d   1      -1.733   4.727  -0.286  0.00  0.00     0.140 C 
ATOM      8  O   UNL d   1      -4.383   5.961   1.895  0.00  0.00    -0.273 OA
ENDROOT
BRANCH   1   9
ATOM      9  C   UNL d   1      -0.736   1.165   0.123  0.00  0.00     0.097 A 
ATOM     10  C   UNL d   1      -0.061   0.503   1.152  0.00  0.00     0.086 A 
ATOM     11  C   UNL d   1       0.560  -0.728   0.863  0.00  0.00     0.021 A 
ATOM     12  C   UNL d   1       0.521  -1.250  -0.417  0.00  0.00     0.018 A 
ATOM     13  C   UNL d   1      -0.148  -0.522  -1.377  0.00  0.00     0.089 A 
ATOM     14  N   UNL d   1      -0.764   0.659  -1.132  0.00  0.00    -0.356 N 
ATOM     15  HN  UNL d   1      -1.243   1.158  -1.882  1.00  0.00     0.166 HD
BRANCH  10  16
ATOM     16  C   UNL d   1       0.099   1.042   2.546  0.00  0.00     0.420 C 
ATOM     17  F   UNL d   1      -0.394   2.282   2.804  0.00  0.00    -0.166 F 
ATOM     18  F   UNL d   1      -0.497   0.225   3.467  0.00  0.00    -0.166 F 
ATOM     19  F   UNL d   1       1.412   1.101   2.923  0.00  0.00    -0.166 F 
ENDBRANCH  10  16
ENDBRANCH   1   9
BRANCH   3  20
ATOM     20  C   UNL d   1      -3.593   7.059  -0.137  0.00  0.00     0.078 C 
ATOM     21  C   UNL d   1      -4.673   8.169   0.029  0.00  0.00     0.014 C 
ATOM     22  C   UNL d   1      -4.888   8.155  -1.487  0.00  0.00     0.002 C 
ATOM     23  C   UNL d   1      -4.198   6.787  -1.539  0.00  0.00     0.014 C 
ENDBRANCH   3  20
TORSDOF 3
