REMARK  4 active torsions:
REMARK  status: ('A' for Active; 'I' for Inactive)
REMARK    1  A    between atoms: C_8  and  C_1 
REMARK    2  A    between atoms: N_7  and  C_2 
REMARK    3  A    between atoms: C_10  and  C_3 
REMARK       I    between atoms: C_9  and  N_7 
REMARK    4  A    between atoms: C_11  and  C_9 
ROOT
ATOM      1  C   UNL d   1       1.749   0.821  -0.432  0.00  0.00     0.147 A 
ATOM      2  C   UNL d   1       0.205  -0.784  -0.187  0.00  0.00     0.138 A 
ATOM      3  C   UNL d   1       1.578  -0.578  -0.207  0.00  0.00     0.053 A 
ATOM      4  N   UNL d   1       0.552   1.430  -0.546  0.00  0.00    -0.292 N 
ATOM      5  HN  UNL d   1       0.374   2.412  -0.760  1.00  0.00     0.187 HD
ATOM      6  N   UNL d   1      -0.356   0.465  -0.317  0.00  0.00    -0.280 N 
ATOM      7  C   UNL d   1      -1.717   0.873  -0.076  0.00  0.00     0.179 C 
ENDROOT
BRANCH   2   8
ATOM      8  N   UNL d   1      -0.366  -1.994   0.160  0.00  0.00    -0.310 N 
ATOM      9  C   UNL d   1      -1.287  -2.842  -0.531  0.00  0.00     0.231 C 
ATOM     10  O   UNL d   1      -1.454  -3.897   0.070  0.00  0.00    -0.272 OA
ATOM     11  H   UNL d   1       0.106  -2.513   0.899  0.00  0.00     0.170 HD
BRANCH   9  12
ATOM     12  C   UNL d   1      -2.001  -2.545  -1.849  0.00  0.00     0.030 C 
ATOM     13  C   UNL d   1      -1.237  -1.653  -2.828  0.00  0.00     0.025 C 
ATOM     14  C   UNL d   1      -2.226  -3.894  -2.577  0.00  0.00     0.025 C 
ATOM     15  C   UNL d   1      -3.382  -1.970  -1.513  0.00  0.00     0.025 C 
ENDBRANCH   9  12
ENDBRANCH   2   8
BRANCH   3  16
ATOM     16  C   UNL d   1       2.567  -1.630  -0.025  0.00  0.00    -0.020 A 
ATOM     17  C   UNL d   1       2.506  -2.801  -0.801  0.00  0.00     0.015 A 
ATOM     18  C   UNL d   1       3.443  -3.818  -0.621  0.00  0.00     0.043 A 
ATOM     19  C   UNL d   1       4.453  -3.660   0.320  0.00  0.00     0.116 A 
ATOM     20  C   UNL d   1       4.537  -2.506   1.087  0.00  0.00     0.043 A 
ATOM     21  F   UNL d   1       5.357  -4.633   0.487  0.00  0.00    -0.206 F 
ATOM     22  C   UNL d   1       3.591  -1.490   0.921  0.00  0.00     0.015 A 
ENDBRANCH   3  16
BRANCH   1  23
ATOM     23  C   UNL d   1       3.051   1.586  -0.500  0.00  0.00     0.434 C 
ATOM     24  F   UNL d   1       4.039   0.857  -1.083  0.00  0.00    -0.165 F 
ATOM     25  F   UNL d   1       2.957   2.744  -1.200  0.00  0.00    -0.165 F 
ATOM     26  F   UNL d   1       3.490   1.906   0.747  0.00  0.00    -0.165 F 
ENDBRANCH   1  23
TORSDOF 4
