REMARK  0 active torsions:
REMARK  status: ('A' for Active; 'I' for Inactive)
ROOT
ATOM      1  N   UNL d   1      -0.550   1.359  -0.356  0.00  0.00    -0.290 N 
ATOM      2  C   UNL d   1      -0.844   0.929   1.009  0.00  0.00     0.151 C 
ATOM      3  C   UNL d   1      -0.581   2.735  -0.558  0.00  0.00     0.177 C 
ATOM      4  C   UNL d   1       0.242   0.480  -1.154  0.00  0.00     0.056 A 
ATOM      5  O   UNL d   1      -0.937  -0.506   1.167  0.00  0.00    -0.285 OA
ATOM      6  C   UNL d   1      -0.561  -1.403   0.242  0.00  0.00     0.298 C 
ATOM      7  C   UNL d   1       0.243  -0.882  -0.864  0.00  0.00     0.066 A 
ATOM      8  N   UNL d   1      -0.228   3.479   0.541  0.00  0.00    -0.358 N 
ATOM      9  C   UNL d   1       0.272   1.453   1.920  0.00  0.00     0.092 C 
ATOM     10  C   UNL d   1       0.549   2.957   1.673  0.00  0.00     0.029 C 
ATOM     11  S   UNL d   1      -1.131   3.527  -1.923  0.00  0.00    -0.041 SA
ATOM     12  O   UNL d   1      -0.801  -2.596   0.360  0.00  0.00    -0.259 OA
ATOM     13  C   UNL d   1      -2.234   1.403   1.487  0.00  0.00     0.072 C 
ATOM     14  C   UNL d   1       1.091   0.926  -2.178  0.00  0.00     0.031 A 
ATOM     15  C   UNL d   1       1.032  -1.788  -1.595  0.00  0.00     0.020 A 
ATOM     16  C   UNL d   1       0.187   3.764   2.929  0.00  0.00     0.038 C 
ATOM     17  C   UNL d   1       2.043   3.168   1.368  0.00  0.00     0.038 C 
ATOM     18  C   UNL d   1       1.864  -1.325  -2.610  0.00  0.00     0.001 A 
ATOM     19  C   UNL d   1       1.899   0.034  -2.894  0.00  0.00     0.002 A 
ATOM     20  H   UNL d   1      -0.232   4.483   0.384  0.00  0.00     0.162 HD
ENDROOT
TORSDOF 0
