REMARK  7 active torsions:
REMARK  status: ('A' for Active; 'I' for Inactive)
REMARK    1  A    between atoms: N_2  and  C_1 
REMARK    2  A    between atoms: C_3  and  C_7 
REMARK    3  A    between atoms: C_4  and  C_3 
REMARK    4  A    between atoms: S_10  and  C_6 
REMARK    5  A    between atoms: C_9  and  C_8 
REMARK    6  A    between atoms: O_18  and  C_9 
REMARK    7  A    between atoms: C_17  and  S_10 
ROOT
ATOM      1  C   UNL d   1       1.490  -0.209   0.212  0.00  0.00     0.120 A 
ATOM      2  C   UNL d   1       0.577  -1.277   0.282  0.00  0.00     0.053 A 
ATOM      3  C   UNL d   1       1.087   1.127   0.089  0.00  0.00     0.038 A 
ATOM      4  C   UNL d   1      -0.792  -1.006   0.281  0.00  0.00     0.017 A 
ATOM      5  C   UNL d   1      -0.293   1.374   0.060  0.00  0.00     0.022 A 
ATOM      6  C   UNL d   1      -1.220   0.324   0.163  0.00  0.00     0.017 A 
ENDROOT
BRANCH   4   7
ATOM      7  C   UNL d   1      -1.826  -2.079   0.397  0.00  0.00     0.193 C 
ATOM      8  O   UNL d   1      -2.981  -1.848   0.047  0.00  0.00    -0.287 OA
BRANCH   7   9
ATOM      9  C   UNL d   1      -1.545  -3.401   1.004  0.00  0.00     0.032 A 
ATOM     10  C   UNL d   1      -2.048  -4.611   0.495  0.00  0.00     0.051 A 
ATOM     11  C   UNL d   1      -1.712  -5.810   1.159  0.00  0.00     0.019 A 
ATOM     12  C   UNL d   1      -0.913  -5.811   2.304  0.00  0.00     0.001 A 
ATOM     13  C   UNL d   1      -0.448  -4.610   2.820  0.00  0.00     0.001 A 
ATOM     14  C   UNL d   1      -0.778  -3.413   2.187  0.00  0.00     0.016 A 
BRANCH  10  15
ATOM     15  C   UNL d   1      -2.858  -4.804  -0.745  0.00  0.00     0.177 C 
ATOM     16  O   UNL d   1      -2.740  -5.824  -1.411  0.00  0.00    -0.646 OA
BRANCH  15  17
ATOM     17  O   UNL d   1      -3.790  -3.883  -1.035  0.00  0.00    -0.773 OA
ATOM     18  H   UNL d   1      -3.762  -3.047  -0.510  0.00  0.00     0.167 HD
ENDBRANCH  15  17
ENDBRANCH  10  15
ENDBRANCH   7   9
ENDBRANCH   4   7
BRANCH   1  19
ATOM     19  N   UNL d   1       2.892  -0.554   0.303  0.00  0.00    -0.114 N 
ATOM     20  O   UNL d   1       3.373  -1.182  -0.647  0.00  0.00    -0.532 OA
ATOM     21  O   UNL d   1       3.470  -0.281   1.360  0.00  0.00    -0.532 OA
ENDBRANCH   1  19
BRANCH   3  22
ATOM     22  S   UNL d   1       2.198   2.491  -0.222  0.00  0.00    -0.088 SA
BRANCH  22  23
ATOM     23  C   UNL d   1       2.423   3.192   1.401  0.00  0.00     0.005 A 
ATOM     24  C   UNL d   1       3.586   2.910   2.125  0.00  0.00     0.019 A 
ATOM     25  C   UNL d   1       3.807   3.502   3.370  0.00  0.00     0.001 A 
ATOM     26  C   UNL d   1       2.873   4.394   3.893  0.00  0.00     0.000 A 
ATOM     27  C   UNL d   1       1.720   4.695   3.170  0.00  0.00     0.001 A 
ATOM     28  C   UNL d   1       1.496   4.098   1.926  0.00  0.00     0.019 A 
ENDBRANCH  22  23
ENDBRANCH   3  22
TORSDOF 7
