REMARK  4 active torsions:
REMARK  status: ('A' for Active; 'I' for Inactive)
REMARK    1  A    between atoms: C_7  and  C_1 
REMARK    2  A    between atoms: S_8  and  C_13 
REMARK    3  A    between atoms: C_11  and  S_8 
REMARK    4  A    between atoms: C_13  and  C_14 
ROOT
ATOM      1  C   UNL d   1      -3.715   0.072  -0.027  0.00  0.00     0.008 A 
ATOM      2  C   UNL d   1      -4.361  -0.625   1.001  0.00  0.00     0.016 A 
ATOM      3  C   UNL d   1      -4.510   0.786  -0.933  0.00  0.00     0.016 A 
ATOM      4  C   UNL d   1      -6.557   0.029   0.160  0.00  0.00    -0.049 A 
ATOM      5  C   UNL d   1      -5.761  -0.647   1.096  0.00  0.00     0.009 A 
ATOM      6  C   UNL d   1      -5.905   0.779  -0.830  0.00  0.00     0.009 A 
ENDROOT
BRANCH   1   7
ATOM      7  C   UNL d   1      -2.250   0.033  -0.138  0.00  0.00     0.116 A 
ATOM      8  N   UNL d   1      -1.414  -0.553   0.700  0.00  0.00    -0.340 N 
ATOM      9  C   UNL d   1      -0.151  -0.364   0.186  0.00  0.00     0.060 A 
ATOM     10  HN  UNL d   1      -1.656  -1.048   1.559  1.00  0.00     0.167 HD
ATOM     11  C   UNL d   1       1.096  -0.785   0.666  0.00  0.00     0.032 A 
ATOM     12  C   UNL d   1      -0.207   0.359  -0.998  0.00  0.00     0.060 A 
ATOM     13  C   UNL d   1       2.246  -0.459  -0.068  0.00  0.00     0.002 A 
ATOM     14  C   UNL d   1       2.155   0.272  -1.255  0.00  0.00     0.002 A 
ATOM     15  C   UNL d   1       0.918   0.701  -1.749  0.00  0.00     0.032 A 
ATOM     16  N   UNL d   1      -1.541   0.598  -1.178  0.00  0.00    -0.340 N 
ATOM     17  H   UNL d   1      -1.939   1.094  -1.960  0.00  0.00     0.167 HD
ENDBRANCH   1   7
BRANCH   4  18
ATOM     18  C   UNL d   1      -8.071  -0.018   0.265  0.00  0.00     0.117 C 
BRANCH  18  19
ATOM     19  S   UNL d   1      -8.889  -0.129  -1.374  0.00  0.00    -0.125 SA
BRANCH  19  20
ATOM     20  C   UNL d   1     -10.626  -0.094  -0.977  0.00  0.00     0.001 A 
ATOM     21  C   UNL d   1     -11.473   0.635  -1.825  0.00  0.00     0.020 A 
ATOM     22  C   UNL d   1     -12.861   0.590  -1.662  0.00  0.00     0.025 A 
ATOM     23  C   UNL d   1     -13.409  -0.191  -0.649  0.00  0.00     0.034 A 
ATOM     24  C   UNL d   1     -12.579  -0.908   0.212  0.00  0.00     0.025 A 
ATOM     25 CL   UNL d   1     -15.117  -0.298  -0.479  0.00  0.00    -0.084 Cl
ATOM     26  C   UNL d   1     -11.190  -0.860   0.047  0.00  0.00     0.020 A 
ENDBRANCH  19  20
ENDBRANCH  18  19
ENDBRANCH   4  18
TORSDOF 4
