REMARK  3 active torsions:
REMARK  status: ('A' for Active; 'I' for Inactive)
REMARK    1  A    between atoms: O_4  and  C_1 
REMARK    2  A    between atoms: C_3  and  C_2 
REMARK       I    between atoms: N_8  and  C_3 
REMARK    3  A    between atoms: C_9  and  O_4 
ROOT
ATOM      1  C   UNL d   1      -0.533   1.109   0.110  0.00  0.00     0.163 A 
ATOM      2  C   UNL d   1       0.848   1.188   0.276  0.00  0.00     0.083 A 
ATOM      3  N   UNL d   1      -1.208  -0.071   0.029  0.00  0.00    -0.346 N 
ATOM      4  HN  UNL d   1      -2.225  -0.092  -0.040  1.00  0.00     0.167 HD
ATOM      5  C   UNL d   1       1.559  -0.022   0.282  0.00  0.00     0.023 A 
ATOM      6  C   UNL d   1      -0.488  -1.210   0.042  0.00  0.00     0.090 A 
ATOM      7  C   UNL d   1       0.888  -1.236   0.153  0.00  0.00     0.018 A 
ENDROOT
BRANCH   1   8
ATOM      8  O   UNL d   1      -1.280   2.280   0.037  0.00  0.00    -0.293 OA
BRANCH   8   9
ATOM      9  C   UNL d   1      -2.460   2.234  -0.675  0.00  0.00     0.077 A 
ATOM     10  C   UNL d   1      -3.568   2.869  -0.112  0.00  0.00     0.037 A 
ATOM     11  C   UNL d   1      -4.794   2.851  -0.781  0.00  0.00     0.003 A 
ATOM     12  C   UNL d   1      -4.908   2.212  -2.016  0.00  0.00     0.000 A 
ATOM     13  C   UNL d   1      -3.792   1.612  -2.597  0.00  0.00     0.003 A 
ATOM     14  C   UNL d   1      -2.564   1.640  -1.937  0.00  0.00     0.037 A 
ENDBRANCH   8   9
ENDBRANCH   1   8
BRANCH   2  15
ATOM     15  C   UNL d   1       1.633   2.440   0.441  0.00  0.00     0.253 C 
ATOM     16  O   UNL d   1       2.857   2.415   0.490  0.00  0.00    -0.268 OA
ATOM     17  N   UNL d   1       0.977   3.631   0.557  0.00  0.00    -0.366 N 
ATOM     18  H   UNL d   1      -0.029   3.727   0.513  0.00  0.00     0.159 HD
ATOM     19  H   UNL d   1       1.537   4.464   0.681  0.00  0.00     0.159 HD
ENDBRANCH   2  15
TORSDOF 3
