REMARK  9 active torsions:
REMARK  status: ('A' for Active; 'I' for Inactive)
REMARK    1  A    between atoms: C_3  and  N_1 
REMARK    2  A    between atoms: C_2  and  O_5 
REMARK    3  A    between atoms: C_8  and  C_2 
REMARK    4  A    between atoms: O_5  and  C_4 
REMARK    5  A    between atoms: C_6  and  C_8 
REMARK    6  A    between atoms: C_9  and  C_6 
REMARK    7  A    between atoms: C_12  and  C_6 
REMARK    8  A    between atoms: C_7  and  C_9 
REMARK    9  A    between atoms: O_13  and  C_7 
ROOT
ATOM      1  C   UNL d   1      -2.599  -1.455   1.327  0.00  0.00     0.264 C 
ATOM      2  O   UNL d   1      -2.464  -2.634   1.017  0.00  0.00    -0.265 OA
ENDROOT
BRANCH   1   3
ATOM      3  O   UNL d   1      -3.079  -0.981   2.562  0.00  0.00    -0.277 OA
BRANCH   3   4
ATOM      4  C   UNL d   1      -3.842  -1.855   3.405  0.00  0.00     0.105 A 
ATOM      5  C   UNL d   1      -3.847  -1.715   4.821  0.00  0.00     0.064 A 
ATOM      6  C   UNL d   1      -4.819  -2.496   5.498  0.00  0.00     0.032 A 
ATOM      7  C   UNL d   1      -5.681  -3.389   4.856  0.00  0.00     0.002 A 
ATOM      8  C   UNL d   1      -5.625  -3.526   3.483  0.00  0.00     0.003 A 
ATOM      9  C   UNL d   1      -4.731  -2.745   2.761  0.00  0.00     0.040 A 
BRANCH   5  10
ATOM     10  N   UNL d   1      -3.033  -0.863   5.570  0.00  0.00    -0.379 N 
ATOM     11  C   UNL d   1      -3.094  -0.876   7.040  0.00  0.00     0.123 C 
ATOM     12  C   UNL d   1      -2.027   0.115   7.465  0.00  0.00     0.021 C 
ATOM     13  C   UNL d   1      -0.935  -0.113   6.436  0.00  0.00     0.021 C 
ATOM     14  C   UNL d   1      -1.670  -0.524   5.147  0.00  0.00     0.123 C 
ENDBRANCH   5  10
ENDBRANCH   3   4
ENDBRANCH   1   3
BRANCH   1  15
ATOM     15  C   UNL d   1      -2.238  -0.316   0.389  0.00  0.00     0.121 C 
BRANCH  15  16
ATOM     16  C   UNL d   1      -3.466   0.449  -0.169  0.00  0.00     0.038 C 
BRANCH  16  17
ATOM     17  C   UNL d   1      -3.469   1.933   0.269  0.00  0.00     0.119 C 
BRANCH  17  18
ATOM     18  C   UNL d   1      -2.280   2.738  -0.227  0.00  0.00     0.140 C 
ATOM     19  O   UNL d   1      -1.145   2.308  -0.357  0.00  0.00    -0.650 OA
BRANCH  18  20
ATOM     20  O   UNL d   1      -2.580   4.034  -0.469  0.00  0.00    -0.776 OA
ATOM     21  H   UNL d   1      -3.515   4.262  -0.348  0.00  0.00     0.167 HD
ENDBRANCH  18  20
ENDBRANCH  17  18
ENDBRANCH  16  17
BRANCH  16  22
ATOM     22  C   UNL d   1      -3.732   0.412  -1.682  0.00  0.00    -0.053 A 
ATOM     23  C   UNL d   1      -5.066   0.430  -2.138  0.00  0.00     0.007 A 
ATOM     24  C   UNL d   1      -5.374   0.591  -3.494  0.00  0.00     0.001 A 
ATOM     25  C   UNL d   1      -4.351   0.731  -4.425  0.00  0.00     0.000 A 
ATOM     26  C   UNL d   1      -3.025   0.690  -4.000  0.00  0.00     0.001 A 
ATOM     27  C   UNL d   1      -2.715   0.531  -2.642  0.00  0.00     0.007 A 
ENDBRANCH  16  22
ENDBRANCH  15  16
ENDBRANCH   1  15
TORSDOF 9
