REMARK  0 active torsions:
REMARK  status: ('A' for Active; 'I' for Inactive)
ROOT
ATOM      1  C   UNL d   1      -0.419   1.615  -0.034  0.00  0.00     0.197 C 
ATOM      2  C   UNL d   1      -1.561   1.224  -2.575  0.00  0.00     0.099 C 
ATOM      3  N   UNL d   1      -1.738   1.927  -0.259  0.00  0.00    -0.295 N 
ATOM      4  N   UNL d   1       0.229   0.899  -1.010  0.00  0.00    -0.295 N 
ATOM      5  N   UNL d   1      -2.431   1.511  -1.420  0.00  0.00    -0.213 NA
ATOM      6  N   UNL d   1      -0.489   0.323  -2.089  0.00  0.00    -0.213 NA
ATOM      7  S   UNL d   1       0.361   2.113   1.349  0.00  0.00    -0.039 SA
ATOM      8  C   UNL d   1      -2.406   0.384  -3.593  0.00  0.00     0.044 C 
ATOM      9  C   UNL d   1      -0.946   2.449  -3.350  0.00  0.00     0.044 C 
ATOM     10  C   UNL d   1      -3.695   1.097  -4.051  0.00  0.00     0.003 C 
ATOM     11  C   UNL d   1      -1.102   3.840  -2.718  0.00  0.00     0.003 C 
ATOM     12  C   UNL d   1      -0.548   4.966  -3.607  0.00  0.00     0.000 C 
ATOM     13  C   UNL d   1      -3.919   1.057  -5.561  0.00  0.00     0.000 C 
ATOM     14  C   UNL d   1      -4.718   2.268  -6.087  0.00  0.00     0.000 C 
ATOM     15  C   UNL d   1      -1.607   5.805  -4.345  0.00  0.00     0.000 C 
ATOM     16  C   UNL d   1      -3.823   3.448  -6.507  0.00  0.00     0.000 C 
ATOM     17  C   UNL d   1      -2.168   5.151  -5.613  0.00  0.00     0.000 C 
ATOM     18  C   UNL d   1      -3.494   4.426  -5.374  0.00  0.00     0.000 C 
ATOM     19  H   UNL d   1      -2.231   2.427   0.477  0.00  0.00     0.183 HD
ATOM     20  H   UNL d   1       1.196   0.630  -0.851  0.00  0.00     0.183 HD
ATOM     21  H   UNL d   1      -3.089   2.246  -1.679  0.00  0.00     0.149 HD
ATOM     22  H   UNL d   1      -0.977  -0.487  -1.698  0.00  0.00     0.149 HD
ENDROOT
TORSDOF 0
