REMARK  0 active torsions:
REMARK  status: ('A' for Active; 'I' for Inactive)
ROOT
ATOM      1  C   UNL d   1       2.365  -0.662  -0.089  0.00  0.00     0.117 A 
ATOM      2  C   UNL d   1       1.127  -1.468  -0.024  0.00  0.00     0.207 A 
ATOM      3  C   UNL d   1      -0.143  -0.718  -0.015  0.00  0.00     0.049 A 
ATOM      4  C   UNL d   1       2.243   0.672  -0.085  0.00  0.00     0.169 A 
ATOM      5  O   UNL d   1       1.069   1.386  -0.035  0.00  0.00    -0.320 OA
ATOM      6  C   UNL d   1       3.632  -1.296  -0.160  0.00  0.00     0.105 C 
ATOM      7  N   UNL d   1       4.697  -1.754  -0.223  0.00  0.00    -0.191 NA
ATOM      8  C   UNL d   1      -0.106   0.675  -0.025  0.00  0.00     0.089 A 
ATOM      9  O   UNL d   1       1.139  -2.692   0.011  0.00  0.00    -0.286 OA
ATOM     10  C   UNL d   1      -1.369  -1.391  -0.008  0.00  0.00     0.018 A 
ATOM     11  C   UNL d   1      -1.295   1.405  -0.031  0.00  0.00     0.038 A 
ATOM     12  C   UNL d   1      -2.558  -0.661  -0.020  0.00  0.00     0.001 A 
ATOM     13  C   UNL d   1      -2.521   0.735  -0.033  0.00  0.00     0.003 A 
ENDROOT
TORSDOF 0
