REMARK  5 active torsions:
REMARK  status: ('A' for Active; 'I' for Inactive)
REMARK    1  A    between atoms: N_3  and  C_1 
REMARK    2  A    between atoms: N_10  and  C_2 
REMARK    3  A    between atoms: C_11  and  C_9 
REMARK    4  A    between atoms: C_14  and  N_10 
REMARK    5  A    between atoms: C_13  and  C_14 
ROOT
ATOM      1  C   UNL d   1       0.776   1.191   0.119  0.00  0.00     0.146 C 
ATOM      2  C   UNL d   1      -0.563   1.233  -0.108  0.00  0.00     0.127 C 
ATOM      3  C   UNL d   1       1.447  -0.079   0.186  0.00  0.00     0.120 C 
ATOM      4  C   UNL d   1      -1.351   0.042  -0.262  0.00  0.00     0.114 C 
ATOM      5  N   UNL d   1       2.027  -1.086   0.232  0.00  0.00    -0.190 NA
ATOM      6  N   UNL d   1      -1.975  -0.930  -0.376  0.00  0.00    -0.190 NA
ENDROOT
BRANCH   1   7
ATOM      7  N   UNL d   1       1.436   2.411   0.261  0.00  0.00    -0.354 N 
ATOM      8  C   UNL d   1       2.731   2.450   0.325  0.00  0.00     0.102 C 
ATOM      9  HN  UNL d   1       0.898   3.276   0.316  1.00  0.00     0.166 HD
BRANCH   8  10
ATOM     10  C   UNL d   1       3.444   3.748   0.453  0.00  0.00     0.001 A 
ATOM     11  C   UNL d   1       4.837   3.823   0.586  0.00  0.00     0.045 A 
ATOM     12 CL   UNL d   1       5.859   2.430   0.603  0.00  0.00    -0.083 Cl
ATOM     13  C   UNL d   1       5.458   5.072   0.715  0.00  0.00     0.024 A 
ATOM     14  C   UNL d   1       4.699   6.244   0.705  0.00  0.00     0.002 A 
ATOM     15  C   UNL d   1       3.316   6.174   0.564  0.00  0.00     0.001 A 
ATOM     16  C   UNL d   1       2.691   4.932   0.437  0.00  0.00     0.014 A 
ENDBRANCH   8  10
ENDBRANCH   1   7
BRANCH   2  17
ATOM     17  N   UNL d   1      -1.303   2.436  -0.149  0.00  0.00    -0.281 NA
ATOM     18  H   UNL d   1      -0.743   3.122   0.367  0.00  0.00     0.128 HD
BRANCH  17  19
ATOM     19  C   UNL d   1      -1.629   3.032  -1.456  0.00  0.00     0.101 C 
BRANCH  19  20
ATOM     20  C   UNL d   1      -2.521   4.293  -1.319  0.00  0.00    -0.039 C 
ATOM     21  C   UNL d   1      -1.804   5.406  -0.533  0.00  0.00     0.015 C 
ATOM     22  C   UNL d   1      -2.830   4.828  -2.732  0.00  0.00     0.015 C 
ATOM     23  C   UNL d   1      -3.849   3.947  -0.626  0.00  0.00     0.015 C 
ENDBRANCH  19  20
ENDBRANCH  17  19
ENDBRANCH   2  17
TORSDOF 5
