REMARK  4 active torsions:
REMARK  status: ('A' for Active; 'I' for Inactive)
REMARK       I    between atoms: N_2  and  C_1 
REMARK    1  A    between atoms: C_5  and  C_1 
REMARK    2  A    between atoms: C_6  and  N_2 
REMARK    3  A    between atoms: C_7  and  N_3 
REMARK    4  A    between atoms: C_12  and  C_7 
ROOT
ATOM      1  N   UNL d   1       0.180  -5.024   0.048  0.00  0.00     0.092 N 
ATOM      2  C   UNL d   1       0.961  -2.444  -1.127  0.00  0.00     0.087 C 
ATOM      3  C   UNL d   1       0.190  -3.510  -1.919  0.00  0.00     0.055 C 
ATOM      4  C   UNL d   1       1.598  -3.026   0.134  0.00  0.00     0.055 C 
ATOM      5  C   UNL d   1      -0.631  -4.458  -1.043  0.00  0.00     0.275 C 
ATOM      6  C   UNL d   1       0.656  -3.939   0.914  0.00  0.00     0.275 C 
ENDROOT
BRANCH   2   7
ATOM      7  N   UNL d   1       0.147  -1.265  -0.823  0.00  0.00    -0.356 N 
ATOM      8  C   UNL d   1      -0.108  -0.312  -1.792  0.00  0.00     0.222 C 
ATOM      9  O   UNL d   1       0.256  -0.448  -2.956  0.00  0.00    -0.273 OA
ATOM     10  H   UNL d   1       0.008  -1.010   0.146  0.00  0.00     0.162 HD
BRANCH   8  11
ATOM     11  C   UNL d   1      -0.828   0.943  -1.280  0.00  0.00     0.078 C 
ATOM     12  C   UNL d   1      -2.172   0.622  -0.614  0.00  0.00     0.014 C 
ATOM     13  C   UNL d   1      -3.221   0.173  -1.628  0.00  0.00     0.001 C 
ATOM     14  C   UNL d   1      -3.413   1.202  -2.738  0.00  0.00     0.000 C 
ATOM     15  C   UNL d   1      -2.097   1.581  -3.409  0.00  0.00     0.001 C 
ATOM     16  C   UNL d   1      -1.026   1.986  -2.394  0.00  0.00     0.014 C 
ENDBRANCH   8  11
ENDBRANCH   2   7
BRANCH   1  17
ATOM     17  C   UNL d   1      -0.600  -6.035   0.789  0.00  0.00     0.311 C 
BRANCH  17  18
ATOM     18  C   UNL d   1       0.176  -6.713   1.903  0.00  0.00    -0.030 A 
ATOM     19  C   UNL d   1      -0.243  -6.585   3.237  0.00  0.00     0.009 A 
ATOM     20  C   UNL d   1       0.487  -7.173   4.270  0.00  0.00     0.001 A 
ATOM     21  C   UNL d   1       1.640  -7.902   3.984  0.00  0.00     0.000 A 
ATOM     22  C   UNL d   1       2.059  -8.049   2.663  0.00  0.00     0.001 A 
ATOM     23  C   UNL d   1       1.331  -7.458   1.628  0.00  0.00     0.009 A 
ENDBRANCH  17  18
ENDBRANCH   1  17
TORSDOF 4
