REMARK  5 active torsions:
REMARK  status: ('A' for Active; 'I' for Inactive)
REMARK    1  A    between atoms: C_15  and  C_5 
REMARK    2  A    between atoms: S_16  and  C_6 
REMARK    3  A    between atoms: C_12  and  C_19 
REMARK    4  A    between atoms: C_19  and  S_16 
REMARK    5  A    between atoms: C_17  and  C_18 
ROOT
ATOM      1  N   UNL d   1       4.370   4.651  -1.025  0.00  0.00    -0.322 N 
ATOM      2  HN  UNL d   1       4.745   4.195  -1.857  1.00  0.00     0.169 HD
ATOM      3  C   UNL d   1       5.043   5.383  -0.071  0.00  0.00     0.137 A 
ATOM      4  N   UNL d   1       4.241   5.901   0.876  0.00  0.00    -0.242 N 
ATOM      5  HN  UNL d   1       4.500   6.496   1.663  1.00  0.00     0.196 HD
ATOM      6  C   UNL d   1       3.127   4.685  -0.599  0.00  0.00     0.158 A 
ATOM      7  O   UNL d   1       2.970   5.434   0.529  0.00  0.00    -0.222 OA
ENDROOT
BRANCH   6   8
ATOM      8  C   UNL d   1       1.923   4.000  -1.135  0.00  0.00     0.169 C 
BRANCH   8   9
ATOM      9  S   UNL d   1       2.169   2.208  -1.026  0.00  0.00    -0.084 SA
BRANCH   9  10
ATOM     10  C   UNL d   1       0.712   1.593  -1.737  0.00  0.00     0.174 A 
ATOM     11  N   UNL d   1      -0.327   2.353  -2.205  0.00  0.00    -0.168 N 
ATOM     12  C   UNL d   1      -1.187   1.455  -2.619  0.00  0.00     0.692 A 
ATOM     13  HN  UNL d   1      -0.411   3.370  -2.226  1.00  0.00     0.186 HD
ATOM     14  N   UNL d   1      -0.673   0.208  -2.401  0.00  0.00    -0.130 N 
ATOM     15  N   UNL d   1      -2.396   1.640  -3.168  0.00  0.00    -0.233 N 
ATOM     16  N   UNL d   1       0.543   0.273  -1.847  0.00  0.00    -0.265 N 
ATOM     17  H   UNL d   1      -1.089  -0.694  -2.593  0.00  0.00     0.205 HD
ATOM     18  HN  UNL d   1       1.173  -0.484  -1.581  1.00  0.00     0.189 HD
ATOM     19  H   UNL d   1      -2.639   2.587  -3.446  0.00  0.00     0.174 HD
ATOM     20  H   UNL d   1      -2.872   0.923  -3.701  0.00  0.00     0.174 HD
ENDBRANCH   9  10
ENDBRANCH   8   9
ENDBRANCH   6   8
BRANCH   3  21
ATOM     21  C   UNL d   1       6.495   5.535  -0.105  0.00  0.00     0.010 A 
ATOM     22  C   UNL d   1       7.243   4.945  -1.131  0.00  0.00     0.016 A 
ATOM     23  C   UNL d   1       8.639   5.065  -1.168  0.00  0.00     0.009 A 
ATOM     24  C   UNL d   1       9.340   5.770  -0.173  0.00  0.00    -0.051 A 
ATOM     25  C   UNL d   1       8.574   6.364   0.846  0.00  0.00     0.009 A 
ATOM     26  C   UNL d   1       7.177   6.248   0.882  0.00  0.00     0.016 A 
BRANCH  24  27
ATOM     27  C   UNL d   1      10.878   5.844  -0.202  0.00  0.00    -0.024 C 
ATOM     28  C   UNL d   1      11.465   6.633   0.991  0.00  0.00     0.019 C 
ATOM     29  C   UNL d   1      11.470   4.418  -0.149  0.00  0.00     0.019 C 
ATOM     30  C   UNL d   1      11.373   6.532  -1.492  0.00  0.00     0.019 C 
ENDBRANCH  24  27
ENDBRANCH   3  21
TORSDOF 5
