REMARK  6 active torsions:
REMARK  status: ('A' for Active; 'I' for Inactive)
REMARK    1  A    between atoms: N_2  and  C_1 
REMARK    2  A    between atoms: N_3  and  C_1 
REMARK    3  A    between atoms: N_5  and  N_2 
REMARK    4  A    between atoms: C_7  and  N_3 
REMARK    5  A    between atoms: C_6  and  N_5 
REMARK    6  A    between atoms: C_16  and  C_8 
ROOT
ATOM      1  C   UNL d   1       1.122   0.110   0.059  0.00  0.00     0.186 C 
ATOM      2  S   UNL d   1       0.733   1.734   0.144  0.00  0.00    -0.040 SA
ENDROOT
BRANCH   1   3
ATOM      3  N   UNL d   1       2.463  -0.194   0.194  0.00  0.00    -0.297 N 
ATOM      4  H   UNL d   1       3.078   0.606   0.329  0.00  0.00     0.183 HD
BRANCH   3   5
ATOM      5  N   UNL d   1       2.985  -1.501   0.134  0.00  0.00    -0.230 NA
ATOM      6  H   UNL d   1       3.611  -1.546  -0.676  0.00  0.00     0.147 HD
BRANCH   5   7
ATOM      7  C   UNL d   1       3.756  -1.856   1.353  0.00  0.00     0.019 C 
ATOM      8  C   UNL d   1       2.814  -1.979   2.561  0.00  0.00     0.033 C 
ATOM      9  C   UNL d   1       4.411  -3.225   1.092  0.00  0.00     0.033 C 
ATOM     10  C   UNL d   1       4.877  -0.843   1.656  0.00  0.00     0.033 C 
ENDBRANCH   5   7
ENDBRANCH   3   5
ENDBRANCH   1   3
BRANCH   1  11
ATOM     11  N   UNL d   1       0.319  -0.982  -0.188  0.00  0.00    -0.332 N 
ATOM     12  H   UNL d   1       0.870  -1.790  -0.457  0.00  0.00     0.168 HD
BRANCH  11  13
ATOM     13  C   UNL d   1      -1.081  -1.058  -0.357  0.00  0.00     0.034 A 
ATOM     14  C   UNL d   1      -1.598  -2.063  -1.179  0.00  0.00     0.030 A 
ATOM     15  C   UNL d   1      -2.971  -2.122  -1.458  0.00  0.00     0.009 A 
ATOM     16  C   UNL d   1      -3.854  -1.200  -0.884  0.00  0.00    -0.058 A 
ATOM     17  C   UNL d   1      -3.345  -0.247   0.001  0.00  0.00     0.009 A 
ATOM     18  C   UNL d   1      -1.975  -0.186   0.268  0.00  0.00     0.030 A 
BRANCH  16  19
ATOM     19  C   UNL d   1      -5.320  -1.189  -1.240  0.00  0.00     0.034 C 
ATOM     20  C   UNL d   1      -5.603  -0.263  -2.415  0.00  0.00     0.010 C 
ENDBRANCH  16  19
ENDBRANCH  11  13
ENDBRANCH   1  11
TORSDOF 6
