REMARK  3 active torsions:
REMARK  status: ('A' for Active; 'I' for Inactive)
REMARK       I    between atoms: C_2  and  N_1 
REMARK    1  A    between atoms: C_3  and  C_2 
REMARK    2  A    between atoms: C_14  and  C_5 
REMARK    3  A    between atoms: O_26  and  C_22 
ROOT
ATOM      1  N   UNL d   1      -2.517   0.321  -0.396  0.00  0.00    -0.335 N 
ATOM      2  C   UNL d   1      -3.632   0.580  -1.205  0.00  0.00     0.257 C 
ATOM      3  C   UNL d   1      -0.151   0.768   0.053  0.00  0.00    -0.017 A 
ATOM      4  C   UNL d   1      -1.560   1.335   0.113  0.00  0.00     0.155 C 
ATOM      5  C   UNL d   1       0.114  -0.583  -0.080  0.00  0.00    -0.007 A 
ATOM      6  C   UNL d   1      -2.312  -1.077   0.061  0.00  0.00     0.132 C 
ATOM      7  S   UNL d   1       1.774  -0.951  -0.095  0.00  0.00    -0.106 SA
ATOM      8  C   UNL d   1      -0.924  -1.635  -0.272  0.00  0.00     0.067 C 
ATOM      9  C   UNL d   1       1.078   1.514  -0.008  0.00  0.00     0.018 A 
ATOM     10  C   UNL d   1       2.192   0.704  -0.043  0.00  0.00     0.051 A 
ATOM     11  O   UNL d   1      -4.434  -0.303  -1.507  0.00  0.00    -0.267 OA
ENDROOT
BRANCH   2  12
ATOM     12  C   UNL d   1      -3.905   1.934  -1.756  0.00  0.00     0.070 A 
ATOM     13  C   UNL d   1      -4.257   2.046  -3.108  0.00  0.00     0.135 A 
ATOM     14  C   UNL d   1      -4.557   3.283  -3.678  0.00  0.00     0.085 A 
ATOM     15  F   UNL d   1      -4.307   0.968  -3.904  0.00  0.00    -0.205 F 
ATOM     16  C   UNL d   1      -4.490   4.422  -2.888  0.00  0.00     0.119 A 
ATOM     17  C   UNL d   1      -4.170   4.337  -1.538  0.00  0.00     0.043 A 
ATOM     18  F   UNL d   1      -4.744   5.619  -3.430  0.00  0.00    -0.206 F 
ATOM     19  C   UNL d   1      -3.915   3.089  -0.963  0.00  0.00     0.023 A 
ENDBRANCH   2  12
BRANCH   4  20
ATOM     20  C   UNL d   1      -1.825   1.767   1.568  0.00  0.00    -0.031 A 
ATOM     21  C   UNL d   1      -1.025   2.742   2.195  0.00  0.00     0.012 A 
ATOM     22  C   UNL d   1      -1.234   3.128   3.528  0.00  0.00     0.037 A 
ATOM     23  C   UNL d   1      -2.272   2.573   4.263  0.00  0.00     0.068 A 
ATOM     24  C   UNL d   1      -3.131   1.674   3.643  0.00  0.00     0.037 A 
ATOM     25  C   UNL d   1      -2.915   1.282   2.316  0.00  0.00     0.012 A 
BRANCH  23  26
ATOM     26  O   UNL d   1      -2.572   2.875   5.564  0.00  0.00    -0.356 OA
ATOM     27  C   UNL d   1      -1.460   3.244   6.375  0.00  0.00     0.210 C 
ENDBRANCH  23  26
ENDBRANCH   4  20
TORSDOF 3
