REMARK  2 active torsions:
REMARK  status: ('A' for Active; 'I' for Inactive)
REMARK    1  A    between atoms: C_9  and  N_1 
REMARK    2  A    between atoms: C_5  and  C_4 
ROOT
ATOM      1  N   UNL d   1       0.012  -0.970  -0.128  0.00  0.00    -0.252 N 
ATOM      2  C   UNL d   1      -1.228  -0.334  -0.005  0.00  0.00     0.231 C 
ATOM      3  C   UNL d   1       1.256  -0.330  -0.113  0.00  0.00     0.231 C 
ATOM      4  C   UNL d   1      -0.040   1.858  -0.269  0.00  0.00     0.038 C 
ATOM      5  C   UNL d   1      -1.201   1.121   0.378  0.00  0.00     0.113 C 
ATOM      6  C   UNL d   1       1.272   1.168   0.071  0.00  0.00     0.113 C 
ATOM      7  O   UNL d   1      -2.319  -0.889  -0.157  0.00  0.00    -0.273 OA
ATOM      8  O   UNL d   1       2.341  -0.918  -0.134  0.00  0.00    -0.273 OA
ENDROOT
BRANCH   4   9
ATOM      9  C   UNL d   1      -0.024   3.321   0.173  0.00  0.00    -0.031 A 
ATOM     10  C   UNL d   1      -0.206   4.394  -0.723  0.00  0.00     0.042 A 
ATOM     11  C   UNL d   1      -0.197   5.718  -0.263  0.00  0.00     0.048 A 
ATOM     12 CL   UNL d   1      -0.452   4.155  -2.414  0.00  0.00    -0.084 Cl
ATOM     13  C   UNL d   1      -0.004   5.987   1.085  0.00  0.00     0.035 A 
ATOM     14  C   UNL d   1       0.178   4.949   1.991  0.00  0.00     0.024 A 
ATOM     15 CL   UNL d   1       0.009   7.612   1.646  0.00  0.00    -0.084 Cl
ATOM     16  C   UNL d   1       0.164   3.629   1.537  0.00  0.00     0.011 A 
ENDBRANCH   4   9
BRANCH   1  17
ATOM     17  C   UNL d   1       0.006  -2.396  -0.284  0.00  0.00     0.045 A 
ATOM     18  C   UNL d   1       0.709  -3.002  -1.336  0.00  0.00     0.033 A 
ATOM     19  C   UNL d   1       0.694  -4.389  -1.488  0.00  0.00     0.044 A 
ATOM     20  C   UNL d   1       0.006  -5.173  -0.569  0.00  0.00     0.116 A 
ATOM     21  C   UNL d   1      -0.680  -4.595   0.492  0.00  0.00     0.044 A 
ATOM     22  F   UNL d   1       0.007  -6.505  -0.706  0.00  0.00    -0.206 F 
ATOM     23  C   UNL d   1      -0.695  -3.205   0.627  0.00  0.00     0.033 A 
ENDBRANCH   1  17
TORSDOF 2
