REMARK  6 active torsions:
REMARK  status: ('A' for Active; 'I' for Inactive)
REMARK    1  A    between atoms: C_8  and  N_1 
REMARK    2  A    between atoms: N_2  and  C_9 
REMARK    3  A    between atoms: N_7  and  C_8 
REMARK    4  A    between atoms: C_9  and  N_7 
REMARK    5  A    between atoms: C_20  and  N_7 
REMARK    6  A    between atoms: C_11  and  C_20 
ROOT
ATOM      1  N   UNL d   1      -1.384   2.724   0.028  0.00  0.00     0.128 N 
ENDROOT
BRANCH   1   2
ATOM      2  C   UNL d   1      -0.006   2.246  -0.221  0.00  0.00     0.410 C 
BRANCH   2   3
ATOM      3  N   UNL d   1       0.151   0.830   0.026  0.00  0.00    -0.260 N 
ATOM      4  C   UNL d   1      -0.029  -0.130  -0.927  0.00  0.00     0.228 C 
ATOM      5  C   UNL d   1       0.365  -1.461  -0.356  0.00  0.00     0.112 C 
ATOM      6  O   UNL d   1      -0.382   0.031  -2.086  0.00  0.00    -0.273 OA
ATOM      7  C   UNL d   1       0.889  -1.144   1.030  0.00  0.00     0.112 C 
ATOM      8  C   UNL d   1       0.788   0.346   1.129  0.00  0.00     0.228 C 
ATOM      9  O   UNL d   1       1.223   1.002   2.064  0.00  0.00    -0.273 OA
ENDBRANCH   2   3
ENDBRANCH   1   2
BRANCH   1  10
ATOM     10  C   UNL d   1      -1.806   2.431   1.410  0.00  0.00     0.410 C 
BRANCH  10  11
ATOM     11  N   UNL d   1      -3.164   2.877   1.641  0.00  0.00    -0.260 N 
ATOM     12  C   UNL d   1      -3.486   3.849   2.542  0.00  0.00     0.228 C 
ATOM     13  C   UNL d   1      -4.970   4.059   2.531  0.00  0.00     0.112 C 
ATOM     14  O   UNL d   1      -2.713   4.464   3.260  0.00  0.00    -0.273 OA
ATOM     15  C   UNL d   1      -5.491   3.006   1.573  0.00  0.00     0.112 C 
ATOM     16  C   UNL d   1      -4.268   2.243   1.152  0.00  0.00     0.228 C 
ATOM     17  O   UNL d   1      -4.305   1.209   0.500  0.00  0.00    -0.273 OA
ENDBRANCH  10  11
ENDBRANCH   1  10
BRANCH   1  18
ATOM     18  C   UNL d   1      -1.429   4.185  -0.218  0.00  0.00     0.322 C 
BRANCH  18  19
ATOM     19  C   UNL d   1      -1.142   4.561  -1.647  0.00  0.00     0.011 A 
ATOM     20  S   UNL d   1       0.134   5.648  -2.010  0.00  0.00    -0.105 SA
ATOM     21  C   UNL d   1      -0.188   5.569  -3.686  0.00  0.00     0.050 A 
ATOM     22  C   UNL d   1      -1.249   4.738  -3.970  0.00  0.00     0.008 A 
ATOM     23  C   UNL d   1      -1.800   4.155  -2.793  0.00  0.00     0.017 A 
ENDBRANCH  18  19
ENDBRANCH   1  18
TORSDOF 6
