REMARK  5 active torsions:
REMARK  status: ('A' for Active; 'I' for Inactive)
REMARK    1  A    between atoms: C_9  and  N_1 
REMARK    2  A    between atoms: S_8  and  C_2 
REMARK    3  A    between atoms: C_13  and  S_8 
REMARK    4  A    between atoms: C_11  and  C_13 
REMARK    5  A    between atoms: C_12  and  C_11 
ROOT
ATOM      1  N   UNL d   1       2.321  -0.873  -0.125  0.00  0.00    -0.258 N 
ATOM      2  C   UNL d   1       2.292   0.521  -0.175  0.00  0.00     0.155 A 
ATOM      3  C   UNL d   1       1.125  -1.597   0.006  0.00  0.00     0.266 A 
ATOM      4  N   UNL d   1       1.203   1.222  -0.110  0.00  0.00    -0.335 N 
ATOM      5  HN  UNL d   1       1.243   2.241  -0.115  1.00  0.00     0.168 HD
ATOM      6  C   UNL d   1      -0.123  -0.822   0.007  0.00  0.00     0.059 A 
ATOM      7  C   UNL d   1      -0.024   0.562  -0.032  0.00  0.00     0.049 A 
ATOM      8  O   UNL d   1       1.028  -2.815   0.153  0.00  0.00    -0.267 OA
ATOM      9  C   UNL d   1      -1.367  -1.463   0.045  0.00  0.00     0.019 A 
ATOM     10  C   UNL d   1      -1.202   1.316  -0.037  0.00  0.00     0.030 A 
ATOM     11  C   UNL d   1      -2.533  -0.702   0.030  0.00  0.00     0.001 A 
ATOM     12  C   UNL d   1      -2.449   0.688  -0.010  0.00  0.00     0.002 A 
ENDROOT
BRANCH   2  13
ATOM     13  S   UNL d   1       3.785   1.419  -0.445  0.00  0.00    -0.086 SA
BRANCH  13  14
ATOM     14  C   UNL d   1       3.124   3.105  -0.728  0.00  0.00     0.161 C 
BRANCH  14  15
ATOM     15  C   UNL d   1       4.154   4.061  -1.327  0.00  0.00     0.144 C 
ATOM     16  O   UNL d   1       5.268   3.682  -1.695  0.00  0.00    -0.296 OA
BRANCH  15  17
ATOM     17  C   UNL d   1       3.781   5.566  -1.427  0.00  0.00     0.010 C 
ATOM     18  C   UNL d   1       4.208   6.255  -0.124  0.00  0.00     0.022 C 
ATOM     19  C   UNL d   1       4.549   6.196  -2.605  0.00  0.00     0.022 C 
ATOM     20  C   UNL d   1       2.282   5.806  -1.662  0.00  0.00     0.022 C 
ENDBRANCH  15  17
ENDBRANCH  14  15
ENDBRANCH  13  14
ENDBRANCH   2  13
BRANCH   1  21
ATOM     21  C   UNL d   1       3.512  -1.665  -0.075  0.00  0.00     0.044 A 
ATOM     22  C   UNL d   1       3.671  -2.717  -0.993  0.00  0.00     0.031 A 
ATOM     23  C   UNL d   1       4.641  -3.699  -0.796  0.00  0.00     0.009 A 
ATOM     24  C   UNL d   1       5.468  -3.654   0.329  0.00  0.00    -0.062 A 
ATOM     25  C   UNL d   1       5.349  -2.582   1.220  0.00  0.00     0.009 A 
ATOM     26  C   UNL d   1       6.380  -4.813   0.619  0.00  0.00     0.048 C 
ATOM     27  C   UNL d   1       4.385  -1.581   1.016  0.00  0.00     0.031 A 
ENDBRANCH   1  21
TORSDOF 5
