REMARK  9 active torsions:
REMARK  status: ('A' for Active; 'I' for Inactive)
REMARK    1  A    between atoms: N_2  and  C_1 
REMARK    2  A    between atoms: C_3  and  O_9 
REMARK    3  A    between atoms: C_4  and  C_3 
REMARK    4  A    between atoms: O_14  and  C_5 
REMARK    5  A    between atoms: C_6  and  C_10 
REMARK    6  A    between atoms: O_11  and  C_7 
REMARK    7  A    between atoms: O_9  and  C_12 
REMARK    8  A    between atoms: C_13  and  O_11 
REMARK    9  A    between atoms: C_25  and  O_14 
ROOT
ATOM      1  C   UNL d   1       3.204  -2.735   0.688  0.00  0.00     0.113 A 
ATOM      2  C   UNL d   1       2.634  -3.088  -0.535  0.00  0.00     0.110 A 
ATOM      3  C   UNL d   1       3.419  -3.857  -1.415  0.00  0.00     0.040 A 
ATOM      4  C   UNL d   1       4.535  -3.055   0.992  0.00  0.00     0.040 A 
ATOM      5  C   UNL d   1       5.313  -3.759   0.083  0.00  0.00     0.003 A 
ATOM      6  C   UNL d   1       4.749  -4.172  -1.117  0.00  0.00     0.003 A 
ENDROOT
BRANCH   1   7
ATOM      7  O   UNL d   1       2.558  -2.102   1.786  0.00  0.00    -0.272 OA
BRANCH   7   8
ATOM      8  C   UNL d   1       1.303  -1.598   2.103  0.00  0.00     0.303 C 
ATOM      9  O   UNL d   1       0.363  -1.378   1.365  0.00  0.00    -0.259 OA
BRANCH   8  10
ATOM     10  C   UNL d   1       1.404  -1.201   3.521  0.00  0.00     0.091 A 
ATOM     11  C   UNL d   1       1.927  -2.060   4.490  0.00  0.00     0.164 A 
ATOM     12  N   UNL d   1       2.107  -1.693   5.784  0.00  0.00    -0.346 N 
ATOM     13  C   UNL d   1       1.777  -0.424   6.113  0.00  0.00     0.090 A 
ATOM     14  HN  UNL d   1       2.475  -2.345   6.477  1.00  0.00     0.167 HD
ATOM     15  C   UNL d   1       1.231   0.488   5.222  0.00  0.00     0.018 A 
ATOM     16  C   UNL d   1       1.032   0.089   3.902  0.00  0.00     0.023 A 
BRANCH  11  17
ATOM     17  O   UNL d   1       2.110  -3.385   4.128  0.00  0.00    -0.293 OA
BRANCH  17  18
ATOM     18  C   UNL d   1       3.096  -4.164   4.684  0.00  0.00     0.077 A 
ATOM     19  C   UNL d   1       4.238  -3.714   5.347  0.00  0.00     0.037 A 
ATOM     20  C   UNL d   1       5.194  -4.633   5.799  0.00  0.00     0.003 A 
ATOM     21  C   UNL d   1       5.022  -5.999   5.573  0.00  0.00     0.000 A 
ATOM     22  C   UNL d   1       3.893  -6.451   4.895  0.00  0.00     0.003 A 
ATOM     23  C   UNL d   1       2.938  -5.536   4.452  0.00  0.00     0.037 A 
ENDBRANCH  17  18
ENDBRANCH  11  17
ENDBRANCH   8  10
ENDBRANCH   7   8
ENDBRANCH   1   7
BRANCH   2  24
ATOM     24  O   UNL d   1       1.339  -2.721  -0.823  0.00  0.00    -0.305 OA
BRANCH  24  25
ATOM     25  C   UNL d   1       0.963  -2.639  -2.148  0.00  0.00     0.109 A 
ATOM     26  C   UNL d   1      -0.157  -3.326  -2.617  0.00  0.00     0.137 A 
ATOM     27  C   UNL d   1      -0.521  -3.300  -3.975  0.00  0.00     0.055 A 
ATOM     28  C   UNL d   1       0.247  -2.563  -4.891  0.00  0.00     0.050 A 
ATOM     29  C   UNL d   1       1.337  -1.818  -4.409  0.00  0.00     0.019 A 
ATOM     30  C   UNL d   1       1.678  -1.839  -3.051  0.00  0.00     0.040 A 
BRANCH  26  31
ATOM     31  N   UNL d   1      -0.966  -4.126  -1.713  0.00  0.00    -0.113 N 
ATOM     32  O   UNL d   1      -0.387  -4.995  -1.044  0.00  0.00    -0.532 OA
ATOM     33  O   UNL d   1      -2.189  -3.938  -1.746  0.00  0.00    -0.532 OA
ENDBRANCH  26  31
BRANCH  28  34
ATOM     34  C   UNL d   1      -0.072  -2.566  -6.369  0.00  0.00     0.417 C 
ATOM     35  F   UNL d   1      -1.120  -3.370  -6.697  0.00  0.00    -0.166 F 
ATOM     36  F   UNL d   1      -0.383  -1.328  -6.838  0.00  0.00    -0.166 F 
ATOM     37  F   UNL d   1       0.979  -2.999  -7.120  0.00  0.00    -0.166 F 
ENDBRANCH  28  34
ENDBRANCH  24  25
ENDBRANCH   2  24
TORSDOF 9
