REMARK  4 active torsions:
REMARK  status: ('A' for Active; 'I' for Inactive)
REMARK    1  A    between atoms: C_5  and  C_1 
REMARK    2  A    between atoms: S_9  and  C_6 
REMARK    3  A    between atoms: C_13  and  S_9 
REMARK    4  A    between atoms: C_14  and  C_13 
ROOT
ATOM      1  C   UNL d   1      -1.392  -3.759   4.758  0.00  0.00     0.207 A 
ATOM      2  N   UNL d   1      -2.088  -4.443   3.796  0.00  0.00    -0.317 N 
ATOM      3  N   UNL d   1      -1.163  -2.534   4.322  0.00  0.00    -0.280 N 
ATOM      4  HN  UNL d   1      -0.666  -1.801   4.827  1.00  0.00     0.188 HD
ATOM      5  C   UNL d   1      -2.276  -3.568   2.775  0.00  0.00     0.161 A 
ATOM      6  N   UNL d   1      -1.712  -2.421   3.064  0.00  0.00    -0.278 N 
ATOM      7  HN  UNL d   1      -1.686  -1.595   2.467  1.00  0.00     0.189 HD
ATOM      8  H   UNL d   1      -2.391  -5.407   3.824  0.00  0.00     0.169 HD
ENDROOT
BRANCH   5   9
ATOM      9  S   UNL d   1      -3.135  -4.039   1.365  0.00  0.00    -0.088 SA
BRANCH   9  10
ATOM     10  C   UNL d   1      -2.592  -2.788   0.170  0.00  0.00     0.121 C 
BRANCH  10  11
ATOM     11  C   UNL d   1      -3.347  -1.484   0.243  0.00  0.00    -0.049 A 
ATOM     12  C   UNL d   1      -2.736  -0.344   0.781  0.00  0.00     0.008 A 
ATOM     13  C   UNL d   1      -3.391   0.890   0.769  0.00  0.00     0.007 A 
ATOM     14  C   UNL d   1      -4.676   1.005   0.230  0.00  0.00    -0.062 A 
ATOM     15  C   UNL d   1      -5.302  -0.137  -0.283  0.00  0.00     0.007 A 
ATOM     16  C   UNL d   1      -5.331   2.349   0.125  0.00  0.00     0.048 C 
ATOM     17  C   UNL d   1      -4.646  -1.373  -0.270  0.00  0.00     0.008 A 
ENDBRANCH  10  11
ENDBRANCH   9  10
ENDBRANCH   5   9
BRANCH   1  18
ATOM     18  C   UNL d   1      -1.006  -4.383   6.044  0.00  0.00     0.450 C 
ATOM     19  F   UNL d   1      -1.196  -5.732   6.005  0.00  0.00    -0.163 F 
ATOM     20  F   UNL d   1       0.298  -4.186   6.355  0.00  0.00    -0.163 F 
ATOM     21  F   UNL d   1      -1.746  -3.924   7.084  0.00  0.00    -0.163 F 
ENDBRANCH   1  18
TORSDOF 4
