REMARK  6 active torsions:
REMARK  status: ('A' for Active; 'I' for Inactive)
REMARK    1  A    between atoms: N_2  and  S_1 
REMARK    2  A    between atoms: C_5  and  S_1 
REMARK    3  A    between atoms: N_4  and  C_12 
REMARK    4  A    between atoms: O_13  and  C_6 
REMARK    5  A    between atoms: N_18  and  C_11 
REMARK    6  A    between atoms: C_21  and  O_13 
ROOT
ATOM      1  C   UNL d   1       0.492   1.166   1.059  0.00  0.00     0.083 A 
ATOM      2  C   UNL d   1      -0.282   2.986   3.049  0.00  0.00     0.119 A 
ATOM      3  C   UNL d   1       0.418   3.417   1.904  0.00  0.00     0.071 A 
ATOM      4  C   UNL d   1      -0.546   1.615   3.198  0.00  0.00     0.071 A 
ATOM      5  C   UNL d   1      -0.191   0.713   2.189  0.00  0.00     0.052 A 
ATOM      6  C   UNL d   1       0.813   2.514   0.914  0.00  0.00     0.052 A 
ATOM      7 CL   UNL d   1      -1.214   0.921   4.635  0.00  0.00    -0.081 Cl
ATOM      8 CL   UNL d   1       0.863   5.076   1.694  0.00  0.00    -0.081 Cl
ENDROOT
BRANCH   2   9
ATOM      9  O   UNL d   1      -0.488   3.942   4.019  0.00  0.00    -0.307 OA
BRANCH   9  10
ATOM     10  C   UNL d   1      -1.692   4.094   4.661  0.00  0.00     0.076 A 
ATOM     11  C   UNL d   1      -1.606   4.793   5.873  0.00  0.00     0.040 A 
ATOM     12  C   UNL d   1      -2.739   4.996   6.663  0.00  0.00     0.039 A 
ATOM     13  C   UNL d   1      -3.970   4.492   6.233  0.00  0.00     0.103 A 
ATOM     14  C   UNL d   1      -4.074   3.822   5.005  0.00  0.00     0.039 A 
ATOM     15  C   UNL d   1      -2.935   3.650   4.206  0.00  0.00     0.040 A 
BRANCH  13  16
ATOM     16  N   UNL d   1      -5.161   4.670   7.074  0.00  0.00    -0.116 N 
ATOM     17  O   UNL d   1      -5.036   5.319   8.122  0.00  0.00    -0.532 OA
ATOM     18  O   UNL d   1      -6.222   4.160   6.685  0.00  0.00    -0.532 OA
ENDBRANCH  13  16
ENDBRANCH   9  10
ENDBRANCH   2   9
BRANCH   1  19
ATOM     19  S   UNL d   1       1.049  -0.011  -0.159  0.00  0.00     0.263 S 
ATOM     20  O   UNL d   1       2.237   0.555  -0.768  0.00  0.00    -0.200 OA
ATOM     21  O   UNL d   1       1.106  -1.297   0.500  0.00  0.00    -0.200 OA
BRANCH  19  22
ATOM     22  N   UNL d   1      -0.168  -0.001  -1.227  0.00  0.00    -0.277 N 
ATOM     23  C   UNL d   1      -0.045  -0.808  -2.224  0.00  0.00     0.188 C 
ATOM     24  HN  UNL d   1      -0.980   0.606  -1.118  1.00  0.00     0.179 HD
BRANCH  23  25
ATOM     25  N   UNL d   1      -0.951  -0.972  -3.245  0.00  0.00    -0.385 N 
ATOM     26  C   UNL d   1      -2.189  -0.212  -3.305  0.00  0.00     0.149 C 
ATOM     27  C   UNL d   1      -0.725  -1.907  -4.335  0.00  0.00     0.149 C 
ENDBRANCH  23  25
ENDBRANCH  19  22
ENDBRANCH   1  19
TORSDOF 6
