REMARK  7 active torsions:
REMARK  status: ('A' for Active; 'I' for Inactive)
REMARK    1  A    between atoms: C_7  and  C_1 
REMARK    2  A    between atoms: C_3  and  C_2 
REMARK    3  A    between atoms: N_14  and  C_6 
REMARK    4  A    between atoms: O_25  and  C_7 
REMARK       I    between atoms: C_8  and  N_13 
REMARK    5  A    between atoms: C_9  and  C_8 
REMARK    6  A    between atoms: N_13  and  N_14 
REMARK    7  A    between atoms: C_28  and  O_25 
ROOT
ATOM      1  C   UNL d   1      -0.037  -1.444   0.019  0.00  0.00     0.086 A 
ATOM      2  C   UNL d   1       1.164  -0.762   0.063  0.00  0.00     0.136 A 
ATOM      3  N   UNL d   1       1.188   0.610   0.172  0.00  0.00    -0.327 N 
ATOM      4  HN  UNL d   1       2.080   1.103   0.219  1.00  0.00     0.168 HD
ATOM      5  C   UNL d   1       0.039   1.296   0.215  0.00  0.00     0.176 A 
ATOM      6  N   UNL d   1      -1.161   0.705   0.125  0.00  0.00    -0.340 N 
ATOM      7  HN  UNL d   1      -2.026   1.245   0.131  1.00  0.00     0.167 HD
ATOM      8  C   UNL d   1      -1.168  -0.646   0.026  0.00  0.00     0.110 A 
ENDROOT
BRANCH   5   9
ATOM      9  N   UNL d   1       0.134   2.682   0.411  0.00  0.00    -0.172 NA
ATOM     10  H   UNL d   1       1.064   2.992   0.120  0.00  0.00     0.156 HD
BRANCH   9  11
ATOM     11  N   UNL d   1      -0.911   3.428  -0.162  0.00  0.00    -0.280 N 
ATOM     12  C   UNL d   1      -0.601   4.700  -0.605  0.00  0.00     0.266 C 
ATOM     13  O   UNL d   1       0.542   5.154  -0.624  0.00  0.00    -0.266 OA
ATOM     14  H   UNL d   1      -1.848   3.137   0.104  0.00  0.00     0.184 HD
BRANCH  12  15
ATOM     15  C   UNL d   1      -1.740   5.534  -1.069  0.00  0.00     0.036 A 
ATOM     16  C   UNL d   1      -1.685   6.922  -0.887  0.00  0.00     0.041 A 
ATOM     17  C   UNL d   1      -2.737   7.721  -1.337  0.00  0.00     0.036 A 
ATOM     18 CL   UNL d   1      -2.680   9.425  -1.105  0.00  0.00    -0.084 Cl
ATOM     19  C   UNL d   1      -3.837   7.152  -1.976  0.00  0.00     0.047 A 
ATOM     20  C   UNL d   1      -3.876   5.774  -2.168  0.00  0.00     0.036 A 
ATOM     21  C   UNL d   1      -2.835   4.957  -1.716  0.00  0.00     0.041 A 
ATOM     22 CL   UNL d   1      -5.212   5.066  -2.991  0.00  0.00    -0.084 Cl
ENDBRANCH  12  15
ENDBRANCH   9  11
ENDBRANCH   5   9
BRANCH   2  23
ATOM     23  C   UNL d   1       2.529  -1.411  -0.056  0.00  0.00     0.433 C 
ATOM     24  F   UNL d   1       2.556  -2.750  -0.283  0.00  0.00    -0.165 F 
ATOM     25  F   UNL d   1       3.246  -0.883  -1.095  0.00  0.00    -0.165 F 
ATOM     26  F   UNL d   1       3.295  -1.209   1.054  0.00  0.00    -0.165 F 
ENDBRANCH   2  23
BRANCH   1  27
ATOM     27  C   UNL d   1      -0.263  -2.895  -0.066  0.00  0.00     0.296 C 
ATOM     28  O   UNL d   1      -1.186  -3.370  -0.706  0.00  0.00    -0.259 OA
BRANCH  27  29
ATOM     29  O   UNL d   1       0.591  -3.571   0.732  0.00  0.00    -0.318 OA
BRANCH  29  30
ATOM     30  C   UNL d   1       0.453  -5.006   0.730  0.00  0.00     0.174 C 
ATOM     31  C   UNL d   1       0.990  -5.628  -0.551  0.00  0.00     0.034 C 
ENDBRANCH  29  30
ENDBRANCH  27  29
ENDBRANCH   1  27
TORSDOF 7
