REMARK  4 active torsions:
REMARK  status: ('A' for Active; 'I' for Inactive)
REMARK    1  A    between atoms: N_2  and  S_1 
REMARK    2  A    between atoms: C_3  and  S_1 
REMARK    3  A    between atoms: C_4  and  N_2 
REMARK    4  A    between atoms: N_17  and  C_14 
ROOT
ATOM      1  S   UNL d   1       1.027  -0.025   0.002  0.00  0.00     0.263 S 
ATOM      2  O   UNL d   1       0.623   1.039  -0.891  0.00  0.00    -0.200 OA
ATOM      3  O   UNL d   1       2.422  -0.345   0.213  0.00  0.00    -0.200 OA
ENDROOT
BRANCH   1   4
ATOM      4  N   UNL d   1       0.294  -1.465  -0.502  0.00  0.00    -0.281 N 
ATOM      5  H   UNL d   1       0.994  -2.096  -0.892  0.00  0.00     0.179 HD
BRANCH   4   6
ATOM      6  C   UNL d   1      -0.976  -1.407  -1.141  0.00  0.00     0.045 A 
ATOM      7  C   UNL d   1      -1.047  -1.446  -2.534  0.00  0.00     0.054 A 
ATOM      8  C   UNL d   1      -2.294  -1.424  -3.159  0.00  0.00     0.037 A 
ATOM      9 CL   UNL d   1      -2.389  -1.510  -4.876  0.00  0.00    -0.084 Cl
ATOM     10  C   UNL d   1      -3.465  -1.352  -2.409  0.00  0.00     0.048 A 
ATOM     11  C   UNL d   1      -3.378  -1.286  -1.021  0.00  0.00     0.037 A 
ATOM     12  C   UNL d   1      -2.139  -1.304  -0.380  0.00  0.00     0.054 A 
ATOM     13 CL   UNL d   1      -4.818  -1.205  -0.081  0.00  0.00    -0.084 Cl
ENDBRANCH   4   6
ENDBRANCH   1   4
BRANCH   1  14
ATOM     14  C   UNL d   1       0.311   0.256   1.600  0.00  0.00     0.080 A 
ATOM     15  C   UNL d   1       0.485  -0.695   2.607  0.00  0.00     0.027 A 
ATOM     16  C   UNL d   1      -0.080  -0.473   3.867  0.00  0.00     0.025 A 
ATOM     17  C   UNL d   1      -0.843   0.672   4.118  0.00  0.00     0.005 A 
ATOM     18  C   UNL d   1      -0.939   1.649   3.121  0.00  0.00     0.025 A 
ATOM     19  C   UNL d   1      -0.386   1.438   1.855  0.00  0.00     0.027 A 
BRANCH  17  20
ATOM     20  N   UNL d   1      -1.297   0.944   5.413  0.00  0.00    -0.303 NA
ATOM     21  H   UNL d   1      -2.067   1.604   5.451  0.00  0.00     0.124 HD
ATOM     22  H   UNL d   1      -1.475   0.116   5.973  0.00  0.00     0.124 HD
ENDBRANCH  17  20
ENDBRANCH   1  14
TORSDOF 4
