REMARK  5 active torsions:
REMARK  status: ('A' for Active; 'I' for Inactive)
REMARK       I    between atoms: C_4  and  N_1 
REMARK    1  A    between atoms: N_2  and  C_3 
REMARK    2  A    between atoms: C_7  and  C_4 
REMARK    3  A    between atoms: C_14  and  C_5 
REMARK    4  A    between atoms: C_6  and  O_13 
REMARK    5  A    between atoms: O_13  and  C_14 
ROOT
ATOM      1  N   UNL d   1      -1.366  -0.544   0.175  0.00  0.00    -0.332 N 
ATOM      2  C   UNL d   1      -2.482  -1.288   0.536  0.00  0.00     0.254 C 
ATOM      3  C   UNL d   1      -0.189  -1.256  -0.323  0.00  0.00     0.173 C 
ATOM      4  S   UNL d   1       1.211  -0.162   0.106  0.00  0.00    -0.140 SA
ATOM      5  O   UNL d   1      -2.474  -2.517   0.539  0.00  0.00    -0.267 OA
ATOM      6  C   UNL d   1      -1.220   0.912   0.211  0.00  0.00     0.137 C 
ATOM      7  C   UNL d   1       0.226   1.334  -0.030  0.00  0.00     0.096 C 
ENDROOT
BRANCH   3   8
ATOM      8  C   UNL d   1      -0.318  -1.460  -1.848  0.00  0.00     0.212 C 
BRANCH   8   9
ATOM      9  O   UNL d   1       0.872  -2.005  -2.431  0.00  0.00    -0.346 OA
BRANCH   9  10
ATOM     10  C   UNL d   1       0.863  -2.113  -3.797  0.00  0.00     0.101 A 
ATOM     11  C   UNL d   1       1.575  -3.155  -4.400  0.00  0.00     0.136 A 
ATOM     12  C   UNL d   1       1.654  -3.297  -5.795  0.00  0.00     0.045 A 
ATOM     13  C   UNL d   1       1.014  -2.372  -6.624  0.00  0.00    -0.059 A 
ATOM     14  C   UNL d   1       0.315  -1.312  -6.032  0.00  0.00     0.009 A 
ATOM     15  C   UNL d   1       1.073  -2.512  -8.113  0.00  0.00     0.048 C 
ATOM     16  C   UNL d   1       0.249  -1.179  -4.640  0.00  0.00     0.040 A 
BRANCH  11  17
ATOM     17  N   UNL d   1       2.257  -4.142  -3.583  0.00  0.00    -0.113 N 
ATOM     18  O   UNL d   1       1.572  -4.800  -2.788  0.00  0.00    -0.532 OA
ATOM     19  O   UNL d   1       3.468  -4.303  -3.795  0.00  0.00    -0.532 OA
ENDBRANCH  11  17
ENDBRANCH   9  10
ENDBRANCH   8   9
ENDBRANCH   3   8
BRANCH   2  20
ATOM     20  C   UNL d   1      -3.747  -0.615   0.941  0.00  0.00     0.032 A 
ATOM     21  C   UNL d   1      -4.306   0.432   0.197  0.00  0.00     0.020 A 
ATOM     22  C   UNL d   1      -5.515   1.008   0.590  0.00  0.00     0.043 A 
ATOM     23  C   UNL d   1      -6.189   0.502   1.695  0.00  0.00     0.116 A 
ATOM     24  C   UNL d   1      -5.678  -0.571   2.414  0.00  0.00     0.043 A 
ATOM     25  F   UNL d   1      -7.359   1.044   2.056  0.00  0.00    -0.206 F 
ATOM     26  C   UNL d   1      -4.454  -1.133   2.038  0.00  0.00     0.020 A 
ENDBRANCH   2  20
TORSDOF 5
