REMARK  10 active torsions:
REMARK  status: ('A' for Active; 'I' for Inactive)
REMARK    1  A    between atoms: C_2  and  N_1 
REMARK    2  A    between atoms: O_7  and  C_3 
REMARK    3  A    between atoms: C_11  and  O_7 
REMARK    4  A    between atoms: N_9  and  C_22 
REMARK    5  A    between atoms: C_23  and  N_9 
REMARK    6  A    between atoms: C_12  and  C_11 
REMARK    7  A    between atoms: O_20  and  C_12 
REMARK    8  A    between atoms: C_22  and  C_12 
REMARK    9  A    between atoms: O_21  and  C_13 
REMARK   10  A    between atoms: C_15  and  C_23 
ROOT
ATOM      1  C   UNL d   1      -1.244   0.135  -3.390  0.00  0.00     0.170 C 
ENDROOT
BRANCH   1   2
ATOM      2  C   UNL d   1      -0.672  -0.322  -2.046  0.00  0.00     0.209 C 
BRANCH   2   3
ATOM      3  O   UNL d   1       0.725  -0.629  -2.113  0.00  0.00    -0.346 OA
BRANCH   3   4
ATOM      4  C   UNL d   1       1.292  -1.010  -0.922  0.00  0.00     0.101 A 
ATOM      5  C   UNL d   1       2.684  -0.930  -0.760  0.00  0.00     0.136 A 
ATOM      6  C   UNL d   1       3.323  -1.341   0.424  0.00  0.00     0.045 A 
ATOM      7  C   UNL d   1       2.559  -1.851   1.480  0.00  0.00    -0.059 A 
ATOM      8  C   UNL d   1       1.176  -1.944   1.326  0.00  0.00     0.009 A 
ATOM      9  C   UNL d   1       3.178  -2.300   2.767  0.00  0.00     0.048 C 
ATOM     10  C   UNL d   1       0.554  -1.538   0.145  0.00  0.00     0.040 A 
BRANCH   5  11
ATOM     11  N   UNL d   1       3.521  -0.389  -1.818  0.00  0.00    -0.113 N 
ATOM     12  O   UNL d   1       3.269   0.762  -2.211  0.00  0.00    -0.532 OA
ATOM     13  O   UNL d   1       4.461  -1.093  -2.212  0.00  0.00    -0.532 OA
ENDBRANCH   5  11
ENDBRANCH   3   4
ENDBRANCH   2   3
ENDBRANCH   1   2
BRANCH   1  14
ATOM     14  O   UNL d   1      -2.607   0.537  -3.180  0.00  0.00    -0.392 OA
ATOM     15  H   UNL d   1      -2.554   1.469  -2.884  0.00  0.00     0.210 HD
ENDBRANCH   1  14
BRANCH   1  16
ATOM     16  C   UNL d   1      -0.476   1.287  -4.056  0.00  0.00     0.303 C 
BRANCH  16  17
ATOM     17  N   UNL d   1      -0.498   2.498  -3.222  0.00  0.00     0.090 N 
ATOM     18  H   UNL d   1      -0.012   2.306  -2.343  0.00  0.00     0.316 HD
BRANCH  17  19
ATOM     19  C   UNL d   1       0.259   3.567  -3.885  0.00  0.00     0.308 C 
BRANCH  19  20
ATOM     20  C   UNL d   1       0.302   4.808  -3.029  0.00  0.00    -0.030 A 
ATOM     21  C   UNL d   1       1.524   5.319  -2.573  0.00  0.00     0.011 A 
ATOM     22  C   UNL d   1       1.568   6.489  -1.806  0.00  0.00     0.037 A 
ATOM     23  C   UNL d   1       0.389   7.161  -1.482  0.00  0.00     0.068 A 
ATOM     24  C   UNL d   1      -0.832   6.648  -1.923  0.00  0.00     0.037 A 
ATOM     25  C   UNL d   1      -0.878   5.482  -2.691  0.00  0.00     0.011 A 
BRANCH  23  26
ATOM     26  O   UNL d   1       0.296   8.315  -0.753  0.00  0.00    -0.356 OA
ATOM     27  C   UNL d   1       1.518   8.893  -0.313  0.00  0.00     0.210 C 
ENDBRANCH  23  26
ENDBRANCH  19  20
ENDBRANCH  17  19
ENDBRANCH  16  17
ENDBRANCH   1  16
TORSDOF 10
