REMARK  3 active torsions:
REMARK  status: ('A' for Active; 'I' for Inactive)
REMARK    1  A    between atoms: C_2  and  N_1 
REMARK    2  A    between atoms: N_6  and  C_3 
REMARK       I    between atoms: C_4  and  N_5 
REMARK       I    between atoms: N_7  and  C_4 
REMARK    3  A    between atoms: C_8  and  N_7 
ROOT
ATOM      1  C   UNL d   1      -2.750  -1.444   4.824  0.00  0.00     0.323 C 
ATOM      2  N   UNL d   1      -2.652  -0.198   4.218  0.00  0.00    -0.332 N 
ATOM      3  N   UNL d   1      -1.240   0.499   1.715  0.00  0.00    -0.364 N 
ATOM      4  N   UNL d   1      -2.310  -1.478   6.126  0.00  0.00    -0.307 N 
ATOM      5  O   UNL d   1      -3.246  -2.405   4.240  0.00  0.00    -0.247 OA
ATOM      6  C   UNL d   1      -3.338  -0.018   2.930  0.00  0.00     0.147 C 
ATOM      7  C   UNL d   1      -2.467  -0.325   1.700  0.00  0.00     0.144 C 
ATOM      8  C   UNL d   1      -0.259   0.601   3.978  0.00  0.00     0.040 C 
ATOM      9  C   UNL d   1      -1.659   0.826   4.561  0.00  0.00     0.129 C 
ATOM     10  C   UNL d   1      -0.193  -0.043   2.595  0.00  0.00     0.126 C 
ATOM     11  H   UNL d   1      -2.482  -0.625   6.643  0.00  0.00     0.170 HD
ENDROOT
BRANCH   4  12
ATOM     12  C   UNL d   1      -2.226  -2.647   6.921  0.00  0.00     0.058 A 
ATOM     13  C   UNL d   1      -2.433  -2.559   8.308  0.00  0.00     0.060 A 
ATOM     14 CL   UNL d   1      -2.888  -1.061   9.047  0.00  0.00    -0.082 Cl
ATOM     15  C   UNL d   1      -2.313  -3.689   9.121  0.00  0.00     0.026 A 
ATOM     16  C   UNL d   1      -1.965  -4.916   8.559  0.00  0.00     0.002 A 
ATOM     17  C   UNL d   1      -1.759  -5.016   7.184  0.00  0.00     0.002 A 
ATOM     18  C   UNL d   1      -1.895  -3.889   6.367  0.00  0.00     0.031 A 
ENDBRANCH   4  12
BRANCH   3  19
ATOM     19  C   UNL d   1      -0.866   1.249   0.610  0.00  0.00     0.137 A 
ATOM     20  C   UNL d   1      -1.709   2.091  -0.124  0.00  0.00     0.146 A 
ATOM     21  C   UNL d   1      -1.258   2.809  -1.245  0.00  0.00     0.041 A 
ATOM     22  C   UNL d   1       0.070   2.700  -1.614  0.00  0.00     0.020 A 
ATOM     23  C   UNL d   1       0.876   1.887  -0.843  0.00  0.00     0.090 A 
ATOM     24  N   UNL d   1       0.438   1.182   0.230  0.00  0.00    -0.350 N 
ATOM     25  HN  UNL d   1       1.090   0.599   0.754  1.00  0.00     0.166 HD
BRANCH  20  26
ATOM     26  N   UNL d   1      -3.055   2.358   0.297  0.00  0.00    -0.112 N 
ATOM     27  O   UNL d   1      -3.219   3.036   1.319  0.00  0.00    -0.532 OA
ATOM     28  O   UNL d   1      -3.965   1.943  -0.440  0.00  0.00    -0.532 OA
ENDBRANCH  20  26
ENDBRANCH   3  19
TORSDOF 3
