REMARK  7 active torsions:
REMARK  status: ('A' for Active; 'I' for Inactive)
REMARK    1  A    between atoms: C_9  and  N_1 
REMARK    2  A    between atoms: C_13  and  N_6 
REMARK    3  A    between atoms: C_10  and  C_8 
REMARK    4  A    between atoms: N_16  and  C_14 
REMARK    5  A    between atoms: O_21  and  C_15 
REMARK    6  A    between atoms: C_28  and  O_21 
REMARK    7  A    between atoms: C_29  and  C_28 
ROOT
ATOM      1  N   UNL d   1      -1.579   0.097   0.815  0.00  0.00    -0.247 N 
ATOM      2  C   UNL d   1      -0.071  -0.499  -0.816  0.00  0.00     0.260 C 
ATOM      3  C   UNL d   1      -0.044   1.013  -0.738  0.00  0.00     0.149 C 
ATOM      4  C   UNL d   1      -1.336  -0.889  -0.102  0.00  0.00     0.263 C 
ATOM      5  C   UNL d   1      -1.017   1.286   0.390  0.00  0.00     0.241 C 
ATOM      6  N   UNL d   1       1.559   0.143   0.602  0.00  0.00    -0.247 N 
ATOM      7  O   UNL d   1       0.991  -1.004   0.021  0.00  0.00    -0.261 OA
ATOM      8  C   UNL d   1       1.361   1.308  -0.249  0.00  0.00     0.164 C 
ATOM      9  O   UNL d   1      -2.059  -1.823  -0.423  0.00  0.00    -0.270 OA
ATOM     10  O   UNL d   1      -1.210   2.417   0.807  0.00  0.00    -0.272 OA
ENDROOT
BRANCH   1  11
ATOM     11  C   UNL d   1      -2.389  -0.040   1.968  0.00  0.00     0.078 C 
ATOM     12  C   UNL d   1      -2.239  -1.086   2.916  0.00  0.00     0.096 C 
ATOM     13  C   UNL d   1      -2.842  -0.924   4.182  0.00  0.00     0.039 C 
ATOM     14  C   UNL d   1      -3.713   0.124   4.451  0.00  0.00     0.003 C 
ATOM     15  C   UNL d   1      -3.967   1.068   3.474  0.00  0.00     0.002 C 
ATOM     16  C   UNL d   1      -3.288   1.005   2.260  0.00  0.00     0.033 C 
BRANCH  12  17
ATOM     17  O   UNL d   1      -1.477  -2.219   2.648  0.00  0.00    -0.349 OA
BRANCH  17  18
ATOM     18  C   UNL d   1      -1.801  -3.320   3.527  0.00  0.00     0.175 C 
BRANCH  18  19
ATOM     19  C   UNL d   1      -1.352  -4.702   3.068  0.00  0.00     0.022 C 
ATOM     20  C   UNL d   1      -1.882  -5.065   1.696  0.00  0.00     0.007 C 
ENDBRANCH  18  19
ENDBRANCH  17  18
ENDBRANCH  12  17
ENDBRANCH   1  11
BRANCH   8  21
ATOM     21  C   UNL d   1       2.435   1.342  -1.339  0.00  0.00    -0.032 A 
ATOM     22  C   UNL d   1       3.389   0.321  -1.478  0.00  0.00     0.011 A 
ATOM     23  C   UNL d   1       4.376   0.353  -2.467  0.00  0.00     0.030 A 
ATOM     24  C   UNL d   1       4.473   1.403  -3.379  0.00  0.00     0.029 A 
ATOM     25  C   UNL d   1       3.538   2.442  -3.212  0.00  0.00     0.030 A 
ATOM     26  C   UNL d   1       2.540   2.422  -2.216  0.00  0.00     0.011 A 
BRANCH  24  27
ATOM     27  N   UNL d   1       5.404   1.398  -4.403  0.00  0.00    -0.390 N 
ATOM     28  C   UNL d   1       5.981   2.632  -4.921  0.00  0.00     0.149 C 
ATOM     29  C   UNL d   1       6.061   0.172  -4.853  0.00  0.00     0.149 C 
ENDBRANCH  24  27
ENDBRANCH   8  21
BRANCH   6  30
ATOM     30  C   UNL d   1       2.329   0.119   1.753  0.00  0.00     0.058 A 
ATOM     31  C   UNL d   1       2.478   1.249   2.569  0.00  0.00     0.031 A 
ATOM     32  C   UNL d   1       3.263   1.211   3.721  0.00  0.00     0.002 A 
ATOM     33  C   UNL d   1       3.923   0.043   4.071  0.00  0.00     0.000 A 
ATOM     34  C   UNL d   1       3.783  -1.095   3.284  0.00  0.00     0.002 A 
ATOM     35  C   UNL d   1       2.981  -1.059   2.142  0.00  0.00     0.031 A 
ENDBRANCH   6  30
TORSDOF 7
