REMARK  5 active torsions:
REMARK  status: ('A' for Active; 'I' for Inactive)
REMARK    1  A    between atoms: C_10  and  C_1 
REMARK    2  A    between atoms: C_13  and  N_3 
REMARK    3  A    between atoms: C_7  and  C_14 
REMARK    4  A    between atoms: O_21  and  C_10 
REMARK    5  A    between atoms: C_23  and  O_21 
ROOT
ATOM      1  C   UNL d   1      -0.338  -1.222   0.001  0.00  0.00     0.064 A 
ATOM      2  C   UNL d   1       0.972  -0.752   0.040  0.00  0.00     0.029 A 
ATOM      3  N   UNL d   1       0.951   0.651   0.053  0.00  0.00    -0.319 N 
ATOM      4  C   UNL d   1      -1.174  -0.083   0.100  0.00  0.00     0.044 A 
ATOM      5  C   UNL d   1      -0.387   1.050   0.097  0.00  0.00     0.014 A 
ATOM      6  C   UNL d   1       2.224  -1.571   0.116  0.00  0.00     0.070 C 
ATOM      7  C   UNL d   1      -0.882   2.454   0.007  0.00  0.00     0.068 C 
ENDROOT
BRANCH   3   8
ATOM      8  C   UNL d   1       2.091   1.519  -0.005  0.00  0.00     0.039 A 
ATOM      9  C   UNL d   1       3.199   1.190  -0.794  0.00  0.00     0.031 A 
ATOM     10  C   UNL d   1       4.322   2.026  -0.837  0.00  0.00     0.016 A 
ATOM     11  C   UNL d   1       4.350   3.224  -0.114  0.00  0.00    -0.008 A 
ATOM     12  C   UNL d   1       3.234   3.557   0.665  0.00  0.00     0.016 A 
ATOM     13  C   UNL d   1       2.119   2.712   0.725  0.00  0.00     0.031 A 
BRANCH  11  14
ATOM     14  C   UNL d   1       5.504   4.116  -0.139  0.00  0.00     0.063 A 
ATOM     15  N   UNL d   1       5.753   4.999   0.908  0.00  0.00    -0.292 N 
ATOM     16  N   UNL d   1       6.842   5.721   0.702  0.00  0.00    -0.061 NA
ATOM     17  HN  UNL d   1       5.165   5.080   1.737  1.00  0.00     0.183 HD
ATOM     18  S   UNL d   1       7.585   5.373  -0.754  0.00  0.00    -0.010 SA
ATOM     19  C   UNL d   1       6.420   4.185  -1.176  0.00  0.00     0.096 A 
ENDBRANCH  11  14
ENDBRANCH   3   8
BRANCH   1  20
ATOM     20  C   UNL d   1      -0.768  -2.613  -0.147  0.00  0.00     0.295 C 
ATOM     21  O   UNL d   1      -0.005  -3.553  -0.328  0.00  0.00    -0.259 OA
BRANCH  20  22
ATOM     22  O   UNL d   1      -2.131  -2.720  -0.167  0.00  0.00    -0.318 OA
BRANCH  22  23
ATOM     23  C   UNL d   1      -2.636  -3.948  -0.703  0.00  0.00     0.174 C 
ATOM     24  C   UNL d   1      -2.706  -3.817  -2.214  0.00  0.00     0.034 C 
ENDBRANCH  22  23
ENDBRANCH  20  22
ENDBRANCH   1  20
TORSDOF 5
