REMARK  1 active torsions:
REMARK  status: ('A' for Active; 'I' for Inactive)
REMARK    1  A    between atoms: C_4  and  C_3 
ROOT
ATOM      1  C   UNL d   1      -2.078   0.357   0.061  0.00  0.00    -0.004 C 
ATOM      2  C   UNL d   1      -1.107  -0.783   0.012  0.00  0.00     0.189 C 
ATOM      3  C   UNL d   1      -3.296   0.152  -0.472  0.00  0.00     0.048 C 
ATOM      4  C   UNL d   1       0.342  -0.413   0.003  0.00  0.00     0.021 A 
ATOM      5  C   UNL d   1       0.741   0.936  -0.043  0.00  0.00    -0.044 A 
ATOM      6  C   UNL d   1      -1.531   1.606   0.692  0.00  0.00     0.047 C 
ATOM      7  O   UNL d   1      -1.469  -1.952  -0.036  0.00  0.00    -0.287 OA
ATOM      8  C   UNL d   1      -0.280   2.044  -0.056  0.00  0.00     0.044 C 
ATOM      9  C   UNL d   1       1.306  -1.427   0.017  0.00  0.00     0.016 A 
ATOM     10  C   UNL d   1       2.106   1.249  -0.106  0.00  0.00     0.008 A 
ATOM     11  C   UNL d   1       2.663  -1.102  -0.024  0.00  0.00     0.001 A 
ATOM     12  C   UNL d   1       3.061   0.233  -0.090  0.00  0.00     0.001 A 
ENDROOT
BRANCH   3  13
ATOM     13  C   UNL d   1      -4.251   1.193  -0.630  0.00  0.00     0.076 A 
ATOM     14  O   UNL d   1      -3.912   2.506  -0.872  0.00  0.00    -0.316 OA
ATOM     15  C   UNL d   1      -5.045   3.242  -0.989  0.00  0.00     0.050 A 
ATOM     16  C   UNL d   1      -4.863   4.686  -1.227  0.00  0.00     0.076 C 
ATOM     17  C   UNL d   1      -6.145   2.429  -0.853  0.00  0.00     0.035 A 
ATOM     18  C   UNL d   1      -5.639   1.122  -0.638  0.00  0.00     0.040 A 
ENDBRANCH   3  13
TORSDOF 1
