REMARK  5 active torsions:
REMARK  status: ('A' for Active; 'I' for Inactive)
REMARK    1  A    between atoms: N_2  and  S_1 
REMARK    2  A    between atoms: C_9  and  S_1 
REMARK    3  A    between atoms: C_3  and  N_2 
REMARK       I    between atoms: C_7  and  N_10 
REMARK    4  A    between atoms: C_14  and  C_7 
REMARK    5  A    between atoms: N_10  and  C_20 
ROOT
ATOM      1  C   UNL d   1       0.499  -0.731   1.386  0.00  0.00     0.075 A 
ATOM      2  C   UNL d   1       0.298  -2.113   1.347  0.00  0.00     0.027 A 
ATOM      3  C   UNL d   1       0.359  -0.033   2.584  0.00  0.00     0.027 A 
ATOM      4  C   UNL d   1      -0.124  -2.114   3.742  0.00  0.00     0.035 A 
ATOM      5  C   UNL d   1      -0.026  -2.797   2.522  0.00  0.00     0.031 A 
ATOM      6  C   UNL d   1       0.045  -0.727   3.757  0.00  0.00     0.031 A 
ENDROOT
BRANCH   1   7
ATOM      7  S   UNL d   1       1.099   0.101  -0.058  0.00  0.00     0.247 S 
ATOM      8  O   UNL d   1       1.722   1.341   0.363  0.00  0.00    -0.205 OA
ATOM      9  O   UNL d   1       1.839  -0.844  -0.869  0.00  0.00    -0.205 OA
BRANCH   7  10
ATOM     10  N   UNL d   1      -0.305   0.567  -0.868  0.00  0.00    -0.165 NA
ATOM     11  H   UNL d   1      -0.170   1.526  -1.180  0.00  0.00     0.147 HD
BRANCH  10  12
ATOM     12  C   UNL d   1      -0.823  -0.327  -1.794  0.00  0.00     0.117 A 
ATOM     13  N   UNL d   1      -1.657  -1.307  -1.446  0.00  0.00    -0.249 N 
ATOM     14  O   UNL d   1      -1.968  -1.966  -2.623  0.00  0.00    -0.241 OA
ATOM     15  HN  UNL d   1      -1.996  -1.526  -0.509  1.00  0.00     0.196 HD
ATOM     16  C   UNL d   1      -1.307  -1.379  -3.656  0.00  0.00     0.075 A 
ATOM     17  C   UNL d   1      -0.580  -0.315  -3.182  0.00  0.00     0.079 A 
ATOM     18  C   UNL d   1      -1.498  -1.986  -4.984  0.00  0.00     0.079 C 
ENDBRANCH  10  12
ENDBRANCH   7  10
ENDBRANCH   1   7
BRANCH   4  19
ATOM     19  N   UNL d   1      -0.365  -2.888   4.899  0.00  0.00    -0.323 N 
ATOM     20  C   UNL d   1      -0.376  -2.444   6.209  0.00  0.00     0.256 C 
ATOM     21  O   UNL d   1      -0.210  -1.293   6.600  0.00  0.00    -0.267 OA
ATOM     22  H   UNL d   1      -0.549  -3.868   4.736  0.00  0.00     0.169 HD
BRANCH  20  23
ATOM     23  C   UNL d   1      -0.658  -3.489   7.230  0.00  0.00     0.032 A 
ATOM     24  C   UNL d   1      -0.190  -4.805   7.108  0.00  0.00     0.018 A 
ATOM     25  C   UNL d   1      -0.533  -5.757   8.073  0.00  0.00     0.025 A 
ATOM     26  C   UNL d   1      -1.327  -5.392   9.161  0.00  0.00     0.034 A 
ATOM     27  C   UNL d   1      -1.759  -4.075   9.311  0.00  0.00     0.025 A 
ATOM     28 CL   UNL d   1      -1.781  -6.575  10.323  0.00  0.00    -0.084 Cl
ATOM     29  C   UNL d   1      -1.418  -3.123   8.350  0.00  0.00     0.018 A 
ENDBRANCH  20  23
ENDBRANCH   4  19
TORSDOF 5
