REMARK  2 active torsions:
REMARK  status: ('A' for Active; 'I' for Inactive)
REMARK       I    between atoms: C_7  and  N_1 
REMARK    1  A    between atoms: C_9  and  C_7 
REMARK    2  A    between atoms: C_13  and  N_8 
ROOT
ATOM      1  N   UNL d   1      -0.442  -1.093   0.186  0.00  0.00    -0.238 N 
ATOM      2  S   UNL d   1      -0.529   1.515   0.068  0.00  0.00    -0.060 SA
ATOM      3  C   UNL d   1       0.969   0.619   0.067  0.00  0.00     0.162 C 
ATOM      4  C   UNL d   1      -1.441  -0.070  -0.162  0.00  0.00     0.104 C 
ATOM      5  N   UNL d   1       0.865  -0.671   0.169  0.00  0.00    -0.273 N 
ATOM      6  HN  UNL d   1       1.665  -1.301   0.231  1.00  0.00     0.189 HD
ATOM      7  C   UNL d   1      -0.754  -2.442   0.295  0.00  0.00     0.247 C 
ATOM      8  N   UNL d   1       2.111   1.353  -0.042  0.00  0.00    -0.336 N 
ATOM      9  O   UNL d   1      -1.897  -2.844   0.032  0.00  0.00    -0.271 OA
ATOM     10  C   UNL d   1      -2.657  -0.056   0.767  0.00  0.00     0.053 C 
ATOM     11  C   UNL d   1      -1.855  -0.163  -1.635  0.00  0.00     0.053 C 
ATOM     12  H   UNL d   1       2.012   2.358   0.035  0.00  0.00     0.168 HD
ENDROOT
BRANCH   8  13
ATOM     13  C   UNL d   1       3.228   0.945  -0.796  0.00  0.00     0.034 A 
ATOM     14  C   UNL d   1       3.123   0.041  -1.864  0.00  0.00     0.029 A 
ATOM     15  C   UNL d   1       4.258  -0.408  -2.541  0.00  0.00     0.002 A 
ATOM     16  C   UNL d   1       5.518   0.035  -2.151  0.00  0.00     0.000 A 
ATOM     17  C   UNL d   1       5.638   0.951  -1.108  0.00  0.00     0.002 A 
ATOM     18  C   UNL d   1       4.498   1.415  -0.445  0.00  0.00     0.029 A 
ENDBRANCH   8  13
BRANCH   7  19
ATOM     19  C   UNL d   1       0.325  -3.444   0.799  0.00  0.00     0.032 C 
ATOM     20  C   UNL d   1       0.822  -3.048   2.200  0.00  0.00     0.025 C 
ATOM     21  C   UNL d   1      -0.340  -4.836   0.921  0.00  0.00     0.025 C 
ATOM     22  C   UNL d   1       1.508  -3.589  -0.167  0.00  0.00     0.025 C 
ENDBRANCH   7  19
TORSDOF 2
