REMARK  7 active torsions:
REMARK  status: ('A' for Active; 'I' for Inactive)
REMARK    1  A    between atoms: C_13  and  C_1 
REMARK    2  A    between atoms: C_6  and  C_4 
REMARK    3  A    between atoms: C_16  and  C_5 
REMARK    4  A    between atoms: C_10  and  C_7 
REMARK       I    between atoms: N_18  and  C_13 
REMARK    5  A    between atoms: O_23  and  C_16 
REMARK    6  A    between atoms: N_24  and  N_18 
REMARK    7  A    between atoms: C_26  and  O_23 
ROOT
ATOM      1  C   UNL d   1       0.285  -4.860   0.990  0.00  0.00     0.072 A 
ATOM      2  C   UNL d   1       0.077  -2.626  -0.006  0.00  0.00     0.021 A 
ATOM      3  C   UNL d   1      -0.406  -5.396  -0.088  0.00  0.00     0.133 A 
ATOM      4  N   UNL d   1      -0.861  -4.575  -1.092  0.00  0.00    -0.354 N 
ATOM      5  HN  UNL d   1      -1.379  -4.973  -1.875  1.00  0.00     0.166 HD
ATOM      6  C   UNL d   1       0.510  -3.473   1.023  0.00  0.00     0.036 A 
ATOM      7  C   UNL d   1      -0.624  -3.232  -1.050  0.00  0.00     0.018 A 
ATOM      8  C   UNL d   1      -1.181  -2.458  -2.212  0.00  0.00     0.069 C 
ENDROOT
BRANCH   2   9
ATOM      9  C   UNL d   1       0.339  -1.177   0.060  0.00  0.00     0.086 A 
ATOM     10  N   UNL d   1      -0.481  -0.233  -0.363  0.00  0.00    -0.345 N 
ATOM     11  C   UNL d   1       0.044   1.036  -0.082  0.00  0.00     0.109 A 
ATOM     12  HN  UNL d   1      -1.372  -0.404  -0.829  1.00  0.00     0.167 HD
ATOM     13  C   UNL d   1       1.282   1.018   0.532  0.00  0.00     0.087 A 
ATOM     14  S   UNL d   1       1.819  -0.587   0.734  0.00  0.00    -0.081 SA
BRANCH  11  15
ATOM     15  C   UNL d   1      -0.676   2.269  -0.409  0.00  0.00     0.282 C 
ATOM     16  O   UNL d   1      -0.272   3.389  -0.112  0.00  0.00    -0.265 OA
ATOM     17  N   UNL d   1      -1.865   2.036  -1.096  0.00  0.00    -0.288 N 
ATOM     18  H   UNL d   1      -2.073   1.077  -1.380  0.00  0.00     0.183 HD
BRANCH  17  19
ATOM     19  N   UNL d   1      -2.640   3.114  -1.575  0.00  0.00    -0.247 NA
ATOM     20  H   UNL d   1      -2.080   3.970  -1.454  0.00  0.00     0.143 HD
ATOM     21  H   UNL d   1      -3.431   3.241  -0.936  0.00  0.00     0.143 HD
ENDBRANCH  17  19
ENDBRANCH  11  15
ENDBRANCH   2   9
BRANCH   1  22
ATOM     22  C   UNL d   1       0.756  -5.652   2.141  0.00  0.00     0.295 C 
ATOM     23  O   UNL d   1       0.097  -6.502   2.704  0.00  0.00    -0.259 OA
BRANCH  22  24
ATOM     24  O   UNL d   1       1.997  -5.215   2.464  0.00  0.00    -0.318 OA
BRANCH  24  25
ATOM     25  C   UNL d   1       2.608  -5.783   3.632  0.00  0.00     0.174 C 
ATOM     26  C   UNL d   1       3.519  -6.919   3.215  0.00  0.00     0.034 C 
ENDBRANCH  24  25
ENDBRANCH  22  24
ENDBRANCH   1  22
BRANCH   3  27
ATOM     27  C   UNL d   1      -0.703  -6.880  -0.242  0.00  0.00     0.433 C 
ATOM     28  F   UNL d   1       0.061  -7.716   0.511  0.00  0.00    -0.165 F 
ATOM     29  F   UNL d   1      -2.002  -7.188   0.037  0.00  0.00    -0.165 F 
ATOM     30  F   UNL d   1      -0.496  -7.309  -1.526  0.00  0.00    -0.165 F 
ENDBRANCH   3  27
TORSDOF 7
