REMARK  2 active torsions:
REMARK  status: ('A' for Active; 'I' for Inactive)
REMARK    1  A    between atoms: N_6  and  C_2 
REMARK    2  A    between atoms: C_9  and  N_6 
ROOT
ATOM      1  N   UNL d   1      -2.692  -0.802   0.083  0.00  0.00    -0.337 N 
ATOM      2  H   UNL d   1      -3.365  -0.047   0.080  0.00  0.00     0.168 HD
ENDROOT
BRANCH   1   3
ATOM      3  C   UNL d   1      -1.372  -0.433  -0.016  0.00  0.00     0.148 C 
ATOM      4  S   UNL d   1      -1.207   1.253  -0.376  0.00  0.00    -0.017 SA
ATOM      5  C   UNL d   1       0.446   1.537   0.075  0.00  0.00     0.195 C 
ATOM      6  C   UNL d   1       1.459   0.448  -0.049  0.00  0.00     0.111 C 
ATOM      7  O   UNL d   1       0.800   2.681   0.348  0.00  0.00    -0.285 OA
ATOM      8  C   UNL d   1       1.007  -0.979   0.024  0.00  0.00     0.130 C 
ATOM      9  N   UNL d   1      -0.400  -1.242   0.135  0.00  0.00    -0.370 N 
ATOM     10  HN  UNL d   1      -0.655  -2.202   0.366  1.00  0.00     0.161 HD
ENDBRANCH   1   3
BRANCH   1  11
ATOM     11  C   UNL d   1      -3.237  -2.097  -0.018  0.00  0.00     0.035 A 
ATOM     12  C   UNL d   1      -4.497  -2.351   0.546  0.00  0.00     0.056 A 
ATOM     13  C   UNL d   1      -5.043  -3.638   0.533  0.00  0.00     0.074 A 
ATOM     14 CL   UNL d   1      -6.585  -3.914   1.251  0.00  0.00    -0.081 Cl
ATOM     15  C   UNL d   1      -4.335  -4.691  -0.044  0.00  0.00     0.138 A 
ATOM     16  C   UNL d   1      -3.087  -4.464  -0.607  0.00  0.00     0.046 A 
ATOM     17  F   UNL d   1      -4.836  -5.933  -0.061  0.00  0.00    -0.204 F 
ATOM     18  C   UNL d   1      -2.542  -3.177  -0.583  0.00  0.00     0.032 A 
ENDBRANCH   1  11
TORSDOF 2
