REMARK  2 active torsions:
REMARK  status: ('A' for Active; 'I' for Inactive)
REMARK    1  A    between atoms: N_7  and  C_1 
REMARK    2  A    between atoms: C_12  and  C_6 
ROOT
ATOM      1  C   UNL d   1       2.500   0.688   0.021  0.00  0.00     0.106 A 
ATOM      2  N   UNL d   1       1.347   1.402  -0.002  0.00  0.00    -0.344 N 
ATOM      3  HN  UNL d   1       1.367   2.422  -0.015  1.00  0.00     0.167 HD
ATOM      4  N   UNL d   1       1.259  -1.399   0.003  0.00  0.00    -0.355 N 
ATOM      5  HN  UNL d   1       1.232  -2.418  -0.009  1.00  0.00     0.166 HD
ATOM      6  C   UNL d   1       2.442  -0.720   0.025  0.00  0.00     0.048 A 
ATOM      7  C   UNL d   1       0.175   0.737  -0.009  0.00  0.00     0.060 A 
ATOM      8  C   UNL d   1       0.132  -0.673  -0.001  0.00  0.00     0.059 A 
ATOM      9  C   UNL d   1      -1.025   1.440  -0.016  0.00  0.00     0.032 A 
ATOM     10  C   UNL d   1      -1.097  -1.320   0.012  0.00  0.00     0.032 A 
ATOM     11  C   UNL d   1      -2.259   0.782  -0.000  0.00  0.00     0.002 A 
ATOM     12  C   UNL d   1      -2.295  -0.605   0.016  0.00  0.00     0.002 A 
ENDROOT
BRANCH   1  13
ATOM     13  N   UNL d   1       3.712   1.377   0.081  0.00  0.00    -0.268 NA
ATOM     14  C   UNL d   1       3.690   2.722   0.681  0.00  0.00     0.097 C 
ATOM     15  C   UNL d   1       4.548   3.591  -0.239  0.00  0.00     0.016 C 
ATOM     16  C   UNL d   1       5.426   2.586  -0.961  0.00  0.00     0.016 C 
ATOM     17  C   UNL d   1       4.468   1.420  -1.174  0.00  0.00     0.097 C 
ENDBRANCH   1  13
BRANCH   6  18
ATOM     18  C   UNL d   1       3.658  -1.608   0.096  0.00  0.00     0.056 C 
ATOM     19  C   UNL d   1       4.507  -1.419   1.345  0.00  0.00     0.011 C 
ENDBRANCH   6  18
TORSDOF 2
