REMARK  2 active torsions:
REMARK  status: ('A' for Active; 'I' for Inactive)
REMARK    1  A    between atoms: C_9  and  N_1 
REMARK    2  A    between atoms: C_2  and  C_10 
ROOT
ATOM      1  C   UNL d   1       0.187  -1.138   0.474  0.00  0.00     0.103 A 
ATOM      2  C   UNL d   1      -0.071  -2.695   2.320  0.00  0.00     0.013 A 
ATOM      3  C   UNL d   1       0.643  -1.663   1.692  0.00  0.00     0.051 A 
ATOM      4  C   UNL d   1      -0.977  -1.633  -0.128  0.00  0.00     0.036 A 
ATOM      5  C   UNL d   1      -1.234  -3.189   1.706  0.00  0.00     0.015 A 
ATOM      6  C   UNL d   1      -1.684  -2.662   0.492  0.00  0.00     0.003 A 
ENDROOT
BRANCH   2   7
ATOM      7  C   UNL d   1       0.375  -3.236   3.598  0.00  0.00     0.144 A 
ATOM      8  N   UNL d   1      -0.269  -4.268   4.243  0.00  0.00    -0.266 N 
ATOM      9  N   UNL d   1       0.388  -4.485   5.372  0.00  0.00    -0.005 NA
ATOM     10  HN  UNL d   1      -1.095  -4.768   3.914  1.00  0.00     0.186 HD
ATOM     11  N   UNL d   1       1.382  -3.591   5.360  0.00  0.00    -0.225 N 
ATOM     12  N   UNL d   1       1.438  -2.787   4.288  0.00  0.00    -0.271 N 
ATOM     13  H   UNL d   1       2.051  -3.525   6.123  0.00  0.00     0.205 HD
ATOM     14  HN  UNL d   1       2.099  -2.044   4.061  1.00  0.00     0.190 HD
ENDBRANCH   2   7
BRANCH   1  15
ATOM     15  N   UNL d   1       0.934  -0.053  -0.174  0.00  0.00    -0.116 N 
ATOM     16  O   UNL d   1       1.962   0.356   0.385  0.00  0.00    -0.532 OA
ATOM     17  O   UNL d   1       0.493   0.391  -1.244  0.00  0.00    -0.532 OA
ENDBRANCH   1  15
TORSDOF 2
