REMARK  6 active torsions:
REMARK  status: ('A' for Active; 'I' for Inactive)
REMARK    1  A    between atoms: S_6  and  C_1 
REMARK    2  A    between atoms: N_3  and  C_2 
REMARK    3  A    between atoms: C_10  and  S_6 
REMARK    4  A    between atoms: C_8  and  C_7 
REMARK    5  A    between atoms: N_16  and  C_14 
REMARK    6  A    between atoms: N_17  and  C_15 
ROOT
ATOM      1  C   UNL d   1      -0.555   1.202   0.025  0.00  0.00     0.108 A 
ATOM      2  C   UNL d   1       0.828   1.208   0.124  0.00  0.00     0.136 A 
ATOM      3  N   UNL d   1      -1.240   0.026  -0.065  0.00  0.00    -0.348 N 
ATOM      4  HN  UNL d   1      -2.257   0.030  -0.146  1.00  0.00     0.166 HD
ATOM      5  C   UNL d   1      -0.555  -1.156  -0.046  0.00  0.00     0.045 A 
ATOM      6  C   UNL d   1       1.547   0.015   0.072  0.00  0.00     0.041 A 
ATOM      7  C   UNL d   1       0.842  -1.182  -0.010  0.00  0.00     0.033 A 
ENDROOT
BRANCH   1   8
ATOM      8  S   UNL d   1      -1.580   2.656   0.118  0.00  0.00    -0.068 SA
BRANCH   8   9
ATOM      9  C   UNL d   1      -1.887   3.054  -1.606  0.00  0.00     0.028 A 
ATOM     10  C   UNL d   1      -1.574   4.333  -2.116  0.00  0.00     0.023 A 
ATOM     11  C   UNL d   1      -1.997   4.666  -3.413  0.00  0.00     0.024 A 
ATOM     12  C   UNL d   1      -2.636   3.728  -4.224  0.00  0.00     0.002 A 
ATOM     13  C   UNL d   1      -2.887   2.449  -3.738  0.00  0.00     0.001 A 
ATOM     14  C   UNL d   1      -2.524   2.116  -2.432  0.00  0.00     0.021 A 
BRANCH  10  15
ATOM     15  N   UNL d   1      -1.069   5.363  -1.300  0.00  0.00    -0.302 NA
ATOM     16  H   UNL d   1      -0.565   5.024  -0.485  0.00  0.00     0.124 HD
ATOM     17  H   UNL d   1      -0.563   6.086  -1.802  0.00  0.00     0.124 HD
ENDBRANCH  10  15
ENDBRANCH   8   9
ENDBRANCH   1   8
BRANCH   2  18
ATOM     18  N   UNL d   1       1.553   2.429   0.360  0.00  0.00    -0.113 N 
ATOM     19  O   UNL d   1       1.341   3.029   1.420  0.00  0.00    -0.532 OA
ATOM     20  O   UNL d   1       2.388   2.754  -0.496  0.00  0.00    -0.532 OA
ENDBRANCH   2  18
BRANCH   5  21
ATOM     21  C   UNL d   1      -1.365  -2.401   0.040  0.00  0.00     0.012 A 
ATOM     22  C   UNL d   1      -2.589  -2.460   0.757  0.00  0.00     0.018 A 
ATOM     23  C   UNL d   1      -3.219  -3.699   0.962  0.00  0.00     0.024 A 
ATOM     24  C   UNL d   1      -2.717  -4.867   0.392  0.00  0.00     0.002 A 
ATOM     25  C   UNL d   1      -1.567  -4.812  -0.383  0.00  0.00     0.001 A 
ATOM     26  C   UNL d   1      -0.902  -3.595  -0.558  0.00  0.00     0.015 A 
BRANCH  22  27
ATOM     27  N   UNL d   1      -3.076  -1.353   1.489  0.00  0.00    -0.302 NA
ATOM     28  H   UNL d   1      -2.755  -0.477   1.063  0.00  0.00     0.124 HD
ATOM     29  H   UNL d   1      -4.083  -1.361   1.610  0.00  0.00     0.124 HD
ENDBRANCH  22  27
ENDBRANCH   5  21
TORSDOF 6
