REMARK  7 active torsions:
REMARK  status: ('A' for Active; 'I' for Inactive)
REMARK    1  A    between atoms: C_2  and  C_1 
REMARK    2  A    between atoms: O_9  and  C_1 
REMARK    3  A    between atoms: C_3  and  C_4 
REMARK       I    between atoms: N_10  and  C_3 
REMARK    4  A    between atoms: C_4  and  C_7 
REMARK    5  A    between atoms: N_5  and  O_9 
REMARK    6  A    between atoms: N_17  and  C_7 
REMARK    7  A    between atoms: C_16  and  N_10 
ROOT
ATOM      1  N   UNL d   1      -1.698   1.315   2.609  0.00  0.00    -0.245 N 
ATOM      2  HN  UNL d   1      -1.454   1.811   3.466  1.00  0.00     0.196 HD
ATOM      3  C   UNL d   1      -1.644   1.867   1.435  0.00  0.00     0.104 C 
ENDROOT
BRANCH   3   4
ATOM      4  C   UNL d   1      -0.956   3.214   1.380  0.00  0.00     0.180 C 
BRANCH   4   5
ATOM      5  C   UNL d   1       0.545   3.210   1.140  0.00  0.00     0.229 C 
ATOM      6  N   UNL d   1       1.223   2.050   1.464  0.00  0.00    -0.327 N 
ATOM      7  H   UNL d   1       0.671   1.211   1.643  0.00  0.00     0.169 HD
ATOM      8  O   UNL d   1       1.071   4.248   0.734  0.00  0.00    -0.273 OA
BRANCH   6   9
ATOM      9  C   UNL d   1       2.623   1.861   1.535  0.00  0.00     0.034 A 
ATOM     10  C   UNL d   1       3.560   2.885   1.361  0.00  0.00     0.032 A 
ATOM     11  C   UNL d   1       4.930   2.625   1.492  0.00  0.00     0.044 A 
ATOM     12  C   UNL d   1       5.365   1.344   1.804  0.00  0.00     0.116 A 
ATOM     13  C   UNL d   1       4.454   0.312   1.977  0.00  0.00     0.044 A 
ATOM     14  F   UNL d   1       6.675   1.099   1.942  0.00  0.00    -0.206 F 
ATOM     15  C   UNL d   1       3.086   0.571   1.842  0.00  0.00     0.032 A 
ENDBRANCH   6   9
ENDBRANCH   4   5
ENDBRANCH   3   4
BRANCH   3  16
ATOM     16  N   UNL d   1      -2.097   1.330   0.258  0.00  0.00    -0.387 N 
ATOM     17  H   UNL d   1      -2.201   1.938  -0.548  0.00  0.00     0.157 HD
ATOM     18  H   UNL d   1      -2.799   0.602   0.325  0.00  0.00     0.157 HD
ENDBRANCH   3  16
BRANCH   1  19
ATOM     19  O   UNL d   1      -2.125  -0.039   2.599  0.00  0.00    -0.193 OA
BRANCH  19  20
ATOM     20  C   UNL d   1      -1.022  -0.845   2.377  0.00  0.00     0.322 C 
ATOM     21  O   UNL d   1      -0.054  -0.497   1.698  0.00  0.00    -0.257 OA
BRANCH  20  22
ATOM     22  C   UNL d   1      -1.116  -2.099   3.093  0.00  0.00     0.082 A 
ATOM     23  S   UNL d   1      -0.105  -3.391   2.578  0.00  0.00    -0.096 SA
ATOM     24  C   UNL d   1      -0.551  -4.365   3.903  0.00  0.00     0.050 A 
ATOM     25  C   UNL d   1      -1.482  -3.746   4.707  0.00  0.00     0.009 A 
ATOM     26  C   UNL d   1      -1.835  -2.448   4.222  0.00  0.00     0.026 A 
ENDBRANCH  20  22
ENDBRANCH  19  20
ENDBRANCH   1  19
TORSDOF 7
