REMARK  4 active torsions:
REMARK  status: ('A' for Active; 'I' for Inactive)
REMARK    1  A    between atoms: C_3  and  C_1 
REMARK    2  A    between atoms: C_6  and  C_2 
REMARK    3  A    between atoms: C_8  and  C_3 
REMARK    4  A    between atoms: O_18  and  C_15 
ROOT
ATOM      1  C   UNL d   1       1.004  -0.179  -0.185  0.00  0.00     0.096 C 
ATOM      2  C   UNL d   1       0.224  -0.992   0.554  0.00  0.00     0.045 C 
ATOM      3  C   UNL d   1       2.426  -0.177  -0.082  0.00  0.00     0.103 C 
ATOM      4  N   UNL d   1       3.585  -0.187  -0.029  0.00  0.00    -0.191 NA
ENDROOT
BRANCH   1   5
ATOM      5  C   UNL d   1       0.304   0.767  -1.112  0.00  0.00     0.202 C 
ATOM      6  O   UNL d   1      -0.875   1.072  -0.941  0.00  0.00    -0.286 OA
BRANCH   5   7
ATOM      7  C   UNL d   1       1.050   1.391  -2.241  0.00  0.00     0.016 A 
ATOM      8  C   UNL d   1       2.032   0.702  -2.963  0.00  0.00     0.018 A 
ATOM      9  C   UNL d   1       2.759   1.354  -3.966  0.00  0.00     0.037 A 
ATOM     10  C   UNL d   1       2.483   2.683  -4.281  0.00  0.00     0.068 A 
ATOM     11  C   UNL d   1       1.440   3.343  -3.626  0.00  0.00     0.037 A 
ATOM     12  C   UNL d   1       0.729   2.704  -2.606  0.00  0.00     0.018 A 
BRANCH  10  13
ATOM     13  O   UNL d   1       3.137   3.407  -5.239  0.00  0.00    -0.356 OA
ATOM     14  C   UNL d   1       4.515   3.081  -5.403  0.00  0.00     0.210 C 
ENDBRANCH  10  13
ENDBRANCH   5   7
ENDBRANCH   1   5
BRANCH   2  15
ATOM     15  C   UNL d   1       0.777  -1.938   1.460  0.00  0.00     0.006 A 
ATOM     16  S   UNL d   1       1.094  -3.545   0.938  0.00  0.00    -0.102 SA
ATOM     17  C   UNL d   1       1.770  -3.976   2.447  0.00  0.00     0.050 A 
ATOM     18  C   UNL d   1       1.721  -2.939   3.349  0.00  0.00     0.008 A 
ATOM     19  C   UNL d   1       1.137  -1.768   2.784  0.00  0.00     0.019 A 
ENDBRANCH   2  15
TORSDOF 4
