REMARK  6 active torsions:
REMARK  status: ('A' for Active; 'I' for Inactive)
REMARK    1  A    between atoms: C_6  and  C_1 
REMARK    2  A    between atoms: N_10  and  C_2 
REMARK    3  A    between atoms: O_14  and  C_6 
REMARK    4  A    between atoms: C_13  and  N_7 
REMARK    5  A    between atoms: C_15  and  C_13 
REMARK    6  A    between atoms: C_16  and  O_14 
ROOT
ATOM      1  C   UNL d   1       1.309  -1.594   0.009  0.00  0.00     0.080 A 
ATOM      2  C   UNL d   1       2.425  -0.780   0.160  0.00  0.00     0.085 A 
ATOM      3  C   UNL d   1       0.104  -0.795  -0.072  0.00  0.00    -0.022 A 
ATOM      4  C   UNL d   1       0.364   0.553   0.075  0.00  0.00     0.020 A 
ATOM      5  S   UNL d   1       2.017   0.882   0.225  0.00  0.00    -0.074 SA
ATOM      6  N   UNL d   1      -2.036   1.096   0.390  0.00  0.00     0.097 N 
ATOM      7  C   UNL d   1      -0.683   1.634   0.081  0.00  0.00     0.319 C 
ATOM      8  C   UNL d   1      -1.315  -1.272  -0.244  0.00  0.00     0.071 C 
ATOM      9  C   UNL d   1      -2.291  -0.093  -0.457  0.00  0.00     0.278 C 
ENDROOT
BRANCH   6  10
ATOM     10  C   UNL d   1      -2.150   0.823   1.836  0.00  0.00     0.311 C 
BRANCH  10  11
ATOM     11  C   UNL d   1      -3.500   0.293   2.278  0.00  0.00    -0.030 A 
ATOM     12  C   UNL d   1      -3.606  -0.978   2.865  0.00  0.00     0.009 A 
ATOM     13  C   UNL d   1      -4.838  -1.451   3.318  0.00  0.00     0.001 A 
ATOM     14  C   UNL d   1      -5.977  -0.659   3.192  0.00  0.00     0.000 A 
ATOM     15  C   UNL d   1      -5.887   0.601   2.602  0.00  0.00     0.001 A 
ATOM     16  C   UNL d   1      -4.655   1.074   2.144  0.00  0.00     0.009 A 
ENDBRANCH  10  11
ENDBRANCH   6  10
BRANCH   1  17
ATOM     17  C   UNL d   1       1.402  -3.054  -0.092  0.00  0.00     0.296 C 
ATOM     18  O   UNL d   1       2.457  -3.667  -0.227  0.00  0.00    -0.259 OA
BRANCH  17  19
ATOM     19  O   UNL d   1       0.174  -3.648  -0.097  0.00  0.00    -0.318 OA
BRANCH  19  20
ATOM     20  C   UNL d   1       0.122  -4.989  -0.595  0.00  0.00     0.174 C 
ATOM     21  C   UNL d   1       0.074  -4.938  -2.112  0.00  0.00     0.034 C 
ENDBRANCH  19  20
ENDBRANCH  17  19
ENDBRANCH   1  17
BRANCH   2  22
ATOM     22  N   UNL d   1       3.719  -1.157   0.254  0.00  0.00    -0.393 N 
ATOM     23  H   UNL d   1       3.975  -2.118   0.018  0.00  0.00     0.156 HD
ATOM     24  H   UNL d   1       4.452  -0.476   0.086  0.00  0.00     0.156 HD
ENDBRANCH   2  22
TORSDOF 6
