REMARK  5 active torsions:
REMARK  status: ('A' for Active; 'I' for Inactive)
REMARK    1  A    between atoms: N_2  and  C_1 
REMARK       I    between atoms: C_3  and  N_7 
REMARK    2  A    between atoms: C_5  and  C_3 
REMARK    3  A    between atoms: C_4  and  C_9 
REMARK    4  A    between atoms: N_7  and  C_6 
REMARK    5  A    between atoms: O_19  and  C_12 
ROOT
ATOM      1  C   UNL d   1      -0.580  -0.740   0.363  0.00  0.00     0.130 A 
ATOM      2  C   UNL d   1       0.536  -1.186  -0.365  0.00  0.00     0.068 A 
ATOM      3  C   UNL d   1      -1.309   0.402   0.011  0.00  0.00     0.054 A 
ATOM      4  C   UNL d   1      -0.945   1.122  -1.133  0.00  0.00     0.050 A 
ATOM      5  C   UNL d   1       0.922  -0.422  -1.470  0.00  0.00     0.033 A 
ATOM      6  C   UNL d   1       0.185   0.705  -1.859  0.00  0.00     0.018 A 
ENDROOT
BRANCH   2   7
ATOM      7  N   UNL d   1       1.197  -2.384  -0.020  0.00  0.00    -0.321 N 
ATOM      8  C   UNL d   1       2.480  -2.770  -0.358  0.00  0.00     0.259 C 
ATOM      9  O   UNL d   1       3.287  -2.067  -0.959  0.00  0.00    -0.267 OA
ATOM     10  H   UNL d   1       0.696  -3.044   0.577  0.00  0.00     0.169 HD
BRANCH   8  11
ATOM     11  C   UNL d   1       2.889  -4.143   0.093  0.00  0.00     0.065 A 
ATOM     12  C   UNL d   1       2.087  -4.991   0.874  0.00  0.00     0.081 A 
ATOM     13  C   UNL d   1       2.512  -6.280   1.205  0.00  0.00     0.037 A 
ATOM     14  C   UNL d   1       3.769  -6.721   0.796  0.00  0.00     0.003 A 
ATOM     15  C   UNL d   1       4.595  -5.883   0.059  0.00  0.00     0.001 A 
ATOM     16  C   UNL d   1       4.158  -4.601  -0.295  0.00  0.00     0.020 A 
BRANCH  12  17
ATOM     17  O   UNL d   1       0.875  -4.561   1.347  0.00  0.00    -0.360 OA
ATOM     18  H   UNL d   1       0.632  -5.100   2.123  0.00  0.00     0.217 HD
ENDBRANCH  12  17
ENDBRANCH   8  11
ENDBRANCH   2   7
BRANCH   1  19
ATOM     19  N   UNL d   1      -0.988  -1.443   1.559  0.00  0.00    -0.113 N 
ATOM     20  O   UNL d   1      -1.621  -2.495   1.402  0.00  0.00    -0.532 OA
ATOM     21  O   UNL d   1      -0.674  -0.941   2.645  0.00  0.00    -0.532 OA
ENDBRANCH   1  19
BRANCH   4  22
ATOM     22  C   UNL d   1      -1.773   2.289  -1.617  0.00  0.00     0.417 C 
ATOM     23  F   UNL d   1      -2.792   2.609  -0.777  0.00  0.00    -0.166 F 
ATOM     24  F   UNL d   1      -1.041   3.426  -1.776  0.00  0.00    -0.166 F 
ATOM     25  F   UNL d   1      -2.348   2.038  -2.825  0.00  0.00    -0.166 F 
ENDBRANCH   4  22
TORSDOF 5
