REMARK  7 active torsions:
REMARK  status: ('A' for Active; 'I' for Inactive)
REMARK    1  A    between atoms: C_8  and  C_1 
REMARK    2  A    between atoms: C_20  and  C_1 
REMARK    3  A    between atoms: C_13  and  N_2 
REMARK    4  A    between atoms: C_12  and  N_3 
REMARK    5  A    between atoms: C_10  and  N_6 
REMARK    6  A    between atoms: C_30  and  C_20 
REMARK    7  A    between atoms: C_31  and  C_30 
ROOT
ATOM      1  C   UNL d   1      -0.029  -1.152  -0.115  0.00  0.00     0.138 C 
ATOM      2  N   UNL d   1       0.686   1.082  -0.164  0.00  0.00    -0.213 N 
ATOM      3  N   UNL d   1      -0.715   1.096  -0.300  0.00  0.00    -0.213 N 
ATOM      4  C   UNL d   1       1.171  -0.220  -0.040  0.00  0.00     0.262 C 
ATOM      5  C   UNL d   1      -1.184  -0.167   0.117  0.00  0.00     0.262 C 
ATOM      6  O   UNL d   1      -2.312  -0.478   0.484  0.00  0.00    -0.270 OA
ATOM      7  O   UNL d   1       2.332  -0.604   0.000  0.00  0.00    -0.270 OA
ENDROOT
BRANCH   1   8
ATOM      8  C   UNL d   1       0.022  -2.308   0.931  0.00  0.00     0.114 C 
ATOM      9  C   UNL d   1       1.019  -2.047   2.051  0.00  0.00     0.237 C 
ATOM     10  N   UNL d   1       2.104  -2.895   1.923  0.00  0.00    -0.252 N 
ATOM     11  O   UNL d   1       0.815  -1.153   2.864  0.00  0.00    -0.272 OA
ATOM     12  C   UNL d   1       1.836  -3.894   1.022  0.00  0.00     0.232 C 
ATOM     13  C   UNL d   1       0.483  -3.676   0.441  0.00  0.00     0.119 C 
ATOM     14  O   UNL d   1       2.482  -4.891   0.726  0.00  0.00    -0.273 OA
BRANCH  10  15
ATOM     15  C   UNL d   1       3.347  -2.783   2.626  0.00  0.00     0.046 A 
ATOM     16  C   UNL d   1       3.502  -1.949   3.741  0.00  0.00     0.037 A 
ATOM     17  C   UNL d   1       4.733  -1.836   4.412  0.00  0.00    -0.059 A 
ATOM     18  C   UNL d   1       4.872  -0.950   5.614  0.00  0.00     0.048 C 
ATOM     19  C   UNL d   1       5.840  -2.557   3.954  0.00  0.00     0.013 A 
ATOM     20  C   UNL d   1       5.731  -3.380   2.836  0.00  0.00    -0.059 A 
ATOM     21  C   UNL d   1       4.489  -3.488   2.192  0.00  0.00     0.037 A 
ATOM     22  C   UNL d   1       6.926  -4.133   2.327  0.00  0.00     0.048 C 
ENDBRANCH  10  15
ENDBRANCH   1   8
BRANCH   1  23
ATOM     23  C   UNL d   1      -0.148  -1.598  -1.611  0.00  0.00     0.030 C 
BRANCH  23  24
ATOM     24  C   UNL d   1      -1.359  -2.495  -1.907  0.00  0.00     0.001 C 
BRANCH  24  25
ATOM     25  C   UNL d   1      -1.355  -3.031  -3.338  0.00  0.00    -0.005 C 
ATOM     26  C   UNL d   1      -2.521  -3.991  -3.531  0.00  0.00     0.005 C 
ENDBRANCH  24  25
ENDBRANCH  23  24
ENDBRANCH   1  23
BRANCH   2  27
ATOM     27  C   UNL d   1       1.536   2.195  -0.287  0.00  0.00     0.060 A 
ATOM     28  C   UNL d   1       1.508   3.028  -1.409  0.00  0.00     0.031 A 
ATOM     29  C   UNL d   1       2.443   4.063  -1.527  0.00  0.00     0.002 A 
ATOM     30  C   UNL d   1       3.367   4.294  -0.506  0.00  0.00     0.000 A 
ATOM     31  C   UNL d   1       3.369   3.487   0.629  0.00  0.00     0.002 A 
ATOM     32  C   UNL d   1       2.470   2.429   0.728  0.00  0.00     0.031 A 
ENDBRANCH   2  27
BRANCH   3  33
ATOM     33  C   UNL d   1      -1.466   2.269  -0.047  0.00  0.00     0.060 A 
ATOM     34  C   UNL d   1      -1.535   2.877   1.211  0.00  0.00     0.031 A 
ATOM     35  C   UNL d   1      -2.221   4.091   1.359  0.00  0.00     0.002 A 
ATOM     36  C   UNL d   1      -2.827   4.698   0.258  0.00  0.00     0.000 A 
ATOM     37  C   UNL d   1      -2.767   4.087  -0.993  0.00  0.00     0.002 A 
ATOM     38  C   UNL d   1      -2.095   2.873  -1.142  0.00  0.00     0.031 A 
ENDBRANCH   3  33
TORSDOF 7
