REMARK  5 active torsions:
REMARK  status: ('A' for Active; 'I' for Inactive)
REMARK    1  A    between atoms: C_8  and  N_2 
REMARK    2  A    between atoms: C_6  and  O_9 
REMARK    3  A    between atoms: N_10  and  C_8 
REMARK    4  A    between atoms: O_9  and  C_11 
REMARK    5  A    between atoms: C_12  and  N_10 
ROOT
ATOM      1  N   UNL d   1       3.573  -2.512  -0.314  0.00  0.00    -0.272 NA
ATOM      2  H   UNL d   1       4.130  -1.785   0.137  0.00  0.00     0.129 HD
ENDROOT
BRANCH   1   3
ATOM      3  C   UNL d   1       2.148  -2.354  -0.012  0.00  0.00     0.240 C 
BRANCH   3   4
ATOM      4  N   UNL d   1       1.637  -1.001  -0.214  0.00  0.00    -0.260 N 
ATOM      5  N   UNL d   1       1.548  -0.160   0.837  0.00  0.00    -0.018 NA
ATOM      6  N   UNL d   1       0.992   0.964   0.403  0.00  0.00    -0.282 N 
ATOM      7  C   UNL d   1       0.743   0.824  -0.936  0.00  0.00     0.074 A 
ATOM      8  HN  UNL d   1       0.785   1.787   0.968  1.00  0.00     0.184 HD
ATOM      9  C   UNL d   1       0.171   1.714  -1.856  0.00  0.00     0.033 A 
ATOM     10  C   UNL d   1       1.156  -0.433  -1.364  0.00  0.00     0.078 A 
ATOM     11  C   UNL d   1       0.040   1.306  -3.189  0.00  0.00     0.002 A 
ATOM     12  C   UNL d   1       0.470   0.039  -3.595  0.00  0.00     0.002 A 
ATOM     13  C   UNL d   1       1.037  -0.864  -2.690  0.00  0.00     0.033 A 
ENDBRANCH   3   4
ENDBRANCH   1   3
BRANCH   1  14
ATOM     14  C   UNL d   1       4.182  -3.764  -0.107  0.00  0.00     0.043 A 
ATOM     15  C   UNL d   1       5.412  -4.036  -0.755  0.00  0.00     0.099 A 
ATOM     16  C   UNL d   1       6.093  -5.233  -0.513  0.00  0.00     0.039 A 
ATOM     17  C   UNL d   1       5.543  -6.191   0.340  0.00  0.00     0.003 A 
ATOM     18  C   UNL d   1       4.336  -5.936   0.981  0.00  0.00     0.002 A 
ATOM     19  C   UNL d   1       3.669  -4.731   0.770  0.00  0.00     0.026 A 
BRANCH  15  20
ATOM     20  O   UNL d   1       5.877  -3.042  -1.577  0.00  0.00    -0.254 OA
BRANCH  20  21
ATOM     21  C   UNL d   1       6.615  -3.405  -2.729  0.00  0.00     0.530 C 
ATOM     22  F   UNL d   1       6.480  -4.701  -3.083  0.00  0.00    -0.144 F 
ATOM     23  F   UNL d   1       6.192  -2.651  -3.770  0.00  0.00    -0.144 F 
ATOM     24  F   UNL d   1       7.924  -3.142  -2.525  0.00  0.00    -0.144 F 
ENDBRANCH  20  21
ENDBRANCH  15  20
ENDBRANCH   1  14
TORSDOF 5
