REMARK  6 active torsions:
REMARK  status: ('A' for Active; 'I' for Inactive)
REMARK    1  A    between atoms: C_5  and  C_1 
REMARK    2  A    between atoms: C_8  and  C_2 
REMARK    3  A    between atoms: C_6  and  C_10 
REMARK    4  A    between atoms: O_13  and  C_8 
REMARK    5  A    between atoms: N_19  and  C_10 
REMARK    6  A    between atoms: N_11  and  O_13 
ROOT
ATOM      1  C   UNL d   1       0.374  -2.741  -0.237  0.00  0.00     0.320 C 
ATOM      2  O   UNL d   1       1.316  -3.002  -0.992  0.00  0.00    -0.257 OA
ENDROOT
BRANCH   1   3
ATOM      3  C   UNL d   1      -0.106  -1.371  -0.073  0.00  0.00     0.102 A 
ATOM      4  C   UNL d   1      -1.413  -0.760   0.059  0.00  0.00     0.087 A 
ATOM      5  N   UNL d   1      -1.281   0.578  -0.016  0.00  0.00    -0.259 N 
ATOM      6  O   UNL d   1       0.048   0.862  -0.054  0.00  0.00    -0.241 OA
ATOM      7  HN  UNL d   1      -2.042   1.257  -0.041  1.00  0.00     0.195 HD
ATOM      8  C   UNL d   1       0.757  -0.285  -0.083  0.00  0.00     0.091 A 
ATOM      9  C   UNL d   1       2.220  -0.100  -0.120  0.00  0.00     0.080 C 
BRANCH   4  10
ATOM     10  C   UNL d   1      -2.787  -1.290   0.186  0.00  0.00     0.037 A 
ATOM     11  C   UNL d   1      -3.728  -0.681   1.064  0.00  0.00     0.048 A 
ATOM     12 CL   UNL d   1      -3.373   0.685   2.086  0.00  0.00    -0.083 Cl
ATOM     13  C   UNL d   1      -5.050  -1.141   1.165  0.00  0.00     0.025 A 
ATOM     14  C   UNL d   1      -5.459  -2.260   0.455  0.00  0.00     0.003 A 
ATOM     15  C   UNL d   1      -4.567  -2.864  -0.421  0.00  0.00     0.025 A 
ATOM     16  C   UNL d   1      -3.273  -2.343  -0.606  0.00  0.00     0.048 A 
ATOM     17 CL   UNL d   1      -2.429  -2.935  -2.001  0.00  0.00    -0.083 Cl
ENDBRANCH   4  10
ENDBRANCH   1   3
BRANCH   1  18
ATOM     18  O   UNL d   1      -0.212  -3.691   0.565  0.00  0.00    -0.193 OA
BRANCH  18  19
ATOM     19  N   UNL d   1      -0.693  -4.721  -0.260  0.00  0.00    -0.245 N 
ATOM     20  C   UNL d   1      -0.850  -5.915   0.252  0.00  0.00     0.112 C 
ATOM     21  HN  UNL d   1      -0.916  -4.542  -1.240  1.00  0.00     0.196 HD
BRANCH  20  22
ATOM     22  C   UNL d   1      -0.395  -6.441   1.583  0.00  0.00     0.047 A 
ATOM     23  C   UNL d   1      -0.611  -5.757   2.789  0.00  0.00     0.049 A 
ATOM     24 CL   UNL d   1      -1.594  -4.338   2.942  0.00  0.00    -0.083 Cl
ATOM     25  C   UNL d   1      -0.136  -6.284   4.006  0.00  0.00     0.025 A 
ATOM     26  C   UNL d   1       0.477  -7.531   4.058  0.00  0.00     0.003 A 
ATOM     27  C   UNL d   1       0.628  -8.262   2.889  0.00  0.00     0.025 A 
ATOM     28  C   UNL d   1       0.219  -7.718   1.660  0.00  0.00     0.049 A 
ATOM     29 CL   UNL d   1       0.519  -8.736   0.285  0.00  0.00    -0.083 Cl
ENDBRANCH  20  22
BRANCH  20  30
ATOM     30  N   UNL d   1      -1.501  -6.769  -0.610  0.00  0.00    -0.286 NA
ATOM     31  H   UNL d   1      -1.299  -7.763  -0.540  0.00  0.00     0.125 HD
ATOM     32  H   UNL d   1      -1.465  -6.434  -1.571  0.00  0.00     0.125 HD
ENDBRANCH  20  30
ENDBRANCH  18  19
ENDBRANCH   1  18
TORSDOF 6
