REMARK  2 active torsions:
REMARK  status: ('A' for Active; 'I' for Inactive)
REMARK    1  A    between atoms: C_9  and  C_1 
REMARK    2  A    between atoms: O_8  and  C_2 
ROOT
ATOM      1  C   UNL d   1      -1.806  -0.899  -0.004  0.00  0.00     0.043 A 
ATOM      2  C   UNL d   1      -0.553  -1.398  -0.006  0.00  0.00     0.089 A 
ATOM      3  C   UNL d   1      -2.002   0.588  -0.026  0.00  0.00     0.255 A 
ATOM      4  N   UNL d   1      -0.884   1.374  -0.011  0.00  0.00    -0.322 N 
ATOM      5  C   UNL d   1       0.623  -0.510  -0.016  0.00  0.00     0.025 A 
ATOM      6  C   UNL d   1       0.421   0.875  -0.008  0.00  0.00     0.048 A 
ATOM      7  O   UNL d   1      -3.121   1.091  -0.052  0.00  0.00    -0.268 OA
ATOM      8  C   UNL d   1       1.938  -0.995  -0.019  0.00  0.00     0.016 A 
ATOM      9  C   UNL d   1       1.500   1.762   0.002  0.00  0.00     0.030 A 
ATOM     10  C   UNL d   1       3.022  -0.113  -0.012  0.00  0.00     0.001 A 
ATOM     11  C   UNL d   1       2.803   1.264   0.000  0.00  0.00     0.002 A 
ATOM     12  H   UNL d   1      -1.048   2.372  -0.013  0.00  0.00     0.169 HD
ENDROOT
BRANCH   1  13
ATOM     13  C   UNL d   1      -3.068  -1.721   0.082  0.00  0.00     0.043 C 
ATOM     14  C   UNL d   1      -3.605  -2.118  -1.285  0.00  0.00     0.010 C 
ENDBRANCH   1  13
BRANCH   2  15
ATOM     15  O   UNL d   1      -0.259  -2.748   0.006  0.00  0.00    -0.359 OA
ATOM     16  H   UNL d   1      -1.079  -3.260  -0.062  0.00  0.00     0.217 HD
ENDBRANCH   2  15
TORSDOF 2
