REMARK  5 active torsions:
REMARK  status: ('A' for Active; 'I' for Inactive)
REMARK    1  A    between atoms: N_10  and  C_3 
REMARK    2  A    between atoms: N_12  and  C_6 
REMARK    3  A    between atoms: C_13  and  N_10 
REMARK    4  A    between atoms: O_11  and  C_14 
REMARK    5  A    between atoms: C_15  and  O_11 
ROOT
ATOM      1  C   UNL d   1      -3.029  -1.224  -0.050  0.00  0.00     0.049 A 
ATOM      2  C   UNL d   1      -4.508  -3.609   0.114  0.00  0.00     0.076 A 
ATOM      3  C   UNL d   1      -2.861  -2.105   1.027  0.00  0.00     0.033 A 
ATOM      4  C   UNL d   1      -4.016  -1.514  -0.999  0.00  0.00     0.033 A 
ATOM      5  C   UNL d   1      -3.617  -3.271   1.131  0.00  0.00     0.039 A 
ATOM      6  C   UNL d   1      -4.745  -2.708  -0.923  0.00  0.00     0.039 A 
ENDROOT
BRANCH   1   7
ATOM      7  N   UNL d   1      -2.197  -0.109  -0.225  0.00  0.00    -0.192 N 
ATOM      8  H   UNL d   1      -2.652   0.784  -0.339  0.00  0.00     0.184 HD
BRANCH   7   9
ATOM      9  C   UNL d   1      -0.869   0.024   0.184  0.00  0.00     0.685 A 
ATOM     10  N   UNL d   1      -0.111  -1.068   0.274  0.00  0.00    -0.166 N 
ATOM     11  C   UNL d   1       1.142  -0.891   0.648  0.00  0.00     0.170 A 
ATOM     12  HN  UNL d   1      -0.481  -1.995   0.063  1.00  0.00     0.187 HD
ATOM     13  N   UNL d   1       1.685   0.282   0.926  0.00  0.00    -0.328 N 
ATOM     14  C   UNL d   1       0.849   1.308   0.811  0.00  0.00     0.200 A 
ATOM     15  HN  UNL d   1       2.661   0.390   1.204  1.00  0.00     0.169 HD
ATOM     16  N   UNL d   1      -0.425   1.251   0.427  0.00  0.00    -0.188 N 
ATOM     17  HN  UNL d   1      -1.010   2.081   0.327  1.00  0.00     0.185 HD
BRANCH  11  18
ATOM     18  N   UNL d   1       1.943  -2.013   0.701  0.00  0.00    -0.273 NA
ATOM     19  H   UNL d   1       1.557  -2.731   0.100  0.00  0.00     0.127 HD
ATOM     20  H   UNL d   1       2.911  -1.762   0.553  0.00  0.00     0.127 HD
ENDBRANCH  11  18
ENDBRANCH   7   9
ENDBRANCH   1   7
BRANCH   2  21
ATOM     21  O   UNL d   1      -5.205  -4.797   0.085  0.00  0.00    -0.311 OA
BRANCH  21  22
ATOM     22  C   UNL d   1      -4.566  -5.955   0.478  0.00  0.00     0.076 A 
ATOM     23  C   UNL d   1      -5.379  -6.947   1.032  0.00  0.00     0.039 A 
ATOM     24  C   UNL d   1      -4.819  -8.147   1.479  0.00  0.00     0.026 A 
ATOM     25  C   UNL d   1      -3.445  -8.354   1.368  0.00  0.00     0.034 A 
ATOM     26  C   UNL d   1      -2.631  -7.385   0.785  0.00  0.00     0.026 A 
ATOM     27 CL   UNL d   1      -2.748  -9.814   1.951  0.00  0.00    -0.084 Cl
ATOM     28  C   UNL d   1      -3.196  -6.197   0.314  0.00  0.00     0.039 A 
ENDBRANCH  21  22
ENDBRANCH   2  21
TORSDOF 5
