REMARK  4 active torsions:
REMARK  status: ('A' for Active; 'I' for Inactive)
REMARK    1  A    between atoms: O_10  and  C_3 
REMARK    2  A    between atoms: S_9  and  C_4 
REMARK    3  A    between atoms: C_12  and  C_8 
REMARK    4  A    between atoms: O_13  and  C_12 
ROOT
ATOM      1  N   UNL d   1      -0.672   1.259   0.017  0.00  0.00    -0.317 N 
ATOM      2  HN  UNL d   1      -1.150   2.161   0.017  1.00  0.00     0.170 HD
ATOM      3  C   UNL d   1      -1.334   0.096   0.023  0.00  0.00     0.149 A 
ATOM      4  C   UNL d   1       0.661   1.152   0.011  0.00  0.00     0.146 A 
ATOM      5  C   UNL d   1      -0.773  -1.160   0.027  0.00  0.00     0.014 A 
ATOM      6  N   UNL d   1       1.333  -0.009   0.007  0.00  0.00    -0.338 N 
ATOM      7  HN  UNL d   1       2.352  -0.026  -0.002  1.00  0.00     0.168 HD
ATOM      8  C   UNL d   1       0.614  -1.158   0.016  0.00  0.00     0.045 A 
ATOM      9  C   UNL d   1      -1.588  -2.413   0.020  0.00  0.00     0.055 C 
ENDROOT
BRANCH   8  10
ATOM     10  C   UNL d   1       1.429  -2.432  -0.017  0.00  0.00     0.224 C 
BRANCH  10  11
ATOM     11  O   UNL d   1       1.143  -3.263  -1.148  0.00  0.00    -0.390 OA
ATOM     12  C   UNL d   1       1.553  -2.675  -2.378  0.00  0.00     0.201 C 
ENDBRANCH  10  11
ENDBRANCH   8  10
BRANCH   4  13
ATOM     13  S   UNL d   1       1.663   2.620   0.002  0.00  0.00    -0.098 SA
ATOM     14  C   UNL d   1       0.388   3.900   0.005  0.00  0.00     0.099 C 
ENDBRANCH   4  13
BRANCH   3  15
ATOM     15  O   UNL d   1      -2.683   0.257   0.018  0.00  0.00    -0.346 OA
ATOM     16  H   UNL d   1      -2.752   1.228   0.006  0.00  0.00     0.219 HD
ENDBRANCH   3  15
TORSDOF 4
