REMARK  2 active torsions:
REMARK  status: ('A' for Active; 'I' for Inactive)
REMARK    1  A    between atoms: C_9  and  C_5 
REMARK    2  A    between atoms: O_10  and  C_7 
ROOT
ATOM      1  N   UNL d   1      -0.679   1.205  -0.002  0.00  0.00    -0.327 N 
ATOM      2  HN  UNL d   1      -1.163   2.102  -0.010  1.00  0.00     0.169 HD
ATOM      3  N   UNL d   1       1.350  -0.036   0.028  0.00  0.00    -0.345 N 
ATOM      4  HN  UNL d   1       2.370  -0.041   0.056  1.00  0.00     0.167 HD
ATOM      5  C   UNL d   1       0.644  -1.189  -0.002  0.00  0.00     0.047 A 
ATOM      6  C   UNL d   1      -0.737  -1.189  -0.013  0.00  0.00     0.086 A 
ATOM      7  C   UNL d   1      -1.339   0.045  -0.014  0.00  0.00     0.143 A 
ATOM      8  C   UNL d   1       0.658   1.118   0.020  0.00  0.00     0.079 A 
ATOM      9  C   UNL d   1       1.430   2.399   0.029  0.00  0.00     0.089 C 
ENDROOT
BRANCH   5  10
ATOM     10  C   UNL d   1       1.446  -2.432  -0.030  0.00  0.00    -0.009 A 
ATOM     11  C   UNL d   1       2.689  -2.504   0.627  0.00  0.00     0.013 A 
ATOM     12  C   UNL d   1       3.464  -3.667   0.597  0.00  0.00     0.001 A 
ATOM     13  C   UNL d   1       3.013  -4.787  -0.096  0.00  0.00     0.000 A 
ATOM     14  C   UNL d   1       1.790  -4.744  -0.757  0.00  0.00     0.001 A 
ATOM     15  C   UNL d   1       1.016  -3.579  -0.725  0.00  0.00     0.013 A 
ENDBRANCH   5  10
BRANCH   7  16
ATOM     16  O   UNL d   1      -2.698   0.166  -0.032  0.00  0.00    -0.346 OA
ATOM     17  H   UNL d   1      -3.089  -0.719  -0.025  0.00  0.00     0.219 HD
ENDBRANCH   7  16
TORSDOF 2
