REMARK  4 active torsions:
REMARK  status: ('A' for Active; 'I' for Inactive)
REMARK    1  A    between atoms: C_6  and  C_1 
REMARK    2  A    between atoms: C_10  and  C_3 
REMARK    3  A    between atoms: S_16  and  C_5 
REMARK       I    between atoms: N_8  and  C_6 
REMARK    4  A    between atoms: C_13  and  N_8 
ROOT
ATOM      1  C   UNL d   1       1.203  -1.180   0.074  0.00  0.00     0.086 C 
ATOM      2  C   UNL d   1      -0.372   0.528   0.390  0.00  0.00     0.081 C 
ATOM      3  C   UNL d   1      -0.155  -0.890   0.193  0.00  0.00     0.019 C 
ATOM      4  S   UNL d   1       2.129   0.287   0.035  0.00  0.00    -0.075 SA
ATOM      5  C   UNL d   1       0.768   1.290   0.246  0.00  0.00     0.063 C 
ATOM      6  C   UNL d   1      -1.649   1.123   0.699  0.00  0.00     0.102 C 
ATOM      7  N   UNL d   1      -2.681   1.581   0.945  0.00  0.00    -0.191 NA
ENDROOT
BRANCH   3   8
ATOM      8  C   UNL d   1      -1.259  -1.862   0.247  0.00  0.00    -0.023 A 
ATOM      9  C   UNL d   1      -2.431  -1.584  -0.483  0.00  0.00     0.014 A 
ATOM     10  C   UNL d   1      -3.641  -2.197  -0.153  0.00  0.00     0.024 A 
ATOM     11  C   UNL d   1      -3.671  -3.152   0.856  0.00  0.00     0.034 A 
ATOM     12  C   UNL d   1      -2.492  -3.538   1.494  0.00  0.00     0.024 A 
ATOM     13 CL   UNL d   1      -5.176  -3.814   1.359  0.00  0.00    -0.084 Cl
ATOM     14  C   UNL d   1      -1.287  -2.889   1.196  0.00  0.00     0.014 A 
ENDBRANCH   3   8
BRANCH   5  15
ATOM     15  S   UNL d   1       0.754   3.057   0.287  0.00  0.00    -0.126 SA
ATOM     16  C   UNL d   1       2.459   3.577   0.135  0.00  0.00     0.096 C 
ENDBRANCH   5  15
BRANCH   1  17
ATOM     17  C   UNL d   1       1.882  -2.481  -0.066  0.00  0.00     0.264 C 
ATOM     18  N   UNL d   1       3.255  -2.461   0.166  0.00  0.00    -0.322 N 
ATOM     19  H   UNL d   1       3.654  -1.546   0.339  0.00  0.00     0.169 HD
ATOM     20  O   UNL d   1       1.269  -3.500  -0.374  0.00  0.00    -0.267 OA
BRANCH  18  21
ATOM     21  C   UNL d   1       4.170  -3.531   0.032  0.00  0.00     0.036 A 
ATOM     22  C   UNL d   1       5.535  -3.208  -0.005  0.00  0.00     0.056 A 
ATOM     23  C   UNL d   1       6.493  -4.201  -0.243  0.00  0.00     0.074 A 
ATOM     24 CL   UNL d   1       8.154  -3.761  -0.363  0.00  0.00    -0.081 Cl
ATOM     25  C   UNL d   1       6.097  -5.524  -0.405  0.00  0.00     0.138 A 
ATOM     26  C   UNL d   1       4.755  -5.868  -0.313  0.00  0.00     0.046 A 
ATOM     27  F   UNL d   1       6.997  -6.487  -0.658  0.00  0.00    -0.204 F 
ATOM     28  C   UNL d   1       3.793  -4.873  -0.095  0.00  0.00     0.032 A 
ENDBRANCH  18  21
ENDBRANCH   1  17
TORSDOF 4
