REMARK  3 active torsions:
REMARK  status: ('A' for Active; 'I' for Inactive)
REMARK    1  A    between atoms: C3_5  and  C1_2 
REMARK    2  A    between atoms: C5_8  and  C2_3 
REMARK    3  A    between atoms: O2_9  and  C3_5 
ROOT
ATOM      1  N1  <1> d   1       0.852  -0.157   0.108  0.00  0.00     0.113 N 
ATOM      2  C1  <1> d   1       2.028  -0.993   0.521  0.00  0.00     0.327 C 
ATOM      3  C2  <1> d   1      -0.267  -1.025  -0.293  0.00  0.00     0.287 C 
ATOM      4  S1  <1> d   1      -0.145  -2.495   0.760  0.00  0.00    -0.131 SA
ATOM      5  C4  <1> d   1       1.653  -2.438   0.833  0.00  0.00     0.122 C 
ATOM      6  H1  <1> d   1       1.135   0.432  -0.676  0.00  0.00     0.318 HD
ENDROOT
BRANCH   3   7
ATOM      7  C5  <1> d   1      -0.302  -1.348  -1.821  0.00  0.00     0.029 C 
ATOM      8  C6  <1> d   1      -0.511  -0.089  -2.697  0.00  0.00     0.007 C 
ATOM      9  C8  <1> d   1      -1.915   0.503  -2.570  0.00  0.00     0.000 C 
ATOM     10  C10 <1> d   1      -3.006  -0.524  -2.854  0.00  0.00     0.000 C 
ATOM     11  C9  <1> d   1      -2.808  -1.828  -2.087  0.00  0.00     0.000 C 
ATOM     12  C7  <1> d   1      -1.387  -2.372  -2.230  0.00  0.00     0.007 C 
ENDBRANCH   3   7
BRANCH   2  13
ATOM     13  C3  <1> d   1       2.680  -0.359   1.759  0.00  0.00     0.175 C 
ATOM     14  O1  <1> d   1       3.678  -0.785   2.315  0.00  0.00    -0.648 OA
BRANCH  13  15
ATOM     15  O2  <1> d   1       2.024   0.760   2.164  0.00  0.00    -0.775 OA
ATOM     16  H7  <1> d   1       1.235   0.847   1.575  0.00  0.00     0.167 HD
ENDBRANCH  13  15
ENDBRANCH   2  13
TORSDOF 3
