REMARK  3 active torsions:
REMARK  status: ('A' for Active; 'I' for Inactive)
REMARK       I    between atoms: C_2  and  N_1 
REMARK    1  A    between atoms: C_3  and  N_1 
REMARK    2  A    between atoms: C_4  and  C_2 
REMARK    3  A    between atoms: O_13  and  N_7 
ROOT
ATOM      1  N   UNL d   1       1.133   0.422   0.569  0.00  0.00    -0.321 N 
ATOM      2  C   UNL d   1       0.131  -0.402   1.022  0.00  0.00     0.263 C 
ATOM      3  O   UNL d   1      -1.054  -0.116   0.890  0.00  0.00    -0.267 OA
ATOM      4  H   UNL d   1       0.806   1.362   0.359  0.00  0.00     0.169 HD
ENDROOT
BRANCH   1   5
ATOM      5  C   UNL d   1       2.522   0.203   0.494  0.00  0.00     0.057 A 
ATOM      6  C   UNL d   1       3.392   1.310   0.552  0.00  0.00     0.062 A 
ATOM      7  C   UNL d   1       4.772   1.143   0.463  0.00  0.00     0.050 A 
ATOM      8 CL   UNL d   1       2.778   2.909   0.797  0.00  0.00    -0.082 Cl
ATOM      9  C   UNL d   1       5.296  -0.133   0.271  0.00  0.00     0.035 A 
ATOM     10  C   UNL d   1       4.448  -1.235   0.173  0.00  0.00     0.026 A 
ATOM     11 CL   UNL d   1       6.997  -0.348   0.139  0.00  0.00    -0.084 Cl
ATOM     12  C   UNL d   1       3.063  -1.071   0.289  0.00  0.00     0.033 A 
ENDBRANCH   1   5
BRANCH   2  13
ATOM     13  C   UNL d   1       0.512  -1.562   1.899  0.00  0.00     0.188 C 
ATOM     14  N   UNL d   1       0.073  -2.756   1.666  0.00  0.00    -0.275 N 
ATOM     15  HN  UNL d   1      -0.521  -3.031   0.883  1.00  0.00     0.193 HD
BRANCH  14  16
ATOM     16  O   UNL d   1       0.552  -3.609   2.673  0.00  0.00    -0.290 OA
ATOM     17  H   UNL d   1       0.021  -4.416   2.535  0.00  0.00     0.244 HD
ENDBRANCH  14  16
ENDBRANCH   2  13
TORSDOF 3
