REMARK  4 active torsions:
REMARK  status: ('A' for Active; 'I' for Inactive)
REMARK    1  A    between atoms: C_3  and  C_1 
REMARK    2  A    between atoms: C_2  and  C_4 
REMARK    3  A    between atoms: N_10  and  C_7 
REMARK       I    between atoms: C_9  and  N_10 
REMARK    4  A    between atoms: C_13  and  C_9 
ROOT
ATOM      1  N   UNL d   1      -4.236  -5.277   2.524  0.00  0.00    -0.197 NA
ATOM      2  C   UNL d   1      -3.668  -4.649   3.313  0.00  0.00     0.068 C 
ATOM      3  C   UNL d   1      -2.853  -3.862   4.244  0.00  0.00     0.226 C 
ENDROOT
BRANCH   3   4
ATOM      4  C   UNL d   1      -1.962  -2.843   3.542  0.00  0.00     0.235 C 
ATOM      5  N   UNL d   1      -1.553  -3.196   2.270  0.00  0.00    -0.326 N 
ATOM      6  H   UNL d   1      -1.840  -4.109   1.923  0.00  0.00     0.169 HD
ATOM      7  O   UNL d   1      -1.573  -1.848   4.153  0.00  0.00    -0.272 OA
BRANCH   5   8
ATOM      8  C   UNL d   1      -0.659  -2.514   1.420  0.00  0.00     0.036 A 
ATOM      9  C   UNL d   1      -0.256  -1.184   1.569  0.00  0.00     0.045 A 
ATOM     10  C   UNL d   1       0.675  -0.619   0.672  0.00  0.00     0.050 A 
ATOM     11  C   UNL d   1       1.237  -1.427  -0.331  0.00  0.00     0.032 A 
ATOM     12  C   UNL d   1       0.855  -2.765  -0.476  0.00  0.00     0.050 A 
ATOM     13  C   UNL d   1      -0.139  -3.274   0.367  0.00  0.00     0.045 A 
BRANCH  10  14
ATOM     14  C   UNL d   1       1.060   0.841   0.769  0.00  0.00     0.417 C 
ATOM     15  F   UNL d   1       2.058   1.187  -0.095  0.00  0.00    -0.166 F 
ATOM     16  F   UNL d   1       1.500   1.198   2.004  0.00  0.00    -0.166 F 
ATOM     17  F   UNL d   1       0.021   1.672   0.478  0.00  0.00    -0.166 F 
ENDBRANCH  10  14
BRANCH  12  18
ATOM     18  C   UNL d   1       1.504  -3.655  -1.506  0.00  0.00     0.417 C 
ATOM     19  F   UNL d   1       2.814  -3.351  -1.713  0.00  0.00    -0.166 F 
ATOM     20  F   UNL d   1       1.481  -4.971  -1.151  0.00  0.00    -0.166 F 
ATOM     21  F   UNL d   1       0.897  -3.581  -2.719  0.00  0.00    -0.166 F 
ENDBRANCH  12  18
ENDBRANCH   5   8
ENDBRANCH   3   4
TORSDOF 4
