REMARK  3 active torsions:
REMARK  status: ('A' for Active; 'I' for Inactive)
REMARK    1  A    between atoms: C_3  and  C_1 
REMARK       I    between atoms: N_7  and  C_1 
REMARK    2  A    between atoms: C_2  and  C_4 
REMARK    3  A    between atoms: N_12  and  N_7 
ROOT
ATOM      1  C   UNL d   1       0.334   0.975  -0.720  0.00  0.00     0.033 A 
ATOM      2  C   UNL d   1      -1.224   3.021  -1.933  0.00  0.00    -0.023 A 
ATOM      3  C   UNL d   1       0.631   1.411  -2.011  0.00  0.00     0.018 A 
ATOM      4  C   UNL d   1      -0.736   1.547  -0.030  0.00  0.00     0.018 A 
ATOM      5  C   UNL d   1      -0.136   2.426  -2.602  0.00  0.00     0.013 A 
ATOM      6  C   UNL d   1      -1.510   2.542  -0.639  0.00  0.00     0.013 A 
ENDROOT
BRANCH   1   7
ATOM      7  C   UNL d   1       1.169  -0.048  -0.034  0.00  0.00     0.265 C 
ATOM      8  O   UNL d   1       1.360   0.004   1.178  0.00  0.00    -0.266 OA
ATOM      9  N   UNL d   1       1.686  -1.050  -0.848  0.00  0.00    -0.290 N 
ATOM     10  H   UNL d   1       1.294  -1.200  -1.775  0.00  0.00     0.183 HD
BRANCH   9  11
ATOM     11  N   UNL d   1       2.428  -2.096  -0.256  0.00  0.00    -0.247 NA
ATOM     12  H   UNL d   1       2.376  -1.952   0.764  0.00  0.00     0.143 HD
ATOM     13  H   UNL d   1       3.416  -1.943  -0.474  0.00  0.00     0.143 HD
ENDBRANCH   9  11
ENDBRANCH   1   7
BRANCH   2  14
ATOM     14  C   UNL d   1      -2.016   4.113  -2.559  0.00  0.00     0.013 A 
ATOM     15  C   UNL d   1      -2.586   5.160  -1.809  0.00  0.00     0.127 A 
ATOM     16  F   UNL d   1      -2.419   5.220  -0.478  0.00  0.00    -0.205 F 
ATOM     17  C   UNL d   1      -3.328   6.185  -2.401  0.00  0.00     0.043 A 
ATOM     18  C   UNL d   1      -3.511   6.204  -3.778  0.00  0.00     0.003 A 
ATOM     19  C   UNL d   1      -2.956   5.193  -4.556  0.00  0.00     0.001 A 
ATOM     20  C   UNL d   1      -2.226   4.160  -3.953  0.00  0.00     0.015 A 
ENDBRANCH   2  14
TORSDOF 3
