REMARK  6 active torsions:
REMARK  status: ('A' for Active; 'I' for Inactive)
REMARK    1  A    between atoms: C_7  and  C_1 
REMARK    2  A    between atoms: C_2  and  S_12 
REMARK    3  A    between atoms: N_18  and  C_2 
REMARK    4  A    between atoms: N_3  and  N_5 
REMARK    5  A    between atoms: S_12  and  C_7 
REMARK    6  A    between atoms: C_8  and  C_11 
ROOT
ATOM      1  C   UNL d   1      -0.406   2.541   0.003  0.00  0.00     0.131 C 
ATOM      2  N   UNL d   1       0.757   3.107  -0.113  0.00  0.00    -0.284 N 
ATOM      3  HN  UNL d   1       1.632   2.598  -0.241  1.00  0.00     0.188 HD
ENDROOT
BRANCH   1   4
ATOM      4  S   UNL d   1      -0.638   0.815  -0.145  0.00  0.00    -0.094 SA
BRANCH   4   5
ATOM      5  C   UNL d   1       1.042   0.227  -0.483  0.00  0.00     0.124 C 
BRANCH   5   6
ATOM      6  C   UNL d   1       1.083  -1.287  -0.610  0.00  0.00    -0.005 A 
ATOM      7  C   UNL d   1       0.947  -1.931  -1.855  0.00  0.00     0.042 A 
ATOM      8 CL   UNL d   1       0.725  -1.050  -3.329  0.00  0.00    -0.084 Cl
ATOM      9  C   UNL d   1       0.983  -3.330  -1.965  0.00  0.00     0.024 A 
ATOM     10  C   UNL d   1       1.141  -4.119  -0.830  0.00  0.00     0.003 A 
ATOM     11  C   UNL d   1       1.257  -3.509   0.414  0.00  0.00     0.024 A 
ATOM     12  C   UNL d   1       1.226  -2.111   0.526  0.00  0.00     0.042 A 
ATOM     13 CL   UNL d   1       1.366  -1.462   2.124  0.00  0.00    -0.084 Cl
ENDBRANCH   5   6
ENDBRANCH   4   5
ENDBRANCH   1   4
BRANCH   1  14
ATOM     14  N   UNL d   1      -1.576   3.212   0.210  0.00  0.00    -0.282 NA
ATOM     15  H   UNL d   1      -2.377   2.780  -0.228  0.00  0.00     0.126 HD
ATOM     16  H   UNL d   1      -1.443   4.194  -0.013  0.00  0.00     0.126 HD
ENDBRANCH   1  14
BRANCH   2  17
ATOM     17  N   UNL d   1       0.661   4.513  -0.041  0.00  0.00    -0.303 N 
ATOM     18  C   UNL d   1       1.805   5.134  -0.034  0.00  0.00     0.032 C 
ATOM     19  C   UNL d   1       3.137   4.414  -0.044  0.00  0.00     0.070 C 
ATOM     20  HN  UNL d   1      -0.232   5.003   0.002  1.00  0.00     0.186 HD
BRANCH  18  21
ATOM     21  C   UNL d   1       1.808   6.630  -0.015  0.00  0.00    -0.011 A 
ATOM     22  C   UNL d   1       0.791   7.314   0.666  0.00  0.00     0.039 A 
ATOM     23  C   UNL d   1       0.766   8.714   0.678  0.00  0.00     0.056 A 
ATOM     24 CL   UNL d   1      -0.514   9.490   1.544  0.00  0.00    -0.083 Cl
ATOM     25  C   UNL d   1       1.755   9.439   0.002  0.00  0.00     0.055 A 
ATOM     26  C   UNL d   1       2.763   8.758  -0.686  0.00  0.00     0.026 A 
ATOM     27 CL   UNL d   1       1.787  11.166  -0.028  0.00  0.00    -0.083 Cl
ATOM     28  C   UNL d   1       2.787   7.360  -0.699  0.00  0.00     0.015 A 
ENDBRANCH  18  21
ENDBRANCH   2  17
TORSDOF 6
