REMARK  2 active torsions:
REMARK  status: ('A' for Active; 'I' for Inactive)
REMARK    1  A    between atoms: C_4  and  C_1 
REMARK    2  A    between atoms: C_11  and  C_6 
ROOT
ATOM      1  C   UNL d   1      -3.729  -0.032   0.005  0.00  0.00     0.089 C 
ATOM      2  C   UNL d   1      -4.436   1.129  -0.008  0.00  0.00     0.038 C 
ATOM      3  C   UNL d   1      -2.250  -0.015  -0.003  0.00  0.00     0.103 C 
ATOM      4  N   UNL d   1      -1.090   0.002  -0.010  0.00  0.00    -0.191 NA
ENDROOT
BRANCH   1   5
ATOM      5  C   UNL d   1      -4.520  -1.249   0.013  0.00  0.00     0.127 A 
ATOM      6  N   UNL d   1      -5.838  -1.424   0.001  0.00  0.00    -0.339 N 
ATOM      7  C   UNL d   1      -6.045  -2.785  -0.010  0.00  0.00     0.060 A 
ATOM      8  HN  UNL d   1      -6.553  -0.697   0.000  1.00  0.00     0.167 HD
ATOM      9  C   UNL d   1      -7.244  -3.510  -0.033  0.00  0.00     0.032 A 
ATOM     10  C   UNL d   1      -4.835  -3.465   0.001  0.00  0.00     0.060 A 
ATOM     11  C   UNL d   1      -7.180  -4.909  -0.044  0.00  0.00     0.002 A 
ATOM     12  C   UNL d   1      -5.948  -5.568  -0.032  0.00  0.00     0.002 A 
ATOM     13  C   UNL d   1      -4.741  -4.859  -0.009  0.00  0.00     0.032 A 
ATOM     14  N   UNL d   1      -3.886  -2.474   0.020  0.00  0.00    -0.339 N 
ATOM     15  H   UNL d   1      -2.888  -2.628   0.031  0.00  0.00     0.167 HD
ENDBRANCH   1   5
BRANCH   2  16
ATOM     16  C   UNL d   1      -3.822   2.463  -0.052  0.00  0.00    -0.035 A 
ATOM     17  C   UNL d   1      -3.513   3.054  -1.285  0.00  0.00     0.013 A 
ATOM     18  C   UNL d   1      -2.964   4.340  -1.335  0.00  0.00     0.024 A 
ATOM     19  C   UNL d   1      -2.720   5.035  -0.153  0.00  0.00     0.034 A 
ATOM     20  C   UNL d   1      -2.998   4.447   1.080  0.00  0.00     0.024 A 
ATOM     21 CL   UNL d   1      -2.088   6.635  -0.216  0.00  0.00    -0.084 Cl
ATOM     22  C   UNL d   1      -3.545   3.160   1.131  0.00  0.00     0.013 A 
ENDBRANCH   2  16
TORSDOF 2
