REMARK  6 active torsions:
REMARK  status: ('A' for Active; 'I' for Inactive)
REMARK    1  A    between atoms: N_12  and  C_1 
REMARK    2  A    between atoms: N_6  and  C_2 
REMARK    3  A    between atoms: C_20  and  C_3 
REMARK    4  A    between atoms: C_7  and  N_14 
REMARK       I    between atoms: C_10  and  N_12 
REMARK       I    between atoms: N_15  and  C_10 
REMARK    5  A    between atoms: C_11  and  C_16 
REMARK    6  A    between atoms: N_14  and  N_15 
ROOT
ATOM      1  C   UNL d   1       1.659  -2.882  -0.202  0.00  0.00     0.335 C 
ATOM      2  N   UNL d   1       0.407  -2.321  -0.275  0.00  0.00    -0.303 N 
ATOM      3  N   UNL d   1       2.748  -2.047  -0.389  0.00  0.00    -0.266 N 
ATOM      4  O   UNL d   1       1.705  -4.043   0.206  0.00  0.00    -0.246 OA
ATOM      5  H   UNL d   1      -0.251  -2.831   0.303  0.00  0.00     0.171 HD
ATOM      6  H   UNL d   1       2.691  -1.266  -1.031  0.00  0.00     0.186 HD
ENDROOT
BRANCH   2   7
ATOM      7  C   UNL d   1      -0.026  -1.124  -0.813  0.00  0.00     0.097 C 
ATOM      8  C   UNL d   1       0.290  -0.460  -2.042  0.00  0.00     0.094 C 
ATOM      9  N   UNL d   1      -0.322   0.735  -2.089  0.00  0.00    -0.258 N 
ATOM     10  O   UNL d   1      -1.196   0.766  -1.031  0.00  0.00    -0.240 OA
ATOM     11  HN  UNL d   1      -0.168   1.473  -2.776  1.00  0.00     0.195 HD
ATOM     12  C   UNL d   1      -1.076  -0.380  -0.312  0.00  0.00     0.101 C 
ATOM     13  C   UNL d   1      -2.050  -0.517   0.789  0.00  0.00     0.081 C 
BRANCH   8  14
ATOM     14  C   UNL d   1       0.933  -0.966  -3.254  0.00  0.00    -0.005 A 
ATOM     15  C   UNL d   1       0.682  -2.276  -3.692  0.00  0.00     0.014 A 
ATOM     16  C   UNL d   1       1.085  -2.685  -4.965  0.00  0.00     0.001 A 
ATOM     17  C   UNL d   1       1.747  -1.794  -5.808  0.00  0.00     0.000 A 
ATOM     18  C   UNL d   1       2.025  -0.499  -5.373  0.00  0.00     0.001 A 
ATOM     19  C   UNL d   1       1.620  -0.087  -4.102  0.00  0.00     0.014 A 
ENDBRANCH   8  14
ENDBRANCH   2   7
BRANCH   3  20
ATOM     20  N   UNL d   1       4.115  -2.361   0.038  0.00  0.00    -0.195 NA
ATOM     21  C   UNL d   1       4.321  -3.697   0.638  0.00  0.00     0.143 C 
BRANCH  20  22
ATOM     22  C   UNL d   1       4.753  -1.299   0.762  0.00  0.00     0.063 A 
ATOM     23  C   UNL d   1       6.158  -1.103   0.898  0.00  0.00     0.126 A 
ATOM     24  C   UNL d   1       6.675   0.001   1.634  0.00  0.00     0.054 A 
ATOM     25  C   UNL d   1       5.837   0.969   2.199  0.00  0.00     0.050 A 
ATOM     26  C   UNL d   1       4.461   0.796   2.060  0.00  0.00     0.018 A 
ATOM     27  C   UNL d   1       3.941  -0.311   1.377  0.00  0.00     0.029 A 
BRANCH  23  28
ATOM     28  N   UNL d   1       7.197  -1.943   0.228  0.00  0.00    -0.114 N 
ATOM     29  O   UNL d   1       6.856  -2.957  -0.382  0.00  0.00    -0.532 OA
ATOM     30  O   UNL d   1       8.374  -1.569   0.330  0.00  0.00    -0.532 OA
ENDBRANCH  23  28
BRANCH  25  31
ATOM     31  C   UNL d   1       6.383   2.180   2.919  0.00  0.00     0.417 C 
ATOM     32  F   UNL d   1       7.741   2.272   2.881  0.00  0.00    -0.166 F 
ATOM     33  F   UNL d   1       5.916   3.346   2.395  0.00  0.00    -0.166 F 
ATOM     34  F   UNL d   1       6.042   2.198   4.236  0.00  0.00    -0.166 F 
ENDBRANCH  25  31
ENDBRANCH  20  22
ENDBRANCH   3  20
TORSDOF 6
