REMARK  4 active torsions:
REMARK  status: ('A' for Active; 'I' for Inactive)
REMARK    1  A    between atoms: C_2  and  C_1 
REMARK       I    between atoms: N_13  and  C_2 
REMARK    2  A    between atoms: C_5  and  C_14 
REMARK    3  A    between atoms: C_15  and  N_13 
REMARK    4  A    between atoms: C_14  and  C_15 
ROOT
ATOM      1  C   UNL d   1       1.001   2.949   1.200  0.00  0.00     0.258 C 
ATOM      2  O   UNL d   1       0.923   3.497   2.299  0.00  0.00    -0.267 OA
ATOM      3  N   UNL d   1       0.850   3.657   0.026  0.00  0.00    -0.356 N 
ATOM      4  H   UNL d   1       0.947   3.151  -0.846  0.00  0.00     0.162 HD
ENDROOT
BRANCH   3   5
ATOM      5  C   UNL d   1       0.566   5.077  -0.011  0.00  0.00     0.128 C 
BRANCH   5   6
ATOM      6  C   UNL d   1       1.837   5.929  -0.021  0.00  0.00     0.066 C 
BRANCH   6   7
ATOM      7  C   UNL d   1       1.508   7.393  -0.051  0.00  0.00    -0.016 A 
ATOM      8  S   UNL d   1       1.323   8.211  -1.545  0.00  0.00    -0.106 SA
ATOM      9  C   UNL d   1       0.964   9.689  -0.763  0.00  0.00     0.050 A 
ATOM     10  C   UNL d   1       0.989   9.568   0.608  0.00  0.00     0.008 A 
ATOM     11  C   UNL d   1       1.306   8.241   1.020  0.00  0.00     0.015 A 
ENDBRANCH   6   7
ENDBRANCH   5   6
ENDBRANCH   3   5
BRANCH   1  12
ATOM     12  C   UNL d   1       1.248   1.519   1.042  0.00  0.00     0.072 A 
ATOM     13  S   UNL d   1       1.383   0.782  -0.504  0.00  0.00    -0.097 SA
ATOM     14  C   UNL d   1       1.645  -0.763   0.172  0.00  0.00     0.050 A 
ATOM     15  C   UNL d   1       1.633  -0.733   1.548  0.00  0.00     0.009 A 
ATOM     16  C   UNL d   1       1.402   0.582   2.049  0.00  0.00     0.025 A 
ENDBRANCH   1  12
TORSDOF 4
