REMARK  11 active torsions:
REMARK  status: ('A' for Active; 'I' for Inactive)
REMARK    1  A    between atoms: C_4  and  C_1 
REMARK    2  A    between atoms: C_11  and  N_5 
REMARK       I    between atoms: C_7  and  N_8 
REMARK       I    between atoms: N_18  and  C_7 
REMARK    3  A    between atoms: N_8  and  C_10 
REMARK    4  A    between atoms: C_19  and  C_11 
REMARK    5  A    between atoms: S_12  and  C_20 
REMARK    6  A    between atoms: C_13  and  S_12 
REMARK    7  A    between atoms: C_24  and  N_18 
REMARK    8  A    between atoms: C_20  and  C_19 
REMARK    9  A    between atoms: O_21  and  C_19 
REMARK   10  A    between atoms: C_25  and  C_24 
REMARK   11  A    between atoms: C_26  and  C_25 
ROOT
ATOM      1  C   UNL d   1       3.243  -2.337  -3.536  0.00  0.00     0.053 A 
ATOM      2  C   UNL d   1       1.987  -1.867  -3.100  0.00  0.00     0.027 A 
ATOM      3  C   UNL d   1       3.288  -3.434  -4.410  0.00  0.00     0.031 A 
ATOM      4  C   UNL d   1       0.819  -2.539  -3.507  0.00  0.00     0.021 A 
ATOM      5  C   UNL d   1       2.121  -4.063  -4.841  0.00  0.00     0.002 A 
ATOM      6  C   UNL d   1       0.886  -3.624  -4.380  0.00  0.00     0.002 A 
ENDROOT
BRANCH   2   7
ATOM      7  S   UNL d   1       1.733  -0.372  -2.158  0.00  0.00    -0.125 SA
BRANCH   7   8
ATOM      8  C   UNL d   1       2.300   0.932  -3.332  0.00  0.00     0.113 C 
BRANCH   8   9
ATOM      9  C   UNL d   1       1.629   1.075  -4.716  0.00  0.00     0.147 C 
BRANCH   9  10
ATOM     10  C   UNL d   1       0.101   1.175  -4.731  0.00  0.00     0.180 C 
BRANCH  10  11
ATOM     11  N   UNL d   1      -0.405   2.310  -3.987  0.00  0.00    -0.300 N 
ATOM     12  N   UNL d   1       0.117   3.531  -4.203  0.00  0.00    -0.295 N 
ATOM     13  C   UNL d   1      -0.487   4.326  -3.298  0.00  0.00     0.133 A 
ATOM     14  HN  UNL d   1       0.815   3.796  -4.898  1.00  0.00     0.187 HD
ATOM     15  C   UNL d   1      -1.434   3.584  -2.540  0.00  0.00     0.054 A 
ATOM     16  C   UNL d   1      -1.364   2.297  -3.020  0.00  0.00     0.112 A 
BRANCH  13  17
ATOM     17  C   UNL d   1      -0.145   5.782  -3.124  0.00  0.00     0.433 C 
ATOM     18  F   UNL d   1       0.617   6.290  -4.129  0.00  0.00    -0.165 F 
ATOM     19  F   UNL d   1      -1.261   6.558  -3.051  0.00  0.00    -0.165 F 
ATOM     20  F   UNL d   1       0.544   5.993  -1.968  0.00  0.00    -0.165 F 
ENDBRANCH  13  17
ENDBRANCH  10  11
ENDBRANCH   9  10
BRANCH   9  21
ATOM     21  O   UNL d   1       2.062   0.066  -5.635  0.00  0.00    -0.393 OA
ATOM     22  H   UNL d   1       1.815  -0.813  -5.304  0.00  0.00     0.210 HD
ENDBRANCH   9  21
ENDBRANCH   8   9
ENDBRANCH   7   8
ENDBRANCH   2   7
BRANCH   1  23
ATOM     23  N   UNL d   1       4.452  -1.752  -3.075  0.00  0.00    -0.308 N 
ATOM     24  C   UNL d   1       5.569  -1.636  -3.874  0.00  0.00     0.320 C 
ATOM     25  O   UNL d   1       5.581  -1.803  -5.092  0.00  0.00    -0.247 OA
ATOM     26  N   UNL d   1       6.705  -1.301  -3.164  0.00  0.00    -0.343 N 
ATOM     27  H   UNL d   1       6.779  -1.783  -2.278  0.00  0.00     0.164 HD
ATOM     28  H   UNL d   1       4.380  -1.074  -2.328  0.00  0.00     0.170 HD
BRANCH  26  29
ATOM     29  C   UNL d   1       7.925  -1.157  -3.945  0.00  0.00     0.124 C 
BRANCH  29  30
ATOM     30  C   UNL d   1       9.184  -0.915  -3.120  0.00  0.00     0.019 C 
BRANCH  30  31
ATOM     31  C   UNL d   1      10.359  -0.606  -4.055  0.00  0.00    -0.003 C 
ATOM     32  C   UNL d   1      11.672  -0.432  -3.313  0.00  0.00     0.005 C 
ENDBRANCH  30  31
ENDBRANCH  29  30
ENDBRANCH  26  29
ENDBRANCH   1  23
TORSDOF 11
