REMARK  5 active torsions:
REMARK  status: ('A' for Active; 'I' for Inactive)
REMARK    1  A    between atoms: C_2  and  S_1 
REMARK    2  A    between atoms: C_5  and  S_1 
REMARK    3  A    between atoms: C_7  and  C_2 
REMARK    4  A    between atoms: S_6  and  C_7 
REMARK    5  A    between atoms: C_8  and  S_6 
ROOT
ATOM      1  C   UNL d   1       0.473  -0.768  -1.525  0.00  0.00     0.156 C 
ENDROOT
BRANCH   1   2
ATOM      2  S   UNL d   1       1.053   0.102  -0.085  0.00  0.00     0.176 S 
ATOM      3  O   UNL d   1       0.495   1.440  -0.108  0.00  0.00    -0.223 OA
ATOM      4  O   UNL d   1       2.487  -0.100   0.018  0.00  0.00    -0.223 OA
BRANCH   2   5
ATOM      5  C   UNL d   1       0.298  -0.761   1.278  0.00  0.00     0.059 A 
ATOM      6  C   UNL d   1       0.960  -1.846   1.862  0.00  0.00     0.023 A 
ATOM      7  C   UNL d   1       0.398  -2.474   2.975  0.00  0.00     0.002 A 
ATOM      8  C   UNL d   1      -0.809  -2.013   3.503  0.00  0.00     0.000 A 
ATOM      9  C   UNL d   1      -1.461  -0.925   2.921  0.00  0.00     0.002 A 
ATOM     10  C   UNL d   1      -0.907  -0.293   1.808  0.00  0.00     0.023 A 
ENDBRANCH   2   5
ENDBRANCH   1   2
BRANCH   1  11
ATOM     11  C   UNL d   1       0.974  -0.072  -2.780  0.00  0.00     0.095 C 
BRANCH  11  12
ATOM     12  S   UNL d   1       0.407  -0.990  -4.258  0.00  0.00    -0.129 SA
BRANCH  12  13
ATOM     13  C   UNL d   1       1.016   0.089  -5.544  0.00  0.00     0.000 A 
ATOM     14  C   UNL d   1       2.383   0.316  -5.719  0.00  0.00     0.019 A 
ATOM     15  C   UNL d   1       2.835   1.162  -6.737  0.00  0.00     0.008 A 
ATOM     16  C   UNL d   1       1.926   1.789  -7.597  0.00  0.00    -0.062 A 
ATOM     17  C   UNL d   1       0.559   1.540  -7.436  0.00  0.00     0.008 A 
ATOM     18  C   UNL d   1       2.422   2.717  -8.666  0.00  0.00     0.048 C 
ATOM     19  C   UNL d   1       0.108   0.692  -6.419  0.00  0.00     0.019 A 
ENDBRANCH  12  13
ENDBRANCH  11  12
ENDBRANCH   1  11
TORSDOF 5
