REMARK  3 active torsions:
REMARK  status: ('A' for Active; 'I' for Inactive)
REMARK    1  A    between atoms: C_13  and  C_3 
REMARK    2  A    between atoms: C_8  and  C_7 
REMARK       I    between atoms: C_14  and  N_15 
REMARK    3  A    between atoms: N_15  and  C_20 
ROOT
ATOM      1  N   UNL d   1       0.223   0.879   0.765  0.00  0.00    -0.331 N 
ATOM      2  HN  UNL d   1      -0.016   1.376   1.623  1.00  0.00     0.168 HD
ATOM      3  C   UNL d   1       1.154   1.151  -0.093  0.00  0.00     0.162 A 
ATOM      4  C   UNL d   1      -0.365  -0.244   0.231  0.00  0.00     0.112 A 
ATOM      5  O   UNL d   1       1.278   0.336  -1.165  0.00  0.00    -0.256 OA
ATOM      6  C   UNL d   1       0.315  -0.619  -1.045  0.00  0.00     0.316 A 
ATOM      7  C   UNL d   1      -1.393  -0.880   0.807  0.00  0.00     0.054 C 
ATOM      8  O   UNL d   1       0.103  -1.528  -1.820  0.00  0.00    -0.257 OA
ENDROOT
BRANCH   3   9
ATOM      9  C   UNL d   1       2.110   2.269  -0.047  0.00  0.00     0.015 A 
ATOM     10  C   UNL d   1       2.050   3.184   1.008  0.00  0.00     0.018 A 
ATOM     11  C   UNL d   1       2.947   4.259   1.058  0.00  0.00     0.030 A 
ATOM     12  C   UNL d   1       3.914   4.434   0.058  0.00  0.00     0.034 A 
ATOM     13  C   UNL d   1       3.968   3.513  -0.989  0.00  0.00     0.030 A 
ATOM     14  C   UNL d   1       3.074   2.437  -1.044  0.00  0.00     0.018 A 
BRANCH  12  15
ATOM     15  N   UNL d   1       4.780   5.542   0.175  0.00  0.00    -0.328 N 
ATOM     16  C   UNL d   1       5.794   5.908  -0.693  0.00  0.00     0.218 C 
ATOM     17  O   UNL d   1       6.123   5.329  -1.723  0.00  0.00    -0.274 OA
ATOM     18  C   UNL d   1       6.528   7.154  -0.262  0.00  0.00     0.117 C 
ATOM     19  H   UNL d   1       4.635   6.132   0.985  0.00  0.00     0.169 HD
ENDBRANCH  12  15
ENDBRANCH   3   9
BRANCH   7  20
ATOM     20  C   UNL d   1      -2.013  -2.030   0.254  0.00  0.00     0.008 A 
ATOM     21  C   UNL d   1      -2.991  -2.107  -0.722  0.00  0.00     0.038 A 
ATOM     22  C   UNL d   1      -3.367  -3.446  -0.992  0.00  0.00     0.018 A 
ATOM     23 BR   UNL d   1      -4.681  -3.875  -2.275  0.00  0.00    -0.051 Br
ATOM     24  C   UNL d   1      -2.688  -4.364  -0.234  0.00  0.00     0.069 A 
ATOM     25  S   UNL d   1      -1.596  -3.596   0.837  0.00  0.00    -0.101 SA
ENDBRANCH   7  20
TORSDOF 3
