REMARK  9 active torsions:
REMARK  status: ('A' for Active; 'I' for Inactive)
REMARK    1  A    between atoms: C_3  and  C_1 
REMARK    2  A    between atoms: O_5  and  C_2 
REMARK    3  A    between atoms: O_21  and  C_3 
REMARK    4  A    between atoms: N_7  and  C_4 
REMARK    5  A    between atoms: C_8  and  O_5 
REMARK       I    between atoms: C_10  and  N_7 
REMARK    6  A    between atoms: C_19  and  C_10 
REMARK    7  A    between atoms: C_13  and  C_20 
REMARK    8  A    between atoms: O_22  and  C_13 
REMARK    9  A    between atoms: C_20  and  C_19 
ROOT
ATOM      1  C   UNL d   1       3.153   3.307  -0.752  0.00  0.00     0.070 A 
ATOM      2  C   UNL d   1       2.735   2.816   0.492  0.00  0.00     0.102 A 
ATOM      3  C   UNL d   1       3.196   4.690  -0.976  0.00  0.00     0.056 A 
ATOM      4  C   UNL d   1       2.416   3.704   1.523  0.00  0.00     0.041 A 
ATOM      5  C   UNL d   1       2.857   5.568   0.053  0.00  0.00     0.036 A 
ATOM      6  C   UNL d   1       2.468   5.080   1.302  0.00  0.00     0.026 A 
ATOM      7 CL   UNL d   1       2.942   7.268  -0.196  0.00  0.00    -0.084 Cl
ENDROOT
BRANCH   1   8
ATOM      8  N   UNL d   1       3.560   2.405  -1.754  0.00  0.00    -0.325 N 
ATOM      9  C   UNL d   1       3.094   2.489  -3.045  0.00  0.00     0.222 C 
ATOM     10  O   UNL d   1       2.186   3.243  -3.422  0.00  0.00    -0.273 OA
ATOM     11  H   UNL d   1       3.910   1.505  -1.441  0.00  0.00     0.169 HD
BRANCH   9  12
ATOM     12  C   UNL d   1       3.794   1.572  -4.017  0.00  0.00     0.113 C 
BRANCH  12  13
ATOM     13  C   UNL d   1       3.758   2.188  -5.410  0.00  0.00     0.119 C 
BRANCH  13  14
ATOM     14  C   UNL d   1       4.427   3.542  -5.415  0.00  0.00     0.139 C 
ATOM     15  O   UNL d   1       5.617   3.702  -5.636  0.00  0.00    -0.650 OA
BRANCH  14  16
ATOM     16  O   UNL d   1       3.602   4.566  -5.095  0.00  0.00    -0.776 OA
ATOM     17  H   UNL d   1       2.724   4.278  -4.749  0.00  0.00     0.167 HD
ENDBRANCH  14  16
ENDBRANCH  13  14
ENDBRANCH  12  13
ENDBRANCH   9  12
ENDBRANCH   1   8
BRANCH   2  18
ATOM     18  O   UNL d   1       2.579   1.454   0.663  0.00  0.00    -0.307 OA
BRANCH  18  19
ATOM     19  C   UNL d   1       1.403   0.970   1.162  0.00  0.00     0.099 A 
ATOM     20  C   UNL d   1       1.332  -0.217   1.874  0.00  0.00     0.114 A 
ATOM     21  S   UNL d   1      -0.267  -0.472   2.474  0.00  0.00    -0.093 SA
ATOM     22  C   UNL d   1      -0.861   0.939   1.732  0.00  0.00     0.053 A 
ATOM     23  C   UNL d   1       0.119   1.595   1.025  0.00  0.00     0.046 A 
BRANCH  20  24
ATOM     24  C   UNL d   1       2.331  -1.212   2.215  0.00  0.00     0.302 C 
ATOM     25  O   UNL d   1       2.181  -2.136   3.009  0.00  0.00    -0.259 OA
BRANCH  24  26
ATOM     26  O   UNL d   1       3.483  -1.015   1.508  0.00  0.00    -0.322 OA
ATOM     27  C   UNL d   1       4.488  -1.994   1.778  0.00  0.00     0.213 C 
ENDBRANCH  24  26
ENDBRANCH  20  24
ENDBRANCH  18  19
ENDBRANCH   2  18
TORSDOF 9
