REMARK  7 active torsions:
REMARK  status: ('A' for Active; 'I' for Inactive)
REMARK    1  A    between atoms: O_16  and  C_1 
REMARK    2  A    between atoms: O_17  and  C_2 
REMARK    3  A    between atoms: O_18  and  C_3 
REMARK    4  A    between atoms: N_6  and  N_4 
REMARK    5  A    between atoms: C_11  and  C_8 
REMARK    6  A    between atoms: C_13  and  C_12 
REMARK    7  A    between atoms: O_22  and  C_19 
ROOT
ATOM      1  N   UNL d   1      -5.708   1.029  -0.650  0.00  0.00    -0.311 N 
ATOM      2  HN  UNL d   1      -6.708   1.152  -0.809  1.00  0.00     0.186 HD
ATOM      3  C   UNL d   1      -4.879   2.007  -0.512  0.00  0.00     0.118 C 
ENDROOT
BRANCH   1   4
ATOM      4  N   UNL d   1      -5.088  -0.209  -0.556  0.00  0.00    -0.305 N 
ATOM      5  C   UNL d   1      -5.918  -1.209  -0.656  0.00  0.00     0.032 C 
ATOM      6  C   UNL d   1      -7.420  -1.037  -0.867  0.00  0.00     0.070 C 
ATOM      7  HN  UNL d   1      -4.083  -0.324  -0.423  1.00  0.00     0.186 HD
BRANCH   5   8
ATOM      8  C   UNL d   1      -5.396  -2.616  -0.559  0.00  0.00    -0.012 A 
ATOM      9  C   UNL d   1      -4.029  -2.846  -0.344  0.00  0.00     0.016 A 
ATOM     10  C   UNL d   1      -3.531  -4.155  -0.228  0.00  0.00     0.037 A 
ATOM     11  C   UNL d   1      -4.396  -5.243  -0.327  0.00  0.00     0.068 A 
ATOM     12  C   UNL d   1      -5.756  -5.019  -0.536  0.00  0.00     0.037 A 
ATOM     13  C   UNL d   1      -6.251  -3.718  -0.663  0.00  0.00     0.016 A 
BRANCH  11  14
ATOM     14  O   UNL d   1      -4.048  -6.558  -0.191  0.00  0.00    -0.356 OA
ATOM     15  C   UNL d   1      -2.716  -6.891  -0.557  0.00  0.00     0.210 C 
ENDBRANCH  11  14
ENDBRANCH   5   8
ENDBRANCH   1   4
BRANCH   3  16
ATOM     16  C   UNL d   1      -5.335   3.409  -0.561  0.00  0.00    -0.014 A 
ATOM     17  C   UNL d   1      -6.686   3.723  -0.715  0.00  0.00     0.052 A 
ATOM     18  C   UNL d   1      -7.116   5.057  -0.765  0.00  0.00     0.105 A 
ATOM     19  C   UNL d   1      -6.167   6.089  -0.642  0.00  0.00     0.135 A 
ATOM     20  C   UNL d   1      -4.808   5.760  -0.402  0.00  0.00     0.105 A 
ATOM     21  C   UNL d   1      -4.396   4.423  -0.419  0.00  0.00     0.052 A 
BRANCH  18  22
ATOM     22  O   UNL d   1      -8.473   5.139  -0.929  0.00  0.00    -0.353 OA
ATOM     23  C   UNL d   1      -9.098   6.409  -0.993  0.00  0.00     0.210 C 
ENDBRANCH  18  22
BRANCH  19  24
ATOM     24  O   UNL d   1      -6.590   7.395  -0.617  0.00  0.00    -0.351 OA
ATOM     25  C   UNL d   1      -5.961   8.248  -1.575  0.00  0.00     0.210 C 
ENDBRANCH  19  24
BRANCH  20  26
ATOM     26  O   UNL d   1      -3.945   6.799  -0.140  0.00  0.00    -0.353 OA
ATOM     27  C   UNL d   1      -2.717   6.465   0.499  0.00  0.00     0.210 C 
ENDBRANCH  20  26
ENDBRANCH   3  16
TORSDOF 7
