REMARK  4 active torsions:
REMARK  status: ('A' for Active; 'I' for Inactive)
REMARK    1  A    between atoms: N_2  and  C_1 
REMARK    2  A    between atoms: N_3  and  C_1 
REMARK    3  A    between atoms: C_5  and  N_2 
REMARK    4  A    between atoms: C_6  and  N_3 
ROOT
ATOM      1  C   UNL d   1       0.961   0.113  -0.028  0.00  0.00     0.176 C 
ATOM      2  S   UNL d   1       2.578   0.503  -0.193  0.00  0.00    -0.041 SA
ENDROOT
BRANCH   1   3
ATOM      3  N   UNL d   1       0.443  -0.992   0.607  0.00  0.00    -0.333 N 
ATOM      4  H   UNL d   1      -0.326  -1.419   0.101  0.00  0.00     0.168 HD
BRANCH   3   5
ATOM      5  C   UNL d   1       0.932  -1.706   1.714  0.00  0.00     0.034 A 
ATOM      6  C   UNL d   1       1.674  -1.095   2.729  0.00  0.00     0.031 A 
ATOM      7  C   UNL d   1       2.037  -1.821   3.868  0.00  0.00     0.026 A 
ATOM      8  C   UNL d   1       1.672  -3.160   3.984  0.00  0.00     0.034 A 
ATOM      9  C   UNL d   1       0.938  -3.778   2.975  0.00  0.00     0.026 A 
ATOM     10 CL   UNL d   1       2.112  -4.048   5.389  0.00  0.00    -0.084 Cl
ATOM     11  C   UNL d   1       0.552  -3.046   1.850  0.00  0.00     0.031 A 
ENDBRANCH   3   5
ENDBRANCH   1   3
BRANCH   1  12
ATOM     12  N   UNL d   1       0.037   0.862  -0.715  0.00  0.00    -0.333 N 
ATOM     13  H   UNL d   1       0.424   1.433  -1.461  0.00  0.00     0.168 HD
BRANCH  12  14
ATOM     14  C   UNL d   1      -1.293   1.147  -0.342  0.00  0.00     0.034 A 
ATOM     15  C   UNL d   1      -1.768   0.966   0.963  0.00  0.00     0.031 A 
ATOM     16  C   UNL d   1      -3.074   1.334   1.300  0.00  0.00     0.026 A 
ATOM     17  C   UNL d   1      -3.912   1.876   0.332  0.00  0.00     0.034 A 
ATOM     18  C   UNL d   1      -3.450   2.067  -0.967  0.00  0.00     0.026 A 
ATOM     19 CL   UNL d   1      -5.517   2.328   0.749  0.00  0.00    -0.084 Cl
ATOM     20  C   UNL d   1      -2.137   1.718  -1.301  0.00  0.00     0.031 A 
ENDBRANCH  12  14
ENDBRANCH   1  12
TORSDOF 4
