REMARK  2 active torsions:
REMARK  status: ('A' for Active; 'I' for Inactive)
REMARK    1  A    between atoms: C_4  and  C_5 
REMARK    2  A    between atoms: C_14  and  C_10 
ROOT
ATOM      1  N   UNL d   1      -1.265   1.383  -0.037  0.00  0.00    -0.351 N 
ATOM      2  HN  UNL d   1      -1.297   2.402  -0.062  1.00  0.00     0.166 HD
ATOM      3  C   UNL d   1      -0.077   0.727  -0.031  0.00  0.00     0.081 A 
ATOM      4  C   UNL d   1       2.394  -0.670  -0.006  0.00  0.00     0.051 A 
ATOM      5  C   UNL d   1      -0.047  -0.686  -0.015  0.00  0.00     0.061 A 
ATOM      6  C   UNL d   1       1.149   1.404  -0.032  0.00  0.00     0.063 A 
ATOM      7  N   UNL d   1      -1.173  -1.418  -0.005  0.00  0.00    -0.362 N 
ATOM      8  HN  UNL d   1      -1.150  -2.437  -0.000  1.00  0.00     0.165 HD
ATOM      9  C   UNL d   1      -2.407   0.654  -0.010  0.00  0.00     0.058 A 
ATOM     10  C   UNL d   1       2.371   0.724  -0.019  0.00  0.00     0.042 A 
ATOM     11  C   UNL d   1       1.171  -1.355  -0.004  0.00  0.00     0.048 A 
ATOM     12  C   UNL d   1      -2.340  -0.731  -0.002  0.00  0.00     0.118 A 
ATOM     13 CL   UNL d   1       1.202   3.136  -0.043  0.00  0.00    -0.082 Cl
ENDROOT
BRANCH   9  14
ATOM     14  C   UNL d   1      -3.663   1.421   0.034  0.00  0.00    -0.008 A 
ATOM     15  C   UNL d   1      -3.751   2.689  -0.577  0.00  0.00     0.017 A 
ATOM     16  C   UNL d   1      -4.925   3.446  -0.516  0.00  0.00     0.043 A 
ATOM     17  C   UNL d   1      -6.024   2.944   0.163  0.00  0.00     0.116 A 
ATOM     18  C   UNL d   1      -5.975   1.700   0.775  0.00  0.00     0.043 A 
ATOM     19  F   UNL d   1      -7.145   3.673   0.238  0.00  0.00    -0.206 F 
ATOM     20  C   UNL d   1      -4.803   0.942   0.709  0.00  0.00     0.017 A 
ENDBRANCH   9  14
BRANCH   4  21
ATOM     21  C   UNL d   1       3.690  -1.439   0.008  0.00  0.00     0.417 C 
ATOM     22  F   UNL d   1       4.791  -0.638   0.003  0.00  0.00    -0.166 F 
ATOM     23  F   UNL d   1       3.808  -2.234   1.104  0.00  0.00    -0.166 F 
ATOM     24  F   UNL d   1       3.817  -2.258  -1.071  0.00  0.00    -0.166 F 
ENDBRANCH   4  21
TORSDOF 2
