REMARK  4 active torsions:
REMARK  status: ('A' for Active; 'I' for Inactive)
REMARK    1  A    between atoms: C_2  and  C_1 
REMARK       I    between atoms: N_3  and  C_2 
REMARK    2  A    between atoms: C_4  and  N_3 
REMARK    3  A    between atoms: S_5  and  C_6 
REMARK    4  A    between atoms: C_11  and  S_5 
ROOT
ATOM      1  C   UNL d   1      -0.881  -1.213   1.733  0.00  0.00     0.052 A 
ATOM      2  C   UNL d   1      -1.520  -0.005   1.391  0.00  0.00     0.032 A 
ATOM      3  C   UNL d   1      -1.010  -1.708   3.037  0.00  0.00     0.031 A 
ATOM      4  C   UNL d   1      -2.246   0.698   2.365  0.00  0.00     0.021 A 
ATOM      5  C   UNL d   1      -2.356   0.197   3.662  0.00  0.00     0.002 A 
ATOM      6  C   UNL d   1      -1.745  -1.006   3.995  0.00  0.00     0.002 A 
ENDROOT
BRANCH   1   7
ATOM      7  N   UNL d   1      -0.078  -1.879   0.776  0.00  0.00    -0.322 N 
ATOM      8  C   UNL d   1       0.263  -3.228   0.796  0.00  0.00     0.277 C 
ATOM      9  O   UNL d   1      -0.349  -4.050   1.489  0.00  0.00    -0.268 OA
ATOM     10  H   UNL d   1       0.150  -1.338  -0.055  0.00  0.00     0.169 HD
BRANCH   8  11
ATOM     11  C   UNL d   1       1.400  -3.650  -0.164  0.00  0.00     0.269 C 
ATOM     12 CL   UNL d   1       2.604  -2.337  -0.330  0.00  0.00    -0.073 Cl
ATOM     13 CL   UNL d   1       0.686  -4.007  -1.756  0.00  0.00    -0.073 Cl
ATOM     14 CL   UNL d   1       2.225  -5.096   0.483  0.00  0.00    -0.073 Cl
ENDBRANCH   8  11
ENDBRANCH   1   7
BRANCH   2  15
ATOM     15  S   UNL d   1      -1.533   0.654  -0.279  0.00  0.00    -0.088 SA
BRANCH  15  16
ATOM     16  C   UNL d   1      -2.364  -0.631  -1.212  0.00  0.00     0.005 A 
ATOM     17  C   UNL d   1      -3.302  -1.505  -0.650  0.00  0.00     0.019 A 
ATOM     18  C   UNL d   1      -3.854  -2.540  -1.410  0.00  0.00     0.008 A 
ATOM     19  C   UNL d   1      -3.498  -2.704  -2.751  0.00  0.00    -0.062 A 
ATOM     20  C   UNL d   1      -2.602  -1.800  -3.329  0.00  0.00     0.008 A 
ATOM     21  C   UNL d   1      -4.069  -3.843  -3.543  0.00  0.00     0.048 C 
ATOM     22  C   UNL d   1      -2.040  -0.772  -2.565  0.00  0.00     0.019 A 
ENDBRANCH  15  16
ENDBRANCH   2  15
TORSDOF 4
