REMARK  2 active torsions:
REMARK  status: ('A' for Active; 'I' for Inactive)
REMARK    1  A    between atoms: C_4  and  C_2 
REMARK    2  A    between atoms: C_5  and  C_2 
ROOT
ATOM      1  C   UNL d   1       0.059   0.715  -0.209  0.00  0.00     0.093 A 
ATOM      2  C   UNL d   1      -0.221   2.017  -0.972  0.00  0.00     0.043 A 
ATOM      3  C   UNL d   1      -0.007   2.010   0.542  0.00  0.00     0.056 A 
ATOM      4 BR   UNL d   1       1.768  -0.145  -0.320  0.00  0.00    -0.071 Br
ATOM      5 BR   UNL d   1      -1.316  -0.557   0.205  0.00  0.00    -0.071 Br
ENDROOT
BRANCH   2   6
ATOM      6  C   UNL d   1       0.869   2.654  -1.858  0.00  0.00    -0.042 A 
ATOM      7  C   UNL d   1       1.100   2.177  -3.164  0.00  0.00     0.008 A 
ATOM      8  C   UNL d   1       1.977   2.823  -4.039  0.00  0.00     0.001 A 
ATOM      9  C   UNL d   1       2.669   3.953  -3.618  0.00  0.00     0.000 A 
ATOM     10  C   UNL d   1       2.487   4.431  -2.325  0.00  0.00     0.001 A 
ATOM     11  C   UNL d   1       1.593   3.793  -1.460  0.00  0.00     0.008 A 
ENDBRANCH   2   6
BRANCH   2  12
ATOM     12  C   UNL d   1      -1.635   2.332  -1.490  0.00  0.00    -0.042 A 
ATOM     13  C   UNL d   1      -2.300   3.515  -1.119  0.00  0.00     0.008 A 
ATOM     14  C   UNL d   1      -3.529   3.868  -1.682  0.00  0.00     0.001 A 
ATOM     15  C   UNL d   1      -4.123   3.043  -2.633  0.00  0.00     0.000 A 
ATOM     16  C   UNL d   1      -3.493   1.861  -3.015  0.00  0.00     0.001 A 
ATOM     17  C   UNL d   1      -2.265   1.516  -2.448  0.00  0.00     0.008 A 
ENDBRANCH   2  12
TORSDOF 2
