REMARK  4 active torsions:
REMARK  status: ('A' for Active; 'I' for Inactive)
REMARK    1  A    between atoms: S_12  and  C_4 
REMARK    2  A    between atoms: C_11  and  C_5 
REMARK    3  A    between atoms: N_13  and  C_6 
REMARK    4  A    between atoms: O_19  and  C_16 
ROOT
ATOM      1  N   UNL d   1      -0.795   1.155   0.062  0.00  0.00    -0.326 N 
ATOM      2  HN  UNL d   1      -1.291   2.046   0.039  1.00  0.00     0.169 HD
ATOM      3  C   UNL d   1      -0.804  -1.248   0.067  0.00  0.00     0.105 A 
ATOM      4  C   UNL d   1      -1.454  -0.024   0.051  0.00  0.00     0.095 A 
ATOM      5  C   UNL d   1       0.580  -1.215   0.026  0.00  0.00     0.068 A 
ATOM      6  C   UNL d   1       0.535   1.096   0.103  0.00  0.00     0.156 A 
ATOM      7  N   UNL d   1       1.246  -0.032   0.054  0.00  0.00    -0.331 N 
ATOM      8  HN  UNL d   1       2.266  -0.006   0.038  1.00  0.00     0.168 HD
ATOM      9  C   UNL d   1      -1.544  -2.463   0.162  0.00  0.00     0.104 C 
ATOM     10  N   UNL d   1      -2.138  -3.456   0.223  0.00  0.00    -0.191 NA
ENDROOT
BRANCH   4  11
ATOM     11  S   UNL d   1      -3.256   0.030   0.004  0.00  0.00    -0.115 SA
ATOM     12  C   UNL d   1      -3.598   1.802  -0.013  0.00  0.00     0.097 C 
ENDBRANCH   4  11
BRANCH   5  13
ATOM     13  C   UNL d   1       1.469  -2.409  -0.059  0.00  0.00    -0.008 A 
ATOM     14  C   UNL d   1       2.740  -2.408   0.551  0.00  0.00     0.016 A 
ATOM     15  C   UNL d   1       3.603  -3.514   0.470  0.00  0.00     0.037 A 
ATOM     16  C   UNL d   1       3.209  -4.659  -0.216  0.00  0.00     0.068 A 
ATOM     17  C   UNL d   1       1.954  -4.692  -0.810  0.00  0.00     0.037 A 
ATOM     18  C   UNL d   1       1.115  -3.574  -0.762  0.00  0.00     0.016 A 
BRANCH  16  19
ATOM     19  O   UNL d   1       3.941  -5.806  -0.334  0.00  0.00    -0.356 OA
ATOM     20  C   UNL d   1       5.348  -5.622  -0.420  0.00  0.00     0.210 C 
ENDBRANCH  16  19
ENDBRANCH   5  13
BRANCH   6  21
ATOM     21  N   UNL d   1       1.237   2.274   0.205  0.00  0.00    -0.274 NA
ATOM     22  H   UNL d   1       0.715   3.067  -0.133  0.00  0.00     0.127 HD
ATOM     23  H   UNL d   1       2.193   2.167  -0.103  0.00  0.00     0.127 HD
ENDBRANCH   6  21
TORSDOF 4
