REMARK  6 active torsions:
REMARK  status: ('A' for Active; 'I' for Inactive)
REMARK    1  A    between atoms: S_4  and  C_1 
REMARK    2  A    between atoms: S_2  and  C_3 
REMARK    3  A    between atoms: N_9  and  S_2 
REMARK    4  A    between atoms: C_10  and  S_4 
REMARK    5  A    between atoms: C_8  and  C_19 
REMARK    6  A    between atoms: N_11  and  N_9 
ROOT
ATOM      1  C   UNL d   1       0.692   1.229   0.007  0.00  0.00     0.078 A 
ATOM      2  C   UNL d   1       0.349  -1.091   0.004  0.00  0.00     0.129 A 
ATOM      3  C   UNL d   1       1.316  -0.082  -0.007  0.00  0.00    -0.009 A 
ATOM      4  S   UNL d   1      -1.243  -0.453  -0.031  0.00  0.00    -0.086 SA
ATOM      5  C   UNL d   1      -0.684   1.152   0.018  0.00  0.00     0.075 A 
ATOM      6  C   UNL d   1       2.796  -0.313  -0.015  0.00  0.00     0.052 C 
ENDROOT
BRANCH   2   7
ATOM      7  S   UNL d   1       0.430  -2.896   0.026  0.00  0.00     0.283 S 
ATOM      8  O   UNL d   1       1.743  -3.195   0.558  0.00  0.00    -0.198 OA
ATOM      9  O   UNL d   1      -0.772  -3.344   0.696  0.00  0.00    -0.198 OA
BRANCH   7  10
ATOM     10  N   UNL d   1       0.385  -3.392  -1.619  0.00  0.00    -0.223 N 
ATOM     11  H   UNL d   1       0.886  -2.774  -2.258  0.00  0.00     0.200 HD
BRANCH  10  12
ATOM     12  N   UNL d   1       0.412  -4.814  -1.850  0.00  0.00    -0.301 N 
ATOM     13  C   UNL d   1       0.448  -5.208  -3.080  0.00  0.00     0.122 C 
ATOM     14  HN  UNL d   1       0.403  -5.480  -1.077  1.00  0.00     0.186 HD
BRANCH  13  15
ATOM     15  C   UNL d   1       0.453  -6.650  -3.430  0.00  0.00     0.024 A 
ATOM     16  C   UNL d   1      -0.156  -7.620  -2.614  0.00  0.00     0.047 A 
ATOM     17 CL   UNL d   1      -1.081  -7.258  -1.196  0.00  0.00    -0.083 Cl
ATOM     18  C   UNL d   1      -0.095  -8.977  -2.960  0.00  0.00     0.025 A 
ATOM     19  C   UNL d   1       0.554  -9.383  -4.121  0.00  0.00     0.003 A 
ATOM     20  C   UNL d   1       1.136  -8.430  -4.952  0.00  0.00     0.025 A 
ATOM     21  C   UNL d   1       1.086  -7.070  -4.613  0.00  0.00     0.047 A 
ATOM     22 CL   UNL d   1       1.859  -5.973  -5.708  0.00  0.00    -0.083 Cl
ENDBRANCH  13  15
ENDBRANCH  10  12
ENDBRANCH   7  10
ENDBRANCH   2   7
BRANCH   1  23
ATOM     23  S   UNL d   1       1.509   2.773   0.041  0.00  0.00     0.207 S 
ATOM     24  O   UNL d   1       2.829   2.543  -0.512  0.00  0.00    -0.217 OA
ATOM     25  O   UNL d   1       0.574   3.699  -0.569  0.00  0.00    -0.217 OA
BRANCH  23  26
ATOM     26  C   UNL d   1       1.659   3.173   1.761  0.00  0.00     0.064 A 
ATOM     27  C   UNL d   1       2.829   2.840   2.452  0.00  0.00     0.025 A 
ATOM     28  C   UNL d   1       2.932   3.140   3.812  0.00  0.00     0.025 A 
ATOM     29  C   UNL d   1       1.882   3.789   4.463  0.00  0.00     0.034 A 
ATOM     30  C   UNL d   1       0.733   4.157   3.763  0.00  0.00     0.025 A 
ATOM     31 CL   UNL d   1       2.005   4.138   6.143  0.00  0.00    -0.084 Cl
ATOM     32  C   UNL d   1       0.620   3.854   2.404  0.00  0.00     0.025 A 
ENDBRANCH  23  26
ENDBRANCH   1  23
TORSDOF 6
