REMARK  6 active torsions:
REMARK  status: ('A' for Active; 'I' for Inactive)
REMARK    1  A    between atoms: C_16  and  N_1 
REMARK    2  A    between atoms: N_10  and  N_2 
REMARK    3  A    between atoms: N_4  and  C_3 
REMARK    4  A    between atoms: C_12  and  O_22 
REMARK    5  A    between atoms: C_14  and  C_15 
REMARK    6  A    between atoms: O_22  and  C_28 
ROOT
ATOM      1  N   UNL d   1      -0.687  -1.132   0.168  0.00  0.00    -0.308 N 
ATOM      2  N   UNL d   1       0.774   1.159   0.295  0.00  0.00    -0.251 N 
ATOM      3  C   UNL d   1      -1.399   0.077   0.045  0.00  0.00     0.244 C 
ATOM      4  C   UNL d   1       1.522  -0.011   0.092  0.00  0.00     0.257 C 
ATOM      5  C   UNL d   1      -0.525   1.258  -0.365  0.00  0.00     0.255 C 
ATOM      6  C   UNL d   1       0.663  -1.165  -0.417  0.00  0.00     0.236 C 
ATOM      7  O   UNL d   1       2.743  -0.106   0.182  0.00  0.00    -0.270 OA
ATOM      8  O   UNL d   1      -2.613   0.227   0.177  0.00  0.00    -0.271 OA
ENDROOT
BRANCH   1   9
ATOM      9  C   UNL d   1      -1.303  -2.371   0.541  0.00  0.00     0.037 A 
ATOM     10  C   UNL d   1      -2.668  -2.618   0.343  0.00  0.00     0.032 A 
ATOM     11  C   UNL d   1      -3.252  -3.847   0.688  0.00  0.00     0.039 A 
ATOM     12  C   UNL d   1      -2.490  -4.840   1.290  0.00  0.00     0.078 A 
ATOM     13  C   UNL d   1      -1.129  -4.613   1.486  0.00  0.00     0.039 A 
ATOM     14  C   UNL d   1      -0.543  -3.394   1.124  0.00  0.00     0.032 A 
BRANCH  12  15
ATOM     15  O   UNL d   1      -2.924  -6.071   1.668  0.00  0.00    -0.255 OA
BRANCH  15  16
ATOM     16  C   UNL d   1      -4.258  -6.237   2.126  0.00  0.00     0.530 C 
ATOM     17  F   UNL d   1      -4.942  -5.086   2.284  0.00  0.00    -0.144 F 
ATOM     18  F   UNL d   1      -4.930  -7.028   1.262  0.00  0.00    -0.144 F 
ATOM     19  F   UNL d   1      -4.221  -6.863   3.325  0.00  0.00    -0.144 F 
ENDBRANCH  15  16
ENDBRANCH  12  15
ENDBRANCH   1   9
BRANCH   2  20
ATOM     20  N   UNL d   1       1.319   2.360   0.703  0.00  0.00    -0.304 N 
ATOM     21  C   UNL d   1       2.345   2.354   1.495  0.00  0.00     0.144 C 
ATOM     22  HN  UNL d   1       0.919   3.242   0.384  1.00  0.00     0.186 HD
BRANCH  21  23
ATOM     23  C   UNL d   1       2.875   3.606   1.966  0.00  0.00     0.095 A 
ATOM     24  O   UNL d   1       3.934   3.578   2.833  0.00  0.00    -0.287 OA
ATOM     25  C   UNL d   1       4.198   4.875   3.151  0.00  0.00     0.215 A 
ATOM     26  C   UNL d   1       3.342   5.739   2.512  0.00  0.00     0.065 A 
ATOM     27  C   UNL d   1       2.487   4.915   1.739  0.00  0.00     0.043 A 
BRANCH  25  28
ATOM     28  N   UNL d   1       5.269   5.103   4.069  0.00  0.00    -0.090 N 
ATOM     29  O   UNL d   1       5.498   6.288   4.356  0.00  0.00    -0.530 OA
ATOM     30  O   UNL d   1       5.878   4.121   4.505  0.00  0.00    -0.530 OA
ENDBRANCH  25  28
ENDBRANCH  21  23
ENDBRANCH   2  20
TORSDOF 6
