REMARK  3 active torsions:
REMARK  status: ('A' for Active; 'I' for Inactive)
REMARK    1  A    between atoms: N_5  and  C_1 
REMARK       I    between atoms: C_4  and  N_5 
REMARK       I    between atoms: N_9  and  C_4 
REMARK    2  A    between atoms: O_20  and  C_8 
REMARK    3  A    between atoms: C_10  and  N_9 
ROOT
ATOM      1  C   UNL d   1      -2.384   2.364  -0.211  0.00  0.00     0.691 C 
ATOM      2  N   UNL d   1      -1.110   2.127   0.190  0.00  0.00    -0.022 N 
ATOM      3  N   UNL d   1      -3.192   1.290  -0.451  0.00  0.00    -0.189 N 
ATOM      4  N   UNL d   1      -2.794   3.592  -0.327  0.00  0.00    -0.234 N 
ATOM      5  HN  UNL d   1      -3.730   3.866  -0.626  1.00  0.00     0.174 HD
ATOM      6  H   UNL d   1      -0.493   2.915   0.300  0.00  0.00     0.203 HD
ATOM      7  H   UNL d   1      -2.953   0.426   0.023  0.00  0.00     0.184 HD
ATOM      8  H   UNL d   1      -2.050   4.242  -0.076  0.00  0.00     0.174 HD
ENDROOT
BRANCH   2   9
ATOM      9  C   UNL d   1      -0.321   0.991   0.066  0.00  0.00     0.699 A 
ATOM     10  N   UNL d   1      -0.835  -0.227  -0.162  0.00  0.00    -0.170 N 
ATOM     11  C   UNL d   1       0.065  -1.215  -0.270  0.00  0.00     0.157 A 
ATOM     12  HN  UNL d   1      -1.838  -0.390  -0.248  1.00  0.00     0.186 HD
ATOM     13  C   UNL d   1       1.423  -1.081  -0.165  0.00  0.00     0.081 A 
ATOM     14  C   UNL d   1       1.858   0.197   0.073  0.00  0.00     0.026 A 
ATOM     15  N   UNL d   1       0.998   1.230   0.200  0.00  0.00    -0.195 N 
ATOM     16  C   UNL d   1       3.314   0.515   0.220  0.00  0.00     0.069 C 
ATOM     17  HN  UNL d   1       1.339   2.171   0.394  1.00  0.00     0.184 HD
BRANCH  11  18
ATOM     18  O   UNL d   1      -0.465  -2.440  -0.516  0.00  0.00    -0.346 OA
ATOM     19  H   UNL d   1      -1.414  -2.229  -0.565  0.00  0.00     0.219 HD
ENDBRANCH  11  18
ENDBRANCH   2   9
BRANCH   3  20
ATOM     20  C   UNL d   1      -4.454   1.310  -1.075  0.00  0.00     0.087 A 
ATOM     21  C   UNL d   1      -5.476   0.456  -0.631  0.00  0.00     0.146 A 
ATOM     22  C   UNL d   1      -6.752   0.482  -1.191  0.00  0.00     0.086 A 
ATOM     23  F   UNL d   1      -5.230  -0.405   0.369  0.00  0.00    -0.204 F 
ATOM     24  C   UNL d   1      -7.013   1.371  -2.223  0.00  0.00     0.119 A 
ATOM     25  C   UNL d   1      -6.031   2.235  -2.688  0.00  0.00     0.044 A 
ATOM     26  F   UNL d   1      -8.231   1.399  -2.780  0.00  0.00    -0.206 F 
ATOM     27  C   UNL d   1      -4.761   2.212  -2.105  0.00  0.00     0.036 A 
ENDBRANCH   3  20
TORSDOF 3
