REMARK  4 active torsions:
REMARK  status: ('A' for Active; 'I' for Inactive)
REMARK    1  A    between atoms: C_10  and  C_1 
REMARK    2  A    between atoms: C_24  and  N_7 
REMARK    3  A    between atoms: C_8  and  C_11 
REMARK    4  A    between atoms: C_9  and  C_12 
ROOT
ATOM      1  C   UNL d   1       2.913   1.624   0.338  0.00  0.00    -0.094 C 
ATOM      2  C   UNL d   1       3.988   1.623  -0.201  0.00  0.00     0.014 C 
ATOM      3  C   UNL d   1       1.589   1.585   0.971  0.00  0.00     0.260 C 
ENDROOT
BRANCH   3   4
ATOM      4  N   UNL d   1       0.749   0.550   0.396  0.00  0.00    -0.205 N 
ATOM      5  N   UNL d   1       0.738  -0.708   0.874  0.00  0.00    -0.268 N 
ATOM      6  C   UNL d   1      -0.081  -1.296  -0.015  0.00  0.00     0.144 A 
ATOM      7  HN  UNL d   1       1.216  -1.104   1.684  1.00  0.00     0.190 HD
ATOM      8  N   UNL d   1      -0.563  -0.415  -0.953  0.00  0.00    -0.266 N 
ATOM      9  N   UNL d   1      -0.032   0.769  -0.677  0.00  0.00    -0.002 NA
ATOM     10  HN  UNL d   1      -1.206  -0.630  -1.715  1.00  0.00     0.186 HD
BRANCH   6  11
ATOM     11  C   UNL d   1      -0.421  -2.712   0.015  0.00  0.00     0.012 A 
ATOM     12  C   UNL d   1       0.077  -3.528   1.043  0.00  0.00     0.031 A 
ATOM     13  C   UNL d   1      -0.234  -4.893   1.108  0.00  0.00     0.049 A 
ATOM     14  C   UNL d   1      -1.055  -5.445   0.113  0.00  0.00     0.032 A 
ATOM     15  C   UNL d   1      -1.582  -4.646  -0.918  0.00  0.00     0.049 A 
ATOM     16  C   UNL d   1      -1.250  -3.281  -0.961  0.00  0.00     0.031 A 
BRANCH  13  17
ATOM     17  C   UNL d   1       0.285  -5.744   2.243  0.00  0.00     0.417 C 
ATOM     18  F   UNL d   1       1.031  -5.052   3.148  0.00  0.00    -0.166 F 
ATOM     19  F   UNL d   1      -0.723  -6.319   2.955  0.00  0.00    -0.166 F 
ATOM     20  F   UNL d   1       1.072  -6.766   1.811  0.00  0.00    -0.166 F 
ENDBRANCH  13  17
BRANCH  15  21
ATOM     21  C   UNL d   1      -2.515  -5.253  -1.941  0.00  0.00     0.417 C 
ATOM     22  F   UNL d   1      -2.989  -4.356  -2.849  0.00  0.00    -0.166 F 
ATOM     23  F   UNL d   1      -1.925  -6.244  -2.662  0.00  0.00    -0.166 F 
ATOM     24  F   UNL d   1      -3.614  -5.813  -1.362  0.00  0.00    -0.166 F 
ENDBRANCH  15  21
ENDBRANCH   6  11
ENDBRANCH   3   4
TORSDOF 4
