REMARK  4 active torsions:
REMARK  status: ('A' for Active; 'I' for Inactive)
REMARK    1  A    between atoms: C_2  and  C_1 
REMARK       I    between atoms: N_5  and  C_1 
REMARK    2  A    between atoms: C_3  and  C_4 
REMARK    3  A    between atoms: O_9  and  C_3 
REMARK    4  A    between atoms: C_8  and  N_5 
ROOT
ATOM      1  C   UNL d   1       0.902  -0.045  -0.036  0.00  0.00     0.245 C 
ATOM      2  N   UNL d   1       0.169   0.872   0.686  0.00  0.00    -0.324 N 
ATOM      3  O   UNL d   1       0.484  -1.007  -0.668  0.00  0.00    -0.268 OA
ATOM      4  H   UNL d   1       0.673   1.616   1.150  0.00  0.00     0.169 HD
ENDROOT
BRANCH   1   5
ATOM      5  C   UNL d   1       2.360   0.235   0.018  0.00  0.00     0.081 C 
ATOM      6  C   UNL d   1       3.204  -0.628  -0.568  0.00  0.00     0.086 C 
BRANCH   6   7
ATOM      7  C   UNL d   1       4.648  -0.363  -0.508  0.00  0.00     0.165 C 
ATOM      8  O   UNL d   1       5.144   0.615   0.024  0.00  0.00    -0.647 OA
BRANCH   7   9
ATOM      9  O   UNL d   1       5.369  -1.331  -1.104  0.00  0.00    -0.773 OA
ATOM     10  H   UNL d   1       4.854  -2.065  -1.488  0.00  0.00     0.167 HD
ENDBRANCH   7   9
ENDBRANCH   6   7
ENDBRANCH   1   5
BRANCH   2  11
ATOM     11  C   UNL d   1      -1.233   0.890   0.862  0.00  0.00     0.035 A 
ATOM     12  C   UNL d   1      -2.101  -0.055   0.312  0.00  0.00     0.029 A 
ATOM     13  C   UNL d   1      -3.480   0.033   0.532  0.00  0.00     0.002 A 
ATOM     14  C   UNL d   1      -4.004   1.066   1.304  0.00  0.00     0.000 A 
ATOM     15  C   UNL d   1      -3.147   2.012   1.861  0.00  0.00     0.002 A 
ATOM     16  C   UNL d   1      -1.770   1.924   1.642  0.00  0.00     0.029 A 
ENDBRANCH   2  11
TORSDOF 4
