REMARK  8 active torsions:
REMARK  status: ('A' for Active; 'I' for Inactive)
REMARK    1  A    between atoms: C_8  and  C_1 
REMARK    2  A    between atoms: C_6  and  C_2 
REMARK    3  A    between atoms: C_16  and  C_5 
REMARK    4  A    between atoms: C_7  and  C_12 
REMARK    5  A    between atoms: O_13  and  C_8 
REMARK    6  A    between atoms: N_9  and  O_13 
REMARK    7  A    between atoms: C_14  and  C_11 
REMARK    8  A    between atoms: N_26  and  C_11 
ROOT
ATOM      1  C   UNL d   1       1.399  -0.728   0.133  0.00  0.00     0.318 C 
ATOM      2  O   UNL d   1       0.427  -1.466   0.161  0.00  0.00    -0.257 OA
ENDROOT
BRANCH   1   3
ATOM      3  C   UNL d   1       1.308   0.722   0.021  0.00  0.00     0.083 A 
ATOM      4  C   UNL d   1       0.144   1.470  -0.106  0.00  0.00     0.176 A 
ATOM      5  O   UNL d   1       0.461   2.806  -0.132  0.00  0.00    -0.304 OA
ATOM      6  C   UNL d   1       1.811   2.931  -0.013  0.00  0.00     0.087 A 
ATOM      7  C   UNL d   1       2.373   1.676   0.077  0.00  0.00     0.058 A 
BRANCH   4   8
ATOM      8  C   UNL d   1      -1.312   1.171  -0.199  0.00  0.00     0.440 C 
ATOM      9  F   UNL d   1      -1.614  -0.138  -0.357  0.00  0.00    -0.164 F 
ATOM     10  F   UNL d   1      -1.978   1.595   0.908  0.00  0.00    -0.164 F 
ATOM     11  F   UNL d   1      -1.877   1.814  -1.257  0.00  0.00    -0.164 F 
ENDBRANCH   4   8
BRANCH   6  12
ATOM     12  C   UNL d   1       2.341   4.291  -0.012  0.00  0.00    -0.002 A 
ATOM     13  C   UNL d   1       1.607   5.355  -0.560  0.00  0.00     0.016 A 
ATOM     14  C   UNL d   1       2.147   6.644  -0.621  0.00  0.00     0.024 A 
ATOM     15  C   UNL d   1       3.424   6.883  -0.123  0.00  0.00     0.034 A 
ATOM     16  C   UNL d   1       4.157   5.849   0.453  0.00  0.00     0.024 A 
ATOM     17 CL   UNL d   1       4.105   8.459  -0.229  0.00  0.00    -0.084 Cl
ATOM     18  C   UNL d   1       3.616   4.559   0.509  0.00  0.00     0.016 A 
ENDBRANCH   6  12
ENDBRANCH   1   3
BRANCH   1  19
ATOM     19  O   UNL d   1       2.706  -1.154   0.223  0.00  0.00    -0.193 OA
BRANCH  19  20
ATOM     20  N   UNL d   1       2.791  -2.156   1.212  0.00  0.00    -0.246 N 
ATOM     21  C   UNL d   1       3.937  -2.766   1.186  0.00  0.00     0.109 C 
ATOM     22  HN  UNL d   1       2.041  -2.376   1.868  1.00  0.00     0.196 HD
BRANCH  21  23
ATOM     23  C   UNL d   1       4.238  -3.716   2.300  0.00  0.00     0.004 A 
ATOM     24  C   UNL d   1       5.561  -3.881   2.734  0.00  0.00     0.030 A 
ATOM     25  C   UNL d   1       5.857  -4.738   3.806  0.00  0.00     0.048 A 
ATOM     26  C   UNL d   1       4.807  -5.426   4.435  0.00  0.00     0.016 A 
ATOM     27  C   UNL d   1       3.489  -5.256   4.008  0.00  0.00     0.002 A 
ATOM     28  C   UNL d   1       3.202  -4.399   2.945  0.00  0.00     0.015 A 
BRANCH  25  29
ATOM     29  C   UNL d   1       7.275  -4.915   4.292  0.00  0.00     0.417 C 
ATOM     30  F   UNL d   1       8.185  -4.188   3.585  0.00  0.00    -0.166 F 
ATOM     31  F   UNL d   1       7.433  -4.549   5.593  0.00  0.00    -0.166 F 
ATOM     32  F   UNL d   1       7.692  -6.209   4.211  0.00  0.00    -0.166 F 
ENDBRANCH  25  29
ENDBRANCH  21  23
BRANCH  21  33
ATOM     33  N   UNL d   1       4.884  -2.586   0.203  0.00  0.00    -0.286 NA
ATOM     34  H   UNL d   1       4.487  -2.191  -0.645  0.00  0.00     0.125 HD
ATOM     35  H   UNL d   1       5.450  -3.404  -0.002  0.00  0.00     0.125 HD
ENDBRANCH  21  33
ENDBRANCH  19  20
ENDBRANCH   1  19
TORSDOF 8
