REMARK  3 active torsions:
REMARK  status: ('A' for Active; 'I' for Inactive)
REMARK    1  A    between atoms: C_9  and  N_1 
REMARK    2  A    between atoms: C_8  and  C_4 
REMARK    3  A    between atoms: O_11  and  C_8 
ROOT
ATOM      1  N   UNL d   1      -0.064  -1.124   0.011  0.00  0.00    -0.196 N 
ATOM      2  N   UNL d   1       1.215  -0.706   0.175  0.00  0.00    -0.272 N 
ATOM      3  HN  UNL d   1       2.054  -1.268   0.321  1.00  0.00     0.189 HD
ATOM      4  C   UNL d   1       1.109   0.634   0.099  0.00  0.00     0.149 A 
ATOM      5  N   UNL d   1      -0.995  -0.146  -0.140  0.00  0.00    -0.281 N 
ATOM      6  HN  UNL d   1      -2.000  -0.237  -0.282  1.00  0.00     0.189 HD
ATOM      7  C   UNL d   1      -0.258   0.970  -0.056  0.00  0.00     0.058 A 
ATOM      8  C   UNL d   1      -0.880   2.312  -0.135  0.00  0.00     0.072 C 
ENDROOT
BRANCH   1   9
ATOM      9  C   UNL d   1      -0.397  -2.503  -0.005  0.00  0.00     0.074 A 
ATOM     10  C   UNL d   1       0.583  -3.460   0.299  0.00  0.00     0.033 A 
ATOM     11  C   UNL d   1       0.263  -4.819   0.285  0.00  0.00     0.002 A 
ATOM     12  C   UNL d   1      -1.029  -5.227  -0.047  0.00  0.00     0.000 A 
ATOM     13  C   UNL d   1      -2.006  -4.279  -0.356  0.00  0.00     0.002 A 
ATOM     14  C   UNL d   1      -1.697  -2.917  -0.328  0.00  0.00     0.033 A 
ENDBRANCH   1   9
BRANCH   4  15
ATOM     15  C   UNL d   1       2.251   1.545   0.160  0.00  0.00     0.313 C 
ATOM     16  O   UNL d   1       2.138   2.765   0.100  0.00  0.00    -0.258 OA
BRANCH  15  17
ATOM     17  O   UNL d   1       3.449   0.893   0.260  0.00  0.00    -0.321 OA
ATOM     18  C   UNL d   1       4.588   1.750   0.243  0.00  0.00     0.213 C 
ENDBRANCH  15  17
ENDBRANCH   4  15
TORSDOF 3
