REMARK  2 active torsions:
REMARK  status: ('A' for Active; 'I' for Inactive)
REMARK    1  A    between atoms: O_13  and  C_10 
REMARK    2  A    between atoms: O_14  and  C_11 
ROOT
ATOM      1  C   UNL d   1      -0.074  -0.492  -0.012  0.00  0.00     0.061 A 
ATOM      2  C   UNL d   1      -0.482   0.840   0.003  0.00  0.00     0.051 A 
ATOM      3  C   UNL d   1       1.375  -0.759  -0.021  0.00  0.00     0.258 A 
ATOM      4  C   UNL d   1      -1.000  -1.542  -0.018  0.00  0.00     0.059 A 
ATOM      5  N   UNL d   1       0.431   1.911   0.008  0.00  0.00    -0.351 N 
ATOM      6  HN  UNL d   1       0.111   2.879   0.018  1.00  0.00     0.166 HD
ATOM      7  N   UNL d   1       2.180   0.350  -0.015  0.00  0.00    -0.319 N 
ATOM      8  C   UNL d   1      -1.848   1.107   0.017  0.00  0.00     0.070 A 
ATOM      9  C   UNL d   1       1.687   1.622  -0.002  0.00  0.00     0.183 A 
ATOM     10  C   UNL d   1      -2.374  -1.271  -0.004  0.00  0.00     0.102 A 
ATOM     11  C   UNL d   1      -2.802   0.071   0.015  0.00  0.00     0.103 A 
ATOM     12  O   UNL d   1       1.828  -1.897  -0.031  0.00  0.00    -0.267 OA
ATOM     13  H   UNL d   1       3.176   0.181  -0.020  0.00  0.00     0.169 HD
ENDROOT
BRANCH  10  14
ATOM     14  O   UNL d   1      -3.323  -2.257  -0.005  0.00  0.00    -0.353 OA
ATOM     15  C   UNL d   1      -2.898  -3.613  -0.026  0.00  0.00     0.210 C 
ENDBRANCH  10  14
BRANCH  11  16
ATOM     16  O   UNL d   1      -4.085   0.558   0.034  0.00  0.00    -0.353 OA
ATOM     17  C   UNL d   1      -5.170  -0.356   0.040  0.00  0.00     0.210 C 
ENDBRANCH  11  16
TORSDOF 2
