REMARK  2 active torsions:
REMARK  status: ('A' for Active; 'I' for Inactive)
REMARK    1  A    between atoms: C_13  and  C_7 
REMARK    2  A    between atoms: N_15  and  C_8 
ROOT
ATOM      1  C   UNL d   1      -5.319  -1.267  -1.144  0.00  0.00     0.071 A 
ATOM      2  C   UNL d   1      -6.152  -1.802  -0.132  0.00  0.00     0.050 A 
ATOM      3  C   UNL d   1      -5.839  -0.527  -2.261  0.00  0.00     0.102 C 
ATOM      4  N   UNL d   1      -6.229   0.071  -3.178  0.00  0.00    -0.191 NA
ATOM      5  C   UNL d   1      -5.488  -2.425   0.945  0.00  0.00     0.031 A 
ATOM      6  C   UNL d   1      -3.912  -1.367  -1.070  0.00  0.00     0.036 A 
ATOM      7  C   UNL d   1      -3.292  -1.974   0.022  0.00  0.00    -0.034 A 
ATOM      8  C   UNL d   1      -4.091  -2.505   1.030  0.00  0.00     0.014 A 
ENDROOT
BRANCH   2   9
ATOM      9  N   UNL d   1      -7.541  -1.701  -0.136  0.00  0.00    -0.388 N 
ATOM     10  C   UNL d   1      -8.312  -1.693   1.105  0.00  0.00     0.149 C 
ATOM     11  C   UNL d   1      -8.322  -1.957  -1.347  0.00  0.00     0.149 C 
ENDBRANCH   2   9
BRANCH   7  12
ATOM     12  C   UNL d   1      -1.834  -2.031   0.122  0.00  0.00     0.029 C 
ATOM     13  C   UNL d   1      -1.063  -2.996  -0.402  0.00  0.00     0.045 A 
ATOM     14  C   UNL d   1      -1.527  -4.189  -1.200  0.00  0.00     0.257 A 
ATOM     15  C   UNL d   1       0.400  -3.088  -0.308  0.00  0.00     0.006 A 
ATOM     16  N   UNL d   1      -0.367  -4.884  -1.509  0.00  0.00    -0.322 N 
ATOM     17  O   UNL d   1      -2.658  -4.495  -1.524  0.00  0.00    -0.267 OA
ATOM     18  C   UNL d   1       0.758  -4.251  -0.994  0.00  0.00     0.046 A 
ATOM     19  H   UNL d   1      -0.373  -5.735  -2.044  0.00  0.00     0.169 HD
ATOM     20  C   UNL d   1       2.069  -4.673  -1.113  0.00  0.00     0.030 A 
ATOM     21  C   UNL d   1       3.053  -3.884  -0.514  0.00  0.00     0.002 A 
ATOM     22  C   UNL d   1       2.707  -2.710   0.181  0.00  0.00     0.001 A 
ATOM     23  C   UNL d   1       1.371  -2.302   0.289  0.00  0.00     0.015 A 
ENDBRANCH   7  12
TORSDOF 2
