REMARK  5 active torsions:
REMARK  status: ('A' for Active; 'I' for Inactive)
REMARK    1  A    between atoms: C_8  and  C_3 
REMARK    2  A    between atoms: C_9  and  N_4 
REMARK    3  A    between atoms: C_10  and  C_9 
REMARK       I    between atoms: N_13  and  C_10 
REMARK       I    between atoms: C_11  and  N_12 
REMARK    4  A    between atoms: C_14  and  C_11 
REMARK    5  A    between atoms: N_12  and  N_13 
ROOT
ATOM      1  C   UNL d   1      -2.474  -0.042  -0.095  0.00  0.00     0.271 C 
ENDROOT
BRANCH   1   2
ATOM      2  N   UNL d   1      -1.043   0.090   0.067  0.00  0.00    -0.207 N 
ATOM      3  N   UNL d   1      -0.544   1.276   0.474  0.00  0.00    -0.268 N 
ATOM      4  C   UNL d   1       0.712   1.200   0.009  0.00  0.00     0.144 A 
ATOM      5  HN  UNL d   1      -0.998   2.027   0.994  1.00  0.00     0.190 HD
ATOM      6  N   UNL d   1       0.967  -0.004  -0.604  0.00  0.00    -0.266 N 
ATOM      7  N   UNL d   1      -0.167  -0.699  -0.582  0.00  0.00    -0.002 NA
ATOM      8  HN  UNL d   1       1.856  -0.308  -1.000  1.00  0.00     0.186 HD
BRANCH   4   9
ATOM      9  C   UNL d   1       1.658   2.311   0.048  0.00  0.00     0.014 A 
ATOM     10  C   UNL d   1       1.288   3.535   0.633  0.00  0.00     0.039 A 
ATOM     11  C   UNL d   1       2.162   4.622   0.615  0.00  0.00     0.036 A 
ATOM     12 CL   UNL d   1       1.677   6.117   1.316  0.00  0.00    -0.084 Cl
ATOM     13  C   UNL d   1       3.416   4.512   0.025  0.00  0.00     0.047 A 
ATOM     14  C   UNL d   1       3.791   3.300  -0.548  0.00  0.00     0.036 A 
ATOM     15  C   UNL d   1       2.925   2.202  -0.540  0.00  0.00     0.039 A 
ATOM     16 CL   UNL d   1       5.337   3.159  -1.292  0.00  0.00    -0.084 Cl
ENDBRANCH   4   9
ENDBRANCH   1   2
BRANCH   1  17
ATOM     17  C   UNL d   1      -3.094  -1.408  -0.036  0.00  0.00     0.257 C 
ATOM     18  N   UNL d   1      -2.326  -2.535   0.122  0.00  0.00    -0.266 N 
ATOM     19  H   UNL d   1      -1.306  -2.564   0.068  0.00  0.00     0.190 HD
ATOM     20  O   UNL d   1      -4.325  -1.516  -0.150  0.00  0.00    -0.270 OA
BRANCH  18  21
ATOM     21  N   UNL d   1      -3.009  -3.764  -0.016  0.00  0.00    -0.263 N 
ATOM     22  C   UNL d   1      -2.567  -4.869   0.684  0.00  0.00     0.270 C 
ATOM     23  O   UNL d   1      -1.507  -4.904   1.300  0.00  0.00    -0.266 OA
ATOM     24  H   UNL d   1      -4.003  -3.662  -0.228  0.00  0.00     0.190 HD
BRANCH  22  25
ATOM     25  C   UNL d   1      -3.489  -6.046   0.674  0.00  0.00     0.033 A 
ATOM     26  C   UNL d   1      -4.395  -6.269  -0.374  0.00  0.00     0.019 A 
ATOM     27  C   UNL d   1      -5.241  -7.384  -0.349  0.00  0.00     0.025 A 
ATOM     28  C   UNL d   1      -5.178  -8.280   0.717  0.00  0.00     0.034 A 
ATOM     29  C   UNL d   1      -4.276  -8.074   1.758  0.00  0.00     0.025 A 
ATOM     30 CL   UNL d   1      -6.217  -9.651   0.740  0.00  0.00    -0.084 Cl
ATOM     31  C   UNL d   1      -3.427  -6.960   1.735  0.00  0.00     0.019 A 
ENDBRANCH  22  25
ENDBRANCH  18  21
ENDBRANCH   1  17
TORSDOF 5
