REMARK  4 active torsions:
REMARK  status: ('A' for Active; 'I' for Inactive)
REMARK    1  A    between atoms: C_4  and  C_1 
REMARK    2  A    between atoms: C_2  and  C_3 
REMARK    3  A    between atoms: O_13  and  C_4 
REMARK    4  A    between atoms: C_18  and  O_13 
ROOT
ATOM      1  C   UNL d   1      -0.762   1.212  -0.004  0.00  0.00     0.120 C 
ATOM      2  C   UNL d   1       0.413   0.943   0.598  0.00  0.00     0.042 C 
ATOM      3  C   UNL d   1      -1.500   2.427   0.221  0.00  0.00     0.105 C 
ATOM      4  N   UNL d   1      -2.100   3.405   0.407  0.00  0.00    -0.191 NA
ENDROOT
BRANCH   1   5
ATOM      5  C   UNL d   1      -1.244   0.218  -0.992  0.00  0.00     0.303 C 
ATOM      6  O   UNL d   1      -0.678  -0.833  -1.273  0.00  0.00    -0.258 OA
BRANCH   5   7
ATOM      7  O   UNL d   1      -2.359   0.685  -1.611  0.00  0.00    -0.317 OA
BRANCH   7   8
ATOM      8  C   UNL d   1      -2.699   0.086  -2.870  0.00  0.00     0.174 C 
ATOM      9  C   UNL d   1      -1.910   0.798  -3.954  0.00  0.00     0.034 C 
ENDBRANCH   7   8
ENDBRANCH   5   7
ENDBRANCH   1   5
BRANCH   2  10
ATOM     10  C   UNL d   1       1.117   1.844   1.542  0.00  0.00    -0.012 A 
ATOM     11  C   UNL d   1       0.735   1.881   2.918  0.00  0.00    -0.015 A 
ATOM     12  C   UNL d   1       1.475   2.701   3.800  0.00  0.00    -0.024 A 
ATOM     13  C   UNL d   1      -0.345   1.148   3.473  0.00  0.00     0.013 A 
ATOM     14  C   UNL d   1       1.127   2.782   5.159  0.00  0.00     0.012 A 
ATOM     15  C   UNL d   1       2.568   3.433   3.323  0.00  0.00     0.024 A 
ATOM     16  C   UNL d   1       0.052   2.061   5.669  0.00  0.00     0.001 A 
ATOM     17  C   UNL d   1      -0.685   1.242   4.826  0.00  0.00     0.001 A 
ATOM     18  C   UNL d   1       2.944   3.408   1.975  0.00  0.00    -0.024 A 
ATOM     19  C   UNL d   1       2.204   2.635   1.053  0.00  0.00    -0.015 A 
ATOM     20  C   UNL d   1       4.058   4.151   1.549  0.00  0.00     0.012 A 
ATOM     21  C   UNL d   1       2.598   2.705  -0.308  0.00  0.00     0.013 A 
ATOM     22  C   UNL d   1       3.695   3.465  -0.723  0.00  0.00     0.001 A 
ATOM     23  C   UNL d   1       4.438   4.172   0.210  0.00  0.00     0.001 A 
ENDBRANCH   2  10
TORSDOF 4
