REMARK  6 active torsions:
REMARK  status: ('A' for Active; 'I' for Inactive)
REMARK    1  A    between atoms: C_11  and  N_1 
REMARK    2  A    between atoms: S_2  and  C_14 
REMARK    3  A    between atoms: N_5  and  S_2 
REMARK    4  A    between atoms: C_6  and  N_5 
REMARK    5  A    between atoms: N_20  and  C_11 
REMARK    6  A    between atoms: C_23  and  N_20 
ROOT
ATOM      1  C   UNL d   1       8.027   2.231  -0.594  0.00  0.00     0.075 A 
ATOM      2  C   UNL d   1       7.455   1.198  -1.337  0.00  0.00     0.027 A 
ATOM      3  C   UNL d   1       7.258   2.931   0.335  0.00  0.00     0.027 A 
ATOM      4  C   UNL d   1       5.300   1.575  -0.246  0.00  0.00     0.029 A 
ATOM      5  C   UNL d   1       5.909   2.594   0.505  0.00  0.00     0.031 A 
ATOM      6  C   UNL d   1       6.099   0.881  -1.165  0.00  0.00     0.031 A 
ENDROOT
BRANCH   4   7
ATOM      7  N   UNL d   1       3.981   1.214   0.043  0.00  0.00    -0.373 N 
ATOM      8  H   UNL d   1       3.509   1.854   0.670  0.00  0.00     0.161 HD
BRANCH   7   9
ATOM      9  C   UNL d   1       3.108   0.748  -1.024  0.00  0.00     0.258 C 
BRANCH   9  10
ATOM     10  N   UNL d   1       1.801   0.538  -0.458  0.00  0.00    -0.263 N 
ATOM     11  C   UNL d   1       1.411  -0.647   0.097  0.00  0.00     0.263 A 
ATOM     12  C   UNL d   1       0.003  -0.495   0.459  0.00  0.00     0.048 A 
ATOM     13  O   UNL d   1       2.031  -1.682   0.246  0.00  0.00    -0.267 OA
ATOM     14  C   UNL d   1      -0.864  -1.390   1.059  0.00  0.00     0.018 A 
ATOM     15  C   UNL d   1      -0.401   0.764   0.052  0.00  0.00     0.048 A 
ATOM     16  C   UNL d   1      -2.187  -0.976   1.239  0.00  0.00     0.001 A 
ATOM     17  C   UNL d   1      -2.605   0.302   0.817  0.00  0.00     0.001 A 
ATOM     18  C   UNL d   1      -1.705   1.191   0.212  0.00  0.00     0.018 A 
ATOM     19  C   UNL d   1       0.755   1.421  -0.556  0.00  0.00     0.263 A 
ATOM     20  O   UNL d   1       0.725   2.530  -1.064  0.00  0.00    -0.267 OA
ENDBRANCH   9  10
ENDBRANCH   7   9
ENDBRANCH   4   7
BRANCH   1  21
ATOM     21  S   UNL d   1       9.759   2.573  -0.753  0.00  0.00     0.247 S 
ATOM     22  O   UNL d   1      10.198   3.248   0.452  0.00  0.00    -0.205 OA
ATOM     23  O   UNL d   1      10.440   1.379  -1.209  0.00  0.00    -0.205 OA
BRANCH  21  24
ATOM     24  N   UNL d   1       9.807   3.751  -1.963  0.00  0.00    -0.165 NA
ATOM     25  H   UNL d   1      10.444   4.481  -1.651  0.00  0.00     0.147 HD
BRANCH  24  26
ATOM     26  C   UNL d   1       9.954   3.314  -3.272  0.00  0.00     0.117 A 
ATOM     27  N   UNL d   1       8.903   3.097  -4.064  0.00  0.00    -0.249 N 
ATOM     28  O   UNL d   1       9.430   2.692  -5.279  0.00  0.00    -0.241 OA
ATOM     29  HN  UNL d   1       7.918   3.207  -3.825  1.00  0.00     0.196 HD
ATOM     30  C   UNL d   1      10.787   2.666  -5.196  0.00  0.00     0.075 A 
ATOM     31  C   UNL d   1      11.171   3.084  -3.945  0.00  0.00     0.079 A 
ATOM     32  C   UNL d   1      11.505   2.201  -6.395  0.00  0.00     0.079 C 
ENDBRANCH  24  26
ENDBRANCH  21  24
ENDBRANCH   1  21
TORSDOF 6
