REMARK  2 active torsions:
REMARK  status: ('A' for Active; 'I' for Inactive)
REMARK    1  A    between atoms: C_13  and  C_2 
REMARK    2  A    between atoms: O_15  and  C_7 
ROOT
ATOM      1  N   UNL d   1       2.020   4.575  -0.072  0.00  0.00    -0.197 NA
ATOM      2  C   UNL d   1       2.705   3.639  -0.046  0.00  0.00     0.063 C 
ATOM      3  C   UNL d   1       3.623   2.492  -0.009  0.00  0.00     0.166 C 
ENDROOT
BRANCH   3   4
ATOM      4  C   UNL d   1       3.109   1.048   0.007  0.00  0.00    -0.001 A 
ATOM      5  C   UNL d   1       1.729   0.621   0.024  0.00  0.00    -0.016 A 
ATOM      6  C   UNL d   1       1.459  -0.778   0.002  0.00  0.00    -0.024 A 
ATOM      7  C   UNL d   1       0.576   1.451   0.063  0.00  0.00     0.014 A 
ATOM      8  C   UNL d   1       0.144  -1.275  -0.003  0.00  0.00     0.031 A 
ATOM      9  C   UNL d   1       2.502  -1.705  -0.014  0.00  0.00     0.015 A 
ATOM     10  C   UNL d   1      -0.943  -0.414   0.017  0.00  0.00     0.011 A 
ATOM     11  C   UNL d   1      -0.733   0.950   0.054  0.00  0.00     0.020 A 
ATOM     12 BR   UNL d   1      -2.702  -1.100   0.001  0.00  0.00    -0.051 Br
ATOM     13  C   UNL d   1       3.828  -1.296  -0.012  0.00  0.00     0.038 A 
ATOM     14  C   UNL d   1       4.141   0.060  -0.004  0.00  0.00     0.076 A 
BRANCH  14  15
ATOM     15  O   UNL d   1       5.436   0.530  -0.005  0.00  0.00    -0.355 OA
ATOM     16  C   UNL d   1       6.488  -0.433  -0.013  0.00  0.00     0.210 C 
ENDBRANCH  14  15
ENDBRANCH   3   4
TORSDOF 2
