REMARK  4 active torsions:
REMARK  status: ('A' for Active; 'I' for Inactive)
REMARK    1  A    between atoms: N_6  and  C_1 
REMARK    2  A    between atoms: N_2  and  N_6 
REMARK    3  A    between atoms: N_7  and  C_5 
REMARK    4  A    between atoms: C_12  and  C_11 
ROOT
ATOM      1  N   UNL d   1      -1.062  -3.156  -1.199  0.00  0.00    -0.309 N 
ATOM      2  HN  UNL d   1      -1.517  -4.068  -1.148  1.00  0.00     0.186 HD
ATOM      3  C   UNL d   1      -1.729  -2.057  -1.372  0.00  0.00     0.118 C 
ENDROOT
BRANCH   3   4
ATOM      4  C   UNL d   1      -3.200  -2.065  -1.496  0.00  0.00    -0.019 A 
ATOM      5  C   UNL d   1      -3.915  -3.259  -1.438  0.00  0.00     0.015 A 
ATOM      6  C   UNL d   1      -5.314  -3.245  -1.526  0.00  0.00     0.030 A 
ATOM      7  C   UNL d   1      -6.039  -2.050  -1.669  0.00  0.00     0.029 A 
ATOM      8  C   UNL d   1      -5.281  -0.865  -1.726  0.00  0.00     0.030 A 
ATOM      9  C   UNL d   1      -3.881  -0.862  -1.649  0.00  0.00     0.015 A 
BRANCH   7  10
ATOM     10  N   UNL d   1      -7.432  -2.008  -1.669  0.00  0.00    -0.390 N 
ATOM     11  C   UNL d   1      -8.121  -1.092  -2.579  0.00  0.00     0.149 C 
ATOM     12  C   UNL d   1      -8.209  -3.193  -1.309  0.00  0.00     0.149 C 
ENDBRANCH   7  10
ENDBRANCH   3   4
BRANCH   1  13
ATOM     13  N   UNL d   1       0.289  -3.007  -1.090  0.00  0.00    -0.277 N 
ATOM     14  H   UNL d   1       0.718  -2.088  -1.145  0.00  0.00     0.189 HD
BRANCH  13  15
ATOM     15  C   UNL d   1       1.097  -4.095  -0.893  0.00  0.00     0.184 C 
ATOM     16  S   UNL d   1       2.742  -3.972  -0.748  0.00  0.00    -0.040 SA
ATOM     17  N   UNL d   1       0.455  -5.286  -0.825  0.00  0.00    -0.375 N 
ATOM     18  H   UNL d   1       0.948  -6.152  -0.672  0.00  0.00     0.158 HD
ATOM     19  H   UNL d   1      -0.555  -5.266  -0.909  0.00  0.00     0.158 HD
ENDBRANCH  13  15
ENDBRANCH   1  13
TORSDOF 4
