REMARK  3 active torsions:
REMARK  status: ('A' for Active; 'I' for Inactive)
REMARK    1  A    between atoms: C_12  and  C_2 
REMARK    2  A    between atoms: N_13  and  C_10 
REMARK    3  A    between atoms: O_14  and  C_12 
ROOT
ATOM      1  C   UNL d   1      -0.049  -0.682   0.057  0.00  0.00     0.092 A 
ATOM      2  C   UNL d   1       1.228   1.431   0.051  0.00  0.00    -0.016 A 
ATOM      3  O   UNL d   1       1.155  -1.412   0.076  0.00  0.00    -0.275 OA
ATOM      4  C   UNL d   1       2.377  -0.766   0.028  0.00  0.00     0.288 A 
ATOM      5  C   UNL d   1      -0.056   0.713   0.031  0.00  0.00     0.007 A 
ATOM      6  C   UNL d   1       2.356   0.704   0.039  0.00  0.00     0.092 A 
ATOM      7  C   UNL d   1      -1.227  -1.436   0.033  0.00  0.00     0.061 A 
ATOM      8  C   UNL d   1      -1.301   1.346  -0.038  0.00  0.00     0.017 A 
ATOM      9  O   UNL d   1       3.440  -1.373  -0.023  0.00  0.00    -0.260 OA
ATOM     10  C   UNL d   1      -2.463  -0.795   0.011  0.00  0.00     0.008 A 
ATOM     11  C   UNL d   1      -2.487   0.598  -0.074  0.00  0.00     0.024 A 
ENDROOT
BRANCH   2  12
ATOM     12  C   UNL d   1       1.270   2.935   0.044  0.00  0.00     0.206 C 
BRANCH  12  13
ATOM     13  O   UNL d   1       0.662   3.429   1.236  0.00  0.00    -0.391 OA
ATOM     14  C   UNL d   1       0.613   4.850   1.253  0.00  0.00     0.201 C 
ENDBRANCH  12  13
ENDBRANCH   2  12
BRANCH  10  15
ATOM     15  N   UNL d   1      -3.640  -1.530  -0.167  0.00  0.00    -0.303 NA
ATOM     16  H   UNL d   1      -3.598  -2.472   0.209  0.00  0.00     0.124 HD
ATOM     17  H   UNL d   1      -4.481  -1.040   0.120  0.00  0.00     0.124 HD
ENDBRANCH  10  15
TORSDOF 3
