REMARK  0 active torsions:
REMARK  status: ('A' for Active; 'I' for Inactive)
ROOT
ATOM      1  C   UNL d   1       0.911   0.526   0.000  0.00  0.00     0.098 A 
ATOM      2  C   UNL d   1       1.735  -0.673  -0.000  0.00  0.00     0.086 A 
ATOM      3  C   UNL d   1      -0.512   0.460   0.000  0.00  0.00     0.024 A 
ATOM      4  N   UNL d   1       1.726   1.590   0.000  0.00  0.00    -0.239 N 
ATOM      5  HN  UNL d   1       1.454   2.573   0.000  1.00  0.00     0.197 HD
ATOM      6  O   UNL d   1       3.014   1.081   0.000  0.00  0.00    -0.156 OA
ATOM      7  N   UNL d   1       3.020  -0.303  -0.000  0.00  0.00    -0.240 N 
ATOM      8  HN  UNL d   1       3.836  -0.914  -0.000  1.00  0.00     0.197 HD
ATOM      9  C   UNL d   1       1.181  -1.963  -0.000  0.00  0.00     0.036 A 
ATOM     10  C   UNL d   1      -1.060  -0.843   0.000  0.00  0.00     0.060 A 
ATOM     11  C   UNL d   1      -0.231  -1.988  -0.000  0.00  0.00     0.034 A 
ATOM     12  N   UNL d   1      -2.391  -0.975   0.000  0.00  0.00    -0.300 N 
ATOM     13  HN  UNL d   1      -2.800  -1.910   0.000  1.00  0.00     0.187 HD
ATOM     14  N   UNL d   1      -3.225   0.130   0.000  0.00  0.00    -0.311 N 
ATOM     15  HN  UNL d   1      -4.237   0.003   0.000  1.00  0.00     0.186 HD
ATOM     16  C   UNL d   1      -1.347   1.588  -0.000  0.00  0.00     0.034 A 
ATOM     17  C   UNL d   1      -2.705   1.370  -0.000  0.00  0.00     0.108 A 
ENDROOT
TORSDOF 0
