REMARK  2 active torsions:
REMARK  status: ('A' for Active; 'I' for Inactive)
REMARK    1  A    between atoms: N_17  and  C_7 
REMARK    2  A    between atoms: C_10  and  N_17 
ROOT
ATOM      1  S   UNL d   1      -1.126  -1.594   0.076  0.00  0.00     0.270 S 
ATOM      2  C   UNL d   1      -2.398  -0.527   0.520  0.00  0.00     0.146 C 
ATOM      3  N   UNL d   1      -1.630  -1.974  -1.493  0.00  0.00    -0.275 N 
ATOM      4  C   UNL d   1      -2.607   0.611  -0.386  0.00  0.00     0.209 C 
ATOM      5  C   UNL d   1      -2.356   0.386  -1.842  0.00  0.00     0.043 A 
ATOM      6  C   UNL d   1      -1.909  -0.851  -2.361  0.00  0.00     0.059 A 
ATOM      7  C   UNL d   1      -3.319  -0.874   1.434  0.00  0.00     0.119 C 
ATOM      8  O   UNL d   1       0.112  -0.845  -0.032  0.00  0.00    -0.200 OA
ATOM      9  O   UNL d   1      -1.171  -2.802   0.873  0.00  0.00    -0.200 OA
ATOM     10  O   UNL d   1      -3.067   1.674   0.027  0.00  0.00    -0.286 OA
ATOM     11  C   UNL d   1      -1.375  -3.326  -1.998  0.00  0.00     0.170 C 
ATOM     12  C   UNL d   1      -2.682   1.441  -2.712  0.00  0.00     0.018 A 
ATOM     13  C   UNL d   1      -1.842  -1.001  -3.754  0.00  0.00     0.031 A 
ATOM     14  C   UNL d   1      -2.598   1.270  -4.092  0.00  0.00     0.001 A 
ATOM     15  C   UNL d   1      -2.183   0.050  -4.612  0.00  0.00     0.002 A 
ENDROOT
BRANCH   7  16
ATOM     16  N   UNL d   1      -4.488  -0.207   1.726  0.00  0.00    -0.351 N 
ATOM     17  H   UNL d   1      -4.509   0.772   1.443  0.00  0.00     0.166 HD
BRANCH  16  18
ATOM     18  C   UNL d   1      -5.448  -0.591   2.680  0.00  0.00     0.108 A 
ATOM     19  N   UNL d   1      -5.244  -1.669   3.458  0.00  0.00    -0.332 N 
ATOM     20  C   UNL d   1      -6.227  -2.018   4.305  0.00  0.00     0.078 A 
ATOM     21  HN  UNL d   1      -4.375  -2.201   3.407  1.00  0.00     0.168 HD
ATOM     22  C   UNL d   1      -6.000  -3.194   5.206  0.00  0.00     0.089 C 
ATOM     23  N   UNL d   1      -7.409  -1.385   4.415  0.00  0.00    -0.350 N 
ATOM     24  C   UNL d   1      -7.604  -0.326   3.610  0.00  0.00     0.010 A 
ATOM     25  HN  UNL d   1      -8.122  -1.692   5.077  1.00  0.00     0.167 HD
ATOM     26  C   UNL d   1      -6.643   0.105   2.717  0.00  0.00     0.073 A 
ATOM     27  C   UNL d   1      -8.921   0.380   3.707  0.00  0.00     0.068 C 
ENDBRANCH  16  18
ENDBRANCH   7  16
TORSDOF 2
