REMARK  3 active torsions:
REMARK  status: ('A' for Active; 'I' for Inactive)
REMARK    1  A    between atoms: C_7  and  C_3 
REMARK    2  A    between atoms: C_9  and  C_4 
REMARK    3  A    between atoms: N_16  and  C_5 
ROOT
ATOM      1  C   UNL d   1       0.528  -1.394  -0.017  0.00  0.00     0.066 C 
ATOM      2  C   UNL d   1       0.904   1.087  -0.071  0.00  0.00     0.081 C 
ATOM      3  C   UNL d   1      -0.794  -1.161  -0.170  0.00  0.00     0.077 C 
ATOM      4  C   UNL d   1       1.488  -0.264   0.282  0.00  0.00     0.114 C 
ATOM      5  C   UNL d   1      -0.419   1.233  -0.281  0.00  0.00     0.138 C 
ATOM      6  O   UNL d   1      -1.286   0.147  -0.170  0.00  0.00    -0.300 OA
ATOM      7  C   UNL d   1       1.056  -2.714  -0.127  0.00  0.00     0.099 C 
ATOM      8  C   UNL d   1       1.804   2.186  -0.204  0.00  0.00     0.100 C 
ATOM      9  N   UNL d   1       1.488  -3.783  -0.247  0.00  0.00    -0.192 NA
ATOM     10  N   UNL d   1       2.531   3.083  -0.300  0.00  0.00    -0.191 NA
ENDROOT
BRANCH   3  11
ATOM     11  C   UNL d   1      -1.794  -2.242  -0.313  0.00  0.00     0.044 A 
ATOM     12  C   UNL d   1      -3.171  -2.135   0.288  0.00  0.00     0.012 A 
ATOM     13  C   UNL d   1      -2.145  -3.008   0.945  0.00  0.00     0.012 A 
ENDBRANCH   3  11
BRANCH   4  14
ATOM     14  C   UNL d   1       1.923  -0.318   1.754  0.00  0.00    -0.022 A 
ATOM     15  C   UNL d   1       3.238  -0.608   2.149  0.00  0.00     0.041 A 
ATOM     16 CL   UNL d   1       4.503  -0.906   1.011  0.00  0.00    -0.084 Cl
ATOM     17  C   UNL d   1       3.575  -0.678   3.507  0.00  0.00     0.024 A 
ATOM     18  C   UNL d   1       2.610  -0.465   4.489  0.00  0.00     0.002 A 
ATOM     19  C   UNL d   1       1.302  -0.177   4.120  0.00  0.00     0.001 A 
ATOM     20  C   UNL d   1       0.960  -0.105   2.769  0.00  0.00     0.010 A 
ENDBRANCH   4  14
BRANCH   5  21
ATOM     21  N   UNL d   1      -1.058   2.412  -0.583  0.00  0.00    -0.282 NA
ATOM     22  H   UNL d   1      -0.565   3.267  -0.330  0.00  0.00     0.126 HD
ATOM     23  H   UNL d   1      -2.036   2.414  -0.305  0.00  0.00     0.126 HD
ENDBRANCH   5  21
TORSDOF 3
