REMARK  5 active torsions:
REMARK  status: ('A' for Active; 'I' for Inactive)
REMARK       I    between atoms: N_3  and  C_1 
REMARK    1  A    between atoms: C_4  and  C_1 
REMARK    2  A    between atoms: C_7  and  C_2 
REMARK    3  A    between atoms: C_5  and  N_3 
REMARK    4  A    between atoms: C_8  and  C_6 
REMARK       I    between atoms: N_12  and  C_7 
REMARK    5  A    between atoms: O_13  and  C_8 
ROOT
ATOM      1  C   UNL d   1       0.983   0.176   0.038  0.00  0.00     0.257 C 
ATOM      2  N   UNL d   1       0.314   1.272  -0.483  0.00  0.00    -0.322 N 
ATOM      3  O   UNL d   1       2.201   0.036  -0.050  0.00  0.00    -0.267 OA
ATOM      4  H   UNL d   1      -0.491   1.576   0.062  0.00  0.00     0.169 HD
ENDROOT
BRANCH   2   5
ATOM      5  C   UNL d   1       0.986   2.345  -1.133  0.00  0.00     0.050 A 
ATOM      6  C   UNL d   1       2.001   2.229  -2.104  0.00  0.00     0.058 A 
ATOM      7  C   UNL d   1       2.652   3.393  -2.558  0.00  0.00     0.019 A 
ATOM      8  C   UNL d   1       2.281   4.655  -2.094  0.00  0.00     0.001 A 
ATOM      9  C   UNL d   1       1.238   4.774  -1.184  0.00  0.00     0.002 A 
ATOM     10  C   UNL d   1       0.589   3.630  -0.717  0.00  0.00     0.030 A 
BRANCH   6  11
ATOM     11  C   UNL d   1       2.397   0.976  -2.812  0.00  0.00     0.251 C 
ATOM     12  O   UNL d   1       3.519   0.825  -3.285  0.00  0.00    -0.268 OA
ATOM     13  N   UNL d   1       1.429   0.034  -3.022  0.00  0.00    -0.366 N 
ATOM     14  H   UNL d   1       0.528   0.096  -2.574  0.00  0.00     0.159 HD
ATOM     15  H   UNL d   1       1.730  -0.842  -3.425  0.00  0.00     0.159 HD
ENDBRANCH   6  11
ENDBRANCH   2   5
BRANCH   1  16
ATOM     16  C   UNL d   1       0.204  -0.907   0.742  0.00  0.00     0.049 A 
ATOM     17  C   UNL d   1      -1.118  -0.868   1.224  0.00  0.00     0.053 A 
ATOM     18  C   UNL d   1      -1.664  -1.990   1.889  0.00  0.00     0.019 A 
ATOM     19  C   UNL d   1      -0.931  -3.166   2.031  0.00  0.00     0.001 A 
ATOM     20  C   UNL d   1       0.359  -3.231   1.533  0.00  0.00     0.001 A 
ATOM     21  C   UNL d   1       0.920  -2.115   0.906  0.00  0.00     0.018 A 
BRANCH  17  22
ATOM     22  C   UNL d   1      -1.979   0.329   1.149  0.00  0.00     0.177 C 
ATOM     23  O   UNL d   1      -1.557   1.460   1.327  0.00  0.00    -0.646 OA
BRANCH  22  24
ATOM     24  O   UNL d   1      -3.253   0.073   0.792  0.00  0.00    -0.773 OA
ATOM     25  H   UNL d   1      -3.458  -0.851   0.554  0.00  0.00     0.167 HD
ENDBRANCH  22  24
ENDBRANCH  17  22
ENDBRANCH   1  16
TORSDOF 5
