REMARK  0 active torsions:
REMARK  status: ('A' for Active; 'I' for Inactive)
ROOT
ATOM      1  C   UNL d   1      -0.064  -0.774  -0.002  0.00  0.00     0.049 A 
ATOM      2  N   UNL d   1      -1.737   0.802  -0.002  0.00  0.00    -0.319 N 
ATOM      3  C   UNL d   1      -0.358   0.593  -0.002  0.00  0.00     0.055 A 
ATOM      4  C   UNL d   1      -2.430  -0.393  -0.001  0.00  0.00     0.297 A 
ATOM      5  C   UNL d   1      -1.338  -1.496  -0.001  0.00  0.00     0.252 A 
ATOM      6  C   UNL d   1       0.653   1.540  -0.004  0.00  0.00    -0.033 A 
ATOM      7  C   UNL d   1       1.222  -1.272  -0.002  0.00  0.00     0.042 A 
ATOM      8  O   UNL d   1      -3.627  -0.566  -0.000  0.00  0.00    -0.264 OA
ATOM      9  C   UNL d   1       1.975   1.049  -0.003  0.00  0.00     0.033 A 
ATOM     10  O   UNL d   1      -1.496  -2.694  -0.001  0.00  0.00    -0.281 OA
ATOM     11  C   UNL d   1       2.249  -0.334  -0.002  0.00  0.00     0.035 A 
ATOM     12 CL   UNL d   1       3.885  -0.868  -0.002  0.00  0.00    -0.084 Cl
ATOM     13  C   UNL d   1       0.420   3.018  -0.007  0.00  0.00     0.050 C 
ATOM     14  H   UNL d   1      -2.209   1.694  -0.002  0.00  0.00     0.169 HD
ENDROOT
TORSDOF 0
