REMARK  6 active torsions:
REMARK  status: ('A' for Active; 'I' for Inactive)
REMARK    1  A    between atoms: C_10  and  N_1 
REMARK    2  A    between atoms: C_11  and  C_4 
REMARK    3  A    between atoms: C_8  and  C_13 
REMARK    4  A    between atoms: C_9  and  C_12 
REMARK    5  A    between atoms: C_14  and  C_10 
REMARK    6  A    between atoms: C_18  and  C_14 
ROOT
ATOM      1  N   UNL d   1      -0.249  -1.107  -0.264  0.00  0.00    -0.209 N 
ATOM      2  N   UNL d   1       0.886  -0.562  -0.758  0.00  0.00    -0.268 N 
ATOM      3  HN  UNL d   1       1.585  -0.968  -1.380  1.00  0.00     0.190 HD
ATOM      4  C   UNL d   1       0.838   0.664  -0.202  0.00  0.00     0.144 A 
ATOM      5  N   UNL d   1      -0.308   0.864   0.527  0.00  0.00    -0.266 N 
ATOM      6  HN  UNL d   1      -0.581   1.722   1.006  1.00  0.00     0.186 HD
ATOM      7  N   UNL d   1      -0.992  -0.273   0.488  0.00  0.00    -0.002 NA
ENDROOT
BRANCH   4   8
ATOM      8  C   UNL d   1       1.941   1.620  -0.249  0.00  0.00     0.012 A 
ATOM      9  C   UNL d   1       3.108   1.290  -0.966  0.00  0.00     0.031 A 
ATOM     10  C   UNL d   1       4.226   2.136  -0.977  0.00  0.00     0.049 A 
ATOM     11  C   UNL d   1       4.169   3.339  -0.257  0.00  0.00     0.032 A 
ATOM     12  C   UNL d   1       3.008   3.710   0.445  0.00  0.00     0.049 A 
ATOM     13  C   UNL d   1       1.901   2.837   0.445  0.00  0.00     0.031 A 
BRANCH  10  14
ATOM     14  C   UNL d   1       5.463   1.754  -1.753  0.00  0.00     0.417 C 
ATOM     15  F   UNL d   1       5.341   0.571  -2.420  0.00  0.00    -0.166 F 
ATOM     16  F   UNL d   1       5.789   2.680  -2.693  0.00  0.00    -0.166 F 
ATOM     17  F   UNL d   1       6.558   1.620  -0.957  0.00  0.00    -0.166 F 
ENDBRANCH  10  14
BRANCH  12  18
ATOM     18  C   UNL d   1       2.965   5.036   1.171  0.00  0.00     0.417 C 
ATOM     19  F   UNL d   1       1.775   5.287   1.782  0.00  0.00    -0.166 F 
ATOM     20  F   UNL d   1       3.914   5.130   2.142  0.00  0.00    -0.166 F 
ATOM     21  F   UNL d   1       3.185   6.087   0.332  0.00  0.00    -0.166 F 
ENDBRANCH  12  18
ENDBRANCH   4   8
BRANCH   1  22
ATOM     22  C   UNL d   1      -0.340  -2.539  -0.098  0.00  0.00     0.251 C 
BRANCH  22  23
ATOM     23  C   UNL d   1      -1.108  -3.207  -1.203  0.00  0.00     0.180 C 
ATOM     24  O   UNL d   1      -2.329  -3.364  -1.105  0.00  0.00    -0.290 OA
BRANCH  23  25
ATOM     25  C   UNL d   1      -0.422  -3.708  -2.434  0.00  0.00     0.012 A 
ATOM     26  C   UNL d   1       0.952  -3.562  -2.661  0.00  0.00     0.017 A 
ATOM     27  C   UNL d   1       1.507  -3.946  -3.889  0.00  0.00     0.025 A 
ATOM     28  C   UNL d   1       0.698  -4.489  -4.886  0.00  0.00     0.034 A 
ATOM     29  C   UNL d   1      -0.655  -4.705  -4.649  0.00  0.00     0.025 A 
ATOM     30 CL   UNL d   1       1.370  -4.865  -6.423  0.00  0.00    -0.084 Cl
ATOM     31  C   UNL d   1      -1.212  -4.321  -3.425  0.00  0.00     0.017 A 
ENDBRANCH  23  25
ENDBRANCH  22  23
ENDBRANCH   1  22
TORSDOF 6
