REMARK  3 active torsions:
REMARK  status: ('A' for Active; 'I' for Inactive)
REMARK    1  A    between atoms: N_11  and  C_3 
REMARK    2  A    between atoms: S_16  and  C_8 
REMARK    3  A    between atoms: N_17  and  C_15 
ROOT
ATOM      1  N   UNL d   1      -0.220  -0.621   0.005  0.00  0.00    -0.069 N 
ATOM      2  C   UNL d   1      -0.184   0.745   0.005  0.00  0.00     0.149 A 
ATOM      3  C   UNL d   1       0.977  -1.365   0.004  0.00  0.00     0.708 A 
ATOM      4  N   UNL d   1       0.999   1.396   0.006  0.00  0.00    -0.321 N 
ATOM      5  HN  UNL d   1       1.047   2.415   0.007  1.00  0.00     0.169 HD
ATOM      6  N   UNL d   1       2.113  -0.717   0.004  0.00  0.00    -0.168 N 
ATOM      7  HN  UNL d   1       3.001  -1.218   0.004  1.00  0.00     0.186 HD
ATOM      8  C   UNL d   1       2.076   0.665   0.005  0.00  0.00     0.160 A 
ATOM      9  N   UNL d   1      -1.479  -1.130   0.005  0.00  0.00    -0.282 N 
ATOM     10  HN  UNL d   1      -1.765  -2.109   0.005  1.00  0.00     0.188 HD
ATOM     11  C   UNL d   1      -1.493   1.156   0.005  0.00  0.00     0.077 A 
ATOM     12  C   UNL d   1      -2.256  -0.036   0.004  0.00  0.00     0.026 A 
ATOM     13  C   UNL d   1      -3.736  -0.143   0.003  0.00  0.00     0.070 C 
ENDROOT
BRANCH   3  14
ATOM     14  N   UNL d   1       0.941  -2.746   0.001  0.00  0.00    -0.186 N 
ATOM     15  C   UNL d   1       2.027  -3.438  -0.002  0.00  0.00     0.195 C 
ATOM     16  HN  UNL d   1       0.040  -3.225   0.002  1.00  0.00     0.185 HD
BRANCH  15  17
ATOM     17  N   UNL d   1       2.090  -4.815  -0.004  0.00  0.00    -0.385 N 
ATOM     18  C   UNL d   1       0.889  -5.639  -0.004  0.00  0.00     0.149 C 
ATOM     19  C   UNL d   1       3.348  -5.539  -0.001  0.00  0.00     0.149 C 
ENDBRANCH  15  17
ENDBRANCH   3  14
BRANCH   8  20
ATOM     20  S   UNL d   1       3.568   1.596   0.009  0.00  0.00    -0.098 SA
ATOM     21  C   UNL d   1       4.835   0.328   0.007  0.00  0.00     0.099 C 
ENDBRANCH   8  20
TORSDOF 3
