REMARK  3 active torsions:
REMARK  status: ('A' for Active; 'I' for Inactive)
REMARK    1  A    between atoms: C_5  and  C_1 
REMARK    2  A    between atoms: C_6  and  C_2 
REMARK    3  A    between atoms: O_17  and  C_9 
ROOT
ATOM      1  C   UNL d   1       2.535   0.042  -0.015  0.00  0.00     0.055 C 
ATOM      2  C   UNL d   1       3.253  -1.113  -0.022  0.00  0.00     0.034 C 
ATOM      3  C   UNL d   1       3.244   1.340  -0.006  0.00  0.00     0.100 C 
ATOM      4  N   UNL d   1       3.820   2.346   0.003  0.00  0.00    -0.191 NA
ENDROOT
BRANCH   1   5
ATOM      5  C   UNL d   1       1.021  -0.007   0.004  0.00  0.00    -0.015 A 
ATOM      6  C   UNL d   1       0.296   1.031   0.612  0.00  0.00     0.013 A 
ATOM      7  C   UNL d   1      -1.105   1.038   0.617  0.00  0.00     0.007 A 
ATOM      8  C   UNL d   1      -1.824   0.003   0.015  0.00  0.00    -0.062 A 
ATOM      9  C   UNL d   1      -1.122  -1.040  -0.594  0.00  0.00     0.007 A 
ATOM     10  C   UNL d   1      -3.324   0.029   0.021  0.00  0.00     0.048 C 
ATOM     11  C   UNL d   1       0.280  -1.044  -0.603  0.00  0.00     0.013 A 
ENDBRANCH   1   5
BRANCH   2  12
ATOM     12  C   UNL d   1       4.731  -1.162  -0.012  0.00  0.00    -0.035 A 
ATOM     13  C   UNL d   1       5.426  -1.182   1.204  0.00  0.00     0.014 A 
ATOM     14  C   UNL d   1       6.830  -1.233   1.235  0.00  0.00     0.037 A 
ATOM     15  C   UNL d   1       7.561  -1.265   0.049  0.00  0.00     0.068 A 
ATOM     16  C   UNL d   1       6.872  -1.235  -1.166  0.00  0.00     0.037 A 
ATOM     17  C   UNL d   1       5.468  -1.181  -1.201  0.00  0.00     0.014 A 
BRANCH  15  18
ATOM     18  O   UNL d   1       8.925  -1.329  -0.055  0.00  0.00    -0.356 OA
ATOM     19  C   UNL d   1       9.670  -1.357   1.158  0.00  0.00     0.210 C 
ENDBRANCH  15  18
ENDBRANCH   2  12
TORSDOF 3
