REMARK  4 active torsions:
REMARK  status: ('A' for Active; 'I' for Inactive)
REMARK    1  A    between atoms: C_8  and  C_14 
REMARK    2  A    between atoms: O_15  and  C_8 
REMARK    3  A    between atoms: O_13  and  C_12 
REMARK    4  A    between atoms: C_14  and  O_13 
ROOT
ATOM      1  C   UNL d   1       0.002   1.310  -0.029  0.00  0.00     0.198 A 
ATOM      2  C   UNL d   1      -1.257   0.551  -0.025  0.00  0.00     0.051 A 
ATOM      3  C   UNL d   1       1.247   0.533  -0.007  0.00  0.00     0.049 A 
ATOM      4  O   UNL d   1      -0.019  -1.555  -0.063  0.00  0.00    -0.309 OA
ATOM      5  C   UNL d   1      -1.190  -0.841  -0.026  0.00  0.00     0.090 A 
ATOM      6  C   UNL d   1       1.161  -0.857  -0.032  0.00  0.00     0.090 A 
ATOM      7  C   UNL d   1      -2.492   1.220   0.003  0.00  0.00     0.055 A 
ATOM      8  O   UNL d   1       0.009   2.534  -0.039  0.00  0.00    -0.286 OA
ATOM      9  C   UNL d   1      -2.371  -1.579   0.015  0.00  0.00     0.041 A 
ATOM     10  C   UNL d   1      -3.670   0.478   0.053  0.00  0.00     0.070 A 
ATOM     11  C   UNL d   1      -3.603  -0.919   0.051  0.00  0.00     0.039 A 
ATOM     12  C   UNL d   1       2.488   1.172   0.049  0.00  0.00     0.018 A 
ATOM     13  C   UNL d   1       2.336  -1.619  -0.025  0.00  0.00     0.038 A 
ATOM     14  C   UNL d   1       3.657   0.407   0.071  0.00  0.00     0.001 A 
ATOM     15  C   UNL d   1       3.580  -0.986   0.029  0.00  0.00     0.003 A 
ENDROOT
BRANCH  10  16
ATOM     16  O   UNL d   1      -4.939   0.990   0.080  0.00  0.00    -0.341 OA
BRANCH  16  17
ATOM     17  C   UNL d   1      -5.098   2.267   0.709  0.00  0.00     0.285 C 
BRANCH  17  18
ATOM     18  C   UNL d   1      -6.500   2.358   1.308  0.00  0.00     0.164 C 
ATOM     19  O   UNL d   1      -6.918   3.336   1.905  0.00  0.00    -0.648 OA
BRANCH  18  20
ATOM     20  O   UNL d   1      -7.256   1.245   1.129  0.00  0.00    -0.775 OA
ATOM     21  H   UNL d   1      -6.770   0.557   0.626  0.00  0.00     0.167 HD
ENDBRANCH  18  20
ENDBRANCH  17  18
ENDBRANCH  16  17
ENDBRANCH  10  16
TORSDOF 4
