REMARK  4 active torsions:
REMARK  status: ('A' for Active; 'I' for Inactive)
REMARK    1  A    between atoms: C_13  and  C_3 
REMARK    2  A    between atoms: O_22  and  C_12 
REMARK    3  A    between atoms: O_23  and  C_14 
REMARK    4  A    between atoms: O_24  and  C_18 
ROOT
ATOM      1  C   UNL d   1       1.827  -1.472  -0.231  0.00  0.00     0.167 A 
ATOM      2  C   UNL d   1       2.845  -2.488  -0.204  0.00  0.00     0.076 A 
ATOM      3  C   UNL d   1       4.062  -2.564   0.549  0.00  0.00     0.086 A 
ATOM      4  N   UNL d   1       0.597  -1.849  -0.305  0.00  0.00    -0.333 N 
ATOM      5  HN  UNL d   1       0.358  -2.830  -0.446  1.00  0.00     0.168 HD
ATOM      6  C   UNL d   1      -0.401  -0.882  -0.190  0.00  0.00     0.087 A 
ATOM      7  C   UNL d   1      -0.053   0.455  -0.067  0.00  0.00     0.072 A 
ATOM      8  N   UNL d   1       4.658  -3.748   0.334  0.00  0.00    -0.259 N 
ATOM      9  HN  UNL d   1       5.521  -4.081   0.764  1.00  0.00     0.195 HD
ATOM     10  O   UNL d   1       2.273  -0.202  -0.131  0.00  0.00    -0.256 OA
ATOM     11  C   UNL d   1       1.376   0.803  -0.053  0.00  0.00     0.302 A 
ATOM     12  C   UNL d   1      -1.765  -1.249  -0.178  0.00  0.00     0.132 A 
ATOM     13  C   UNL d   1      -2.762  -0.256  -0.087  0.00  0.00     0.137 A 
ATOM     14  O   UNL d   1       3.883  -4.427  -0.578  0.00  0.00    -0.241 OA
ATOM     15  C   UNL d   1      -1.028   1.452   0.037  0.00  0.00     0.059 A 
ATOM     16  C   UNL d   1       2.798  -3.682  -0.897  0.00  0.00     0.089 A 
ATOM     17  C   UNL d   1      -2.378   1.104   0.018  0.00  0.00     0.105 A 
ATOM     18  O   UNL d   1       1.730   1.974   0.041  0.00  0.00    -0.259 OA
ATOM     19  C   UNL d   1       1.854  -4.273  -1.865  0.00  0.00     0.080 C 
ENDROOT
BRANCH   3  20
ATOM     20  C   UNL d   1       4.628  -1.597   1.498  0.00  0.00     0.054 A 
ATOM     21  C   UNL d   1       5.995  -1.274   1.543  0.00  0.00     0.049 A 
ATOM     22 CL   UNL d   1       7.179  -1.973   0.488  0.00  0.00    -0.083 Cl
ATOM     23  C   UNL d   1       6.472  -0.309   2.445  0.00  0.00     0.025 A 
ATOM     24  C   UNL d   1       5.599   0.360   3.300  0.00  0.00     0.005 A 
ATOM     25  C   UNL d   1       4.248   0.042   3.279  0.00  0.00     0.043 A 
ATOM     26  C   UNL d   1       3.781  -0.939   2.405  0.00  0.00     0.130 A 
ATOM     27  F   UNL d   1       2.471  -1.230   2.453  0.00  0.00    -0.205 F 
ENDBRANCH   3  20
BRANCH  12  28
ATOM     28  O   UNL d   1      -2.132  -2.562  -0.367  0.00  0.00    -0.351 OA
ATOM     29  C   UNL d   1      -1.600  -3.465   0.603  0.00  0.00     0.210 C 
ENDBRANCH  12  28
BRANCH  13  30
ATOM     30  O   UNL d   1      -4.124  -0.447  -0.094  0.00  0.00    -0.351 OA
ATOM     31  C   UNL d   1      -4.655  -1.760  -0.044  0.00  0.00     0.210 C 
ENDBRANCH  13  30
BRANCH  17  32
ATOM     32  O   UNL d   1      -3.401   2.019   0.104  0.00  0.00    -0.353 OA
ATOM     33  C   UNL d   1      -3.062   3.399   0.064  0.00  0.00     0.210 C 
ENDBRANCH  17  32
TORSDOF 4
