REMARK  1 active torsions:
REMARK  status: ('A' for Active; 'I' for Inactive)
REMARK    1  A    between atoms: C_2  and  N_1 
ROOT
ATOM      1  C   UNL d   1      -0.010   2.325   0.020  0.00  0.00     0.067 A 
ATOM      2  C   UNL d   1      -0.702   3.075   0.989  0.00  0.00     0.062 A 
ATOM      3  C   UNL d   1      -0.687   4.474   0.948  0.00  0.00     0.044 A 
ATOM      4  C   UNL d   1       0.706   3.007  -0.977  0.00  0.00     0.033 A 
ATOM      5  C   UNL d   1       0.006   5.131  -0.067  0.00  0.00     0.008 A 
ATOM      6 CL   UNL d   1      -1.456   2.341   2.365  0.00  0.00    -0.082 Cl
ATOM      7  C   UNL d   1       0.699   4.404  -1.031  0.00  0.00     0.020 A 
ATOM      8  I   UNL d   1       0.032   7.208  -0.121  0.00  0.00    -0.045 I 
ENDROOT
BRANCH   1   9
ATOM      9  N   UNL d   1       0.002   0.915   0.033  0.00  0.00    -0.244 N 
ATOM     10  C   UNL d   1       1.115   0.144  -0.114  0.00  0.00     0.255 A 
ATOM     11  C   UNL d   1       0.675  -1.256  -0.067  0.00  0.00     0.080 A 
ATOM     12  O   UNL d   1       2.286   0.463  -0.236  0.00  0.00    -0.268 OA
ATOM     13  C   UNL d   1      -0.655  -1.265   0.019  0.00  0.00     0.080 A 
ATOM     14  C   UNL d   1      -1.116   0.131   0.035  0.00  0.00     0.255 A 
ATOM     15  O   UNL d   1      -2.292   0.432  -0.049  0.00  0.00    -0.268 OA
ENDBRANCH   1   9
TORSDOF 1
