REMARK  10 active torsions:
REMARK  status: ('A' for Active; 'I' for Inactive)
REMARK    1  A    between atoms: N_2  and  C_1 
REMARK    2  A    between atoms: C_3  and  C_1 
REMARK    3  A    between atoms: C_7  and  C_1 
REMARK    4  A    between atoms: N_8  and  C_1 
REMARK       I    between atoms: C_4  and  N_2 
REMARK    5  A    between atoms: C_10  and  C_4 
REMARK    6  A    between atoms: C_5  and  C_9 
REMARK    7  A    between atoms: C_6  and  C_11 
REMARK    8  A    between atoms: O_26  and  C_7 
REMARK    9  A    between atoms: C_13  and  N_8 
REMARK   10  A    between atoms: C_33  and  O_26 
ROOT
ATOM      1  C   UNL d   1       0.730   0.062  -0.002  0.00  0.00     0.297 C 
ENDROOT
BRANCH   1   2
ATOM      2  N   UNL d   1       0.235  -0.696   1.154  0.00  0.00    -0.315 N 
ATOM      3  C   UNL d   1       0.086  -0.209   2.420  0.00  0.00     0.254 C 
ATOM      4  O   UNL d   1       0.346   0.949   2.721  0.00  0.00    -0.268 OA
ATOM      5  H   UNL d   1       0.071  -1.673   0.976  0.00  0.00     0.166 HD
BRANCH   3   6
ATOM      6  C   UNL d   1      -0.353  -1.210   3.447  0.00  0.00     0.032 A 
ATOM      7  C   UNL d   1      -0.063  -0.951   4.793  0.00  0.00     0.033 A 
ATOM      8  C   UNL d   1      -0.318  -1.919   5.781  0.00  0.00     0.048 A 
ATOM      9  C   UNL d   1      -0.902  -3.140   5.407  0.00  0.00     0.016 A 
ATOM     10  C   UNL d   1      -1.243  -3.383   4.078  0.00  0.00     0.002 A 
ATOM     11  C   UNL d   1      -0.979  -2.420   3.103  0.00  0.00     0.017 A 
BRANCH   8  12
ATOM     12  C   UNL d   1       0.077  -1.691   7.219  0.00  0.00     0.417 C 
ATOM     13  F   UNL d   1       0.568  -0.445   7.462  0.00  0.00    -0.166 F 
ATOM     14  F   UNL d   1      -0.962  -1.861   8.082  0.00  0.00    -0.166 F 
ATOM     15  F   UNL d   1       1.045  -2.560   7.626  0.00  0.00    -0.166 F 
ENDBRANCH   8  12
ENDBRANCH   3   6
ENDBRANCH   1   2
BRANCH   1  16
ATOM     16  C   UNL d   1       0.076   1.471  -0.241  0.00  0.00     0.442 C 
ATOM     17  F   UNL d   1      -1.055   1.659   0.481  0.00  0.00    -0.166 F 
ATOM     18  F   UNL d   1       0.935   2.475   0.082  0.00  0.00    -0.166 F 
ATOM     19  F   UNL d   1      -0.273   1.682  -1.537  0.00  0.00    -0.166 F 
ENDBRANCH   1  16
BRANCH   1  20
ATOM     20  C   UNL d   1       0.294  -0.742  -1.251  0.00  0.00     0.318 C 
ATOM     21  O   UNL d   1      -0.654  -1.532  -1.248  0.00  0.00    -0.260 OA
BRANCH  20  22
ATOM     22  O   UNL d   1       1.115  -0.540  -2.321  0.00  0.00    -0.318 OA
BRANCH  22  23
ATOM     23  C   UNL d   1       0.848  -1.329  -3.488  0.00  0.00     0.174 C 
ATOM     24  C   UNL d   1       1.400  -2.736  -3.331  0.00  0.00     0.034 C 
ENDBRANCH  22  23
ENDBRANCH  20  22
ENDBRANCH   1  20
BRANCH   1  25
ATOM     25  N   UNL d   1       2.214   0.110   0.127  0.00  0.00    -0.348 N 
ATOM     26  H   UNL d   1       2.529   0.944   0.623  0.00  0.00     0.163 HD
BRANCH  25  27
ATOM     27  C   UNL d   1       3.110  -0.947   0.161  0.00  0.00     0.031 A 
ATOM     28  C   UNL d   1       2.743  -2.294   0.118  0.00  0.00     0.045 A 
ATOM     29  C   UNL d   1       3.692  -3.335   0.100  0.00  0.00     0.050 A 
ATOM     30  C   UNL d   1       5.050  -3.014   0.064  0.00  0.00     0.016 A 
ATOM     31  C   UNL d   1       5.443  -1.680   0.055  0.00  0.00     0.003 A 
ATOM     32  C   UNL d   1       4.483  -0.664   0.106  0.00  0.00     0.029 A 
BRANCH  29  33
ATOM     33  C   UNL d   1       3.234  -4.772   0.121  0.00  0.00     0.417 C 
ATOM     34  F   UNL d   1       1.877  -4.902   0.171  0.00  0.00    -0.166 F 
ATOM     35  F   UNL d   1       3.633  -5.469  -0.978  0.00  0.00    -0.166 F 
ATOM     36  F   UNL d   1       3.709  -5.454   1.198  0.00  0.00    -0.166 F 
ENDBRANCH  29  33
ENDBRANCH  25  27
ENDBRANCH   1  25
TORSDOF 10
