REMARK  4 active torsions:
REMARK  status: ('A' for Active; 'I' for Inactive)
REMARK    1  A    between atoms: C_6  and  C_1 
REMARK    2  A    between atoms: C_7  and  N_3 
REMARK    3  A    between atoms: O_12  and  C_6 
REMARK    4  A    between atoms: C_18  and  O_12 
ROOT
ATOM      1  C   UNL d   1      -0.312  -1.200  -0.012  0.00  0.00     0.064 A 
ATOM      2  C   UNL d   1       1.001  -0.736   0.028  0.00  0.00     0.029 A 
ATOM      3  N   UNL d   1       0.986   0.667   0.046  0.00  0.00    -0.319 N 
ATOM      4  C   UNL d   1      -1.142  -0.059   0.087  0.00  0.00     0.044 A 
ATOM      5  C   UNL d   1      -0.350   1.070   0.084  0.00  0.00     0.014 A 
ATOM      6  C   UNL d   1       2.248  -1.561   0.104  0.00  0.00     0.070 C 
ATOM      7  C   UNL d   1      -0.841   2.477  -0.009  0.00  0.00     0.068 C 
ENDROOT
BRANCH   3   8
ATOM      8  C   UNL d   1       2.131   1.531   0.010  0.00  0.00     0.039 A 
ATOM      9  C   UNL d   1       3.250   1.203  -0.766  0.00  0.00     0.031 A 
ATOM     10  C   UNL d   1       4.375   2.035  -0.782  0.00  0.00     0.020 A 
ATOM     11  C   UNL d   1       4.379   3.213  -0.041  0.00  0.00     0.006 A 
ATOM     12  C   UNL d   1       3.267   3.563   0.721  0.00  0.00     0.020 A 
ATOM     13  I   UNL d   1       6.048   4.448  -0.066  0.00  0.00    -0.045 I 
ATOM     14  C   UNL d   1       2.151   2.719   0.752  0.00  0.00     0.031 A 
ENDBRANCH   3   8
BRANCH   1  15
ATOM     15  C   UNL d   1      -0.751  -2.586  -0.159  0.00  0.00     0.295 C 
ATOM     16  O   UNL d   1       0.008  -3.532  -0.334  0.00  0.00    -0.259 OA
BRANCH  15  17
ATOM     17  O   UNL d   1      -2.113  -2.687  -0.179  0.00  0.00    -0.318 OA
BRANCH  17  18
ATOM     18  C   UNL d   1      -2.628  -3.926  -0.684  0.00  0.00     0.174 C 
ATOM     19  C   UNL d   1      -2.708  -3.831  -2.198  0.00  0.00     0.034 C 
ENDBRANCH  17  18
ENDBRANCH  15  17
ENDBRANCH   1  15
TORSDOF 4
