REMARK  3 active torsions:
REMARK  status: ('A' for Active; 'I' for Inactive)
REMARK    1  A    between atoms: C_2  and  S_1 
REMARK    2  A    between atoms: N_6  and  S_1 
REMARK    3  A    between atoms: C_8  and  C_9 
ROOT
ATOM      1  N   UNL d   1       0.482   0.835   1.525  0.00  0.00    -0.281 N 
ATOM      2  C   UNL d   1      -0.535   1.613   4.301  0.00  0.00     0.114 C 
ATOM      3  C   UNL d   1      -1.166   0.705   3.296  0.00  0.00     0.052 C 
ATOM      4  C   UNL d   1      -0.714   0.323   2.100  0.00  0.00     0.105 C 
ATOM      5  N   UNL d   1       0.133   2.688   4.044  0.00  0.00    -0.384 N 
ATOM      6  HN  UNL d   1       0.512   3.257   4.801  1.00  0.00     0.159 HD
ATOM      7  C   UNL d   1       1.210   2.063   1.920  0.00  0.00     0.160 C 
ATOM      8  C   UNL d   1       0.337   3.076   2.652  0.00  0.00     0.141 C 
ENDROOT
BRANCH   1   9
ATOM      9  S   UNL d   1       0.966   0.098   0.055  0.00  0.00     0.266 S 
ATOM     10  O   UNL d   1       2.308   0.526  -0.268  0.00  0.00    -0.200 OA
ATOM     11  O   UNL d   1       0.574  -1.296   0.081  0.00  0.00    -0.200 OA
BRANCH   9  12
ATOM     12  C   UNL d   1       0.003   0.742  -1.228  0.00  0.00     0.110 A 
ATOM     13  C   UNL d   1       0.147   0.387  -2.548  0.00  0.00     0.099 A 
ATOM     14  S   UNL d   1      -0.978   1.155  -3.567  0.00  0.00    -0.064 SA
ATOM     15 CL   UNL d   1       1.270  -0.705  -3.259  0.00  0.00    -0.075 Cl
ATOM     16  C   UNL d   1      -1.677   1.954  -2.249  0.00  0.00     0.077 A 
ATOM     17  C   UNL d   1      -1.076   1.667  -1.051  0.00  0.00     0.059 A 
ATOM     18 CL   UNL d   1      -3.017   2.999  -2.493  0.00  0.00    -0.076 Cl
ENDBRANCH   9  12
ENDBRANCH   1   9
BRANCH   2  19
ATOM     19  C   UNL d   1      -0.764   1.212   5.771  0.00  0.00     0.432 C 
ATOM     20  F   UNL d   1      -1.527   0.088   5.897  0.00  0.00    -0.165 F 
ATOM     21  F   UNL d   1       0.399   0.957   6.428  0.00  0.00    -0.165 F 
ATOM     22  F   UNL d   1      -1.411   2.182   6.474  0.00  0.00    -0.165 F 
ENDBRANCH   2  19
TORSDOF 3
