REMARK  6 active torsions:
REMARK  status: ('A' for Active; 'I' for Inactive)
REMARK    1  A    between atoms: C_12  and  N_1 
REMARK    2  A    between atoms: N_2  and  C_11 
REMARK    3  A    between atoms: C_11  and  N_13 
REMARK    4  A    between atoms: N_13  and  C_12 
REMARK    5  A    between atoms: C_21  and  N_13 
REMARK    6  A    between atoms: C_14  and  C_21 
ROOT
ATOM      1  N   UNL d   1       3.848   1.350   0.088  0.00  0.00     0.128 N 
ENDROOT
BRANCH   1   2
ATOM      2  C   UNL d   1       3.481   1.815   1.432  0.00  0.00     0.410 C 
BRANCH   2   3
ATOM      3  N   UNL d   1       3.956   3.167   1.655  0.00  0.00    -0.252 N 
ATOM      4  C   UNL d   1       4.755   3.521   2.702  0.00  0.00     0.263 C 
ATOM      5  C   UNL d   1       5.069   4.935   2.522  0.00  0.00     0.048 A 
ATOM      6  O   UNL d   1       5.152   2.870   3.646  0.00  0.00    -0.267 OA
ATOM      7  C   UNL d   1       5.993   5.733   3.167  0.00  0.00     0.018 A 
ATOM      8  C   UNL d   1       4.277   5.403   1.490  0.00  0.00     0.048 A 
ATOM      9  C   UNL d   1       6.098   7.056   2.732  0.00  0.00     0.001 A 
ATOM     10  C   UNL d   1       5.277   7.544   1.696  0.00  0.00     0.001 A 
ATOM     11  C   UNL d   1       4.346   6.712   1.061  0.00  0.00     0.018 A 
ATOM     12  C   UNL d   1       3.488   4.272   0.997  0.00  0.00     0.263 C 
ATOM     13  O   UNL d   1       2.593   4.384   0.185  0.00  0.00    -0.267 OA
ENDBRANCH   2   3
ENDBRANCH   1   2
BRANCH   1  14
ATOM     14  C   UNL d   1       3.270   0.041  -0.261  0.00  0.00     0.410 C 
BRANCH  14  15
ATOM     15  N   UNL d   1       1.841   0.009  -0.087  0.00  0.00    -0.252 N 
ATOM     16  C   UNL d   1       0.918   0.323  -1.046  0.00  0.00     0.263 C 
ATOM     17  C   UNL d   1      -0.394   0.168  -0.412  0.00  0.00     0.048 A 
ATOM     18  O   UNL d   1       1.079   0.618  -2.214  0.00  0.00    -0.267 OA
ATOM     19  C   UNL d   1      -1.662   0.459  -0.872  0.00  0.00     0.018 A 
ATOM     20  C   UNL d   1      -0.185  -0.334   0.860  0.00  0.00     0.048 A 
ATOM     21  C   UNL d   1      -2.727   0.245   0.011  0.00  0.00     0.001 A 
ATOM     22  C   UNL d   1      -2.506  -0.263   1.310  0.00  0.00     0.001 A 
ATOM     23  C   UNL d   1      -1.217  -0.568   1.746  0.00  0.00     0.018 A 
ATOM     24  C   UNL d   1       1.251  -0.484   1.042  0.00  0.00     0.263 C 
ATOM     25  O   UNL d   1       1.766  -0.952   2.039  0.00  0.00    -0.267 OA
ENDBRANCH  14  15
ENDBRANCH   1  14
BRANCH   1  26
ATOM     26  C   UNL d   1       5.297   1.374  -0.198  0.00  0.00     0.315 C 
BRANCH  26  27
ATOM     27  C   UNL d   1       6.100   0.412   0.643  0.00  0.00    -0.023 C 
ATOM     28  C   UNL d   1       6.352  -0.912   0.320  0.00  0.00     0.058 C 
ATOM     29  S   UNL d   1       7.181  -1.759   1.553  0.00  0.00    -0.113 SA
ATOM     30  C   UNL d   1       7.312  -0.349   2.502  0.00  0.00     0.050 C 
ATOM     31  C   UNL d   1       6.755   0.742   1.875  0.00  0.00     0.016 C 
ENDBRANCH  26  27
ENDBRANCH   1  26
TORSDOF 6
