REMARK  6 active torsions:
REMARK  status: ('A' for Active; 'I' for Inactive)
REMARK    1  A    between atoms: C_2  and  C_1 
REMARK    2  A    between atoms: O_11  and  C_2 
REMARK    3  A    between atoms: C_6  and  O_16 
REMARK    4  A    between atoms: C_18  and  O_11 
REMARK    5  A    between atoms: O_16  and  C_19 
REMARK    6  A    between atoms: C_19  and  C_18 
ROOT
ATOM      1  C   UNL d   1      -2.536   3.745  -0.153  0.00  0.00     0.205 C 
ENDROOT
BRANCH   1   2
ATOM      2  O   UNL d   1      -1.717   2.560  -0.167  0.00  0.00    -0.315 OA
BRANCH   2   3
ATOM      3  C   UNL d   1      -1.696   1.883  -1.339  0.00  0.00     0.295 C 
ATOM      4  O   UNL d   1      -2.215   2.251  -2.382  0.00  0.00    -0.259 OA
BRANCH   3   5
ATOM      5  C   UNL d   1      -0.915   0.628  -1.249  0.00  0.00     0.061 A 
ATOM      6  C   UNL d   1      -0.887  -0.221  -0.134  0.00  0.00     0.050 A 
ATOM      7 CL   UNL d   1      -1.797   0.054   1.310  0.00  0.00    -0.083 Cl
ATOM      8  C   UNL d   1      -0.141  -1.408  -0.184  0.00  0.00     0.025 A 
ATOM      9  C   UNL d   1       0.556  -1.762  -1.341  0.00  0.00     0.002 A 
ATOM     10  C   UNL d   1       0.511  -0.935  -2.458  0.00  0.00     0.001 A 
ATOM     11  C   UNL d   1      -0.221   0.252  -2.413  0.00  0.00     0.019 A 
ENDBRANCH   3   5
ENDBRANCH   2   3
ENDBRANCH   1   2
BRANCH   1  12
ATOM     12  C   UNL d   1      -4.023   3.384  -0.145  0.00  0.00     0.202 C 
BRANCH  12  13
ATOM     13  O   UNL d   1      -4.816   4.572  -0.150  0.00  0.00    -0.347 OA
BRANCH  13  14
ATOM     14  C   UNL d   1      -6.174   4.383  -0.249  0.00  0.00     0.090 A 
ATOM     15  C   UNL d   1      -7.013   5.326   0.368  0.00  0.00     0.069 A 
ATOM     16  C   UNL d   1      -8.404   5.211   0.282  0.00  0.00     0.050 A 
ATOM     17 CL   UNL d   1      -6.365   6.652   1.269  0.00  0.00    -0.081 Cl
ATOM     18  C   UNL d   1      -8.964   4.158  -0.437  0.00  0.00     0.035 A 
ATOM     19  C   UNL d   1      -8.147   3.229  -1.073  0.00  0.00     0.026 A 
ATOM     20 CL   UNL d   1     -10.673   4.008  -0.552  0.00  0.00    -0.084 Cl
ATOM     21  C   UNL d   1      -6.758   3.345  -0.986  0.00  0.00     0.040 A 
ENDBRANCH  13  14
ENDBRANCH  12  13
ENDBRANCH   1  12
TORSDOF 6
