REMARK  4 active torsions:
REMARK  status: ('A' for Active; 'I' for Inactive)
REMARK    1  A    between atoms: C_6  and  N_1 
REMARK    2  A    between atoms: N_7  and  C_6 
REMARK    3  A    between atoms: C_8  and  N_7 
REMARK    4  A    between atoms: O_19  and  C_12 
ROOT
ATOM      1  C   UNL d   1       3.333  -0.004  -0.242  0.00  0.00     0.230 C 
ENDROOT
BRANCH   1   2
ATOM      2  N   UNL d   1       1.903   0.088  -0.231  0.00  0.00    -0.267 N 
ATOM      3  C   UNL d   1       1.113  -0.122  -1.320  0.00  0.00     0.262 A 
ATOM      4  C   UNL d   1      -0.268  -0.015  -0.859  0.00  0.00     0.048 A 
ATOM      5  O   UNL d   1       1.420  -0.404  -2.462  0.00  0.00    -0.267 OA
ATOM      6  C   UNL d   1      -1.456  -0.106  -1.556  0.00  0.00     0.018 A 
ATOM      7  C   UNL d   1      -0.236   0.196   0.509  0.00  0.00     0.048 A 
ATOM      8  C   UNL d   1      -2.638   0.030  -0.823  0.00  0.00     0.001 A 
ATOM      9  C   UNL d   1      -2.606   0.237   0.572  0.00  0.00     0.001 A 
ATOM     10  C   UNL d   1      -1.390   0.317   1.258  0.00  0.00     0.018 A 
ATOM     11  C   UNL d   1       1.168   0.241   0.911  0.00  0.00     0.262 A 
ATOM     12  O   UNL d   1       1.548   0.369   2.059  0.00  0.00    -0.267 OA
ENDBRANCH   1   2
BRANCH   1  13
ATOM     13  N   UNL d   1       3.875   1.320  -0.528  0.00  0.00    -0.273 NA
ATOM     14  H   UNL d   1       3.559   1.981   0.179  0.00  0.00     0.129 HD
BRANCH  13  15
ATOM     15  C   UNL d   1       5.278   1.431  -0.660  0.00  0.00     0.045 A 
ATOM     16  C   UNL d   1       6.137   0.587   0.078  0.00  0.00     0.050 A 
ATOM     17  C   UNL d   1       7.527   0.688  -0.012  0.00  0.00     0.035 A 
ATOM     18 CL   UNL d   1       8.520  -0.389   0.892  0.00  0.00    -0.084 Cl
ATOM     19  C   UNL d   1       8.108   1.650  -0.818  0.00  0.00     0.026 A 
ATOM     20  C   UNL d   1       7.285   2.537  -1.504  0.00  0.00     0.040 A 
ATOM     21  C   UNL d   1       5.882   2.461  -1.418  0.00  0.00     0.089 A 
BRANCH  21  22
ATOM     22  O   UNL d   1       5.297   3.459  -2.152  0.00  0.00    -0.354 OA
ATOM     23  C   UNL d   1       3.887   3.577  -2.194  0.00  0.00     0.210 C 
ENDBRANCH  21  22
ENDBRANCH  13  15
ENDBRANCH   1  13
TORSDOF 4
