REMARK  8 active torsions:
REMARK  status: ('A' for Active; 'I' for Inactive)
REMARK    1  A    between atoms: N_21  and  C_2 
REMARK    2  A    between atoms: C_3  and  C_23 
REMARK    3  A    between atoms: C_9  and  C_6 
REMARK    4  A    between atoms: N_14  and  C_13 
REMARK    5  A    between atoms: C_29  and  N_21 
REMARK    6  A    between atoms: S_22  and  C_30 
REMARK    7  A    between atoms: C_23  and  S_22 
REMARK    8  A    between atoms: C_30  and  C_29 
ROOT
ATOM      1  C   UNL d   1       0.190  -1.296   0.440  0.00  0.00     0.074 C 
ATOM      2  C   UNL d   1      -1.139  -1.306   0.260  0.00  0.00     0.009 C 
ATOM      3  C   UNL d   1      -1.084   1.181  -0.378  0.00  0.00     0.031 C 
ATOM      4  C   UNL d   1       0.956  -0.030   0.522  0.00  0.00     0.151 C 
ATOM      5  C   UNL d   1      -1.918  -0.010   0.129  0.00  0.00     0.066 C 
ATOM      6  C   UNL d   1       0.216   1.286   0.426  0.00  0.00     0.092 C 
ATOM      7  O   UNL d   1       2.171  -0.079   0.688  0.00  0.00    -0.293 OA
ENDROOT
BRANCH   2   8
ATOM      8  N   UNL d   1      -1.916  -2.453   0.154  0.00  0.00    -0.392 N 
ATOM      9  H   UNL d   1      -2.070  -2.688  -0.833  0.00  0.00     0.159 HD
BRANCH   8  10
ATOM     10  C   UNL d   1      -1.741  -3.652   0.971  0.00  0.00     0.130 C 
BRANCH  10  11
ATOM     11  C   UNL d   1      -2.493  -4.848   0.370  0.00  0.00     0.093 C 
BRANCH  11  12
ATOM     12  S   UNL d   1      -1.859  -5.359  -1.273  0.00  0.00    -0.163 SA
BRANCH  12  13
ATOM     13  C   UNL d   1      -0.211  -5.964  -0.785  0.00  0.00     0.113 C 
BRANCH  13  14
ATOM     14  C   UNL d   1       0.631  -6.396  -1.969  0.00  0.00    -0.037 A 
ATOM     15  C   UNL d   1       1.420  -5.452  -2.680  0.00  0.00    -0.054 A 
ATOM     16  C   UNL d   1       2.283  -5.894  -3.698  0.00  0.00     0.014 A 
ATOM     17  C   UNL d   1       1.422  -3.971  -2.395  0.00  0.00     0.049 C 
ATOM     18  C   UNL d   1       2.373  -7.241  -4.047  0.00  0.00    -0.061 A 
ATOM     19  C   UNL d   1       1.554  -8.161  -3.387  0.00  0.00     0.014 A 
ATOM     20  C   UNL d   1       3.327  -7.682  -5.116  0.00  0.00     0.048 C 
ATOM     21  C   UNL d   1       0.671  -7.754  -2.372  0.00  0.00    -0.054 A 
ATOM     22  C   UNL d   1      -0.153  -8.832  -1.712  0.00  0.00     0.049 C 
ENDBRANCH  13  14
ENDBRANCH  12  13
ENDBRANCH  11  12
ENDBRANCH  10  11
ENDBRANCH   8  10
ENDBRANCH   2   8
BRANCH   3  23
ATOM     23  C   UNL d   1      -0.929   1.142  -1.895  0.00  0.00    -0.053 A 
ATOM     24  C   UNL d   1       0.209   0.660  -2.542  0.00  0.00     0.010 A 
ATOM     25  C   UNL d   1       0.265   0.562  -3.941  0.00  0.00     0.030 A 
ATOM     26  C   UNL d   1      -0.803   0.936  -4.767  0.00  0.00     0.029 A 
ATOM     27  C   UNL d   1      -1.926   1.453  -4.105  0.00  0.00     0.030 A 
ATOM     28  C   UNL d   1      -1.992   1.560  -2.704  0.00  0.00     0.010 A 
BRANCH  26  29
ATOM     29  N   UNL d   1      -0.790   0.731  -6.144  0.00  0.00    -0.390 N 
ATOM     30  C   UNL d   1      -1.451   1.680  -7.038  0.00  0.00     0.149 C 
ATOM     31  C   UNL d   1       0.274  -0.045  -6.777  0.00  0.00     0.149 C 
ENDBRANCH  26  29
ENDBRANCH   3  23
TORSDOF 8
