REMARK  10 active torsions:
REMARK  status: ('A' for Active; 'I' for Inactive)
REMARK    1  A    between atoms: N_2  and  N_1 
REMARK       I    between atoms: C_3  and  N_2 
REMARK       I    between atoms: N_12  and  C_3 
REMARK       I    between atoms: C1_22  and  N_4 
REMARK    2  A    between atoms: C_8  and  N_4 
REMARK    3  A    between atoms: O_13  and  C_5 
REMARK    4  A    between atoms: C_8  and  C_5 
REMARK    5  A    between atoms: C_8  and  C_14 
REMARK    6  A    between atoms: C_15  and  N_12 
REMARK    7  A    between atoms: C_14  and  C_16 
REMARK    8  A    between atoms: C_16  and  C_15 
REMARK    9  A    between atoms: O3_23  and  C1_22 
REMARK   10  A    between atoms: C5_25  and  O3_23 
ROOT
ATOM      1  C   UNK d   1       0.214   8.130  -3.257  0.00  0.00     0.184 C 
ENDROOT
BRANCH   1   2
ATOM      2  C   UNK d   1       0.841   6.810  -2.763  0.00  0.00     0.037 C 
BRANCH   2   3
ATOM      3  C   UNK d   1       0.482   5.516  -3.526  0.00  0.00     0.017 C 
BRANCH   3   4
ATOM      4  C   UNK d   1       0.749   5.589  -5.027  0.00  0.00     0.095 C 
BRANCH   4   5
ATOM      5  N   UNK d   1       0.446   4.308  -5.679  0.00  0.00    -0.263 NA
ATOM      6  C   UNK d   1       0.567   4.231  -7.047  0.00  0.00     0.170 C 
ATOM      7  N   UNK d   1       0.352   2.970  -7.513  0.00  0.00    -0.216 N 
ATOM      8  N   UNK d   1       0.856   5.299  -7.712  0.00  0.00    -0.375 N 
ATOM      9  H   UNK d   1      -0.136   2.343  -6.899  0.00  0.00     0.196 HD
ATOM     10  H   UNK d   1       0.934   5.084  -8.718  0.00  0.00     0.158 HD
ATOM     11  HN  UNK d   1       0.989   6.223  -7.301  1.00  0.00     0.158 HD
ATOM     12  H   UNK d   1       0.859   3.522  -5.189  0.00  0.00     0.130 HD
BRANCH   7  13
ATOM     13  N   UNK d   1       0.354   2.672  -8.823  0.00  0.00    -0.037 N 
ATOM     14  O   UNK d   1      -0.114   1.562  -9.069  0.00  0.00    -0.516 OA
ATOM     15  O   UNK d   1       0.821   3.475  -9.630  0.00  0.00    -0.516 OA
ENDBRANCH   7  13
ENDBRANCH   4   5
ENDBRANCH   3   4
ENDBRANCH   2   3
ENDBRANCH   1   2
BRANCH   1  16
ATOM     16  C   UNK d   1      -1.292   8.349  -2.987  0.00  0.00     0.163 C 
ATOM     17  O   UNK d   1      -1.834   9.433  -3.181  0.00  0.00    -0.648 OA
BRANCH  16  18
ATOM     18  O   UNK d   1      -2.001   7.326  -2.474  0.00  0.00    -0.775 OA
ATOM     19  H   UNK d   1      -1.518   6.523  -2.222  0.00  0.00     0.167 HD
ENDBRANCH  16  18
ENDBRANCH   1  16
BRANCH   1  20
ATOM     20  N   UNK d   1       0.883   9.280  -2.630  0.00  0.00    -0.322 N 
ATOM     21  C1  <1> d   1       2.068   9.806  -3.057  0.00  0.00     0.362 C 
ATOM     22  O4  <1> d   1       2.796   9.304  -3.892  0.00  0.00    -0.238 OA
ATOM     23  H   UNK d   1       0.313   9.946  -2.115  0.00  0.00     0.165 HD
BRANCH  21  24
ATOM     24  O3  <1> d   1       2.279  10.967  -2.397  0.00  0.00    -0.294 OA
BRANCH  24  25
ATOM     25  C5  <1> d   1       3.451  11.801  -2.621  0.00  0.00     0.061 C 
ATOM     26  C7  <1> d   1       3.483  12.366  -4.046  0.00  0.00     0.046 C 
ATOM     27  C8  <1> d   1       3.291  12.966  -1.629  0.00  0.00     0.046 C 
ATOM     28  C9  <1> d   1       4.752  11.062  -2.291  0.00  0.00     0.046 C 
ENDBRANCH  24  25
ENDBRANCH  21  24
ENDBRANCH   1  20
TORSDOF 10
