REMARK  5 active torsions:
REMARK  status: ('A' for Active; 'I' for Inactive)
REMARK    1  A    between atoms: N_7  and  S_1 
REMARK    2  A    between atoms: C_8  and  S_1 
REMARK    3  A    between atoms: C_2  and  N_7 
REMARK    4  A    between atoms: C_11  and  C_3 
REMARK    5  A    between atoms: C_17  and  C_6 
ROOT
ATOM      1  C   UNL d   1       0.836  -2.452   0.947  0.00  0.00     0.045 A 
ATOM      2  C   UNL d   1       2.093  -2.966   0.680  0.00  0.00     0.073 A 
ATOM      3  S   UNL d   1       2.047  -4.674   0.563  0.00  0.00    -0.084 SA
ATOM      4  C   UNL d   1      -0.143  -3.492   1.084  0.00  0.00     0.045 A 
ATOM      5  C   UNL d   1       0.375  -4.765   0.917  0.00  0.00     0.017 A 
ENDROOT
BRANCH   1   6
ATOM      6  N   UNL d   1       0.501  -1.081   1.120  0.00  0.00    -0.180 NA
ATOM      7  H   UNL d   1      -0.309  -0.978   1.737  0.00  0.00     0.146 HD
BRANCH   6   8
ATOM      8  S   UNL d   1       0.052  -0.216  -0.291  0.00  0.00     0.246 S 
ATOM      9  O   UNL d   1      -1.392  -0.327  -0.346  0.00  0.00    -0.206 OA
ATOM     10  O   UNL d   1       0.858  -0.637  -1.419  0.00  0.00    -0.206 OA
BRANCH   8  11
ATOM     11  C   UNL d   1       0.433   1.490   0.134  0.00  0.00     0.081 A 
ATOM     12  C   UNL d   1      -0.619   2.227   0.727  0.00  0.00     0.033 A 
ATOM     13  C   UNL d   1      -0.514   3.608   0.972  0.00  0.00    -0.039 A 
ATOM     14  C   UNL d   1      -1.688   4.355   1.543  0.00  0.00     0.050 C 
ATOM     15  C   UNL d   1       0.668   4.257   0.609  0.00  0.00     0.040 A 
ATOM     16  C   UNL d   1       1.721   3.535   0.041  0.00  0.00     0.032 A 
ATOM     17 CL   UNL d   1       0.870   5.960   0.814  0.00  0.00    -0.084 Cl
ATOM     18  C   UNL d   1       1.628   2.147  -0.208  0.00  0.00    -0.037 A 
ATOM     19  C   UNL d   1       2.839   1.525  -0.844  0.00  0.00     0.050 C 
ENDBRANCH   8  11
ENDBRANCH   6   8
ENDBRANCH   1   6
BRANCH   2  20
ATOM     20  C   UNL d   1       3.355  -2.243   0.562  0.00  0.00     0.164 C 
ATOM     21  O   UNL d   1       3.511  -1.104   1.013  0.00  0.00    -0.292 OA
ATOM     22  C   UNL d   1       4.548  -2.915  -0.084  0.00  0.00     0.097 C 
ENDBRANCH   2  20
BRANCH   5  23
ATOM     23  C   UNL d   1      -0.310  -6.073   0.998  0.00  0.00    -0.019 A 
ATOM     24  C   UNL d   1      -1.657  -6.196   0.622  0.00  0.00     0.013 A 
ATOM     25  C   UNL d   1      -2.327  -7.421   0.729  0.00  0.00     0.001 A 
ATOM     26  C   UNL d   1      -1.661  -8.545   1.210  0.00  0.00     0.000 A 
ATOM     27  C   UNL d   1      -0.324  -8.447   1.580  0.00  0.00     0.001 A 
ATOM     28  C   UNL d   1       0.344  -7.222   1.476  0.00  0.00     0.013 A 
ENDBRANCH   5  23
TORSDOF 5
