REMARK  4 active torsions:
REMARK  status: ('A' for Active; 'I' for Inactive)
REMARK    1  A    between atoms: C_2  and  S_1 
REMARK    2  A    between atoms: N_6  and  S_1 
REMARK    3  A    between atoms: C_8  and  C_4 
REMARK    4  A    between atoms: O_13  and  C_8 
ROOT
ATOM      1  C   UNL d   1       0.576   1.627   0.913  0.00  0.00     0.151 A 
ATOM      2  N   UNL d   1       0.659   2.923   0.423  0.00  0.00    -0.336 N 
ATOM      3  C   UNL d   1       0.182   3.828   1.368  0.00  0.00     0.111 A 
ATOM      4  C   UNL d   1       0.065   1.725   2.199  0.00  0.00     0.046 A 
ATOM      5  C   UNL d   1      -0.168   3.079   2.482  0.00  0.00     0.039 A 
ATOM      6  C   UNL d   1       1.174   3.315  -0.876  0.00  0.00     0.157 C 
ENDROOT
BRANCH   1   7
ATOM      7  S   UNL d   1       1.075   0.161   0.021  0.00  0.00     0.276 S 
ATOM      8  O   UNL d   1       0.645  -0.953   0.844  0.00  0.00    -0.199 OA
ATOM      9  O   UNL d   1       2.468   0.392  -0.284  0.00  0.00    -0.199 OA
BRANCH   7  10
ATOM     10  N   UNL d   1       0.182   0.131  -1.435  0.00  0.00    -0.306 N 
ATOM     11  C   UNL d   1      -1.292   0.115  -1.241  0.00  0.00     0.135 C 
ATOM     12  C   UNL d   1      -2.126  -0.335  -2.436  0.00  0.00     0.021 C 
ATOM     13  C   UNL d   1      -1.832   0.418  -3.729  0.00  0.00     0.002 C 
ATOM     14  C   UNL d   1      -0.680  -0.198  -4.515  0.00  0.00     0.002 C 
ATOM     15  C   UNL d   1       0.676  -0.089  -3.827  0.00  0.00     0.021 C 
ATOM     16  C   UNL d   1       0.742  -0.779  -2.465  0.00  0.00     0.135 C 
ENDBRANCH   7  10
ENDBRANCH   1   7
BRANCH   3  17
ATOM     17  C   UNL d   1       0.086   5.269   1.209  0.00  0.00     0.309 C 
ATOM     18  O   UNL d   1       0.381   5.905   0.206  0.00  0.00    -0.258 OA
BRANCH  17  19
ATOM     19  O   UNL d   1      -0.400   5.816   2.362  0.00  0.00    -0.321 OA
ATOM     20  C   UNL d   1      -0.547   7.236   2.351  0.00  0.00     0.213 C 
ENDBRANCH  17  19
ENDBRANCH   3  17
TORSDOF 4
