REMARK  6 active torsions:
REMARK  status: ('A' for Active; 'I' for Inactive)
REMARK    1  A    between atoms: O_15  and  C_1 
REMARK    2  A    between atoms: C_12  and  C_2 
REMARK    3  A    between atoms: C_4  and  C_14 
REMARK    4  A    between atoms: C_18  and  N_8 
REMARK    5  A    between atoms: O_17  and  C_13 
REMARK    6  A    between atoms: C_14  and  C_18 
ROOT
ATOM      1  C   UNL d   1       0.893  -0.102   0.018  0.00  0.00     0.080 A 
ATOM      2  C   UNL d   1       0.295   1.163   0.027  0.00  0.00     0.012 A 
ATOM      3  C   UNL d   1       0.107  -1.250   0.001  0.00  0.00     0.074 A 
ATOM      4  C   UNL d   1      -1.099   1.267   0.016  0.00  0.00     0.018 A 
ATOM      5  C   UNL d   1      -1.287  -1.153  -0.007  0.00  0.00     0.070 A 
ATOM      6  C   UNL d   1      -1.887   0.109  -0.001  0.00  0.00     0.038 A 
ENDROOT
BRANCH   2   7
ATOM      7  C   UNL d   1       1.099   2.402   0.050  0.00  0.00     0.097 C 
ATOM      8  N   UNL d   1       2.390   2.352   0.079  0.00  0.00    -0.398 N 
ATOM      9  HN  UNL d   1       2.916   1.478   0.089  1.00  0.00     0.158 HD
BRANCH   8  10
ATOM     10  C   UNL d   1       3.029   3.678   0.095  0.00  0.00     0.124 C 
BRANCH  10  11
ATOM     11  C   UNL d   1       4.547   3.481   0.104  0.00  0.00     0.066 C 
BRANCH  11  12
ATOM     12  C   UNL d   1       5.281   4.788   0.130  0.00  0.00    -0.016 A 
ATOM     13  S   UNL d   1       5.719   5.563  -1.334  0.00  0.00    -0.106 SA
ATOM     14  C   UNL d   1       6.460   6.858  -0.501  0.00  0.00     0.050 A 
ATOM     15  C   UNL d   1       6.378   6.708   0.865  0.00  0.00     0.008 A 
ATOM     16  C   UNL d   1       5.698   5.511   1.230  0.00  0.00     0.015 A 
ENDBRANCH  11  12
ENDBRANCH  10  11
ENDBRANCH   8  10
ENDBRANCH   2   7
BRANCH   1  17
ATOM     17  O   UNL d   1       2.250  -0.279   0.024  0.00  0.00    -0.360 OA
ATOM     18  H   UNL d   1       2.654   0.620   0.038  0.00  0.00     0.217 HD
ENDBRANCH   1  17
BRANCH   5  19
ATOM     19  O   UNL d   1      -1.940  -2.354  -0.020  0.00  0.00    -0.356 OA
ATOM     20  C   UNL d   1      -3.361  -2.321  -0.019  0.00  0.00     0.210 C 
ENDBRANCH   5  19
TORSDOF 6
