REMARK  4 active torsions:
REMARK  status: ('A' for Active; 'I' for Inactive)
REMARK    1  A    between atoms: C_5  and  N_1 
REMARK    2  A    between atoms: C_8  and  C_4 
REMARK       I    between atoms: N_12  and  C_8 
REMARK       I    between atoms: C_11  and  N_13 
REMARK    3  A    between atoms: C_16  and  C_11 
REMARK    4  A    between atoms: N_13  and  N_12 
ROOT
ATOM      1  N   UNL d   1       0.889  -0.691  -0.067  0.00  0.00    -0.257 N 
ATOM      2  N   UNL d   1       0.923   0.679  -0.082  0.00  0.00    -0.288 N 
ATOM      3  HN  UNL d   1       1.753   1.272  -0.087  1.00  0.00     0.188 HD
ATOM      4  C   UNL d   1      -0.357   1.080  -0.090  0.00  0.00     0.119 A 
ATOM      5  C   UNL d   1      -0.426  -1.150   0.007  0.00  0.00     0.033 A 
ATOM      6  C   UNL d   1      -1.226  -0.030  -0.070  0.00  0.00     0.063 A 
ATOM      7  C   UNL d   1      -0.885  -2.550   0.223  0.00  0.00     0.070 C 
ENDROOT
BRANCH   4   8
ATOM      8  C   UNL d   1      -0.797   2.492  -0.100  0.00  0.00     0.288 C 
ATOM      9  N   UNL d   1       0.196   3.448   0.034  0.00  0.00    -0.262 N 
ATOM     10  H   UNL d   1       1.172   3.198   0.180  0.00  0.00     0.190 HD
ATOM     11  O   UNL d   1      -1.983   2.808  -0.201  0.00  0.00    -0.264 OA
BRANCH   9  12
ATOM     12  N   UNL d   1      -0.171   4.814   0.073  0.00  0.00    -0.267 N 
ATOM     13  C   UNL d   1       0.813   5.774   0.203  0.00  0.00     0.243 C 
ATOM     14  O   UNL d   1       2.003   5.456   0.284  0.00  0.00    -0.271 OA
ATOM     15  H   UNL d   1      -1.163   5.020  -0.029  0.00  0.00     0.190 HD
BRANCH  13  16
ATOM     16  C   UNL d   1       0.341   7.247   0.251  0.00  0.00     0.032 C 
ATOM     17  C   UNL d   1      -0.595   7.473   1.448  0.00  0.00     0.025 C 
ATOM     18  C   UNL d   1       1.571   8.161   0.414  0.00  0.00     0.025 C 
ATOM     19  C   UNL d   1      -0.385   7.644  -1.044  0.00  0.00     0.025 C 
ENDBRANCH  13  16
ENDBRANCH   9  12
ENDBRANCH   4   8
BRANCH   1  20
ATOM     20  C   UNL d   1       2.108  -1.443  -0.077  0.00  0.00     0.100 A 
ATOM     21  C   UNL d   1       3.222  -1.019   0.683  0.00  0.00     0.066 A 
ATOM     22  C   UNL d   1       4.393  -1.795   0.731  0.00  0.00     0.050 A 
ATOM     23 CL   UNL d   1       3.251   0.385   1.700  0.00  0.00    -0.082 Cl
ATOM     24  C   UNL d   1       4.464  -3.002   0.050  0.00  0.00     0.037 A 
ATOM     25  C   UNL d   1       3.398  -3.421  -0.730  0.00  0.00     0.050 A 
ATOM     26 CL   UNL d   1       5.886  -3.965   0.152  0.00  0.00    -0.084 Cl
ATOM     27  C   UNL d   1       2.245  -2.627  -0.832  0.00  0.00     0.066 A 
ATOM     28 CL   UNL d   1       1.151  -3.111  -2.088  0.00  0.00    -0.082 Cl
ENDBRANCH   1  20
TORSDOF 4
