REMARK  5 active torsions:
REMARK  status: ('A' for Active; 'I' for Inactive)
REMARK    1  A    between atoms: C_7  and  C_1 
REMARK    2  A    between atoms: N_17  and  C_3 
REMARK    3  A    between atoms: C_9  and  C_7 
REMARK    4  A    between atoms: C_11  and  C_7 
REMARK    5  A    between atoms: N_8  and  C_11 
ROOT
ATOM      1  C   UNL d   1      -0.205   1.660   0.043  0.00  0.00     0.059 A 
ATOM      2  N   UNL d   1      -1.149  -0.496  -0.240  0.00  0.00    -0.294 N 
ATOM      3  C   UNL d   1      -1.219   0.883  -0.411  0.00  0.00     0.096 A 
ATOM      4  N   UNL d   1       0.929  -0.351   0.865  0.00  0.00    -0.270 N 
ATOM      5  C   UNL d   1      -0.071  -1.149   0.360  0.00  0.00     0.332 A 
ATOM      6  C   UNL d   1       0.939   1.016   0.763  0.00  0.00     0.261 A 
ATOM      7  O   UNL d   1      -0.006  -2.380   0.421  0.00  0.00    -0.246 OA
ATOM      8  O   UNL d   1       1.856   1.708   1.203  0.00  0.00    -0.267 OA
ATOM      9  C   UNL d   1      -2.166  -1.416  -0.741  0.00  0.00     0.162 C 
ATOM     10  C   UNL d   1       2.042  -1.020   1.514  0.00  0.00     0.164 C 
ENDROOT
BRANCH   1  11
ATOM     11  C   UNL d   1      -0.037   3.189  -0.108  0.00  0.00     0.086 C 
BRANCH  11  12
ATOM     12  C   UNL d   1       0.731   3.550  -1.409  0.00  0.00    -0.026 A 
ATOM     13  C   UNL d   1       1.571   4.683  -1.486  0.00  0.00     0.042 A 
ATOM     14  C   UNL d   1       2.264   4.989  -2.664  0.00  0.00     0.048 A 
ATOM     15 CL   UNL d   1       1.804   5.760  -0.154  0.00  0.00    -0.084 Cl
ATOM     16  C   UNL d   1       2.131   4.175  -3.782  0.00  0.00     0.035 A 
ATOM     17  C   UNL d   1       1.310   3.058  -3.740  0.00  0.00     0.024 A 
ATOM     18 CL   UNL d   1       2.990   4.545  -5.225  0.00  0.00    -0.084 Cl
ATOM     19  C   UNL d   1       0.617   2.753  -2.565  0.00  0.00     0.011 A 
ENDBRANCH  11  12
BRANCH  11  20
ATOM     20  C   UNL d   1      -1.276   4.095   0.037  0.00  0.00     0.215 C 
BRANCH  20  21
ATOM     21  N   UNL d   1      -1.980   3.866   1.341  0.00  0.00    -0.155 N 
ATOM     22  O   UNL d   1      -3.215   3.951   1.322  0.00  0.00    -0.537 OA
ATOM     23  O   UNL d   1      -1.290   3.684   2.351  0.00  0.00    -0.537 OA
ENDBRANCH  20  21
ENDBRANCH  11  20
ENDBRANCH   1  11
BRANCH   3  24
ATOM     24  N   UNL d   1      -2.281   1.461  -1.088  0.00  0.00    -0.288 NA
ATOM     25  H   UNL d   1      -2.862   0.812  -1.603  0.00  0.00     0.125 HD
ATOM     26  H   UNL d   1      -2.030   2.224  -1.705  0.00  0.00     0.125 HD
ENDBRANCH   3  24
TORSDOF 5
