REMARK  4 active torsions:
REMARK  status: ('A' for Active; 'I' for Inactive)
REMARK    1  A    between atoms: N_2  and  C_1 
REMARK       I    between atoms: N_3  and  C_4 
REMARK       I    between atoms: C_5  and  N_3 
REMARK       I    between atoms: C_4  and  N_7 
REMARK    2  A    between atoms: C_9  and  C_5 
REMARK    3  A    between atoms: N_10  and  C_6 
REMARK    4  A    between atoms: C_8  and  C_12 
ROOT
ATOM      1  N   UNL d   1       4.258  -6.603   0.787  0.00  0.00    -0.275 N 
ATOM      2  C   UNL d   1       3.046  -6.283   0.228  0.00  0.00     0.325 C 
ATOM      3  C   UNL d   1       5.405  -5.935   1.239  0.00  0.00     0.261 C 
ATOM      4  N   UNL d   1       2.396  -5.101   0.462  0.00  0.00    -0.331 N 
ATOM      5  N   UNL d   1       1.097  -2.533   0.455  0.00  0.00    -0.376 N 
ATOM      6  O   UNL d   1       2.564  -7.157  -0.505  0.00  0.00    -0.247 OA
ATOM      7  O   UNL d   1       5.537  -4.750   1.486  0.00  0.00    -0.267 OA
ATOM      8  C   UNL d   1       2.954  -3.970   1.215  0.00  0.00     0.147 C 
ATOM      9  C   UNL d   1       1.326  -4.771  -0.497  0.00  0.00     0.147 C 
ATOM     10  C   UNL d   1       0.336  -3.696  -0.022  0.00  0.00     0.143 C 
ATOM     11  C   UNL d   1       1.938  -2.884   1.617  0.00  0.00     0.143 C 
ATOM     12  H   UNL d   1       4.445  -7.553   0.492  0.00  0.00     0.173 HD
ENDROOT
BRANCH   3  13
ATOM     13  C   UNL d   1       6.534  -6.842   1.587  0.00  0.00     0.054 A 
ATOM     14  C   UNL d   1       6.992  -7.869   0.753  0.00  0.00     0.049 A 
ATOM     15 CL   UNL d   1       6.402  -8.102  -0.852  0.00  0.00    -0.083 Cl
ATOM     16  C   UNL d   1       7.983  -8.743   1.208  0.00  0.00     0.025 A 
ATOM     17  C   UNL d   1       8.536  -8.583   2.480  0.00  0.00     0.002 A 
ATOM     18  C   UNL d   1       8.123  -7.528   3.291  0.00  0.00     0.001 A 
ATOM     19  C   UNL d   1       7.130  -6.655   2.845  0.00  0.00     0.019 A 
ENDBRANCH   3  13
BRANCH   5  20
ATOM     20  C   UNL d   1       0.591  -1.247   0.361  0.00  0.00     0.063 A 
ATOM     21  C   UNL d   1       1.406  -0.101   0.265  0.00  0.00     0.130 A 
ATOM     22  C   UNL d   1       0.894   1.210   0.223  0.00  0.00     0.054 A 
ATOM     23  C   UNL d   1      -0.488   1.414   0.252  0.00  0.00     0.050 A 
ATOM     24  C   UNL d   1      -1.325   0.291   0.275  0.00  0.00     0.018 A 
ATOM     25  C   UNL d   1      -0.793  -1.006   0.335  0.00  0.00     0.032 A 
BRANCH  21  26
ATOM     26  N   UNL d   1       2.846  -0.225   0.112  0.00  0.00    -0.113 N 
ATOM     27  O   UNL d   1       3.272  -0.778  -0.914  0.00  0.00    -0.532 OA
ATOM     28  O   UNL d   1       3.543   0.287   1.000  0.00  0.00    -0.532 OA
ENDBRANCH  21  26
BRANCH  23  29
ATOM     29  C   UNL d   1      -1.080   2.802   0.272  0.00  0.00     0.417 C 
ATOM     30  F   UNL d   1      -0.144   3.789   0.317  0.00  0.00    -0.166 F 
ATOM     31  F   UNL d   1      -1.847   3.059  -0.822  0.00  0.00    -0.166 F 
ATOM     32  F   UNL d   1      -1.885   3.000   1.352  0.00  0.00    -0.166 F 
ENDBRANCH  23  29
ENDBRANCH   5  20
TORSDOF 4
