REMARK  7 active torsions:
REMARK  status: ('A' for Active; 'I' for Inactive)
REMARK    1  A    between atoms: C_6  and  C_1 
REMARK    2  A    between atoms: C_15  and  C_4 
REMARK    3  A    between atoms: O_11  and  C_6 
REMARK    4  A    between atoms: N_8  and  O_11 
REMARK    5  A    between atoms: C_13  and  O_16 
REMARK    6  A    between atoms: C_20  and  C_14 
REMARK    7  A    between atoms: O_16  and  C_20 
ROOT
ATOM      1  C   UNL d   1      -1.578  -0.468   0.316  0.00  0.00     0.320 C 
ATOM      2  O   UNL d   1      -1.666   0.740   0.530  0.00  0.00    -0.257 OA
ENDROOT
BRANCH   1   3
ATOM      3  C   UNL d   1      -0.300  -1.177   0.205  0.00  0.00     0.102 A 
ATOM      4  C   UNL d   1       1.062  -0.733   0.423  0.00  0.00     0.084 A 
ATOM      5  N   UNL d   1       1.913  -1.749   0.182  0.00  0.00    -0.259 N 
ATOM      6  O   UNL d   1       1.170  -2.826  -0.183  0.00  0.00    -0.241 OA
ATOM      7  HN  UNL d   1       2.929  -1.716   0.259  1.00  0.00     0.195 HD
ATOM      8  C   UNL d   1      -0.140  -2.504  -0.175  0.00  0.00     0.091 A 
ATOM      9  C   UNL d   1      -1.024  -3.615  -0.580  0.00  0.00     0.080 C 
BRANCH   4  10
ATOM     10  C   UNL d   1       1.665   0.545   0.849  0.00  0.00    -0.006 A 
ATOM     11  C   UNL d   1       2.989   0.844   0.462  0.00  0.00     0.014 A 
ATOM     12  C   UNL d   1       3.645   1.996   0.909  0.00  0.00     0.001 A 
ATOM     13  C   UNL d   1       2.981   2.885   1.746  0.00  0.00     0.000 A 
ATOM     14  C   UNL d   1       1.671   2.611   2.136  0.00  0.00     0.001 A 
ATOM     15  C   UNL d   1       1.021   1.446   1.702  0.00  0.00     0.014 A 
ENDBRANCH   4  10
ENDBRANCH   1   3
BRANCH   1  16
ATOM     16  O   UNL d   1      -2.671  -1.298   0.121  0.00  0.00    -0.195 OA
BRANCH  16  17
ATOM     17  N   UNL d   1      -3.919  -0.667   0.412  0.00  0.00    -0.264 N 
ATOM     18  C   UNL d   1      -4.925  -1.301  -0.133  0.00  0.00     0.031 C 
ATOM     19  C   UNL d   1      -4.756  -2.469  -1.080  0.00  0.00     0.068 C 
ATOM     20  HN  UNL d   1      -4.014   0.176   0.978  1.00  0.00     0.194 HD
BRANCH  18  21
ATOM     21  C   UNL d   1      -6.379  -0.819   0.090  0.00  0.00     0.229 C 
BRANCH  21  22
ATOM     22  O   UNL d   1      -7.203  -1.918   0.505  0.00  0.00    -0.344 OA
BRANCH  22  23
ATOM     23  C   UNL d   1      -8.506  -1.883   0.064  0.00  0.00     0.091 A 
ATOM     24  C   UNL d   1      -8.898  -2.384  -1.188  0.00  0.00     0.069 A 
ATOM     25  C   UNL d   1     -10.251  -2.543  -1.508  0.00  0.00     0.050 A 
ATOM     26 CL   UNL d   1      -7.768  -2.891  -2.384  0.00  0.00    -0.081 Cl
ATOM     27  C   UNL d   1     -11.225  -2.216  -0.572  0.00  0.00     0.035 A 
ATOM     28  C   UNL d   1     -10.857  -1.712   0.674  0.00  0.00     0.026 A 
ATOM     29 CL   UNL d   1     -12.884  -2.475  -0.947  0.00  0.00    -0.084 Cl
ATOM     30  C   UNL d   1      -9.501  -1.552   0.994  0.00  0.00     0.040 A 
ENDBRANCH  22  23
ENDBRANCH  21  22
ENDBRANCH  18  21
ENDBRANCH  16  17
ENDBRANCH   1  16
TORSDOF 7
