REMARK  4 active torsions:
REMARK  status: ('A' for Active; 'I' for Inactive)
REMARK    1  A    between atoms: N_6  and  N_1 
REMARK    2  A    between atoms: C_9  and  C_4 
REMARK    3  A    between atoms: C_11  and  N_6 
REMARK    4  A    between atoms: C_14  and  C_10 
ROOT
ATOM      1  N   UNL d   1      -0.120   0.883   0.223  0.00  0.00    -0.208 N 
ATOM      2  C   UNL d   1       0.532  -0.157  -0.420  0.00  0.00     0.250 C 
ATOM      3  C   UNL d   1      -0.080   0.773   1.594  0.00  0.00     0.242 C 
ATOM      4  C   UNL d   1       0.890  -1.191   0.631  0.00  0.00     0.121 C 
ATOM      5  C   UNL d   1       0.352  -0.619   1.943  0.00  0.00     0.123 C 
ATOM      6  O   UNL d   1       0.855  -0.219  -1.599  0.00  0.00    -0.271 OA
ATOM      7  O   UNL d   1      -0.289   1.642   2.432  0.00  0.00    -0.272 OA
ENDROOT
BRANCH   1   8
ATOM      8  N   UNL d   1      -0.064   2.150  -0.389  0.00  0.00    -0.194 NA
ATOM      9  H   UNL d   1       0.808   2.628  -0.161  0.00  0.00     0.153 HD
BRANCH   8  10
ATOM     10  C   UNL d   1      -1.177   3.005  -0.209  0.00  0.00     0.028 A 
ATOM     11  C   UNL d   1      -0.949   4.388  -0.204  0.00  0.00     0.026 A 
ATOM     12  C   UNL d   1      -2.005   5.298  -0.147  0.00  0.00     0.009 A 
ATOM     13  C   UNL d   1      -3.331   4.852  -0.128  0.00  0.00    -0.055 A 
ATOM     14  C   UNL d   1      -3.565   3.469  -0.131  0.00  0.00     0.009 A 
ATOM     15  C   UNL d   1      -2.500   2.556  -0.181  0.00  0.00     0.026 A 
BRANCH  13  16
ATOM     16  C   UNL d   1      -4.488   5.835  -0.164  0.00  0.00     0.010 C 
ATOM     17  C   UNL d   1      -4.498   6.757   1.058  0.00  0.00     0.015 C 
ATOM     18  C   UNL d   1      -4.468   6.658  -1.457  0.00  0.00     0.015 C 
ENDBRANCH  13  16
ENDBRANCH   8  10
ENDBRANCH   1   8
BRANCH   4  19
ATOM     19  C   UNL d   1       2.386  -1.464   0.676  0.00  0.00    -0.044 A 
ATOM     20  C   UNL d   1       3.314  -0.441   0.934  0.00  0.00     0.008 A 
ATOM     21  C   UNL d   1       4.686  -0.710   0.949  0.00  0.00     0.001 A 
ATOM     22  C   UNL d   1       5.145  -2.001   0.708  0.00  0.00     0.000 A 
ATOM     23  C   UNL d   1       4.238  -3.026   0.454  0.00  0.00     0.001 A 
ATOM     24  C   UNL d   1       2.866  -2.760   0.438  0.00  0.00     0.008 A 
ENDBRANCH   4  19
TORSDOF 4
