REMARK  4 active torsions:
REMARK  status: ('A' for Active; 'I' for Inactive)
REMARK    1  A    between atoms: C_11  and  C_3 
REMARK    2  A    between atoms: C_12  and  C_4 
REMARK    3  A    between atoms: C_6  and  C_10 
REMARK    4  A    between atoms: C_7  and  C_9 
ROOT
ATOM      1  N   UNL d   1       1.407  -0.593  -0.022  0.00  0.00    -0.349 N 
ATOM      2  HN  UNL d   1       2.293  -1.098  -0.044  1.00  0.00     0.166 HD
ATOM      3  C   UNL d   1       0.217  -1.165   0.021  0.00  0.00     0.084 A 
ATOM      4  C   UNL d   1       1.284   0.791  -0.034  0.00  0.00     0.050 A 
ATOM      5  S   UNL d   1      -1.109  -0.059   0.023  0.00  0.00    -0.081 SA
ATOM      6  C   UNL d   1      -0.016   1.253   0.012  0.00  0.00     0.082 A 
ENDROOT
BRANCH   3   7
ATOM      7  C   UNL d   1      -0.018  -2.622   0.024  0.00  0.00    -0.002 A 
ATOM      8  C   UNL d   1      -1.164  -3.198   0.598  0.00  0.00     0.015 A 
ATOM      9  C   UNL d   1      -1.364  -4.581   0.576  0.00  0.00     0.017 A 
ATOM     10  C   UNL d   1      -0.420  -5.431  -0.016  0.00  0.00     0.048 A 
ATOM     11  C   UNL d   1       0.732  -4.867  -0.579  0.00  0.00     0.017 A 
ATOM     12  C   UNL d   1       0.930  -3.479  -0.555  0.00  0.00     0.015 A 
BRANCH  10  13
ATOM     13  C   UNL d   1      -0.661  -6.921  -0.030  0.00  0.00     0.417 C 
ATOM     14  F   UNL d   1       0.318  -7.629  -0.657  0.00  0.00    -0.166 F 
ATOM     15  F   UNL d   1      -0.755  -7.442   1.225  0.00  0.00    -0.166 F 
ATOM     16  F   UNL d   1      -1.823  -7.253  -0.659  0.00  0.00    -0.166 F 
ENDBRANCH  10  13
ENDBRANCH   3   7
BRANCH   4  17
ATOM     17  C   UNL d   1       2.452   1.665  -0.076  0.00  0.00    -0.009 A 
ATOM     18  C   UNL d   1       2.381   2.951  -0.633  0.00  0.00     0.014 A 
ATOM     19  C   UNL d   1       3.506   3.780  -0.669  0.00  0.00     0.017 A 
ATOM     20  C   UNL d   1       4.732   3.341  -0.154  0.00  0.00     0.048 A 
ATOM     21  C   UNL d   1       4.807   2.055   0.403  0.00  0.00     0.017 A 
ATOM     22  C   UNL d   1       3.679   1.225   0.437  0.00  0.00     0.014 A 
BRANCH  20  23
ATOM     23  C   UNL d   1       5.955   4.224  -0.201  0.00  0.00     0.417 C 
ATOM     24  F   UNL d   1       5.728   5.436  -0.783  0.00  0.00    -0.166 F 
ATOM     25  F   UNL d   1       6.452   4.496   1.038  0.00  0.00    -0.166 F 
ATOM     26  F   UNL d   1       6.979   3.662  -0.901  0.00  0.00    -0.166 F 
ENDBRANCH  20  23
ENDBRANCH   4  17
TORSDOF 4
