REMARK  1 active torsions:
REMARK  status: ('A' for Active; 'I' for Inactive)
REMARK    1  A    between atoms: N_10  and  C_8 
ROOT
ATOM      1  C   UNL d   1       0.022  -0.750   0.060  0.00  0.00     0.015 A 
ATOM      2  N   UNL d   1       1.170   1.356   0.019  0.00  0.00    -0.300 N 
ATOM      3  HN  UNL d   1       1.137   2.375   0.029  1.00  0.00     0.187 HD
ATOM      4  N   UNL d   1       2.384   0.722  -0.012  0.00  0.00    -0.305 N 
ATOM      5  HN  UNL d   1       3.246   1.267  -0.022  1.00  0.00     0.186 HD
ATOM      6  C   UNL d   1       0.024   0.657   0.037  0.00  0.00     0.060 A 
ATOM      7  C   UNL d   1       1.278  -1.383   0.015  0.00  0.00     0.041 A 
ATOM      8  C   UNL d   1      -1.216  -1.449   0.119  0.00  0.00     0.018 A 
ATOM      9  C   UNL d   1       2.436  -0.621  -0.029  0.00  0.00     0.022 A 
ATOM     10  C   UNL d   1      -2.402   0.661  -0.025  0.00  0.00     0.004 A 
ATOM     11  C   UNL d   1      -2.412  -0.729   0.010  0.00  0.00     0.024 A 
ATOM     12  C   UNL d   1      -1.185   1.338   0.008  0.00  0.00     0.032 A 
ATOM     13  C   UNL d   1       3.781  -1.267  -0.116  0.00  0.00     0.070 C 
ENDROOT
BRANCH   8  14
ATOM     14  N   UNL d   1      -1.284  -2.858   0.071  0.00  0.00    -0.302 NA
ATOM     15  H   UNL d   1      -0.520  -3.316   0.557  0.00  0.00     0.124 HD
ATOM     16  H   UNL d   1      -2.181  -3.227   0.374  0.00  0.00     0.124 HD
ENDBRANCH   8  14
TORSDOF 1
