REMARK  5 active torsions:
REMARK  status: ('A' for Active; 'I' for Inactive)
REMARK    1  A    between atoms: C_22  and  C_2 
REMARK       I    between atoms: C_6  and  N_8 
REMARK    2  A    between atoms: C_11  and  C_6 
REMARK    3  A    between atoms: N_8  and  C_12 
REMARK    4  A    between atoms: C_13  and  C_14 
REMARK    5  A    between atoms: O_23  and  C_22 
ROOT
ATOM      1  C   UNL d   1       7.039   0.954  -0.735  0.00  0.00     0.092 A 
ATOM      2  C   UNL d   1       8.073  -1.250  -1.125  0.00  0.00    -0.016 C 
ATOM      3  O   UNL d   1       8.258   1.581  -1.059  0.00  0.00    -0.275 OA
ATOM      4  C   UNL d   1       9.303   0.852  -1.593  0.00  0.00     0.288 C 
ATOM      5  C   UNL d   1       6.894  -0.432  -0.791  0.00  0.00     0.007 A 
ATOM      6  C   UNL d   1       9.187  -0.612  -1.524  0.00  0.00     0.092 C 
ATOM      7  C   UNL d   1       5.980   1.812  -0.420  0.00  0.00     0.067 A 
ATOM      8  C   UNL d   1       5.617  -0.948  -0.547  0.00  0.00     0.017 A 
ATOM      9  C   UNL d   1       4.704   1.291  -0.220  0.00  0.00     0.037 A 
ATOM     10  O   UNL d   1      10.309   1.376  -2.050  0.00  0.00    -0.260 OA
ATOM     11  C   UNL d   1       4.534  -0.097  -0.287  0.00  0.00     0.030 A 
ENDROOT
BRANCH   9  12
ATOM     12  N   UNL d   1       3.553   2.082  -0.016  0.00  0.00    -0.323 N 
ATOM     13  C   UNL d   1       3.495   3.465   0.045  0.00  0.00     0.256 C 
ATOM     14  O   UNL d   1       4.447   4.239   0.040  0.00  0.00    -0.267 OA
ATOM     15  H   UNL d   1       2.673   1.583  -0.031  0.00  0.00     0.169 HD
BRANCH  13  16
ATOM     16  C   UNL d   1       2.122   4.046   0.041  0.00  0.00     0.032 A 
ATOM     17  C   UNL d   1       1.036   3.429   0.661  0.00  0.00     0.017 A 
ATOM     18  C   UNL d   1      -0.248   3.978   0.534  0.00  0.00     0.009 A 
ATOM     19  C   UNL d   1      -0.478   5.155  -0.210  0.00  0.00    -0.051 A 
ATOM     20  C   UNL d   1       0.643   5.794  -0.763  0.00  0.00     0.009 A 
ATOM     21  C   UNL d   1       1.926   5.250  -0.641  0.00  0.00     0.017 A 
BRANCH  19  22
ATOM     22  C   UNL d   1      -1.911   5.675  -0.430  0.00  0.00    -0.024 C 
ATOM     23  C   UNL d   1      -1.973   6.957  -1.292  0.00  0.00     0.019 C 
ATOM     24  C   UNL d   1      -2.736   4.594  -1.165  0.00  0.00     0.019 C 
ATOM     25  C   UNL d   1      -2.591   5.993   0.916  0.00  0.00     0.019 C 
ENDBRANCH  19  22
ENDBRANCH  13  16
ENDBRANCH   9  12
BRANCH   2  26
ATOM     26  C   UNL d   1       8.059  -2.748  -0.965  0.00  0.00     0.206 C 
BRANCH  26  27
ATOM     27  O   UNL d   1       7.107  -3.334  -1.847  0.00  0.00    -0.391 OA
ATOM     28  C   UNL d   1       7.015  -4.739  -1.648  0.00  0.00     0.201 C 
ENDBRANCH  26  27
ENDBRANCH   2  26
TORSDOF 5
