REMARK  6 active torsions:
REMARK  status: ('A' for Active; 'I' for Inactive)
REMARK    1  A    between atoms: C_2  and  S_1 
REMARK    2  A    between atoms: N_7  and  S_1 
REMARK    3  A    between atoms: C_8  and  C_3 
REMARK       I    between atoms: N_12  and  C_8 
REMARK    4  A    between atoms: C_16  and  N_12 
REMARK    5  A    between atoms: C_17  and  C_16 
REMARK    6  A    between atoms: C_18  and  C_17 
ROOT
ATOM      1  C   UNL d   1       0.475  -1.561   0.767  0.00  0.00     0.186 A 
ATOM      2  C   UNL d   1      -0.423  -3.114   2.198  0.00  0.00     0.064 A 
ATOM      3  C   UNL d   1      -0.324  -1.719   1.891  0.00  0.00     0.070 A 
ATOM      4  O   UNL d   1       0.857  -2.817   0.360  0.00  0.00    -0.301 OA
ATOM      5  C   UNL d   1       0.331  -3.737   1.217  0.00  0.00     0.066 A 
ATOM      6  C   UNL d   1       0.704  -5.133   0.903  0.00  0.00     0.078 C 
ENDROOT
BRANCH   1   7
ATOM      7  S   UNL d   1       1.001  -0.080  -0.098  0.00  0.00     0.266 S 
ATOM      8  O   UNL d   1       1.840   0.629   0.847  0.00  0.00    -0.204 OA
ATOM      9  O   UNL d   1      -0.232   0.501  -0.593  0.00  0.00    -0.204 OA
BRANCH   7  10
ATOM     10  N   UNL d   1       1.979  -0.503  -1.453  0.00  0.00    -0.205 NA
ATOM     11  C   UNL d   1       3.303  -1.086  -1.086  0.00  0.00     0.107 C 
ATOM     12  C   UNL d   1       4.019  -1.583  -2.343  0.00  0.00     0.015 C 
ATOM     13  C   UNL d   1       4.184  -0.464  -3.366  0.00  0.00     0.002 C 
ATOM     14  C   UNL d   1       2.836   0.178  -3.674  0.00  0.00     0.015 C 
ATOM     15  C   UNL d   1       2.137   0.641  -2.399  0.00  0.00     0.107 C 
ENDBRANCH   7  10
ENDBRANCH   1   7
BRANCH   2  16
ATOM     16  C   UNL d   1      -1.170  -3.666   3.327  0.00  0.00     0.254 C 
ATOM     17  O   UNL d   1      -1.794  -2.930   4.088  0.00  0.00    -0.268 OA
ATOM     18  N   UNL d   1      -1.136  -5.030   3.503  0.00  0.00    -0.357 N 
ATOM     19  H   UNL d   1      -0.657  -5.619   2.844  0.00  0.00     0.162 HD
BRANCH  18  20
ATOM     20  C   UNL d   1      -1.868  -5.686   4.569  0.00  0.00     0.123 C 
BRANCH  20  21
ATOM     21  C   UNL d   1      -3.305  -6.030   4.176  0.00  0.00     0.019 C 
BRANCH  21  22
ATOM     22  C   UNL d   1      -3.364  -6.994   2.987  0.00  0.00    -0.003 C 
ATOM     23  C   UNL d   1      -4.796  -7.340   2.613  0.00  0.00     0.005 C 
ENDBRANCH  21  22
ENDBRANCH  20  21
ENDBRANCH  18  20
ENDBRANCH   2  16
TORSDOF 6
