REMARK  6 active torsions:
REMARK  status: ('A' for Active; 'I' for Inactive)
REMARK    1  A    between atoms: C_2  and  C_1 
REMARK    2  A    between atoms: C_3  and  C_1 
REMARK    3  A    between atoms: C_10  and  C_2 
REMARK    4  A    between atoms: O_11  and  C_3 
REMARK    5  A    between atoms: C_7  and  N_4 
REMARK    6  A    between atoms: C_12  and  C_7 
ROOT
ATOM      1  C   UNL d   1       2.473  -0.076   0.044  0.00  0.00     0.124 C 
ATOM      2  N   UNL d   1       3.202  -0.806  -2.710  0.00  0.00     0.092 N 
ATOM      3  C   UNL d   1       2.922   0.974  -0.981  0.00  0.00     0.081 C 
ATOM      4  C   UNL d   1       2.994  -1.469  -0.295  0.00  0.00     0.081 C 
ATOM      5  C   UNL d   1       2.618   0.505  -2.408  0.00  0.00     0.276 C 
ATOM      6  C   UNL d   1       2.715  -1.819  -1.756  0.00  0.00     0.276 C 
ENDROOT
BRANCH   1   7
ATOM      7  C   UNL d   1       0.953  -0.076   0.044  0.00  0.00    -0.063 C 
BRANCH   7   8
ATOM      8  C   UNL d   1      -0.351  -0.076   0.044  0.00  0.00    -0.064 C 
BRANCH   8   9
ATOM      9  C   UNL d   1      -1.781  -0.093  -0.003  0.00  0.00     0.017 A 
ATOM     10  C   UNL d   1      -2.461  -1.313  -0.039  0.00  0.00     0.020 A 
ATOM     11  C   UNL d   1      -3.855  -1.332  -0.110  0.00  0.00     0.001 A 
ATOM     12  C   UNL d   1      -4.568  -0.134  -0.148  0.00  0.00     0.000 A 
ATOM     13  C   UNL d   1      -3.890   1.083  -0.114  0.00  0.00     0.001 A 
ATOM     14  C   UNL d   1      -2.495   1.105  -0.038  0.00  0.00     0.020 A 
ENDBRANCH   8   9
ENDBRANCH   7   8
ENDBRANCH   1   7
BRANCH   1  15
ATOM     15  O   UNL d   1       2.932   0.294   1.340  0.00  0.00    -0.377 OA
ATOM     16  H   UNL d   1       2.448   1.098   1.595  0.00  0.00     0.211 HD
ENDBRANCH   1  15
BRANCH   2  17
ATOM     17  C   UNL d   1       4.673  -0.734  -2.795  0.00  0.00     0.311 C 
BRANCH  17  18
ATOM     18  C   UNL d   1       5.285  -2.050  -3.214  0.00  0.00    -0.030 A 
ATOM     19  C   UNL d   1       4.953  -2.620  -4.449  0.00  0.00     0.009 A 
ATOM     20  C   UNL d   1       5.394  -3.900  -4.770  0.00  0.00     0.001 A 
ATOM     21  C   UNL d   1       6.178  -4.615  -3.864  0.00  0.00     0.000 A 
ATOM     22  C   UNL d   1       6.544  -4.043  -2.648  0.00  0.00     0.001 A 
ATOM     23  C   UNL d   1       6.105  -2.761  -2.325  0.00  0.00     0.009 A 
ENDBRANCH  17  18
ENDBRANCH   2  17
TORSDOF 6
