REMARK  3 active torsions:
REMARK  status: ('A' for Active; 'I' for Inactive)
REMARK    1  A    between atoms: N_2  and  C_1 
REMARK    2  A    between atoms: N_4  and  C_3 
REMARK       I    between atoms: C_5  and  N_4 
REMARK    3  A    between atoms: C_11  and  C_5 
ROOT
ATOM      1  C   UNL d   1      -1.702   0.724   0.634  0.00  0.00     0.130 C 
ATOM      2  C   UNL d   1      -1.857  -0.614   0.246  0.00  0.00     0.068 C 
ATOM      3  C   UNL d   1      -0.461   1.377   0.524  0.00  0.00     0.045 C 
ATOM      4  C   UNL d   1      -0.688  -1.332  -0.048  0.00  0.00     0.039 C 
ATOM      5  C   UNL d   1       0.682   0.676   0.120  0.00  0.00    -0.054 C 
ATOM      6  C   UNL d   1       0.583  -0.712  -0.082  0.00  0.00    -0.054 C 
ATOM      7  C   UNL d   1       1.982   1.423  -0.002  0.00  0.00     0.049 C 
ATOM      8  C   UNL d   1       1.787  -1.593  -0.289  0.00  0.00     0.049 C 
ENDROOT
BRANCH   2   9
ATOM      9  N   UNL d   1      -3.083  -1.314   0.069  0.00  0.00    -0.321 N 
ATOM     10  C   UNL d   1      -4.297  -0.714  -0.236  0.00  0.00     0.256 C 
ATOM     11  O   UNL d   1      -4.477   0.493  -0.341  0.00  0.00    -0.267 OA
ATOM     12  H   UNL d   1      -3.021  -2.319  -0.025  0.00  0.00     0.169 HD
BRANCH  10  13
ATOM     13  C   UNL d   1      -5.444  -1.612  -0.528  0.00  0.00     0.032 A 
ATOM     14  C   UNL d   1      -6.731  -1.168  -0.182  0.00  0.00     0.020 A 
ATOM     15  C   UNL d   1      -7.854  -1.923  -0.521  0.00  0.00     0.043 A 
ATOM     16  C   UNL d   1      -7.689  -3.117  -1.211  0.00  0.00     0.116 A 
ATOM     17  C   UNL d   1      -6.422  -3.571  -1.565  0.00  0.00     0.043 A 
ATOM     18  F   UNL d   1      -8.766  -3.832  -1.562  0.00  0.00    -0.206 F 
ATOM     19  C   UNL d   1      -5.293  -2.818  -1.226  0.00  0.00     0.020 A 
ENDBRANCH  10  13
ENDBRANCH   2   9
BRANCH   1  20
ATOM     20  N   UNL d   1      -2.708   1.407   1.441  0.00  0.00    -0.113 N 
ATOM     21  O   UNL d   1      -3.205   0.765   2.381  0.00  0.00    -0.532 OA
ATOM     22  O   UNL d   1      -2.891   2.614   1.227  0.00  0.00    -0.532 OA
ENDBRANCH   1  20
TORSDOF 3
