REMARK  3 active torsions:
REMARK  status: ('A' for Active; 'I' for Inactive)
REMARK       I    between atoms: N_3  and  C_1 
REMARK       I    between atoms: N_4  and  C_1 
REMARK    1  A    between atoms: C_2  and  C_6 
REMARK    2  A    between atoms: C_11  and  N_4 
REMARK    3  A    between atoms: C_6  and  N_5 
ROOT
ATOM      1  C   UNL d   1       0.956  -0.043  -0.356  0.00  0.00     0.322 C 
ATOM      2  N   UNL d   1       0.393   1.054   0.303  0.00  0.00    -0.332 N 
ATOM      3  N   UNL d   1       1.750   0.249  -1.441  0.00  0.00    -0.309 N 
ATOM      4  N   UNL d   1      -1.908   2.885   1.416  0.00  0.00     0.094 N 
ATOM      5  O   UNL d   1       0.727  -1.189   0.029  0.00  0.00    -0.247 OA
ATOM      6  C   UNL d   1      -0.477   0.745   1.449  0.00  0.00     0.157 C 
ATOM      7  C   UNL d   1      -1.855   1.420   1.420  0.00  0.00     0.292 C 
ATOM      8  C   UNL d   1      -0.073   3.454  -0.329  0.00  0.00     0.050 C 
ATOM      9  C   UNL d   1       0.891   2.425   0.249  0.00  0.00     0.129 C 
ATOM     10  C   UNL d   1      -1.541   3.438   0.117  0.00  0.00     0.274 C 
ATOM     11  H   UNL d   1       1.863   1.216  -1.689  0.00  0.00     0.170 HD
ENDROOT
BRANCH   3  12
ATOM     12  C   UNL d   1       2.380  -0.677  -2.306  0.00  0.00     0.036 A 
ATOM     13  C   UNL d   1       2.154  -2.057  -2.267  0.00  0.00     0.031 A 
ATOM     14  C   UNL d   1       2.759  -2.908  -3.198  0.00  0.00     0.026 A 
ATOM     15  C   UNL d   1       3.605  -2.389  -4.166  0.00  0.00     0.034 A 
ATOM     16  C   UNL d   1       3.867  -1.019  -4.202  0.00  0.00     0.026 A 
ATOM     17 CL   UNL d   1       4.322  -3.431  -5.330  0.00  0.00    -0.084 Cl
ATOM     18  C   UNL d   1       3.251  -0.168  -3.279  0.00  0.00     0.031 A 
ENDBRANCH   3  12
BRANCH   4  19
ATOM     19  C   UNL d   1      -1.310   3.568   2.568  0.00  0.00     0.316 C 
BRANCH  19  20
ATOM     20  C   UNL d   1      -1.898   3.174   3.905  0.00  0.00     0.030 A 
ATOM     21  C   UNL d   1      -1.100   2.481   4.828  0.00  0.00     0.126 A 
ATOM     22  F   UNL d   1       0.173   2.189   4.524  0.00  0.00    -0.205 F 
ATOM     23  C   UNL d   1      -1.583   2.079   6.072  0.00  0.00     0.043 A 
ATOM     24  C   UNL d   1      -2.894   2.372   6.427  0.00  0.00     0.005 A 
ATOM     25  C   UNL d   1      -3.707   3.072   5.535  0.00  0.00     0.024 A 
ATOM     26  C   UNL d   1      -3.213   3.476   4.287  0.00  0.00     0.045 A 
ATOM     27 CL   UNL d   1      -4.282   4.372   3.266  0.00  0.00    -0.084 Cl
ENDBRANCH  19  20
ENDBRANCH   4  19
TORSDOF 3
