REMARK  7 active torsions:
REMARK  status: ('A' for Active; 'I' for Inactive)
REMARK    1  A    between atoms: C_7  and  N_1 
REMARK    2  A    between atoms: C_2  and  C_10 
REMARK    3  A    between atoms: C_18  and  C_15 
REMARK    4  A    between atoms: C_19  and  C_18 
REMARK    5  A    between atoms: C_22  and  C_19 
REMARK    6  A    between atoms: C_20  and  C_21 
REMARK    7  A    between atoms: C_21  and  C_22 
ROOT
ATOM      1  C   UNL d   1      -1.835   2.890  -3.870  0.00  0.00     0.115 A 
ATOM      2  N   UNL d   1      -1.944   4.213  -3.638  0.00  0.00    -0.351 N 
ATOM      3  HN  UNL d   1      -1.506   4.652  -2.828  1.00  0.00     0.166 HD
ATOM      4  N   UNL d   1      -2.377   2.257  -4.928  0.00  0.00    -0.351 N 
ATOM      5  HN  UNL d   1      -2.260   1.254  -5.071  1.00  0.00     0.166 HD
ATOM      6  C   UNL d   1      -3.269   4.379  -5.633  0.00  0.00    -0.027 A 
ATOM      7  C   UNL d   1      -2.658   4.926  -4.526  0.00  0.00     0.098 A 
ATOM      8  C   UNL d   1      -3.080   3.020  -5.786  0.00  0.00     0.098 A 
ENDROOT
BRANCH   1   9
ATOM      9  C   UNL d   1      -1.067   2.089  -2.896  0.00  0.00     0.008 A 
ATOM     10  C   UNL d   1      -0.519   2.685  -1.740  0.00  0.00     0.017 A 
ATOM     11  C   UNL d   1       0.221   1.947  -0.812  0.00  0.00     0.037 A 
ATOM     12  C   UNL d   1       0.427   0.583  -1.028  0.00  0.00     0.102 A 
ATOM     13  C   UNL d   1      -0.108  -0.044  -2.158  0.00  0.00     0.037 A 
ATOM     14  C   UNL d   1      -0.849   0.709  -3.078  0.00  0.00     0.017 A 
BRANCH  12  15
ATOM     15  N   UNL d   1       1.214  -0.193  -0.062  0.00  0.00    -0.116 N 
ATOM     16  O   UNL d   1       1.378  -1.399  -0.289  0.00  0.00    -0.532 OA
ATOM     17  O   UNL d   1       1.671   0.405   0.923  0.00  0.00    -0.532 OA
ENDBRANCH  12  15
ENDBRANCH   1   9
BRANCH   6  18
ATOM     18  C   UNL d   1      -4.088   5.202  -6.578  0.00  0.00     0.041 C 
BRANCH  18  19
ATOM     19  C   UNL d   1      -5.544   4.740  -6.692  0.00  0.00     0.005 C 
BRANCH  19  20
ATOM     20  C   UNL d   1      -6.311   4.829  -5.368  0.00  0.00     0.000 C 
BRANCH  20  21
ATOM     21  C   UNL d   1      -7.755   4.362  -5.551  0.00  0.00    -0.000 C 
BRANCH  21  22
ATOM     22  C   UNL d   1      -8.540   4.428  -4.243  0.00  0.00    -0.005 C 
ATOM     23  C   UNL d   1      -9.973   3.960  -4.445  0.00  0.00     0.005 C 
ENDBRANCH  21  22
ENDBRANCH  20  21
ENDBRANCH  19  20
ENDBRANCH  18  19
ENDBRANCH   6  18
TORSDOF 7
