REMARK  5 active torsions:
REMARK  status: ('A' for Active; 'I' for Inactive)
REMARK    1  A    between atoms: C_8  and  C_1 
REMARK    2  A    between atoms: C_9  and  N_2 
REMARK    3  A    between atoms: N_6  and  C_10 
REMARK    4  A    between atoms: O_18  and  C_8 
REMARK    5  A    between atoms: C_20  and  O_18 
ROOT
ATOM      1  C   UNL d   1      -0.273   1.244   0.009  0.00  0.00     0.080 C 
ATOM      2  N   UNL d   1       1.041  -0.544  -0.136  0.00  0.00    -0.260 N 
ATOM      3  C   UNL d   1       1.057   0.843  -0.053  0.00  0.00     0.048 C 
ATOM      4  N   UNL d   1      -0.213  -0.999  -0.397  0.00  0.00    -0.304 N 
ATOM      5  HN  UNL d   1      -0.491  -1.944  -0.662  1.00  0.00     0.186 HD
ATOM      6  C   UNL d   1      -0.998   0.063  -0.229  0.00  0.00     0.127 C 
ATOM      7  C   UNL d   1       2.278   1.695  -0.079  0.00  0.00     0.071 C 
ENDROOT
BRANCH   2   8
ATOM      8  C   UNL d   1       2.100  -1.486   0.033  0.00  0.00     0.056 A 
ATOM      9  C   UNL d   1       3.251  -1.170   0.769  0.00  0.00     0.034 A 
ATOM     10  C   UNL d   1       4.276  -2.112   0.915  0.00  0.00     0.038 A 
ATOM     11  C   UNL d   1       4.145  -3.377   0.332  0.00  0.00     0.103 A 
ATOM     12  C   UNL d   1       2.986  -3.717  -0.375  0.00  0.00     0.038 A 
ATOM     13  C   UNL d   1       1.961  -2.775  -0.512  0.00  0.00     0.034 A 
BRANCH  11  14
ATOM     14  N   UNL d   1       5.231  -4.356   0.471  0.00  0.00    -0.116 N 
ATOM     15  O   UNL d   1       6.228  -4.021   1.124  0.00  0.00    -0.532 OA
ATOM     16  O   UNL d   1       5.087  -5.458  -0.078  0.00  0.00    -0.532 OA
ENDBRANCH  11  14
ENDBRANCH   2   8
BRANCH   1  17
ATOM     17  C   UNL d   1      -0.775   2.584   0.247  0.00  0.00     0.296 C 
ATOM     18  O   UNL d   1      -0.049   3.550   0.446  0.00  0.00    -0.259 OA
BRANCH  17  19
ATOM     19  O   UNL d   1      -2.138   2.622   0.294  0.00  0.00    -0.318 OA
BRANCH  19  20
ATOM     20  C   UNL d   1      -2.701   3.858   0.754  0.00  0.00     0.174 C 
ATOM     21  C   UNL d   1      -2.781   3.836   2.270  0.00  0.00     0.034 C 
ENDBRANCH  19  20
ENDBRANCH  17  19
ENDBRANCH   1  17
TORSDOF 5
