REMARK  5 active torsions:
REMARK  status: ('A' for Active; 'I' for Inactive)
REMARK    1  A    between atoms: C_11  and  C_3 
REMARK    2  A    between atoms: C_12  and  C_6 
REMARK    3  A    between atoms: C_8  and  C_13 
REMARK    4  A    between atoms: N_16  and  C_11 
REMARK    5  A    between atoms: O_23  and  N_16 
ROOT
ATOM      1  N   UNL d   1      -0.975  -5.017  -0.019  0.00  0.00    -0.239 N 
ATOM      2  C   UNL d   1      -0.478  -3.701  -0.024  0.00  0.00     0.142 A 
ATOM      3  C   UNL d   1       0.905  -3.804  -0.020  0.00  0.00     0.072 A 
ATOM      4  N   UNL d   1       0.031  -5.927  -0.053  0.00  0.00    -0.302 N 
ATOM      5  HN  UNL d   1      -0.047  -6.944  -0.074  1.00  0.00     0.186 HD
ATOM      6  C   UNL d   1      -2.361  -5.256   0.016  0.00  0.00     0.070 A 
ATOM      7  C   UNL d   1       1.143  -5.194  -0.051  0.00  0.00     0.127 A 
ATOM      8  N   UNL d   1      -1.314  -2.611  -0.024  0.00  0.00    -0.350 N 
ATOM      9  HN  UNL d   1      -0.957  -1.655  -0.052  1.00  0.00     0.166 HD
ATOM     10  C   UNL d   1      -3.211  -4.218   0.038  0.00  0.00     0.049 A 
ATOM     11  C   UNL d   1      -2.585  -2.870   0.013  0.00  0.00     0.092 A 
ENDROOT
BRANCH   6  12
ATOM     12  C   UNL d   1      -2.913  -6.621   0.029  0.00  0.00    -0.006 A 
ATOM     13  C   UNL d   1      -3.145  -7.280   1.244  0.00  0.00     0.030 A 
ATOM     14  C   UNL d   1      -3.715  -8.565   1.267  0.00  0.00     0.048 A 
ATOM     15  C   UNL d   1      -4.042  -9.186   0.051  0.00  0.00     0.016 A 
ATOM     16  C   UNL d   1      -3.806  -8.536  -1.161  0.00  0.00     0.002 A 
ATOM     17  C   UNL d   1      -3.247  -7.258  -1.172  0.00  0.00     0.014 A 
BRANCH  14  18
ATOM     18  C   UNL d   1      -3.990  -9.275   2.570  0.00  0.00     0.417 C 
ATOM     19  F   UNL d   1      -3.637  -8.554   3.671  0.00  0.00    -0.166 F 
ATOM     20  F   UNL d   1      -5.313  -9.564   2.728  0.00  0.00    -0.166 F 
ATOM     21  F   UNL d   1      -3.335 -10.463   2.672  0.00  0.00    -0.166 F 
ENDBRANCH  14  18
ENDBRANCH   6  12
BRANCH   3  22
ATOM     22  C   UNL d   1       1.897  -2.749   0.006  0.00  0.00     0.134 C 
ATOM     23  N   UNL d   1       1.399  -1.486   0.136  0.00  0.00    -0.383 N 
ATOM     24  H   UNL d   1       0.431  -1.348  -0.143  0.00  0.00     0.157 HD
ATOM     25  H   UNL d   1       2.052  -0.768  -0.152  0.00  0.00     0.157 HD
BRANCH  22  26
ATOM     26  N   UNL d   1       3.145  -3.084  -0.093  0.00  0.00    -0.253 N 
ATOM     27  HN  UNL d   1       3.481  -4.042  -0.189  1.00  0.00     0.196 HD
BRANCH  26  28
ATOM     28  O   UNL d   1       3.970  -1.948  -0.051  0.00  0.00    -0.288 OA
ATOM     29  H   UNL d   1       4.861  -2.346  -0.034  0.00  0.00     0.244 HD
ENDBRANCH  26  28
ENDBRANCH  22  26
ENDBRANCH   3  22
TORSDOF 5
