REMARK  5 active torsions:
REMARK  status: ('A' for Active; 'I' for Inactive)
REMARK    1  A    between atoms: N_9  and  C_1 
REMARK    2  A    between atoms: C_11  and  N_6 
REMARK    3  A    between atoms: C_8  and  C_10 
REMARK       I    between atoms: C_10  and  N_14 
REMARK    4  A    between atoms: C_13  and  C_11 
REMARK       I    between atoms: N_17  and  C_13 
REMARK    5  A    between atoms: N_14  and  N_17 
ROOT
ATOM      1  C   UNL d   1       3.155   0.766  -0.010  0.00  0.00     0.257 C 
ATOM      2  N   UNL d   1       3.278  -0.582   0.230  0.00  0.00    -0.266 N 
ATOM      3  O   UNL d   1       4.151   1.442  -0.305  0.00  0.00    -0.270 OA
ATOM      4  H   UNL d   1       2.477  -1.221   0.216  0.00  0.00     0.190 HD
ENDROOT
BRANCH   1   5
ATOM      5  C   UNL d   1       1.827   1.445   0.161  0.00  0.00     0.272 C 
BRANCH   5   6
ATOM      6  N   UNL d   1       0.643   0.621   0.252  0.00  0.00    -0.194 N 
ATOM      7  N   UNL d   1       0.455  -0.498  -0.479  0.00  0.00    -0.115 N 
ATOM      8  C   UNL d   1      -0.882  -0.606  -0.418  0.00  0.00     0.709 A 
ATOM      9  HN  UNL d   1       1.137  -1.095  -0.947  1.00  0.00     0.207 HD
ATOM     10  N   UNL d   1      -1.451   0.378   0.354  0.00  0.00    -0.113 N 
ATOM     11  N   UNL d   1      -0.471   1.154   0.782  0.00  0.00     0.011 NA
ATOM     12  HN  UNL d   1      -2.444   0.489   0.558  1.00  0.00     0.203 HD
BRANCH   8  13
ATOM     13  N   UNL d   1      -1.673  -1.520  -1.032  0.00  0.00    -0.211 N 
ATOM     14  C   UNL d   1      -2.895  -0.997  -1.677  0.00  0.00     0.167 C 
ATOM     15  C   UNL d   1      -3.842  -2.139  -2.069  0.00  0.00     0.188 C 
ATOM     16  O   UNL d   1      -3.178  -3.128  -2.869  0.00  0.00    -0.388 OA
ATOM     17  C   UNL d   1      -2.070  -3.681  -2.141  0.00  0.00     0.188 C 
ATOM     18  C   UNL d   1      -1.033  -2.600  -1.796  0.00  0.00     0.167 C 
ENDBRANCH   8  13
ENDBRANCH   5   6
ENDBRANCH   1   5
BRANCH   2  19
ATOM     19  N   UNL d   1       4.537  -1.145  -0.049  0.00  0.00    -0.263 N 
ATOM     20  C   UNL d   1       4.861  -2.393   0.429  0.00  0.00     0.271 C 
ATOM     21  O   UNL d   1       4.040  -3.092   1.024  0.00  0.00    -0.266 OA
ATOM     22  H   UNL d   1       5.230  -0.503  -0.442  0.00  0.00     0.190 HD
BRANCH  20  23
ATOM     23  C   UNL d   1       6.257  -2.901   0.205  0.00  0.00     0.055 A 
ATOM     24  C   UNL d   1       7.243  -2.313  -0.610  0.00  0.00     0.051 A 
ATOM     25  C   UNL d   1       8.497  -2.926  -0.766  0.00  0.00     0.048 A 
ATOM     26 CL   UNL d   1       7.033  -0.840  -1.493  0.00  0.00    -0.083 Cl
ATOM     27  C   UNL d   1       8.782  -4.122  -0.115  0.00  0.00     0.035 A 
ATOM     28  C   UNL d   1       7.831  -4.713   0.706  0.00  0.00     0.025 A 
ATOM     29 CL   UNL d   1      10.311  -4.875  -0.341  0.00  0.00    -0.084 Cl
ATOM     30  C   UNL d   1       6.581  -4.106   0.865  0.00  0.00     0.020 A 
ENDBRANCH  20  23
ENDBRANCH   2  19
TORSDOF 5
