REMARK  7 active torsions:
REMARK  status: ('A' for Active; 'I' for Inactive)
REMARK    1  A    between atoms: N_2  and  C_1 
REMARK    2  A    between atoms: C_3  and  C_1 
REMARK    3  A    between atoms: C_4  and  C_1 
REMARK    4  A    between atoms: N_5  and  C_1 
REMARK       I    between atoms: C_6  and  N_2 
REMARK    5  A    between atoms: C_16  and  N_5 
REMARK    6  A    between atoms: O_18  and  C_6 
REMARK    7  A    between atoms: C_23  and  O_18 
ROOT
ATOM      1  N   UNL d   1       5.924   3.281   4.995  0.00  0.00    -0.191 NA
ATOM      2  C   UNL d   1       5.330   2.715   4.183  0.00  0.00     0.099 C 
ATOM      3  C   UNL d   1       3.106   0.593   1.224  0.00  0.00     0.030 A 
ATOM      4  C   UNL d   1       4.588   2.005   3.182  0.00  0.00     0.044 A 
ATOM      5  C   UNL d   1       2.471   1.321   2.234  0.00  0.00     0.031 A 
ATOM      6  C   UNL d   1       4.510   0.550   1.252  0.00  0.00     0.031 A 
ATOM      7  C   UNL d   1       3.197   2.043   3.190  0.00  0.00     0.025 A 
ATOM      8  C   UNL d   1       5.246   1.250   2.214  0.00  0.00     0.025 A 
ENDROOT
BRANCH   3   9
ATOM      9  N   UNL d   1       2.453  -0.220   0.301  0.00  0.00    -0.349 N 
ATOM     10  H   UNL d   1       2.997  -0.320  -0.561  0.00  0.00     0.162 HD
BRANCH   9  11
ATOM     11  C   UNL d   1       0.961  -0.196  -0.014  0.00  0.00     0.308 C 
BRANCH  11  12
ATOM     12  N   UNL d   1       0.446  -0.777   1.217  0.00  0.00    -0.295 N 
ATOM     13  C   UNL d   1      -0.863  -0.809   1.524  0.00  0.00     0.362 C 
ATOM     14  O   UNL d   1      -1.737  -0.407   0.778  0.00  0.00    -0.238 OA
ATOM     15  H   UNL d   1       1.112  -1.132   1.889  0.00  0.00     0.168 HD
BRANCH  13  16
ATOM     16  O   UNL d   1      -1.005  -1.251   2.786  0.00  0.00    -0.304 OA
BRANCH  16  17
ATOM     17  C   UNL d   1      -2.291  -1.024   3.377  0.00  0.00     0.176 C 
ATOM     18  C   UNL d   1      -2.319   0.378   3.961  0.00  0.00     0.034 C 
ENDBRANCH  16  17
ENDBRANCH  13  16
ENDBRANCH  11  12
BRANCH  11  19
ATOM     19  C   UNL d   1       0.441   1.236  -0.400  0.00  0.00     0.441 C 
ATOM     20  F   UNL d   1       0.087   1.956   0.700  0.00  0.00    -0.166 F 
ATOM     21  F   UNL d   1       1.416   1.953  -1.021  0.00  0.00    -0.166 F 
ATOM     22  F   UNL d   1      -0.631   1.270  -1.215  0.00  0.00    -0.166 F 
ENDBRANCH  11  19
BRANCH  11  23
ATOM     23  C   UNL d   1       0.696  -1.104  -1.269  0.00  0.00     0.441 C 
ATOM     24  F   UNL d   1       0.416  -2.384  -0.896  0.00  0.00    -0.166 F 
ATOM     25  F   UNL d   1      -0.289  -0.722  -2.097  0.00  0.00    -0.166 F 
ATOM     26  F   UNL d   1       1.829  -1.184  -2.025  0.00  0.00    -0.166 F 
ENDBRANCH  11  23
ENDBRANCH   9  11
ENDBRANCH   3   9
TORSDOF 7
