REMARK  1 active torsions:
REMARK  status: ('A' for Active; 'I' for Inactive)
REMARK    1  A    between atoms: C_7  and  N_2 
ROOT
ATOM      1  C   UNL d   1       0.908  -0.194  -0.103  0.00  0.00     0.201 A 
ATOM      2  N   UNL d   1       1.719   0.346  -1.197  0.00  0.00    -0.285 N 
ATOM      3  C   UNL d   1       0.753  -1.756  -0.228  0.00  0.00     0.267 A 
ATOM      4  C   UNL d   1      -0.526   0.248   0.024  0.00  0.00     0.017 A 
ATOM      5  N   UNL d   1      -0.612  -2.037  -0.143  0.00  0.00    -0.323 N 
ATOM      6  S   UNL d   1       1.789   0.149   1.459  0.00  0.00    -0.113 SA
ATOM      7  C   UNL d   1       3.027   0.694  -0.829  0.00  0.00     0.235 C 
ATOM      8  C   UNL d   1      -1.360  -0.876  -0.011  0.00  0.00     0.045 A 
ATOM      9  C   UNL d   1       3.343   0.414   0.619  0.00  0.00     0.180 C 
ATOM     10  O   UNL d   1       1.634  -2.588  -0.385  0.00  0.00    -0.269 OA
ATOM     11  O   UNL d   1       3.879   1.191  -1.564  0.00  0.00    -0.272 OA
ATOM     12  C   UNL d   1      -1.065   1.522   0.135  0.00  0.00     0.013 A 
ATOM     13  C   UNL d   1      -2.734  -0.777   0.036  0.00  0.00     0.030 A 
ATOM     14  C   UNL d   1      -2.458   1.644   0.176  0.00  0.00     0.001 A 
ATOM     15  C   UNL d   1      -3.283   0.505   0.123  0.00  0.00     0.002 A 
ATOM     16  H   UNL d   1      -0.980  -2.974  -0.208  0.00  0.00     0.169 HD
ENDROOT
BRANCH   2  17
ATOM     17  C   UNL d   1       1.348   0.185  -2.581  0.00  0.00     0.040 A 
ATOM     18  C   UNL d   1       2.322  -0.111  -3.553  0.00  0.00     0.038 A 
ATOM     19  C   UNL d   1       2.015  -0.263  -4.920  0.00  0.00    -0.043 A 
ATOM     20  C   UNL d   1       3.128  -0.557  -5.887  0.00  0.00     0.049 C 
ATOM     21  C   UNL d   1       0.688  -0.115  -5.327  0.00  0.00     0.017 A 
ATOM     22  C   UNL d   1      -0.300   0.157  -4.386  0.00  0.00     0.022 A 
ATOM     23 BR   UNL d   1       0.161  -0.252  -7.145  0.00  0.00    -0.051 Br
ATOM     24  C   UNL d   1       0.029   0.301  -3.032  0.00  0.00     0.031 A 
ENDBRANCH   2  17
TORSDOF 1
