REMARK  4 active torsions:
REMARK  status: ('A' for Active; 'I' for Inactive)
REMARK    1  A    between atoms: C_2  and  C_1 
REMARK    2  A    between atoms: O_5  and  C_1 
REMARK    3  A    between atoms: C_3  and  C_8 
REMARK    4  A    between atoms: C_15  and  O_5 
ROOT
ATOM      1  C   UNL d   1      -3.879  -0.196   1.476  0.00  0.00    -0.035 A 
ATOM      2  C   UNL d   1      -3.148  -1.037   0.615  0.00  0.00     0.012 A 
ATOM      3  C   UNL d   1      -3.169   0.731   2.260  0.00  0.00     0.012 A 
ATOM      4  C   UNL d   1      -1.080  -0.013   1.302  0.00  0.00     0.079 A 
ATOM      5  C   UNL d   1      -1.778   0.825   2.171  0.00  0.00     0.038 A 
ATOM      6  C   UNL d   1      -1.756  -0.942   0.520  0.00  0.00     0.038 A 
ENDROOT
BRANCH   4   7
ATOM      7  O   UNL d   1       0.307   0.234   1.199  0.00  0.00    -0.275 OA
BRANCH   7   8
ATOM      8  C   UNL d   1       1.245  -0.744   0.854  0.00  0.00     0.305 C 
ATOM      9  O   UNL d   1       0.996  -1.938   0.717  0.00  0.00    -0.258 OA
BRANCH   8  10
ATOM     10  C   UNL d   1       2.567  -0.160   0.681  0.00  0.00     0.080 A 
ATOM     11  S   UNL d   1       2.875   1.517   0.873  0.00  0.00    -0.096 SA
ATOM     12  C   UNL d   1       4.532   1.333   0.498  0.00  0.00     0.050 A 
ATOM     13  C   UNL d   1       4.857   0.022   0.233  0.00  0.00     0.009 A 
ATOM     14  C   UNL d   1       3.725  -0.836   0.338  0.00  0.00     0.025 A 
ENDBRANCH   8  10
ENDBRANCH   7   8
ENDBRANCH   4   7
BRANCH   1  15
ATOM     15  C   UNL d   1      -5.394  -0.226   1.540  0.00  0.00     0.141 C 
ATOM     16  S   UNL d   1      -6.058  -1.863   1.991  0.00  0.00    -0.148 SA
ATOM     17  C   UNL d   1      -7.424  -1.871   0.803  0.00  0.00     0.085 C 
ATOM     18  C   UNL d   1      -6.923  -1.228  -0.473  0.00  0.00     0.085 C 
ATOM     19  S   UNL d   1      -6.149   0.345  -0.024  0.00  0.00    -0.148 SA
ENDBRANCH   1  15
TORSDOF 4
