REMARK  3 active torsions:
REMARK  status: ('A' for Active; 'I' for Inactive)
REMARK    1  A    between atoms: N_10  and  C_3 
REMARK    2  A    between atoms: C_9  and  C_6 
REMARK    3  A    between atoms: O_11  and  C_8 
ROOT
ATOM      1  N   UNL d   1      -0.221   1.238  -0.125  0.00  0.00    -0.313 N 
ATOM      2  HN  UNL d   1      -0.743   2.114  -0.147  1.00  0.00     0.170 HD
ATOM      3  C   UNL d   1      -0.825   0.052  -0.174  0.00  0.00     0.157 A 
ATOM      4  N   UNL d   1      -0.205  -1.128  -0.103  0.00  0.00    -0.332 N 
ATOM      5  HN  UNL d   1      -0.731  -2.002  -0.123  1.00  0.00     0.168 HD
ATOM      6  C   UNL d   1       1.143  -1.126  -0.005  0.00  0.00     0.048 A 
ATOM      7  C   UNL d   1       1.857   0.053   0.013  0.00  0.00     0.086 A 
ATOM      8  C   UNL d   1       1.117   1.207  -0.044  0.00  0.00     0.146 A 
ENDROOT
BRANCH   6   9
ATOM      9  C   UNL d   1       1.788  -2.454   0.087  0.00  0.00    -0.009 A 
ATOM     10  C   UNL d   1       2.983  -2.653   0.804  0.00  0.00     0.013 A 
ATOM     11  C   UNL d   1       3.586  -3.913   0.882  0.00  0.00     0.001 A 
ATOM     12  C   UNL d   1       3.004  -5.005   0.247  0.00  0.00     0.000 A 
ATOM     13  C   UNL d   1       1.818  -4.839  -0.462  0.00  0.00     0.001 A 
ATOM     14  C   UNL d   1       1.217  -3.578  -0.537  0.00  0.00     0.013 A 
ENDBRANCH   6   9
BRANCH   8  15
ATOM     15  O   UNL d   1       1.838   2.386  -0.007  0.00  0.00    -0.341 OA
ATOM     16  C   UNL d   1       1.017   3.550  -0.031  0.00  0.00     0.211 C 
ENDBRANCH   8  15
BRANCH   3  17
ATOM     17  N   UNL d   1      -2.202   0.040  -0.251  0.00  0.00    -0.274 NA
ATOM     18  H   UNL d   1      -2.574   0.895   0.136  0.00  0.00     0.127 HD
ATOM     19  H   UNL d   1      -2.553  -0.830   0.127  0.00  0.00     0.127 HD
ENDBRANCH   3  17
TORSDOF 3
