REMARK  3 active torsions:
REMARK  status: ('A' for Active; 'I' for Inactive)
REMARK    1  A    between atoms: C_18  and  N_8 
REMARK    2  A    between atoms: C_20  and  C_18 
REMARK    3  A    between atoms: O_19  and  C_20 
ROOT
ATOM      1  C   UNL d   1      -3.073   0.161   0.123  0.00  0.00     0.148 A 
ATOM      2  N   UNL d   1      -2.373   0.814  -0.782  0.00  0.00    -0.336 N 
ATOM      3  HN  UNL d   1      -2.783   1.351  -1.546  1.00  0.00     0.168 HD
ATOM      4  S   UNL d   1      -2.089  -0.613   1.322  0.00  0.00    -0.052 SA
ATOM      5  N   UNL d   1      -4.433   0.070   0.098  0.00  0.00    -0.358 N 
ATOM      6  C   UNL d   1      -0.661  -0.082   0.544  0.00  0.00     0.036 A 
ATOM      7  C   UNL d   1      -1.013   0.680  -0.567  0.00  0.00     0.051 A 
ATOM      8  N   UNL d   1      -7.240  -0.685  -0.385  0.00  0.00     0.093 N 
ATOM      9  C   UNL d   1       0.678  -0.325   0.893  0.00  0.00     0.045 A 
ATOM     10  C   UNL d   1      -5.229  -0.520   1.173  0.00  0.00     0.155 C 
ATOM     11  C   UNL d   1      -5.201   0.804  -0.916  0.00  0.00     0.155 C 
ATOM     12  C   UNL d   1       0.012   1.228  -1.363  0.00  0.00     0.032 A 
ATOM     13  C   UNL d   1       1.671   0.227   0.085  0.00  0.00     0.035 A 
ATOM     14  C   UNL d   1      -6.350  -1.391   0.564  0.00  0.00     0.292 C 
ATOM     15  C   UNL d   1      -6.385  -0.059  -1.432  0.00  0.00     0.292 C 
ATOM     16  C   UNL d   1       1.351   0.996  -1.030  0.00  0.00     0.026 A 
ATOM     17 CL   UNL d   1       3.324  -0.055   0.477  0.00  0.00    -0.084 Cl
ENDROOT
BRANCH   8  18
ATOM     18  C   UNL d   1      -8.099   0.327   0.257  0.00  0.00     0.298 C 
BRANCH  18  19
ATOM     19  C   UNL d   1      -9.048  -0.226   1.332  0.00  0.00     0.194 C 
BRANCH  19  20
ATOM     20  O   UNL d   1      -9.863   0.830   1.835  0.00  0.00    -0.399 OA
ATOM     21  H   UNL d   1     -10.439   0.439   2.515  0.00  0.00     0.209 HD
ENDBRANCH  19  20
ENDBRANCH  18  19
ENDBRANCH   8  18
TORSDOF 3
