REMARK  2 active torsions:
REMARK  status: ('A' for Active; 'I' for Inactive)
REMARK    1  A    between atoms: C_14  and  C_7 
REMARK    2  A    between atoms: O_15  and  N_11 
ROOT
ATOM      1  C   UNL d   1      -2.511  -0.840   0.335  0.00  0.00     0.017 A 
ATOM      2  C   UNL d   1      -2.398   0.307   1.146  0.00  0.00     0.023 A 
ATOM      3  N   UNL d   1      -3.468   1.059   1.541  0.00  0.00    -0.358 N 
ATOM      4  HN  UNL d   1      -3.338   1.887   2.123  1.00  0.00     0.166 HD
ATOM      5  C   UNL d   1      -1.253  -1.585   0.021  0.00  0.00     0.045 C 
ATOM      6  C   UNL d   1      -3.784  -1.156  -0.163  0.00  0.00    -0.046 A 
ATOM      7  C   UNL d   1      -4.707   0.680   1.144  0.00  0.00     0.043 A 
ATOM      8  C   UNL d   1      -4.882  -0.406   0.290  0.00  0.00     0.038 A 
ATOM      9  C   UNL d   1       0.138  -0.073   1.401  0.00  0.00    -0.037 C 
ATOM     10  C   UNL d   1       0.015  -0.750   0.026  0.00  0.00     0.069 C 
ATOM     11  N   UNL d   1      -1.062  -2.861  -0.148  0.00  0.00    -0.273 N 
ATOM     12  HN  UNL d   1      -0.177  -3.251  -0.473  1.00  0.00     0.194 HD
ATOM     13  C   UNL d   1      -1.058   0.885   1.556  0.00  0.00     0.067 C 
ATOM     14  C   UNL d   1      -4.083  -2.229  -1.170  0.00  0.00     0.049 C 
ATOM     15  C   UNL d   1       0.152  -1.102   2.552  0.00  0.00     0.015 C 
ATOM     16  C   UNL d   1       1.458   0.715   1.460  0.00  0.00     0.015 C 
ENDROOT
BRANCH   7  17
ATOM     17  C   UNL d   1      -5.843   1.504   1.593  0.00  0.00    -0.009 A 
ATOM     18  C   UNL d   1      -7.097   0.930   1.882  0.00  0.00     0.013 A 
ATOM     19  C   UNL d   1      -8.202   1.718   2.216  0.00  0.00     0.001 A 
ATOM     20  C   UNL d   1      -8.073   3.101   2.282  0.00  0.00     0.000 A 
ATOM     21  C   UNL d   1      -6.836   3.692   2.036  0.00  0.00     0.001 A 
ATOM     22  C   UNL d   1      -5.732   2.901   1.702  0.00  0.00     0.013 A 
ENDBRANCH   7  17
BRANCH  11  23
ATOM     23  O   UNL d   1      -2.168  -3.645   0.154  0.00  0.00    -0.290 OA
ATOM     24  H   UNL d   1      -1.857  -4.539  -0.082  0.00  0.00     0.244 HD
ENDBRANCH  11  23
TORSDOF 2
