REMARK  1 active torsions:
REMARK  status: ('A' for Active; 'I' for Inactive)
REMARK    1  A    between atoms: C_8  and  C_2 
ROOT
ATOM      1  C   UNL d   1       1.345  -1.353   0.051  0.00  0.00     0.305 A 
ATOM      2  C   UNL d   1       2.309   0.784  -0.048  0.00  0.00     0.169 A 
ATOM      3  N   UNL d   1       1.193   1.434   0.004  0.00  0.00    -0.335 N 
ATOM      4  HN  UNL d   1       1.176   2.454   0.022  1.00  0.00     0.168 HD
ATOM      5  O   UNL d   1       2.443  -0.564  -0.033  0.00  0.00    -0.256 OA
ATOM      6  C   UNL d   1       0.037  -0.694   0.047  0.00  0.00     0.105 A 
ATOM      7  C   UNL d   1       0.019   0.692   0.034  0.00  0.00     0.053 A 
ATOM      8  O   UNL d   1       1.456  -2.571   0.114  0.00  0.00    -0.259 OA
ATOM      9  C   UNL d   1      -1.159  -1.408   0.033  0.00  0.00     0.135 A 
ATOM     10  F   UNL d   1      -1.175  -2.748   0.036  0.00  0.00    -0.205 F 
ATOM     11  C   UNL d   1      -1.207   1.364   0.013  0.00  0.00     0.031 A 
ATOM     12  C   UNL d   1      -2.408   0.652  -0.011  0.00  0.00     0.005 A 
ATOM     13  C   UNL d   1      -2.382  -0.740  -0.002  0.00  0.00     0.043 A 
ENDROOT
BRANCH   2  14
ATOM     14  C   UNL d   1       3.601   1.431  -0.149  0.00  0.00     0.056 A 
ATOM     15  S   UNL d   1       3.723   3.142  -0.063  0.00  0.00    -0.098 SA
ATOM     16  C   UNL d   1       5.416   3.108  -0.288  0.00  0.00     0.050 A 
ATOM     17  C   UNL d   1       5.893   1.825  -0.422  0.00  0.00     0.009 A 
ATOM     18  C   UNL d   1       4.849   0.858  -0.334  0.00  0.00     0.024 A 
ENDBRANCH   2  14
TORSDOF 1
