REMARK  8 active torsions:
REMARK  status: ('A' for Active; 'I' for Inactive)
REMARK    1  A    between atoms: N_4  and  C_1 
REMARK       I    between atoms: C_2  and  N_3 
REMARK    2  A    between atoms: C_5  and  C_2 
REMARK    3  A    between atoms: N_3  and  N_4 
REMARK    4  A    between atoms: C_7  and  C_8 
REMARK    5  A    between atoms: C_17  and  N_14 
REMARK    6  A    between atoms: C_15  and  C_17 
REMARK    7  A    between atoms: C_21  and  C_15 
REMARK    8  A    between atoms: O_16  and  C_21 
ROOT
ATOM      1  C   UNL d   1       0.227  -3.361   1.939  0.00  0.00     0.270 C 
ATOM      2  N   UNL d   1       0.834  -2.445   1.105  0.00  0.00    -0.264 N 
ATOM      3  O   UNL d   1       0.845  -4.138   2.664  0.00  0.00    -0.266 OA
ATOM      4  H   UNL d   1       0.322  -1.980   0.358  0.00  0.00     0.190 HD
ENDROOT
BRANCH   2   5
ATOM      5  N   UNL d   1       2.223  -2.482   0.944  0.00  0.00    -0.274 N 
ATOM      6  H   UNL d   1       2.706  -3.051   1.640  0.00  0.00     0.189 HD
BRANCH   5   7
ATOM      7  C   UNL d   1       2.885  -1.407   0.405  0.00  0.00     0.186 C 
ATOM      8  S   UNL d   1       2.189   0.059  -0.003  0.00  0.00    -0.040 SA
ATOM      9  N   UNL d   1       4.209  -1.590   0.127  0.00  0.00    -0.366 N 
ATOM     10  H   UNL d   1       4.645  -0.783  -0.307  0.00  0.00     0.161 HD
BRANCH   9  11
ATOM     11  C   UNL d   1       4.895  -2.862  -0.036  0.00  0.00     0.124 C 
BRANCH  11  12
ATOM     12  C   UNL d   1       4.816  -3.378  -1.472  0.00  0.00     0.046 C 
BRANCH  12  13
ATOM     13  C   UNL d   1       5.542  -4.713  -1.583  0.00  0.00     0.168 C 
BRANCH  13  14
ATOM     14  O   UNL d   1       5.492  -5.187  -2.926  0.00  0.00    -0.396 OA
ATOM     15  C   UNL d   1       6.159  -6.440  -3.047  0.00  0.00     0.201 C 
ENDBRANCH  13  14
ENDBRANCH  12  13
ENDBRANCH  11  12
ENDBRANCH   9  11
ENDBRANCH   5   7
ENDBRANCH   2   5
BRANCH   1  16
ATOM     16  C   UNL d   1      -1.260  -3.384   1.862  0.00  0.00     0.033 A 
ATOM     17  C   UNL d   1      -1.944  -4.584   2.057  0.00  0.00     0.017 A 
ATOM     18  C   UNL d   1      -3.334  -4.633   1.907  0.00  0.00     0.009 A 
ATOM     19  C   UNL d   1      -4.082  -3.483   1.570  0.00  0.00    -0.051 A 
ATOM     20  C   UNL d   1      -3.373  -2.280   1.423  0.00  0.00     0.009 A 
ATOM     21  C   UNL d   1      -1.984  -2.225   1.569  0.00  0.00     0.017 A 
BRANCH  19  22
ATOM     22  C   UNL d   1      -5.606  -3.567   1.358  0.00  0.00    -0.024 C 
ATOM     23  C   UNL d   1      -6.255  -2.207   1.009  0.00  0.00     0.019 C 
ATOM     24  C   UNL d   1      -5.912  -4.529   0.190  0.00  0.00     0.019 C 
ATOM     25  C   UNL d   1      -6.301  -4.086   2.634  0.00  0.00     0.019 C 
ENDBRANCH  19  22
ENDBRANCH   1  16
TORSDOF 8
