REMARK  4 active torsions:
REMARK  status: ('A' for Active; 'I' for Inactive)
REMARK       I    between atoms: N_5  and  C_1 
REMARK    1  A    between atoms: O_10  and  C_1 
REMARK    2  A    between atoms: C_2  and  C_8 
REMARK    3  A    between atoms: N_3  and  O_10 
REMARK    4  A    between atoms: C_9  and  N_5 
ROOT
ATOM      1  C   UNL d   1       1.005  -0.116   0.226  0.00  0.00     0.364 C 
ATOM      2  N   UNL d   1       0.304   1.066   0.136  0.00  0.00    -0.201 NA
ATOM      3  O   UNL d   1       2.185  -0.201   0.551  0.00  0.00    -0.243 OA
ATOM      4  H   UNL d   1      -0.124   1.139  -0.775  0.00  0.00     0.139 HD
ENDROOT
BRANCH   1   5
ATOM      5  O   UNL d   1       0.217  -1.171  -0.157  0.00  0.00    -0.185 OA
BRANCH   5   6
ATOM      6  N   UNL d   1       0.264  -2.181   0.820  0.00  0.00    -0.265 N 
ATOM      7  C   UNL d   1      -0.456  -3.204   0.473  0.00  0.00     0.011 C 
ATOM      8  C   UNL d   1      -0.570  -4.380   1.400  0.00  0.00     0.066 C 
ATOM      9  HN  UNL d   1       0.795  -2.118   1.689  1.00  0.00     0.194 HD
BRANCH   7  10
ATOM     10  C   UNL d   1      -1.123  -3.285  -0.855  0.00  0.00     0.033 A 
ATOM     11  C   UNL d   1      -2.193  -2.277  -1.218  0.00  0.00     0.011 A 
ATOM     12  C   UNL d   1      -2.562  -3.713  -1.021  0.00  0.00     0.011 A 
ENDBRANCH   7  10
ENDBRANCH   5   6
ENDBRANCH   1   5
BRANCH   2  13
ATOM     13  C   UNL d   1      -0.704   1.277   1.132  0.00  0.00     0.039 A 
ATOM     14  C   UNL d   1      -2.012   1.606   0.753  0.00  0.00     0.055 A 
ATOM     15 CL   UNL d   1      -2.450   1.709  -0.924  0.00  0.00    -0.082 Cl
ATOM     16  C   UNL d   1      -3.008   1.789   1.713  0.00  0.00     0.026 A 
ATOM     17  C   UNL d   1      -2.694   1.660   3.064  0.00  0.00     0.002 A 
ATOM     18  C   UNL d   1      -1.397   1.334   3.454  0.00  0.00     0.002 A 
ATOM     19  C   UNL d   1      -0.400   1.140   2.494  0.00  0.00     0.026 A 
ENDBRANCH   2  13
TORSDOF 4
