REMARK  3 active torsions:
REMARK  status: ('A' for Active; 'I' for Inactive)
REMARK    1  A    between atoms: C_5  and  N_1 
REMARK    2  A    between atoms: C_7  and  C_3 
REMARK    3  A    between atoms: O_12  and  C_7 
ROOT
ATOM      1  N   UNL d   1      -0.073  -1.096   0.025  0.00  0.00    -0.317 N 
ATOM      2  C   UNL d   1       0.726   0.045   0.158  0.00  0.00     0.225 C 
ATOM      3  C   UNL d   1      -1.498   0.732  -0.366  0.00  0.00     0.111 C 
ATOM      4  C   UNL d   1      -1.474  -0.745  -0.010  0.00  0.00     0.148 C 
ATOM      5  C   UNL d   1      -0.178   1.253   0.174  0.00  0.00     0.120 C 
ATOM      6  O   UNL d   1       1.933   0.133   0.312  0.00  0.00    -0.273 OA
ENDROOT
BRANCH   1   7
ATOM      7  C   UNL d   1       0.384  -2.442   0.002  0.00  0.00     0.038 A 
ATOM      8  C   UNL d   1       1.737  -2.756  -0.178  0.00  0.00     0.053 A 
ATOM      9  C   UNL d   1       2.165  -4.086  -0.204  0.00  0.00     0.036 A 
ATOM     10 CL   UNL d   1       3.834  -4.443  -0.436  0.00  0.00    -0.084 Cl
ATOM     11  C   UNL d   1       1.258  -5.128  -0.048  0.00  0.00     0.024 A 
ATOM     12  C   UNL d   1      -0.090  -4.837   0.128  0.00  0.00     0.004 A 
ATOM     13  C   UNL d   1      -0.522  -3.507   0.149  0.00  0.00     0.030 A 
ENDBRANCH   1   7
BRANCH   3  14
ATOM     14  C   UNL d   1      -1.613   0.952  -1.860  0.00  0.00     0.145 C 
ATOM     15  O   UNL d   1      -1.690   0.066  -2.695  0.00  0.00    -0.650 OA
BRANCH  14  16
ATOM     16  O   UNL d   1      -1.685   2.259  -2.203  0.00  0.00    -0.776 OA
ATOM     17  H   UNL d   1      -1.649   2.894  -1.464  0.00  0.00     0.167 HD
ENDBRANCH  14  16
ENDBRANCH   3  14
TORSDOF 3
