REMARK  3 active torsions:
REMARK  status: ('A' for Active; 'I' for Inactive)
REMARK    1  A    between atoms: N_9  and  C_1 
REMARK    2  A    between atoms: C_16  and  N_4 
REMARK    3  A    between atoms: N_7  and  N_9 
ROOT
ATOM      1  C   UNL d   1      -0.320  -1.204  -0.136  0.00  0.00     0.142 A 
ATOM      2  C   UNL d   1       1.068  -0.663  -0.284  0.00  0.00     0.297 A 
ATOM      3  N   UNL d   1      -0.370   1.069   0.182  0.00  0.00    -0.289 N 
ATOM      4  N   UNL d   1       0.982   0.733  -0.135  0.00  0.00    -0.217 N 
ATOM      5  C   UNL d   1      -1.102  -0.122   0.066  0.00  0.00     0.058 A 
ATOM      6  O   UNL d   1       2.044  -1.382  -0.454  0.00  0.00    -0.264 OA
ATOM      7  C   UNL d   1      -0.887   2.381  -0.194  0.00  0.00     0.178 C 
ATOM      8  C   UNL d   1      -2.587  -0.218   0.205  0.00  0.00     0.072 C 
ENDROOT
BRANCH   1   9
ATOM      9  N   UNL d   1      -0.587  -2.556  -0.093  0.00  0.00    -0.293 N 
ATOM     10  H   UNL d   1       0.008  -2.973   0.640  0.00  0.00     0.187 HD
BRANCH   9  11
ATOM     11  N   UNL d   1      -0.715  -3.308  -1.238  0.00  0.00    -0.293 N 
ATOM     12  C   UNL d   1      -0.281  -4.544  -1.218  0.00  0.00     0.140 C 
ATOM     13  C   UNL d   1      -0.513  -5.403  -2.452  0.00  0.00     0.181 C 
ATOM     14  C   UNL d   1       0.454  -5.161  -0.041  0.00  0.00     0.181 C 
ATOM     15  C   UNL d   1       0.220  -6.719  -2.496  0.00  0.00     0.095 C 
ATOM     16  O   UNL d   1      -1.330  -5.080  -3.301  0.00  0.00    -0.291 OA
ATOM     17  C   UNL d   1       1.590  -6.676  -1.803  0.00  0.00    -0.034 C 
ATOM     18  C   UNL d   1       1.432  -6.274  -0.326  0.00  0.00     0.095 C 
ATOM     19  C   UNL d   1       2.216  -8.087  -1.853  0.00  0.00     0.015 C 
ATOM     20  C   UNL d   1       2.543  -5.718  -2.543  0.00  0.00     0.015 C 
ATOM     21  O   UNL d   1       0.235  -4.765   1.099  0.00  0.00    -0.291 OA
ATOM     22  HN  UNL d   1      -1.136  -2.914  -2.080  1.00  0.00     0.187 HD
ENDBRANCH   9  11
ENDBRANCH   1   9
BRANCH   4  23
ATOM     23  C   UNL d   1       2.085   1.624  -0.097  0.00  0.00     0.060 A 
ATOM     24  C   UNL d   1       3.246   1.325  -0.829  0.00  0.00     0.031 A 
ATOM     25  C   UNL d   1       4.348   2.187  -0.837  0.00  0.00     0.002 A 
ATOM     26  C   UNL d   1       4.312   3.368  -0.105  0.00  0.00     0.000 A 
ATOM     27  C   UNL d   1       3.180   3.677   0.642  0.00  0.00     0.002 A 
ATOM     28  C   UNL d   1       2.080   2.808   0.651  0.00  0.00     0.031 A 
ENDBRANCH   4  23
TORSDOF 3
