REMARK  3 active torsions:
REMARK  status: ('A' for Active; 'I' for Inactive)
REMARK    1  A    between atoms: C_3  and  C_1 
REMARK    2  A    between atoms: C_9  and  C_2 
REMARK    3  A    between atoms: C_15  and  C_12 
ROOT
ATOM      1  C   UNL d   1       0.012  -1.282  -0.030  0.00  0.00     0.077 A 
ATOM      2  C   UNL d   1      -1.330  -0.822   0.117  0.00  0.00     0.085 A 
ATOM      3  N   UNL d   1      -1.318   0.498   0.379  0.00  0.00    -0.259 N 
ATOM      4  HN  UNL d   1      -2.131   1.091   0.546  1.00  0.00     0.195 HD
ATOM      5  O   UNL d   1       0.000   0.898   0.379  0.00  0.00    -0.241 OA
ATOM      6  C   UNL d   1       0.802  -0.173   0.155  0.00  0.00     0.089 A 
ATOM      7  C   UNL d   1       2.256   0.083   0.121  0.00  0.00     0.080 C 
ENDROOT
BRANCH   1   8
ATOM      8  C   UNL d   1       0.538  -2.636  -0.301  0.00  0.00     0.179 A 
ATOM      9  O   UNL d   1      -0.189  -3.653  -0.868  0.00  0.00    -0.272 OA
ATOM     10  C   UNL d   1       0.711  -4.687  -0.866  0.00  0.00     0.174 A 
ATOM     11  N   UNL d   1       1.858  -4.363  -0.314  0.00  0.00    -0.277 N 
ATOM     12  N   UNL d   1       1.766  -3.023   0.003  0.00  0.00    -0.277 N 
ATOM     13  HN  UNL d   1       2.656  -4.978  -0.153  1.00  0.00     0.189 HD
ATOM     14  HN  UNL d   1       2.505  -2.441   0.397  1.00  0.00     0.189 HD
BRANCH  10  15
ATOM     15  C   UNL d   1       0.282  -5.923  -1.497  0.00  0.00     0.017 A 
ATOM     16  C   UNL d   1      -0.540  -5.887  -2.639  0.00  0.00     0.017 A 
ATOM     17  C   UNL d   1      -0.898  -7.063  -3.290  0.00  0.00     0.025 A 
ATOM     18  C   UNL d   1      -0.446  -8.290  -2.803  0.00  0.00     0.034 A 
ATOM     19  C   UNL d   1       0.357  -8.341  -1.667  0.00  0.00     0.025 A 
ATOM     20 CL   UNL d   1      -0.878  -9.738  -3.622  0.00  0.00    -0.084 Cl
ATOM     21  C   UNL d   1       0.724  -7.160  -1.015  0.00  0.00     0.017 A 
ENDBRANCH  10  15
ENDBRANCH   1   8
BRANCH   2  22
ATOM     22  C   UNL d   1      -2.605  -1.556   0.100  0.00  0.00     0.037 A 
ATOM     23  C   UNL d   1      -2.800  -2.723   0.872  0.00  0.00     0.048 A 
ATOM     24 CL   UNL d   1      -1.636  -3.326   2.008  0.00  0.00    -0.083 Cl
ATOM     25  C   UNL d   1      -4.008  -3.436   0.824  0.00  0.00     0.025 A 
ATOM     26  C   UNL d   1      -5.079  -2.959   0.077  0.00  0.00     0.003 A 
ATOM     27  C   UNL d   1      -4.936  -1.776  -0.637  0.00  0.00     0.025 A 
ATOM     28  C   UNL d   1      -3.711  -1.090  -0.647  0.00  0.00     0.048 A 
ATOM     29 CL   UNL d   1      -3.660   0.327  -1.646  0.00  0.00    -0.083 Cl
ENDBRANCH   2  22
TORSDOF 3
