REMARK  5 active torsions:
REMARK  status: ('A' for Active; 'I' for Inactive)
REMARK    1  A    between atoms: N_3  and  C_2 
REMARK    2  A    between atoms: S_13  and  C_4 
REMARK    3  A    between atoms: C_15  and  C_5 
REMARK    4  A    between atoms: C_10  and  C_14 
REMARK    5  A    between atoms: C_11  and  S_13 
ROOT
ATOM      1  C   UNL d   1       0.688   3.871  -2.364  0.00  0.00     0.120 A 
ATOM      2  C   UNL d   1       0.497   3.620  -0.997  0.00  0.00     0.041 A 
ATOM      3  C   UNL d   1       1.818   4.555  -2.851  0.00  0.00     0.053 A 
ATOM      4  C   UNL d   1       2.793   5.021  -1.959  0.00  0.00     0.050 A 
ATOM      5  C   UNL d   1       1.468   4.119  -0.114  0.00  0.00     0.022 A 
ATOM      6  C   UNL d   1       2.596   4.809  -0.586  0.00  0.00     0.017 A 
ENDROOT
BRANCH   2   7
ATOM      7  S   UNL d   1      -0.909   2.752  -0.304  0.00  0.00    -0.050 SA
BRANCH   7   8
ATOM      8  C   UNL d   1      -0.271   1.154  -0.219  0.00  0.00     0.165 A 
ATOM      9  N   UNL d   1      -1.097   0.074  -0.155  0.00  0.00    -0.323 N 
ATOM     10  C   UNL d   1      -0.284  -1.031  -0.081  0.00  0.00     0.105 A 
ATOM     11  H   UNL d   1      -2.107   0.091  -0.178  0.00  0.00     0.169 HD
ATOM     12  N   UNL d   1       0.971  -0.614  -0.082  0.00  0.00    -0.286 N 
ATOM     13  N   UNL d   1       0.978   0.761  -0.172  0.00  0.00    -0.278 N 
ATOM     14  HN  UNL d   1       1.796  -1.211  -0.027  1.00  0.00     0.188 HD
ATOM     15  HN  UNL d   1       1.802   1.362  -0.197  1.00  0.00     0.189 HD
BRANCH  10  16
ATOM     16  C   UNL d   1      -0.779  -2.459  -0.042  0.00  0.00     0.009 C 
ATOM     17  C   UNL d   1      -1.553  -2.781  -1.333  0.00  0.00     0.023 C 
ATOM     18  C   UNL d   1       0.413  -3.431   0.066  0.00  0.00     0.023 C 
ATOM     19  C   UNL d   1      -1.697  -2.689   1.171  0.00  0.00     0.023 C 
ENDBRANCH  10  16
ENDBRANCH   7   8
ENDBRANCH   2   7
BRANCH   1  20
ATOM     20  N   UNL d   1      -0.296   3.452  -3.345  0.00  0.00    -0.114 N 
ATOM     21  O   UNL d   1      -1.448   3.889  -3.225  0.00  0.00    -0.532 OA
ATOM     22  O   UNL d   1       0.104   2.731  -4.270  0.00  0.00    -0.532 OA
ENDBRANCH   1  20
BRANCH   4  23
ATOM     23  C   UNL d   1       4.034   5.730  -2.452  0.00  0.00     0.417 C 
ATOM     24  F   UNL d   1       4.092   5.836  -3.808  0.00  0.00    -0.166 F 
ATOM     25  F   UNL d   1       4.130   7.001  -1.974  0.00  0.00    -0.166 F 
ATOM     26  F   UNL d   1       5.178   5.098  -2.075  0.00  0.00    -0.166 F 
ENDBRANCH   4  23
TORSDOF 5
