REMARK  3 active torsions:
REMARK  status: ('A' for Active; 'I' for Inactive)
REMARK    1  A    between atoms: C_8  and  C_2 
REMARK    2  A    between atoms: S_11  and  C_5 
REMARK    3  A    between atoms: C_9  and  C_10 
ROOT
ATOM      1  N   UNL d   1      -0.968  -0.071   0.487  0.00  0.00    -0.320 N 
ATOM      2  C   UNL d   1      -0.309   1.013  -0.037  0.00  0.00     0.132 A 
ATOM      3  N   UNL d   1       0.779   0.571  -0.647  0.00  0.00    -0.283 N 
ATOM      4  HN  UNL d   1       1.456   1.147  -1.148  1.00  0.00     0.188 HD
ATOM      5  C   UNL d   1      -0.210  -1.158   0.189  0.00  0.00     0.160 A 
ATOM      6  N   UNL d   1       0.846  -0.796  -0.493  0.00  0.00    -0.278 N 
ATOM      7  HN  UNL d   1       1.581  -1.411  -0.844  1.00  0.00     0.189 HD
ATOM      8  H   UNL d   1      -1.849  -0.076   0.974  0.00  0.00     0.169 HD
ENDROOT
BRANCH   2   9
ATOM      9  C   UNL d   1      -0.765   2.398   0.040  0.00  0.00     0.009 A 
ATOM     10  C   UNL d   1      -1.598   2.862   1.064  0.00  0.00     0.016 A 
ATOM     11  C   UNL d   1      -2.002   4.206   1.102  0.00  0.00     0.009 A 
ATOM     12  C   UNL d   1      -1.597   5.128   0.118  0.00  0.00    -0.051 A 
ATOM     13  C   UNL d   1      -0.756   4.648  -0.898  0.00  0.00     0.009 A 
ATOM     14  C   UNL d   1      -0.346   3.311  -0.932  0.00  0.00     0.016 A 
BRANCH  12  15
ATOM     15  C   UNL d   1      -2.069   6.593   0.177  0.00  0.00    -0.024 C 
ATOM     16  C   UNL d   1      -1.543   7.463  -0.987  0.00  0.00     0.019 C 
ATOM     17  C   UNL d   1      -3.612   6.641   0.120  0.00  0.00     0.019 C 
ATOM     18  C   UNL d   1      -1.592   7.250   1.489  0.00  0.00     0.019 C 
ENDBRANCH  12  15
ENDBRANCH   2   9
BRANCH   5  19
ATOM     19  S   UNL d   1      -0.679  -2.733   0.692  0.00  0.00    -0.097 SA
ATOM     20  C   UNL d   1       0.739  -3.693   0.107  0.00  0.00     0.099 C 
ENDBRANCH   5  19
TORSDOF 3
