REMARK  7 active torsions:
REMARK  status: ('A' for Active; 'I' for Inactive)
REMARK    1  A    between atoms: C_7  and  N_1 
REMARK    2  A    between atoms: C_15  and  N_5 
REMARK    3  A    between atoms: C_20  and  C_7 
REMARK    4  A    between atoms: O_24  and  C_9 
REMARK    5  A    between atoms: C_10  and  C_11 
REMARK    6  A    between atoms: O_25  and  C_12 
REMARK    7  A    between atoms: C_19  and  C_20 
ROOT
ATOM      1  N   UNL d   1       1.027  -0.878   0.287  0.00  0.00    -0.297 N 
ATOM      2  C   UNL d   1       1.071   0.480   0.097  0.00  0.00     0.150 C 
ATOM      3  C   UNL d   1      -0.240  -1.448   0.235  0.00  0.00     0.235 C 
ATOM      4  S   UNL d   1      -0.553   1.153   0.084  0.00  0.00    -0.084 SA
ATOM      5  N   UNL d   1       2.007   1.352  -0.057  0.00  0.00    -0.337 N 
ATOM      6  HN  UNL d   1       1.704   2.321  -0.156  1.00  0.00     0.168 HD
ATOM      7  C   UNL d   1      -1.343  -0.448   0.125  0.00  0.00     0.185 C 
ATOM      8  O   UNL d   1      -0.472  -2.660   0.239  0.00  0.00    -0.272 OA
ENDROOT
BRANCH   1   9
ATOM      9  C   UNL d   1       2.158  -1.798   0.361  0.00  0.00     0.138 C 
BRANCH   9  10
ATOM     10  C   UNL d   1       3.027  -1.732   1.627  0.00  0.00     0.059 C 
BRANCH  10  11
ATOM     11  C   UNL d   1       4.196  -2.708   1.599  0.00  0.00    -0.054 A 
ATOM     12  C   UNL d   1       4.045  -4.011   1.093  0.00  0.00     0.046 A 
ATOM     13  C   UNL d   1       5.107  -4.926   1.043  0.00  0.00     0.102 A 
ATOM     14  C   UNL d   1       6.354  -4.540   1.553  0.00  0.00     0.101 A 
ATOM     15  C   UNL d   1       6.495  -3.265   2.122  0.00  0.00     0.040 A 
ATOM     16  C   UNL d   1       5.436  -2.353   2.135  0.00  0.00     0.010 A 
BRANCH  13  17
ATOM     17  O   UNL d   1       4.953  -6.203   0.573  0.00  0.00    -0.353 OA
ATOM     18  C   UNL d   1       3.842  -6.461  -0.278  0.00  0.00     0.210 C 
ENDBRANCH  13  17
BRANCH  14  19
ATOM     19  O   UNL d   1       7.500  -5.291   1.601  0.00  0.00    -0.353 OA
ATOM     20  C   UNL d   1       7.652  -6.293   0.600  0.00  0.00     0.210 C 
ENDBRANCH  14  19
ENDBRANCH  10  11
ENDBRANCH   9  10
ENDBRANCH   1   9
BRANCH   5  21
ATOM     21  C   UNL d   1       3.381   1.135  -0.106  0.00  0.00     0.034 A 
ATOM     22  C   UNL d   1       3.994   0.372  -1.091  0.00  0.00     0.030 A 
ATOM     23  C   UNL d   1       5.380   0.189  -1.092  0.00  0.00     0.010 A 
ATOM     24  C   UNL d   1       6.214   0.843  -0.166  0.00  0.00    -0.051 A 
ATOM     25  C   UNL d   1       5.590   1.695   0.757  0.00  0.00     0.010 A 
ATOM     26  C   UNL d   1       4.196   1.834   0.785  0.00  0.00     0.030 A 
BRANCH  24  27
ATOM     27  C   UNL d   1       7.742   0.697  -0.264  0.00  0.00    -0.024 C 
ATOM     28  C   UNL d   1       8.506   1.271   0.951  0.00  0.00     0.019 C 
ATOM     29  C   UNL d   1       8.169  -0.784  -0.382  0.00  0.00     0.019 C 
ATOM     30  C   UNL d   1       8.209   1.458  -1.522  0.00  0.00     0.019 C 
ENDBRANCH  24  27
ENDBRANCH   5  21
TORSDOF 7
