REMARK  5 active torsions:
REMARK  status: ('A' for Active; 'I' for Inactive)
REMARK       I    between atoms: N_2  and  C_1 
REMARK    1  A    between atoms: C_3  and  C_1 
REMARK    2  A    between atoms: C_9  and  C_4 
REMARK    3  A    between atoms: O_18  and  C_4 
REMARK    4  A    between atoms: O_20  and  C_6 
REMARK    5  A    between atoms: O_24  and  C_13 
ROOT
ATOM      1  C   UNL d   1       0.925   0.141   0.139  0.00  0.00     0.253 C 
ATOM      2  N   UNL d   1       0.304  -0.903   0.826  0.00  0.00    -0.348 N 
ATOM      3  C   UNL d   1      -1.818  -1.578   2.658  0.00  0.00     0.088 C 
ATOM      4  C   UNL d   1      -0.542  -0.817   3.101  0.00  0.00     0.063 C 
ATOM      5  C   UNL d   1      -2.042  -1.534   1.131  0.00  0.00     0.063 C 
ATOM      6  C   UNL d   1      -0.757  -1.783   0.342  0.00  0.00     0.129 C 
ATOM      7  C   UNL d   1       0.659  -1.148   2.218  0.00  0.00     0.129 C 
ATOM      8  O   UNL d   1       1.901   0.742   0.583  0.00  0.00    -0.267 OA
ENDROOT
BRANCH   1   9
ATOM      9  C   UNL d   1       0.406   0.597  -1.178  0.00  0.00     0.035 A 
ATOM     10  C   UNL d   1       1.317   0.879  -2.207  0.00  0.00     0.056 A 
ATOM     11  C   UNL d   1       0.876   1.361  -3.453  0.00  0.00     0.102 A 
ATOM     12  C   UNL d   1      -0.504   1.534  -3.667  0.00  0.00     0.101 A 
ATOM     13  C   UNL d   1      -1.399   1.287  -2.617  0.00  0.00     0.040 A 
ATOM     14  C   UNL d   1      -0.947   0.860  -1.373  0.00  0.00     0.020 A 
BRANCH  11  15
ATOM     15  O   UNL d   1       1.733   1.645  -4.483  0.00  0.00    -0.353 OA
ATOM     16  C   UNL d   1       3.114   1.794  -4.178  0.00  0.00     0.210 C 
ENDBRANCH  11  15
BRANCH  12  17
ATOM     17  O   UNL d   1      -1.161   1.940  -4.798  0.00  0.00    -0.353 OA
ATOM     18  C   UNL d   1      -0.407   2.398  -5.908  0.00  0.00     0.210 C 
ENDBRANCH  12  17
ENDBRANCH   1   9
BRANCH   3  19
ATOM     19  C   UNL d   1      -3.075  -1.037   3.357  0.00  0.00    -0.024 A 
ATOM     20  C   UNL d   1      -3.367   0.344   3.330  0.00  0.00     0.012 A 
ATOM     21  C   UNL d   1      -4.523   0.857   3.925  0.00  0.00     0.024 A 
ATOM     22  C   UNL d   1      -5.415  -0.005   4.553  0.00  0.00     0.034 A 
ATOM     23  C   UNL d   1      -5.162  -1.374   4.579  0.00  0.00     0.024 A 
ATOM     24 CL   UNL d   1      -6.841   0.620   5.282  0.00  0.00    -0.084 Cl
ATOM     25  C   UNL d   1      -4.006  -1.886   3.978  0.00  0.00     0.012 A 
ENDBRANCH   3  19
BRANCH   3  26
ATOM     26  O   UNL d   1      -1.614  -2.957   3.008  0.00  0.00    -0.385 OA
ATOM     27  H   UNL d   1      -1.554  -3.001   3.978  0.00  0.00     0.211 HD
ENDBRANCH   3  26
TORSDOF 5
