REMARK  2 active torsions:
REMARK  status: ('A' for Active; 'I' for Inactive)
REMARK    1  A    between atoms: C_7  and  C_1 
REMARK    2  A    between atoms: C_9  and  C_4 
ROOT
ATOM      1  C   UNL d   1       0.645  -0.976  -0.000  0.00  0.00     0.188 A 
ATOM      2  N   UNL d   1       1.307   0.160  -0.020  0.00  0.00    -0.318 N 
ATOM      3  HN  UNL d   1       2.316   0.307  -0.039  1.00  0.00     0.169 HD
ATOM      4  C   UNL d   1       0.301   1.102  -0.009  0.00  0.00     0.138 A 
ATOM      5  N   UNL d   1      -0.934   0.576   0.025  0.00  0.00    -0.242 N 
ATOM      6  HN  UNL d   1      -1.827   1.068   0.044  1.00  0.00     0.196 HD
ATOM      7  O   UNL d   1      -0.709  -0.797   0.027  0.00  0.00    -0.217 OA
ENDROOT
BRANCH   1   8
ATOM      8  C   UNL d   1       1.123  -2.343   0.040  0.00  0.00     0.094 A 
ATOM      9  C   UNL d   1       2.357  -2.651   0.617  0.00  0.00     0.134 A 
ATOM     10  F   UNL d   1       3.123  -1.687   1.149  0.00  0.00    -0.205 F 
ATOM     11  C   UNL d   1       2.825  -3.966   0.685  0.00  0.00     0.043 A 
ATOM     12  C   UNL d   1       2.060  -5.006   0.163  0.00  0.00     0.006 A 
ATOM     13  C   UNL d   1       0.833  -4.721  -0.430  0.00  0.00     0.043 A 
ATOM     14  C   UNL d   1       0.377  -3.402  -0.487  0.00  0.00     0.134 A 
ATOM     15  F   UNL d   1      -0.803  -3.175  -1.084  0.00  0.00    -0.205 F 
ENDBRANCH   1   8
BRANCH   4  16
ATOM     16  C   UNL d   1       0.574   2.536  -0.037  0.00  0.00     0.010 A 
ATOM     17  C   UNL d   1       1.895   3.003  -0.117  0.00  0.00     0.017 A 
ATOM     18  C   UNL d   1       2.165   4.375  -0.155  0.00  0.00     0.025 A 
ATOM     19  C   UNL d   1       1.115   5.289  -0.112  0.00  0.00     0.034 A 
ATOM     20  C   UNL d   1      -0.202   4.844  -0.028  0.00  0.00     0.025 A 
ATOM     21 CL   UNL d   1       1.445   6.976  -0.166  0.00  0.00    -0.084 Cl
ATOM     22  C   UNL d   1      -0.471   3.472   0.009  0.00  0.00     0.017 A 
ENDBRANCH   4  16
TORSDOF 2
