REMARK  5 active torsions:
REMARK  status: ('A' for Active; 'I' for Inactive)
REMARK    1  A    between atoms: C_3  and  C_1 
REMARK    2  A    between atoms: C_4  and  C_1 
REMARK    3  A    between atoms: C_9  and  C_2 
REMARK    4  A    between atoms: O_15  and  C_3 
REMARK    5  A    between atoms: N_5  and  C_4 
ROOT
ATOM      1  C   UNL d   1       0.965  -0.006   0.093  0.00  0.00     0.102 C 
ATOM      2  C   UNL d   1       0.267  -0.431   1.165  0.00  0.00     0.039 C 
ENDROOT
BRANCH   1   3
ATOM      3  C   UNL d   1       0.244   0.469  -1.110  0.00  0.00     0.302 C 
ATOM      4  O   UNL d   1      -0.974   0.513  -1.207  0.00  0.00    -0.259 OA
BRANCH   3   5
ATOM      5  O   UNL d   1       1.126   0.838  -2.071  0.00  0.00    -0.322 OA
ATOM      6  C   UNL d   1       0.529   1.308  -3.281  0.00  0.00     0.213 C 
ENDBRANCH   3   5
ENDBRANCH   1   3
BRANCH   1   7
ATOM      7  C   UNL d   1       2.485  -0.006   0.093  0.00  0.00    -0.031 C 
BRANCH   7   8
ATOM      8  N   UNL d   1       3.746  -0.006   0.093  0.00  0.00    -0.365 N 
ATOM      9  HN2 UNL d   1       2.726  -0.006   0.093  1.00  0.00     0.165 HD
ATOM     10  HN1 UNL d   1       4.766  -0.006   0.093  1.00  0.00     0.165 HD
ENDBRANCH   7   8
ENDBRANCH   1   7
BRANCH   2  11
ATOM     11  C   UNL d   1       0.907  -0.929   2.387  0.00  0.00    -0.033 A 
ATOM     12  C   UNL d   1       1.271  -0.043   3.407  0.00  0.00     0.037 A 
ATOM     13  C   UNL d   1       1.942  -0.512   4.544  0.00  0.00     0.056 A 
ATOM     14 CL   UNL d   1       2.366   0.643   5.758  0.00  0.00    -0.083 Cl
ATOM     15  C   UNL d   1       2.251  -1.871   4.662  0.00  0.00     0.055 A 
ATOM     16  C   UNL d   1       1.883  -2.756   3.645  0.00  0.00     0.026 A 
ATOM     17 CL   UNL d   1       3.083  -2.519   6.030  0.00  0.00    -0.083 Cl
ATOM     18  C   UNL d   1       1.213  -2.288   2.511  0.00  0.00     0.013 A 
ENDBRANCH   2  11
TORSDOF 5
