REMARK  13 active torsions:
REMARK  status: ('A' for Active; 'I' for Inactive)
REMARK    1  A    between atoms: N_8  and  C_1 
REMARK    2  A    between atoms: C_2  and  N_7 
REMARK    3  A    between atoms: N_19  and  C_2 
REMARK    4  A    between atoms: N_7  and  N_3 
REMARK    5  A    between atoms: N_5  and  N_8 
REMARK    6  A    between atoms: C_9  and  C_13 
REMARK    7  A    between atoms: C_14  and  C_10 
REMARK    8  A    between atoms: C_21  and  O_29 
REMARK    9  A    between atoms: O_28  and  C_22 
REMARK   10  A    between atoms: C_27  and  C_32 
REMARK   11  A    between atoms: C_33  and  C_27 
REMARK   12  A    between atoms: C_32  and  O_28 
REMARK   13  A    between atoms: O_29  and  C_33 
ROOT
ATOM      1  C   UNL d   1     -12.230 -12.211  -0.099  0.00  0.00     0.053 C 
ENDROOT
BRANCH   1   2
ATOM      2  C   UNL d   1     -11.552 -13.092   0.951  0.00  0.00     0.178 C 
BRANCH   2   3
ATOM      3  O   UNL d   1     -11.495 -14.441   0.471  0.00  0.00    -0.351 OA
BRANCH   3   4
ATOM      4  C   UNL d   1     -10.928 -15.349   1.328  0.00  0.00     0.068 A 
ATOM      5  C   UNL d   1     -11.372 -16.665   1.195  0.00  0.00     0.037 A 
ATOM      6  C   UNL d   1     -10.851 -17.683   2.006  0.00  0.00     0.016 A 
ATOM      7  C   UNL d   1      -9.851 -17.405   2.949  0.00  0.00    -0.012 A 
ATOM      8  C   UNL d   1      -9.402 -16.084   3.071  0.00  0.00     0.016 A 
ATOM      9  C   UNL d   1      -9.933 -15.066   2.264  0.00  0.00     0.037 A 
BRANCH   7  10
ATOM     10  C   UNL d   1      -9.232 -18.487   3.804  0.00  0.00     0.032 C 
ATOM     11  N   UNL d   1      -8.305 -18.150   4.662  0.00  0.00    -0.302 N 
ATOM     12  HN  UNL d   1      -8.022 -17.175   4.755  1.00  0.00     0.186 HD
ATOM     13  C   UNL d   1      -9.747 -19.899   3.580  0.00  0.00     0.070 C 
BRANCH  11  14
ATOM     14  N   UNL d   1      -7.719 -19.112   5.435  0.00  0.00    -0.276 N 
ATOM     15  H   UNL d   1      -7.987 -20.083   5.368  0.00  0.00     0.189 HD
BRANCH  14  16
ATOM     16  C   UNL d   1      -6.721 -18.832   6.323  0.00  0.00     0.184 C 
ATOM     17  S   UNL d   1      -6.004 -20.022   7.232  0.00  0.00    -0.040 SA
ATOM     18  N   UNL d   1      -6.346 -17.539   6.422  0.00  0.00    -0.375 N 
ATOM     19  H   UNL d   1      -6.850 -16.863   5.863  0.00  0.00     0.158 HD
ATOM     20  H   UNL d   1      -5.632 -17.250   7.074  0.00  0.00     0.158 HD
ENDBRANCH  14  16
ENDBRANCH  11  14
ENDBRANCH   7  10
ENDBRANCH   3   4
ENDBRANCH   2   3
ENDBRANCH   1   2
BRANCH   1  21
ATOM     21  C   UNL d   1     -12.351 -10.755   0.359  0.00  0.00     0.178 C 
BRANCH  21  22
ATOM     22  O   UNL d   1     -11.046 -10.237   0.628  0.00  0.00    -0.351 OA
BRANCH  22  23
ATOM     23  C   UNL d   1     -10.981  -8.970   1.140  0.00  0.00     0.068 A 
ATOM     24  C   UNL d   1      -9.861  -8.707   1.928  0.00  0.00     0.037 A 
ATOM     25  C   UNL d   1      -9.667  -7.443   2.502  0.00  0.00     0.016 A 
ATOM     26  C   UNL d   1     -10.584  -6.407   2.281  0.00  0.00    -0.012 A 
ATOM     27  C   UNL d   1     -11.695  -6.672   1.465  0.00  0.00     0.016 A 
ATOM     28  C   UNL d   1     -11.893  -7.944   0.899  0.00  0.00     0.037 A 
BRANCH  26  29
ATOM     29  C   UNL d   1     -10.388  -5.034   2.897  0.00  0.00     0.032 C 
ATOM     30  N   UNL d   1     -11.274  -4.114   2.638  0.00  0.00    -0.302 N 
ATOM     31  HN  UNL d   1     -12.066  -4.327   2.031  1.00  0.00     0.186 HD
ATOM     32  C   UNL d   1      -9.166  -4.850   3.775  0.00  0.00     0.070 C 
BRANCH  30  33
ATOM     33  N   UNL d   1     -11.146  -2.865   3.177  0.00  0.00    -0.276 N 
ATOM     34  H   UNL d   1     -10.385  -2.621   3.803  0.00  0.00     0.189 HD
BRANCH  33  35
ATOM     35  C   UNL d   1     -12.060  -1.885   2.903  0.00  0.00     0.184 C 
ATOM     36  S   UNL d   1     -11.954  -0.359   3.540  0.00  0.00    -0.040 SA
BRANCH  35  37
ATOM     37  N   UNL d   1     -13.061  -2.250   2.071  0.00  0.00    -0.375 N 
ATOM     38  H   UNL d   1     -13.044  -3.204   1.735  0.00  0.00     0.158 HD
ATOM     39  H   UNL d   1     -13.795  -1.610   1.801  0.00  0.00     0.158 HD
ENDBRANCH  35  37
ENDBRANCH  33  35
ENDBRANCH  30  33
ENDBRANCH  26  29
ENDBRANCH  22  23
ENDBRANCH  21  22
ENDBRANCH   1  21
TORSDOF 13
