REMARK  3 active torsions:
REMARK  status: ('A' for Active; 'I' for Inactive)
REMARK    1  A    between atoms: C_8  and  C_1 
REMARK    2  A    between atoms: C_10  and  C_9 
REMARK    3  A    between atoms: O_13  and  C_10 
ROOT
ATOM      1  C   UNL d   1       1.744   1.513   0.058  0.00  0.00     0.120 A 
ATOM      2  N   UNL d   1       2.160   0.204   0.075  0.00  0.00    -0.308 N 
ATOM      3  N   UNL d   1       0.489   1.841   0.097  0.00  0.00    -0.341 N 
ATOM      4  HN  UNL d   1       0.208   2.822   0.122  1.00  0.00     0.167 HD
ATOM      5  C   UNL d   1       1.298  -0.864   0.117  0.00  0.00     0.259 A 
ATOM      6  C   UNL d   1      -0.133  -0.533   0.108  0.00  0.00     0.059 A 
ATOM      7  C   UNL d   1      -0.475   0.819   0.104  0.00  0.00     0.049 A 
ATOM      8  O   UNL d   1       1.699  -2.021   0.148  0.00  0.00    -0.267 OA
ATOM      9  C   UNL d   1      -1.106  -1.535   0.076  0.00  0.00     0.019 A 
ATOM     10  C   UNL d   1      -1.830   1.162   0.068  0.00  0.00     0.030 A 
ATOM     11  C   UNL d   1      -2.453  -1.179   0.033  0.00  0.00     0.001 A 
ATOM     12  C   UNL d   1      -2.815   0.169   0.029  0.00  0.00     0.002 A 
ATOM     13  H   UNL d   1       3.136  -0.062   0.048  0.00  0.00     0.170 HD
ENDROOT
BRANCH   1  14
ATOM     14  C   UNL d   1       2.780   2.579  -0.051  0.00  0.00     0.025 A 
ATOM     15  C   UNL d   1       4.061   2.546   0.518  0.00  0.00     0.051 A 
ATOM     16  C   UNL d   1       4.971   3.581   0.222  0.00  0.00     0.019 A 
ATOM     17  C   UNL d   1       4.609   4.646  -0.605  0.00  0.00     0.001 A 
ATOM     18  C   UNL d   1       3.327   4.700  -1.135  0.00  0.00     0.001 A 
ATOM     19  C   UNL d   1       2.419   3.679  -0.856  0.00  0.00     0.016 A 
BRANCH  15  20
ATOM     20  C   UNL d   1       4.595   1.480   1.401  0.00  0.00     0.177 C 
ATOM     21  O   UNL d   1       5.758   1.125   1.347  0.00  0.00    -0.646 OA
BRANCH  20  22
ATOM     22  O   UNL d   1       3.716   0.950   2.272  0.00  0.00    -0.773 OA
ATOM     23  H   UNL d   1       2.827   1.347   2.323  0.00  0.00     0.167 HD
ENDBRANCH  20  22
ENDBRANCH  15  20
ENDBRANCH   1  14
TORSDOF 3
