REMARK  3 active torsions:
REMARK  status: ('A' for Active; 'I' for Inactive)
REMARK    1  A    between atoms: C_6  and  N_1 
REMARK    2  A    between atoms: C_7  and  N_2 
REMARK    3  A    between atoms: N_10  and  C_4 
ROOT
ATOM      1  N   UNL d   1      -0.716  -0.918  -0.165  0.00  0.00    -0.246 N 
ATOM      2  N   UNL d   1       1.131   0.374   0.156  0.00  0.00    -0.250 N 
ATOM      3  C   UNL d   1       0.677  -0.927  -0.116  0.00  0.00     0.341 C 
ATOM      4  C   UNL d   1      -1.160   0.340   0.059  0.00  0.00     0.149 C 
ATOM      5  C   UNL d   1       0.051   1.219   0.106  0.00  0.00     0.156 C 
ATOM      6  S   UNL d   1      -0.130   2.856  -0.107  0.00  0.00    -0.056 SA
ATOM      7  O   UNL d   1       1.379  -1.908  -0.327  0.00  0.00    -0.245 OA
ENDROOT
BRANCH   1   8
ATOM      8  C   UNL d   1      -1.508  -1.968  -0.702  0.00  0.00     0.057 A 
ATOM      9  C   UNL d   1      -1.483  -3.303  -0.210  0.00  0.00     0.002 A 
ATOM     10  C   UNL d   1      -2.299  -4.273  -0.854  0.00  0.00    -0.024 A 
ATOM     11  C   UNL d   1      -0.747  -3.731   0.923  0.00  0.00     0.014 A 
ATOM     12  C   UNL d   1      -2.326  -5.598  -0.395  0.00  0.00     0.012 A 
ATOM     13  C   UNL d   1      -3.104  -3.910  -1.944  0.00  0.00     0.012 A 
ATOM     14  C   UNL d   1      -1.577  -5.987   0.712  0.00  0.00     0.001 A 
ATOM     15  C   UNL d   1      -0.792  -5.054   1.374  0.00  0.00     0.001 A 
ATOM     16  C   UNL d   1      -3.141  -2.599  -2.400  0.00  0.00     0.003 A 
ATOM     17  C   UNL d   1      -2.355  -1.636  -1.780  0.00  0.00     0.031 A 
ENDBRANCH   1   8
BRANCH   4  18
ATOM     18  N   UNL d   1      -2.376   0.717   0.264  0.00  0.00    -0.382 N 
ATOM     19  H   UNL d   1      -3.008  -0.091   0.253  0.00  0.00     0.157 HD
ATOM     20  HN  UNL d   1      -2.668   1.682   0.416  1.00  0.00     0.157 HD
ENDBRANCH   4  18
BRANCH   2  21
ATOM     21  C   UNL d   1       2.504   0.752   0.316  0.00  0.00     0.047 A 
ATOM     22  C   UNL d   1       3.563  -0.030  -0.174  0.00  0.00     0.055 A 
ATOM     23  C   UNL d   1       4.903   0.368  -0.021  0.00  0.00     0.058 A 
ATOM     24 CL   UNL d   1       6.129  -0.660  -0.680  0.00  0.00    -0.082 Cl
ATOM     25  C   UNL d   1       5.213   1.559   0.637  0.00  0.00     0.055 A 
ATOM     26  C   UNL d   1       4.182   2.333   1.158  0.00  0.00     0.028 A 
ATOM     27 CL   UNL d   1       6.831   2.123   0.848  0.00  0.00    -0.083 Cl
ATOM     28  C   UNL d   1       2.851   1.925   1.010  0.00  0.00     0.032 A 
ENDBRANCH   2  21
TORSDOF 3
