REMARK  4 active torsions:
REMARK  status: ('A' for Active; 'I' for Inactive)
REMARK    1  A    between atoms: N_9  and  C_3 
REMARK    2  A    between atoms: N_13  and  C_6 
REMARK    3  A    between atoms: C_11  and  N_9 
REMARK    4  A    between atoms: O_14  and  C_12 
ROOT
ATOM      1  N   UNL d   1      -1.637   1.770  -1.563  0.00  0.00    -0.166 N 
ATOM      2  HN  UNL d   1      -0.667   1.456  -1.582  1.00  0.00     0.187 HD
ATOM      3  C   UNL d   1      -2.589   1.093  -0.928  0.00  0.00     0.686 A 
ATOM      4  N   UNL d   1      -3.854   1.498  -0.845  0.00  0.00    -0.188 N 
ATOM      5  HN  UNL d   1      -4.563   0.973  -0.333  1.00  0.00     0.185 HD
ATOM      6  C   UNL d   1      -2.033   2.882  -2.168  0.00  0.00     0.170 A 
ATOM      7  N   UNL d   1      -3.262   3.370  -2.150  0.00  0.00    -0.328 N 
ATOM      8  HN  UNL d   1      -3.520   4.240  -2.616  1.00  0.00     0.169 HD
ATOM      9  C   UNL d   1      -4.129   2.631  -1.474  0.00  0.00     0.200 A 
ENDROOT
BRANCH   3  10
ATOM     10  N   UNL d   1      -2.206  -0.096  -0.295  0.00  0.00    -0.189 N 
ATOM     11  H   UNL d   1      -1.262  -0.328  -0.580  0.00  0.00     0.184 HD
BRANCH  10  12
ATOM     12  C   UNL d   1      -3.010  -1.239  -0.096  0.00  0.00     0.082 A 
ATOM     13  C   UNL d   1      -2.775  -2.138   0.963  0.00  0.00     0.095 A 
ATOM     14  C   UNL d   1      -3.553  -3.299   1.085  0.00  0.00     0.039 A 
ATOM     15  C   UNL d   1      -4.564  -3.584   0.169  0.00  0.00     0.003 A 
ATOM     16  C   UNL d   1      -4.788  -2.723  -0.896  0.00  0.00     0.002 A 
ATOM     17  C   UNL d   1      -4.013  -1.570  -1.029  0.00  0.00     0.033 A 
BRANCH  13  18
ATOM     18  O   UNL d   1      -1.794  -2.033   1.916  0.00  0.00    -0.354 OA
ATOM     19  C   UNL d   1      -1.553  -0.728   2.430  0.00  0.00     0.210 C 
ENDBRANCH  13  18
ENDBRANCH  10  12
ENDBRANCH   3  10
BRANCH   6  20
ATOM     20  N   UNL d   1      -1.083   3.615  -2.852  0.00  0.00    -0.273 NA
ATOM     21  H   UNL d   1      -0.162   3.440  -2.478  0.00  0.00     0.127 HD
ATOM     22  H   UNL d   1      -1.378   4.578  -2.930  0.00  0.00     0.127 HD
ENDBRANCH   6  20
TORSDOF 4
