REMARK  6 active torsions:
REMARK  status: ('A' for Active; 'I' for Inactive)
REMARK    1  A    between atoms: C_9  and  S_1 
REMARK    2  A    between atoms: O_10  and  S_1 
REMARK    3  A    between atoms: C_17  and  C_2 
REMARK    4  A    between atoms: C_8  and  C_11 
REMARK    5  A    between atoms: C_18  and  O_10 
REMARK    6  A    between atoms: C_24  and  C_17 
ROOT
ATOM      1  C   UNL d   1       3.039   2.498   6.351  0.00  0.00     0.029 C 
ATOM      2  C   UNL d   1       4.042   1.936   5.401  0.00  0.00     0.295 C 
ATOM      3  C   UNL d   1       1.759   2.716   5.965  0.00  0.00    -0.036 C 
ATOM      4  O   UNL d   1       3.663   1.801   4.077  0.00  0.00    -0.274 OA
ATOM      5  C   UNL d   1       2.334   1.989   3.671  0.00  0.00     0.093 A 
ATOM      6  C   UNL d   1       1.363   2.414   4.572  0.00  0.00     0.005 A 
ATOM      7  C   UNL d   1       2.055   1.682   2.331  0.00  0.00     0.076 A 
ATOM      8  C   UNL d   1       0.057   2.533   4.079  0.00  0.00     0.017 A 
ATOM      9  C   UNL d   1       0.748   1.773   1.867  0.00  0.00     0.092 A 
ATOM     10  O   UNL d   1       5.173   1.623   5.758  0.00  0.00    -0.259 OA
ATOM     11  C   UNL d   1      -0.248   2.205   2.747  0.00  0.00     0.039 A 
ATOM     12  C   UNL d   1       0.688   3.248   6.883  0.00  0.00     0.050 C 
ENDROOT
BRANCH   9  13
ATOM     13  O   UNL d   1       0.316   1.407   0.617  0.00  0.00    -0.229 OA
BRANCH  13  14
ATOM     14  S   UNL d   1       1.309   1.353  -0.680  0.00  0.00     0.303 S 
ATOM     15  O   UNL d   1       1.630   2.715  -1.065  0.00  0.00    -0.193 OA
ATOM     16  O   UNL d   1       2.349   0.367  -0.466  0.00  0.00    -0.193 OA
BRANCH  14  17
ATOM     17  C   UNL d   1       0.268   0.670  -1.961  0.00  0.00     0.087 A 
ATOM     18  C   UNL d   1      -0.223  -0.635  -1.811  0.00  0.00     0.042 A 
ATOM     19  C   UNL d   1      -1.019  -1.207  -2.818  0.00  0.00     0.049 A 
ATOM     20  C   UNL d   1      -1.306  -0.451  -3.968  0.00  0.00     0.016 A 
ATOM     21  C   UNL d   1      -0.804   0.845  -4.115  0.00  0.00     0.002 A 
ATOM     22  C   UNL d   1      -0.012   1.408  -3.113  0.00  0.00     0.026 A 
BRANCH  19  23
ATOM     23  C   UNL d   1      -1.564  -2.610  -2.689  0.00  0.00     0.417 C 
ATOM     24  F   UNL d   1      -1.190  -3.233  -1.537  0.00  0.00    -0.166 F 
ATOM     25  F   UNL d   1      -2.925  -2.639  -2.704  0.00  0.00    -0.166 F 
ATOM     26  F   UNL d   1      -1.160  -3.422  -3.704  0.00  0.00    -0.166 F 
ENDBRANCH  19  23
ENDBRANCH  14  17
ENDBRANCH  13  14
ENDBRANCH   9  13
BRANCH   1  27
ATOM     27  C   UNL d   1       3.618   2.856   7.709  0.00  0.00     0.084 C 
BRANCH  27  28
ATOM     28  C   UNL d   1       3.434   1.805   8.787  0.00  0.00    -0.054 A 
ATOM     29  C   UNL d   1       4.083   0.562   8.702  0.00  0.00     0.010 A 
ATOM     30  C   UNL d   1       3.913  -0.400   9.700  0.00  0.00     0.043 A 
ATOM     31  C   UNL d   1       3.107  -0.119  10.794  0.00  0.00     0.116 A 
ATOM     32  C   UNL d   1       2.476   1.113  10.916  0.00  0.00     0.043 A 
ATOM     33  F   UNL d   1       2.940  -1.044  11.748  0.00  0.00    -0.206 F 
ATOM     34  C   UNL d   1       2.643   2.075   9.917  0.00  0.00     0.010 A 
ENDBRANCH  27  28
ENDBRANCH   1  27
TORSDOF 6
