REMARK  2 active torsions:
REMARK  status: ('A' for Active; 'I' for Inactive)
REMARK    1  A    between atoms: N_8  and  C_1 
REMARK       I    between atoms: C_9  and  N_8 
REMARK    2  A    between atoms: C_13  and  C_9 
ROOT
ATOM      1  C   UNL d   1       2.060   0.601   0.266  0.00  0.00     0.155 C 
ATOM      2  C   UNL d   1      -0.455  -0.544   0.109  0.00  0.00     0.089 A 
ATOM      3  S   UNL d   1       2.089  -1.102   0.601  0.00  0.00    -0.010 SA
ATOM      4  C   UNL d   1       0.541  -1.551  -0.066  0.00  0.00     0.235 C 
ATOM      5  N   UNL d   1       1.036   1.390   0.184  0.00  0.00    -0.335 N 
ATOM      6  HN  UNL d   1       1.145   2.396   0.059  1.00  0.00     0.168 HD
ATOM      7  C   UNL d   1      -0.227   0.795   0.277  0.00  0.00     0.056 A 
ATOM      8  S   UNL d   1      -2.119  -0.909   0.122  0.00  0.00    -0.095 SA
ATOM      9  C   UNL d   1      -1.414   1.544   0.457  0.00  0.00     0.038 A 
ATOM     10  C   UNL d   1      -2.529   0.732   0.409  0.00  0.00     0.053 A 
ATOM     11  O   UNL d   1       0.375  -2.660  -0.561  0.00  0.00    -0.279 OA
ENDROOT
BRANCH   1  12
ATOM     12  N   UNL d   1       3.275   1.235   0.070  0.00  0.00    -0.303 N 
ATOM     13  C   UNL d   1       4.579   0.746   0.017  0.00  0.00     0.257 C 
ATOM     14  O   UNL d   1       4.938  -0.384   0.321  0.00  0.00    -0.267 OA
ATOM     15  H   UNL d   1       3.141   2.220  -0.095  0.00  0.00     0.171 HD
BRANCH  13  16
ATOM     16  C   UNL d   1       5.620   1.737  -0.375  0.00  0.00     0.032 A 
ATOM     17  C   UNL d   1       6.899   1.601   0.184  0.00  0.00     0.018 A 
ATOM     18  C   UNL d   1       7.898   2.529  -0.114  0.00  0.00     0.025 A 
ATOM     19  C   UNL d   1       7.625   3.584  -0.982  0.00  0.00     0.034 A 
ATOM     20  C   UNL d   1       6.368   3.701  -1.577  0.00  0.00     0.025 A 
ATOM     21 CL   UNL d   1       8.842   4.750  -1.320  0.00  0.00    -0.084 Cl
ATOM     22  C   UNL d   1       5.364   2.774  -1.282  0.00  0.00     0.018 A 
ENDBRANCH  13  16
ENDBRANCH   1  12
TORSDOF 2
