REMARK  12 active torsions:
REMARK  status: ('A' for Active; 'I' for Inactive)
REMARK       I    between atoms: N_18  and  C1_1 
REMARK    1  A    between atoms: O1_4  and  C1_1 
REMARK    2  A    between atoms: C3_2  and  C4_3 
REMARK    3  A    between atoms: C4_3  and  O1_4 
REMARK    4  A    between atoms: O7_12  and  C10_9 
REMARK    5  A    between atoms: O6_11  and  C11_10 
REMARK    6  A    between atoms: C_20  and  C_17 
REMARK    7  A    between atoms: C_17  and  C_19 
REMARK    8  A    between atoms: C_17  and  N_18 
REMARK    9  A    between atoms: O_24  and  C_19 
REMARK   10  A    between atoms: O_22  and  C_20 
REMARK   11  A    between atoms: C_23  and  O_22 
REMARK   12  A    between atoms: C_31  and  N_30 
ROOT
ATOM      1  C   UNL d   1      -0.802   0.076   1.131  0.00  0.00     0.218 C 
ATOM      2  C   UNL d   1       0.014  -1.113   1.628  0.00  0.00     0.035 C 
ATOM      3  C   UNL d   1      -0.228   1.425   1.542  0.00  0.00     0.035 C 
ATOM      4  C   UNL d   1       1.233   1.596   1.165  0.00  0.00     0.002 C 
ATOM      5  C   UNL d   1       1.531  -0.970   1.606  0.00  0.00     0.002 C 
ATOM      6  C   UNL d   1       2.144   0.420   1.483  0.00  0.00     0.000 C 
ENDROOT
BRANCH   1   7
ATOM      7  N   UNL d   1      -2.160  -0.042   1.671  0.00  0.00     0.082 N 
ATOM      8  H   UNL d   1      -2.590  -0.915   1.373  0.00  0.00     0.313 HD
ATOM      9  H   UNL d   1      -2.745   0.720   1.337  0.00  0.00     0.313 HD
ENDBRANCH   1   7
TORSDOF 12
