REMARK  5 active torsions:
REMARK  status: ('A' for Active; 'I' for Inactive)
REMARK    1  A    between atoms: C_15  and  C_1 
REMARK    2  A    between atoms: C_10  and  C_3 
REMARK    3  A    between atoms: N_14  and  C_7 
REMARK       I    between atoms: C_9  and  N_13 
REMARK       I    between atoms: N_16  and  C_9 
REMARK    4  A    between atoms: O_32  and  C_15 
REMARK    5  A    between atoms: C_17  and  N_16 
ROOT
ATOM      1  C   UNL d   1      -0.740   0.960   1.390  0.00  0.00     0.074 A 
ATOM      2  C   UNL d   1       0.345   0.425   0.611  0.00  0.00     0.068 A 
ATOM      3  C   UNL d   1       0.926  -1.335  -0.949  0.00  0.00     0.070 A 
ATOM      4  C   UNL d   1      -0.025  -0.690  -0.145  0.00  0.00     0.047 A 
ATOM      5  N   UNL d   1       1.610   0.913   0.593  0.00  0.00    -0.341 N 
ATOM      6  HN  UNL d   1       1.850   1.727   1.158  1.00  0.00     0.167 HD
ATOM      7  C   UNL d   1       2.543   0.328  -0.164  0.00  0.00     0.104 A 
ATOM      8  S   UNL d   1      -1.685  -1.061   0.100  0.00  0.00    -0.098 SA
ATOM      9  C   UNL d   1      -1.894   0.227   1.186  0.00  0.00     0.070 A 
ATOM     10  C   UNL d   1       2.222  -0.779  -0.934  0.00  0.00     0.066 A 
ENDROOT
BRANCH   7  11
ATOM     11  N   UNL d   1       3.824   0.821  -0.090  0.00  0.00    -0.364 N 
ATOM     12  C   UNL d   1       4.134   1.882   0.880  0.00  0.00     0.144 C 
ATOM     13  C   UNL d   1       5.438   1.529   1.625  0.00  0.00     0.147 C 
ATOM     14  N   UNL d   1       6.540   1.224   0.694  0.00  0.00    -0.331 N 
ATOM     15  C   UNL d   1       7.880   1.565   0.816  0.00  0.00     0.323 C 
ATOM     16  C   UNL d   1       6.191   0.226  -0.333  0.00  0.00     0.147 C 
ATOM     17  N   UNL d   1       8.191   2.433   1.834  0.00  0.00    -0.309 N 
ATOM     18  O   UNL d   1       8.709   1.104   0.035  0.00  0.00    -0.247 OA
ATOM     19  H   UNL d   1       7.446   2.725   2.440  0.00  0.00     0.170 HD
ATOM     20  C   UNL d   1       4.890   0.586  -1.071  0.00  0.00     0.144 C 
BRANCH  17  21
ATOM     21  C   UNL d   1       9.476   2.897   2.203  0.00  0.00     0.039 A 
ATOM     22  C   UNL d   1      10.649   2.587   1.507  0.00  0.00     0.053 A 
ATOM     23  C   UNL d   1      11.888   3.007   1.997  0.00  0.00     0.037 A 
ATOM     24 CL   UNL d   1      13.325   2.574   1.150  0.00  0.00    -0.084 Cl
ATOM     25  C   UNL d   1      11.977   3.754   3.163  0.00  0.00     0.048 A 
ATOM     26  C   UNL d   1      10.811   4.102   3.831  0.00  0.00     0.037 A 
ATOM     27  C   UNL d   1       9.565   3.685   3.357  0.00  0.00     0.053 A 
ATOM     28 CL   UNL d   1      10.899   5.039   5.272  0.00  0.00    -0.084 Cl
ENDBRANCH  17  21
ENDBRANCH   7  11
BRANCH   3  29
ATOM     29  C   UNL d   1       0.692  -2.561  -1.788  0.00  0.00     0.418 C 
ATOM     30  F   UNL d   1      -0.559  -3.084  -1.722  0.00  0.00    -0.166 F 
ATOM     31  F   UNL d   1       0.927  -2.325  -3.110  0.00  0.00    -0.166 F 
ATOM     32  F   UNL d   1       1.534  -3.578  -1.446  0.00  0.00    -0.166 F 
ENDBRANCH   3  29
BRANCH   1  33
ATOM     33  C   UNL d   1      -0.730   2.103   2.299  0.00  0.00     0.295 C 
ATOM     34  O   UNL d   1      -1.735   2.469   2.901  0.00  0.00    -0.259 OA
BRANCH  33  35
ATOM     35  O   UNL d   1       0.483   2.713   2.423  0.00  0.00    -0.322 OA
ATOM     36  C   UNL d   1       0.487   3.827   3.316  0.00  0.00     0.213 C 
ENDBRANCH  33  35
ENDBRANCH   1  33
TORSDOF 5
