REMARK  6 active torsions:
REMARK  status: ('A' for Active; 'I' for Inactive)
REMARK    1  A    between atoms: C_4  and  S_1 
REMARK    2  A    between atoms: C_5  and  S_1 
REMARK       I    between atoms: N_2  and  C_3 
REMARK    3  A    between atoms: C_3  and  C_17 
REMARK    4  A    between atoms: C_20  and  C_5 
REMARK    5  A    between atoms: S_15  and  C_20 
REMARK    6  A    between atoms: C_17  and  S_15 
ROOT
ATOM      1  C   UNL d   1      -0.264   2.818   0.262  0.00  0.00     0.156 C 
ENDROOT
BRANCH   1   2
ATOM      2  S   UNL d   1      -0.288   1.727   1.665  0.00  0.00     0.176 S 
ATOM      3  O   UNL d   1      -1.487   2.019   2.427  0.00  0.00    -0.223 OA
ATOM      4  O   UNL d   1      -0.018   0.378   1.204  0.00  0.00    -0.223 OA
BRANCH   2   5
ATOM      5  C   UNL d   1       1.094   2.240   2.662  0.00  0.00     0.059 A 
ATOM      6  C   UNL d   1       0.931   3.282   3.581  0.00  0.00     0.025 A 
ATOM      7  C   UNL d   1       2.008   3.659   4.386  0.00  0.00     0.025 A 
ATOM      8  C   UNL d   1       3.229   2.991   4.274  0.00  0.00     0.034 A 
ATOM      9  C   UNL d   1       3.384   1.944   3.365  0.00  0.00     0.025 A 
ATOM     10 CL   UNL d   1       4.550   3.453   5.274  0.00  0.00    -0.084 Cl
ATOM     11  C   UNL d   1       2.311   1.558   2.560  0.00  0.00     0.025 A 
ENDBRANCH   2   5
ENDBRANCH   1   2
BRANCH   1  12
ATOM     12  C   UNL d   1       1.013   2.691  -0.547  0.00  0.00     0.089 C 
BRANCH  12  13
ATOM     13  S   UNL d   1       0.974   3.648  -2.102  0.00  0.00    -0.159 SA
BRANCH  13  14
ATOM     14  C   UNL d   1       0.699   5.330  -1.446  0.00  0.00     0.176 C 
BRANCH  14  15
ATOM     15  C   UNL d   1       0.771   6.363  -2.561  0.00  0.00     0.229 C 
ATOM     16  N   UNL d   1      -0.325   6.517  -3.399  0.00  0.00    -0.347 N 
ATOM     17  C   UNL d   1      -1.479   5.616  -3.497  0.00  0.00     0.152 C 
ATOM     18  C   UNL d   1      -0.224   7.428  -4.542  0.00  0.00     0.152 C 
ATOM     19  C   UNL d   1      -1.444   4.863  -4.836  0.00  0.00     0.187 C 
ATOM     20  O   UNL d   1      -1.379   5.784  -5.940  0.00  0.00    -0.388 OA
ATOM     21  C   UNL d   1      -0.210   6.620  -5.845  0.00  0.00     0.187 C 
ATOM     22  O   UNL d   1       1.777   7.069  -2.670  0.00  0.00    -0.273 OA
ENDBRANCH  14  15
ENDBRANCH  13  14
ENDBRANCH  12  13
ENDBRANCH   1  12
TORSDOF 6
