REMARK  1 active torsions:
REMARK  status: ('A' for Active; 'I' for Inactive)
REMARK    1  A    between atoms: N_5  and  C_2 
ROOT
ATOM      1  C   UNL d   1      -0.716   1.246   0.126  0.00  0.00     0.064 A 
ATOM      2  C   UNL d   1      -1.426   0.023   0.006  0.00  0.00     0.075 A 
ATOM      3  C   UNL d   1       0.692   1.237   0.095  0.00  0.00     0.092 A 
ATOM      4  C   UNL d   1      -0.709  -1.187  -0.120  0.00  0.00     0.042 A 
ATOM      5  C   UNL d   1       1.372   0.026  -0.026  0.00  0.00     0.140 A 
ATOM      6  C   UNL d   1       0.688  -1.177  -0.125  0.00  0.00     0.065 A 
ATOM      7 BR   UNL d   1      -1.611   2.903   0.499  0.00  0.00    -0.047 Br
ATOM      8 CL   UNL d   1       1.649   2.678   0.208  0.00  0.00    -0.080 Cl
ATOM      9 BR   UNL d   1      -1.502  -2.889  -0.450  0.00  0.00    -0.049 Br
ATOM     10  F   UNL d   1       2.713  -0.006  -0.052  0.00  0.00    -0.204 F 
ENDROOT
BRANCH   2  11
ATOM     11  N   UNL d   1      -2.846   0.009  -0.000  0.00  0.00    -0.330 N 
ATOM     12  C   UNL d   1      -3.667   0.753  -0.824  0.00  0.00     0.097 A 
ATOM     13  C   UNL d   1      -4.981   0.460  -0.532  0.00  0.00     0.019 A 
ATOM     14  C   UNL d   1      -4.976  -0.506   0.495  0.00  0.00     0.019 A 
ATOM     15  C   UNL d   1      -3.658  -0.764   0.807  0.00  0.00     0.097 A 
ENDBRANCH   2  11
TORSDOF 1
