REMARK  8 active torsions:
REMARK  status: ('A' for Active; 'I' for Inactive)
REMARK    1  A    between atoms: O_5  and  C_1 
REMARK    2  A    between atoms: C_11  and  C_4 
REMARK    3  A    between atoms: C_6  and  O_5 
REMARK       I    between atoms: N_12  and  C_6 
REMARK    4  A    between atoms: S_13  and  C_7 
REMARK    5  A    between atoms: C_17  and  C_11 
REMARK    6  A    between atoms: C_18  and  S_13 
REMARK    7  A    between atoms: C_14  and  C_18 
REMARK    8  A    between atoms: C_16  and  C_14 
ROOT
ATOM      1  C   UNL d   1       0.881  -0.957  -0.449  0.00  0.00     0.163 A 
ATOM      2  N   UNL d   1       1.569   0.164  -0.165  0.00  0.00    -0.316 N 
ATOM      3  HN  UNL d   1       2.550   0.148   0.112  1.00  0.00     0.170 HD
ATOM      4  C   UNL d   1      -0.465  -1.012  -0.782  0.00  0.00     0.020 A 
ATOM      5  C   UNL d   1       0.875   1.299  -0.269  0.00  0.00     0.146 A 
ATOM      6  N   UNL d   1      -0.444   1.367  -0.503  0.00  0.00    -0.340 N 
ATOM      7  HN  UNL d   1      -0.931   2.263  -0.501  1.00  0.00     0.167 HD
ATOM      8  C   UNL d   1      -1.107   0.215  -0.742  0.00  0.00     0.018 A 
ATOM      9  C   UNL d   1      -2.596   0.350  -0.877  0.00  0.00     0.069 C 
ENDROOT
BRANCH   5  10
ATOM     10  S   UNL d   1       1.698   2.845  -0.001  0.00  0.00    -0.086 SA
BRANCH  10  11
ATOM     11  C   UNL d   1       3.407   2.361  -0.387  0.00  0.00     0.166 C 
BRANCH  11  12
ATOM     12  C   UNL d   1       4.292   3.591  -0.413  0.00  0.00     0.169 C 
ATOM     13  O   UNL d   1       4.755   4.021  -1.473  0.00  0.00    -0.291 OA
BRANCH  12  14
ATOM     14  C   UNL d   1       4.631   4.307   0.860  0.00  0.00     0.011 A 
ATOM     15  C   UNL d   1       4.349   3.780   2.127  0.00  0.00     0.017 A 
ATOM     16  C   UNL d   1       4.675   4.503   3.280  0.00  0.00     0.025 A 
ATOM     17  C   UNL d   1       5.286   5.752   3.172  0.00  0.00     0.034 A 
ATOM     18  C   UNL d   1       5.580   6.284   1.920  0.00  0.00     0.025 A 
ATOM     19 CL   UNL d   1       5.676   6.638   4.593  0.00  0.00    -0.084 Cl
ATOM     20  C   UNL d   1       5.254   5.563   0.767  0.00  0.00     0.017 A 
ENDBRANCH  12  14
ENDBRANCH  11  12
ENDBRANCH  10  11
ENDBRANCH   5  10
BRANCH   1  21
ATOM     21  O   UNL d   1       1.513  -2.171  -0.121  0.00  0.00    -0.243 OA
BRANCH  21  22
ATOM     22  C   UNL d   1       2.698  -2.425  -0.786  0.00  0.00     0.368 C 
ATOM     23  N   UNL d   1       3.446  -3.414  -0.153  0.00  0.00    -0.336 N 
ATOM     24  C   UNL d   1       4.623  -3.940  -0.814  0.00  0.00     0.154 C 
ATOM     25  C   UNL d   1       2.998  -4.104   1.046  0.00  0.00     0.154 C 
ATOM     26  O   UNL d   1       3.030  -1.885  -1.836  0.00  0.00    -0.238 OA
ENDBRANCH  21  22
ENDBRANCH   1  21
BRANCH   4  27
ATOM     27  C   UNL d   1      -1.143  -2.300  -1.156  0.00  0.00     0.078 C 
BRANCH  27  28
ATOM     28  C   UNL d   1      -1.719  -3.158  -0.052  0.00  0.00    -0.089 C 
ATOM     29  C   UNL d   1      -1.622  -2.909   1.267  0.00  0.00     0.014 C 
ATOM     30  C   UNL d   1      -2.443  -4.386  -0.544  0.00  0.00     0.043 C 
ENDBRANCH  27  28
ENDBRANCH   4  27
TORSDOF 8
