REMARK  3 active torsions:
REMARK  status: ('A' for Active; 'I' for Inactive)
REMARK    1  A    between atoms: C_12  and  C_1 
REMARK    2  A    between atoms: N_5  and  O_10 
REMARK    3  A    between atoms: O_10  and  C_12 
ROOT
ATOM      1  C   UNL d   1      -2.852   4.552   0.007  0.00  0.00     0.052 C 
ATOM      2  C   UNL d   1      -4.020   3.608   0.010  0.00  0.00    -0.004 A 
ATOM      3  S   UNL d   1      -4.308   6.454   1.294  0.00  0.00    -0.158 SA
ATOM      4  N   UNL d   1      -1.644   4.061   0.017  0.00  0.00    -0.269 N 
ATOM      5  HN  UNL d   1      -1.432   3.066   0.094  1.00  0.00     0.194 HD
ATOM      6  C   UNL d   1      -5.321   4.032   0.338  0.00  0.00    -0.037 A 
ATOM      7  C   UNL d   1      -3.162   6.037  -0.039  0.00  0.00     0.134 C 
ATOM      8  C   UNL d   1      -5.682   5.445   0.716  0.00  0.00     0.113 C 
ATOM      9  C   UNL d   1      -3.795   2.267  -0.349  0.00  0.00     0.014 A 
ATOM     10  C   UNL d   1      -6.375   3.099   0.263  0.00  0.00     0.009 A 
ATOM     11  C   UNL d   1      -4.851   1.357  -0.408  0.00  0.00     0.001 A 
ATOM     12  C   UNL d   1      -6.142   1.774  -0.106  0.00  0.00     0.001 A 
ENDROOT
BRANCH   4  13
ATOM     13  O   UNL d   1      -0.669   5.065  -0.089  0.00  0.00    -0.276 OA
BRANCH  13  14
ATOM     14  C   UNL d   1       0.538   4.624   0.534  0.00  0.00     0.243 C 
BRANCH  14  15
ATOM     15  C   UNL d   1       1.708   5.335  -0.102  0.00  0.00     0.011 A 
ATOM     16  C   UNL d   1       2.135   6.596   0.352  0.00  0.00     0.044 A 
ATOM     17 CL   UNL d   1       1.345   7.424   1.650  0.00  0.00    -0.084 Cl
ATOM     18  C   UNL d   1       3.229   7.247  -0.237  0.00  0.00     0.024 A 
ATOM     19  C   UNL d   1       3.906   6.659  -1.301  0.00  0.00     0.003 A 
ATOM     20  C   UNL d   1       3.482   5.427  -1.784  0.00  0.00     0.024 A 
ATOM     21  C   UNL d   1       2.390   4.774  -1.197  0.00  0.00     0.044 A 
ATOM     22 CL   UNL d   1       1.931   3.256  -1.892  0.00  0.00    -0.084 Cl
ENDBRANCH  14  15
ENDBRANCH  13  14
ENDBRANCH   4  13
TORSDOF 3
