REMARK  6 active torsions:
REMARK  status: ('A' for Active; 'I' for Inactive)
REMARK    1  A    between atoms: O_6  and  C_1 
REMARK    2  A    between atoms: N_4  and  C_2 
REMARK    3  A    between atoms: N_5  and  C_3 
REMARK    4  A    between atoms: C_11  and  O_6 
REMARK    5  A    between atoms: C_7  and  C_8 
REMARK    6  A    between atoms: C_14  and  C_11 
ROOT
ATOM      1  C   UNL d   1       1.168  -0.242  -0.096  0.00  0.00     0.145 A 
ATOM      2  C   UNL d   1       0.109  -1.157  -0.071  0.00  0.00     0.140 A 
ATOM      3  C   UNL d   1       0.873   1.119   0.089  0.00  0.00     0.140 A 
ATOM      4  C   UNL d   1      -1.519   0.642   0.204  0.00  0.00     0.052 A 
ATOM      5  C   UNL d   1      -0.457   1.560   0.237  0.00  0.00     0.055 A 
ATOM      6  C   UNL d   1      -1.222  -0.726   0.099  0.00  0.00     0.055 A 
ENDROOT
BRANCH   1   7
ATOM      7  O   UNL d   1       2.472  -0.590  -0.501  0.00  0.00    -0.270 OA
BRANCH   7   8
ATOM      8  C   UNL d   1       3.219  -1.503   0.234  0.00  0.00     0.298 C 
ATOM      9  O   UNL d   1       2.827  -2.123   1.207  0.00  0.00    -0.259 OA
BRANCH   8  10
ATOM     10  C   UNL d   1       4.557  -1.637  -0.406  0.00  0.00     0.040 A 
ATOM     11  C   UNL d   1       5.285  -2.822  -0.233  0.00  0.00     0.020 A 
ATOM     12  C   UNL d   1       6.546  -2.959  -0.827  0.00  0.00     0.043 A 
ATOM     13  C   UNL d   1       7.075  -1.914  -1.578  0.00  0.00     0.116 A 
ATOM     14  C   UNL d   1       6.367  -0.731  -1.750  0.00  0.00     0.043 A 
ATOM     15  F   UNL d   1       8.283  -2.045  -2.141  0.00  0.00    -0.206 F 
ATOM     16  C   UNL d   1       5.107  -0.591  -1.167  0.00  0.00     0.020 A 
ENDBRANCH   8  10
ENDBRANCH   7   8
ENDBRANCH   1   7
BRANCH   2  17
ATOM     17  N   UNL d   1       0.308  -2.573  -0.341  0.00  0.00    -0.113 N 
ATOM     18  O   UNL d   1       0.988  -2.868  -1.335  0.00  0.00    -0.532 OA
ATOM     19  O   UNL d   1      -0.285  -3.377   0.389  0.00  0.00    -0.532 OA
ENDBRANCH   2  17
BRANCH   3  20
ATOM     20  N   UNL d   1       1.932   2.134   0.089  0.00  0.00    -0.113 N 
ATOM     21  O   UNL d   1       3.058   1.802   0.479  0.00  0.00    -0.532 OA
ATOM     22  O   UNL d   1       1.622   3.274  -0.283  0.00  0.00    -0.532 OA
ENDBRANCH   3  20
BRANCH   4  23
ATOM     23  C   UNL d   1      -2.957   1.115   0.241  0.00  0.00     0.417 C 
ATOM     24  F   UNL d   1      -3.098   2.406  -0.162  0.00  0.00    -0.166 F 
ATOM     25  F   UNL d   1      -3.760   0.380  -0.575  0.00  0.00    -0.166 F 
ATOM     26  F   UNL d   1      -3.497   1.038   1.484  0.00  0.00    -0.166 F 
ENDBRANCH   4  23
TORSDOF 6
