REMARK  7 active torsions:
REMARK  status: ('A' for Active; 'I' for Inactive)
REMARK    1  A    between atoms: O_19  and  C_3 
REMARK    2  A    between atoms: S_12  and  C_4 
REMARK    3  A    between atoms: C_21  and  C_5 
REMARK    4  A    between atoms: C_9  and  C_10 
REMARK    5  A    between atoms: C_10  and  C_14 
REMARK    6  A    between atoms: C_14  and  S_12 
REMARK    7  A    between atoms: C_18  and  C_21 
ROOT
ATOM      1  N   UNL d   1      -0.586   1.264   0.165  0.00  0.00    -0.317 N 
ATOM      2  HN  UNL d   1      -1.037   2.179   0.189  1.00  0.00     0.170 HD
ATOM      3  C   UNL d   1      -1.279   0.125   0.071  0.00  0.00     0.150 A 
ATOM      4  C   UNL d   1       0.742   1.118   0.224  0.00  0.00     0.146 A 
ATOM      5  C   UNL d   1      -0.751  -1.148   0.041  0.00  0.00     0.018 A 
ATOM      6  N   UNL d   1       1.383  -0.059   0.164  0.00  0.00    -0.340 N 
ATOM      7  HN  UNL d   1       2.402  -0.107   0.197  1.00  0.00     0.167 HD
ATOM      8  C   UNL d   1       0.634  -1.181   0.058  0.00  0.00     0.018 A 
ATOM      9  C   UNL d   1       1.408  -2.466  -0.006  0.00  0.00     0.069 C 
ENDROOT
BRANCH   4  10
ATOM     10  S   UNL d   1       1.697   2.590   0.482  0.00  0.00    -0.086 SA
BRANCH  10  11
ATOM     11  C   UNL d   1       3.368   1.872   0.465  0.00  0.00     0.166 C 
BRANCH  11  12
ATOM     12  C   UNL d   1       4.397   2.954   0.734  0.00  0.00     0.175 C 
ATOM     13  O   UNL d   1       4.897   3.555  -0.223  0.00  0.00    -0.291 OA
BRANCH  12  14
ATOM     14  C   UNL d   1       4.752   3.226   2.129  0.00  0.00     0.051 A 
ATOM     15  S   UNL d   1       5.933   4.430   2.464  0.00  0.00    -0.098 SA
ATOM     16  C   UNL d   1       5.814   4.188   4.149  0.00  0.00     0.050 A 
ATOM     17  C   UNL d   1       4.901   3.210   4.465  0.00  0.00     0.009 A 
ATOM     18  C   UNL d   1       4.287   2.656   3.302  0.00  0.00     0.023 A 
ENDBRANCH  12  14
ENDBRANCH  11  12
ENDBRANCH  10  11
ENDBRANCH   4  10
BRANCH   3  19
ATOM     19  O   UNL d   1      -2.622   0.328   0.027  0.00  0.00    -0.346 OA
ATOM     20  H   UNL d   1      -2.656   1.302   0.039  0.00  0.00     0.219 HD
ENDBRANCH   3  19
BRANCH   5  21
ATOM     21  C   UNL d   1      -1.620  -2.373   0.014  0.00  0.00     0.071 C 
BRANCH  21  22
ATOM     22  C   UNL d   1      -1.918  -2.988  -1.327  0.00  0.00    -0.032 C 
ATOM     23  C   UNL d   1      -1.611  -2.519  -2.543  0.00  0.00     0.007 C 
ENDBRANCH  21  22
ENDBRANCH   5  21
TORSDOF 7
