REMARK  1 active torsions:
REMARK  status: ('A' for Active; 'I' for Inactive)
REMARK    1  A    between atoms: C_2  and  S_1 
ROOT
ATOM      1  C   UNL d   1       0.548  -0.467   1.639  0.00  0.00     0.058 A 
ATOM      2  C   UNL d   1       0.033   0.453   2.554  0.00  0.00     0.024 A 
ATOM      3  C   UNL d   1       0.636  -1.823   1.964  0.00  0.00     0.024 A 
ATOM      4  C   UNL d   1      -0.371   0.011   3.816  0.00  0.00     0.008 A 
ATOM      5  C   UNL d   1       0.232  -2.256   3.228  0.00  0.00     0.008 A 
ATOM      6  C   UNL d   1      -0.271  -1.344   4.164  0.00  0.00    -0.062 A 
ATOM      7  C   UNL d   1      -0.719  -1.803   5.521  0.00  0.00     0.048 C 
ENDROOT
BRANCH   1   8
ATOM      8  S   UNL d   1       1.028   0.074   0.015  0.00  0.00     0.171 S 
ATOM      9  O   UNL d   1       0.286   1.282  -0.284  0.00  0.00    -0.223 OA
ATOM     10  O   UNL d   1       0.960  -1.078  -0.866  0.00  0.00    -0.223 OA
ATOM     11  C   UNL d   1       2.737   0.509   0.206  0.00  0.00     0.167 C 
ENDBRANCH   1   8
TORSDOF 1
