REMARK  4 active torsions:
REMARK  status: ('A' for Active; 'I' for Inactive)
REMARK    1  A    between atoms: C_10  and  C_3 
REMARK    2  A    between atoms: N_6  and  C_9 
REMARK    3  A    between atoms: C_16  and  C_8 
REMARK    4  A    between atoms: C_19  and  C_15 
ROOT
ATOM      1  N   UNL d   1       1.575  -0.053   0.061  0.00  0.00    -0.331 N 
ATOM      2  HN  UNL d   1       2.527  -0.418   0.053  1.00  0.00     0.168 HD
ATOM      3  C   UNL d   1       1.182   1.180   0.059  0.00  0.00     0.162 A 
ATOM      4  C   UNL d   1       0.389  -0.748   0.080  0.00  0.00     0.111 A 
ATOM      5  O   UNL d   1      -0.147   1.418   0.082  0.00  0.00    -0.256 OA
ATOM      6  C   UNL d   1      -0.762   0.203   0.100  0.00  0.00     0.316 A 
ATOM      7  C   UNL d   1       0.314  -2.084   0.059  0.00  0.00     0.047 C 
ATOM      8  O   UNL d   1      -1.959   0.006   0.127  0.00  0.00    -0.257 OA
ENDROOT
BRANCH   7   9
ATOM      9  C   UNL d   1      -0.920  -2.868   0.026  0.00  0.00    -0.034 A 
ATOM     10  C   UNL d   1      -1.448  -3.277  -1.200  0.00  0.00     0.012 A 
ATOM     11  C   UNL d   1      -2.604  -4.060  -1.244  0.00  0.00     0.008 A 
ATOM     12  C   UNL d   1      -3.255  -4.450  -0.064  0.00  0.00    -0.055 A 
ATOM     13  C   UNL d   1      -2.729  -4.015   1.162  0.00  0.00     0.008 A 
ATOM     14  C   UNL d   1      -1.571  -3.230   1.208  0.00  0.00     0.012 A 
BRANCH  12  15
ATOM     15  C   UNL d   1      -4.491  -5.333  -0.096  0.00  0.00     0.010 C 
ATOM     16  C   UNL d   1      -5.646  -4.669  -0.849  0.00  0.00     0.015 C 
ATOM     17  C   UNL d   1      -4.178  -6.708  -0.693  0.00  0.00     0.015 C 
ENDBRANCH  12  15
ENDBRANCH   7   9
BRANCH   3  18
ATOM     18  C   UNL d   1       2.030   2.384   0.019  0.00  0.00     0.018 A 
ATOM     19  C   UNL d   1       3.419   2.241  -0.089  0.00  0.00     0.052 A 
ATOM     20  C   UNL d   1       4.224   3.389  -0.142  0.00  0.00     0.103 A 
ATOM     21  C   UNL d   1       3.654   4.668  -0.084  0.00  0.00     0.036 A 
ATOM     22  C   UNL d   1       2.270   4.801   0.028  0.00  0.00     0.003 A 
ATOM     23  C   UNL d   1       1.461   3.664   0.080  0.00  0.00     0.016 A 
BRANCH  20  24
ATOM     24  N   UNL d   1       5.682   3.254  -0.262  0.00  0.00    -0.116 N 
ATOM     25  O   UNL d   1       6.152   2.108  -0.306  0.00  0.00    -0.532 OA
ATOM     26  O   UNL d   1       6.355   4.293  -0.314  0.00  0.00    -0.532 OA
ENDBRANCH  20  24
ENDBRANCH   3  18
TORSDOF 4
