REMARK  2 active torsions:
REMARK  status: ('A' for Active; 'I' for Inactive)
REMARK    1  A    between atoms: N_6  and  C_2 
REMARK    2  A    between atoms: C_9  and  N_6 
ROOT
ATOM      1  N   UNL d   1      -2.751  -1.101  -0.404  0.00  0.00    -0.337 N 
ATOM      2  H   UNL d   1      -2.773  -2.035  -0.794  0.00  0.00     0.168 HD
ENDROOT
BRANCH   1   3
ATOM      3  C   UNL d   1      -1.505  -0.578  -0.163  0.00  0.00     0.148 C 
ATOM      4  S   UNL d   1      -0.268  -1.772  -0.500  0.00  0.00    -0.017 SA
ATOM      5  C   UNL d   1       0.977  -1.167   0.558  0.00  0.00     0.193 C 
ATOM      6  O   UNL d   1       1.182  -1.662   1.659  0.00  0.00    -0.285 OA
ATOM      7  C   UNL d   1       1.836  -0.077  -0.030  0.00  0.00     0.093 C 
ATOM      8  C   UNL d   1       1.017   1.119  -0.496  0.00  0.00     0.028 C 
ATOM      9  C   UNL d   1      -0.130   1.408   0.458  0.00  0.00     0.122 C 
ATOM     10  N   UNL d   1      -1.324   0.638   0.192  0.00  0.00    -0.370 N 
ATOM     11  HN  UNL d   1      -2.189   1.166   0.309  1.00  0.00     0.161 HD
ENDBRANCH   1   3
BRANCH   1  12
ATOM     12  C   UNL d   1      -4.001  -0.537  -0.096  0.00  0.00     0.035 A 
ATOM     13  C   UNL d   1      -5.110  -0.851  -0.895  0.00  0.00     0.056 A 
ATOM     14  C   UNL d   1      -6.356  -0.264  -0.649  0.00  0.00     0.074 A 
ATOM     15 CL   UNL d   1      -7.694  -0.665  -1.656  0.00  0.00    -0.081 Cl
ATOM     16  C   UNL d   1      -6.505   0.643   0.396  0.00  0.00     0.138 A 
ATOM     17  C   UNL d   1      -5.417   0.983   1.187  0.00  0.00     0.046 A 
ATOM     18  F   UNL d   1      -7.693   1.208   0.655  0.00  0.00    -0.204 F 
ATOM     19  C   UNL d   1      -4.172   0.403   0.933  0.00  0.00     0.032 A 
ENDBRANCH   1  12
TORSDOF 2
