REMARK  4 active torsions:
REMARK  status: ('A' for Active; 'I' for Inactive)
REMARK    1  A    between atoms: C_16  and  C_7 
REMARK    2  A    between atoms: C_8  and  C_15 
REMARK    3  A    between atoms: C_9  and  C_14 
REMARK    4  A    between atoms: C_27  and  C_10 
ROOT
ATOM      1  N   UNL d   1       1.014   1.503  -0.156  0.00  0.00    -0.306 N 
ATOM      2  HN  UNL d   1       1.061   2.453  -0.525  1.00  0.00     0.186 HD
ATOM      3  C   UNL d   1      -0.048   0.789   0.042  0.00  0.00     0.042 C 
ATOM      4  C   UNL d   1       0.205  -0.619   0.506  0.00  0.00     0.095 C 
ATOM      5  N   UNL d   1       2.049   0.719   0.232  0.00  0.00    -0.322 N 
ATOM      6  C   UNL d   1      -1.467   1.201  -0.087  0.00  0.00    -0.005 C 
ATOM      7  C   UNL d   1       1.716  -0.715   0.287  0.00  0.00     0.146 C 
ATOM      8  C   UNL d   1      -1.768   2.465  -0.421  0.00  0.00     0.022 C 
ATOM      9  N   UNL d   1      -2.071  -1.176  -0.474  0.00  0.00     0.089 N 
ATOM     10  C   UNL d   1      -0.652  -1.582  -0.318  0.00  0.00     0.285 C 
ATOM     11  C   UNL d   1      -2.407   0.071   0.238  0.00  0.00     0.312 C 
ATOM     12  C   UNL d   1       3.408   1.045  -0.161  0.00  0.00     0.171 C 
ATOM     13  C   UNL d   1      -2.446  -1.079  -1.889  0.00  0.00     0.310 C 
ENDROOT
BRANCH   8  14
ATOM     14  C   UNL d   1      -3.142   2.967  -0.458  0.00  0.00    -0.036 A 
ATOM     15  C   UNL d   1      -3.686   3.556   0.688  0.00  0.00     0.012 A 
ATOM     16  C   UNL d   1      -5.010   4.002   0.692  0.00  0.00     0.017 A 
ATOM     17  C   UNL d   1      -5.810   3.864  -0.452  0.00  0.00     0.048 A 
ATOM     18  C   UNL d   1      -5.257   3.271  -1.599  0.00  0.00     0.017 A 
ATOM     19  C   UNL d   1      -3.932   2.825  -1.602  0.00  0.00     0.012 A 
BRANCH  17  20
ATOM     20  C   UNL d   1      -7.241   4.343  -0.463  0.00  0.00     0.417 C 
ATOM     21  F   UNL d   1      -7.645   4.885   0.719  0.00  0.00    -0.166 F 
ATOM     22  F   UNL d   1      -7.463   5.299  -1.407  0.00  0.00    -0.166 F 
ATOM     23  F   UNL d   1      -8.123   3.340  -0.733  0.00  0.00    -0.166 F 
ENDBRANCH  17  20
ENDBRANCH   8  14
BRANCH   7  24
ATOM     24  C   UNL d   1       2.393  -1.450   1.424  0.00  0.00    -0.033 A 
ATOM     25  C   UNL d   1       2.570  -0.833   2.672  0.00  0.00     0.010 A 
ATOM     26  C   UNL d   1       3.205  -1.489   3.718  0.00  0.00     0.017 A 
ATOM     27  C   UNL d   1       3.673  -2.796   3.552  0.00  0.00     0.047 A 
ATOM     28  C   UNL d   1       3.475  -3.435   2.314  0.00  0.00     0.017 A 
ATOM     29  C   UNL d   1       2.843  -2.770   1.261  0.00  0.00     0.010 A 
BRANCH  27  30
ATOM     30  C   UNL d   1       4.383  -3.511   4.675  0.00  0.00     0.417 C 
ATOM     31  F   UNL d   1       4.512  -2.760   5.804  0.00  0.00    -0.166 F 
ATOM     32  F   UNL d   1       3.741  -4.650   5.057  0.00  0.00    -0.166 F 
ATOM     33  F   UNL d   1       5.646  -3.890   4.335  0.00  0.00    -0.166 F 
ENDBRANCH  27  30
ENDBRANCH   7  24
TORSDOF 4
