REMARK  4 active torsions:
REMARK  status: ('A' for Active; 'I' for Inactive)
REMARK       I    between atoms: N_2  and  C_1 
REMARK    1  A    between atoms: O_3  and  C_1 
REMARK    2  A    between atoms: C_10  and  N_2 
REMARK    3  A    between atoms: C_7  and  O_3 
REMARK    4  A    between atoms: C_4  and  C_5 
ROOT
ATOM      1  C   UNL d   1       2.307   2.271   4.363  0.00  0.00    -0.051 A 
ATOM      2  C   UNL d   1       1.166   1.477   4.557  0.00  0.00     0.010 A 
ATOM      3  C   UNL d   1       2.725   2.469   3.037  0.00  0.00     0.010 A 
ATOM      4  C   UNL d   1       0.891   1.124   2.170  0.00  0.00     0.036 A 
ATOM      5  C   UNL d   1       0.471   0.915   3.483  0.00  0.00     0.030 A 
ATOM      6  C   UNL d   1       2.035   1.893   1.956  0.00  0.00     0.030 A 
ENDROOT
BRANCH   4   7
ATOM      7  N   UNL d   1       0.220   0.577   1.058  0.00  0.00    -0.303 N 
ATOM      8  C   UNL d   1      -1.040   0.041   1.060  0.00  0.00     0.365 C 
ATOM      9  O   UNL d   1      -1.826   0.040   1.996  0.00  0.00    -0.238 OA
ATOM     10  H   UNL d   1       0.655   0.638   0.148  0.00  0.00     0.171 HD
BRANCH   8  11
ATOM     11  O   UNL d   1      -1.320  -0.473  -0.167  0.00  0.00    -0.294 OA
BRANCH  11  12
ATOM     12  C   UNL d   1      -2.634  -1.053  -0.407  0.00  0.00     0.061 C 
ATOM     13  C   UNL d   1      -3.719   0.031  -0.356  0.00  0.00     0.046 C 
ATOM     14  C   UNL d   1      -2.577  -1.619  -1.834  0.00  0.00     0.046 C 
ATOM     15  C   UNL d   1      -2.941  -2.216   0.548  0.00  0.00     0.046 C 
ENDBRANCH  11  12
ENDBRANCH   8  11
ENDBRANCH   4   7
BRANCH   1  16
ATOM     16  C   UNL d   1       3.036   2.862   5.581  0.00  0.00    -0.024 C 
ATOM     17  C   UNL d   1       4.279   3.700   5.215  0.00  0.00     0.019 C 
ATOM     18  C   UNL d   1       2.079   3.781   6.373  0.00  0.00     0.019 C 
ATOM     19  C   UNL d   1       3.511   1.718   6.505  0.00  0.00     0.019 C 
ENDBRANCH   1  16
TORSDOF 4
