REMARK  4 active torsions:
REMARK  status: ('A' for Active; 'I' for Inactive)
REMARK    1  A    between atoms: C_7  and  C_4 
REMARK    2  A    between atoms: C_17  and  C_10 
REMARK    3  A    between atoms: C_21  and  C_11 
REMARK    4  A    between atoms: C_12  and  C_18 
ROOT
ATOM      1  N   UNL d   1       0.323   0.628   0.039  0.00  0.00    -0.239 N 
ATOM      2  N   UNL d   1       1.628   0.989   0.123  0.00  0.00    -0.289 N 
ATOM      3  HN  UNL d   1       2.006   1.926   0.261  1.00  0.00     0.188 HD
ATOM      4  C   UNL d   1       2.312  -0.153  -0.015  0.00  0.00     0.086 A 
ATOM      5  C   UNL d   1       0.184  -0.762  -0.059  0.00  0.00     0.129 A 
ATOM      6  C   UNL d   1       1.460  -1.268  -0.144  0.00  0.00     0.084 A 
ATOM      7  C   UNL d   1      -0.807   1.459   0.024  0.00  0.00     0.070 A 
ATOM      8  N   UNL d   1      -1.039  -1.374  -0.085  0.00  0.00    -0.351 N 
ATOM      9  HN  UNL d   1      -1.138  -2.388  -0.120  1.00  0.00     0.166 HD
ATOM     10  C   UNL d   1      -2.034   0.907  -0.034  0.00  0.00     0.049 A 
ATOM     11  C   UNL d   1      -2.067  -0.580  -0.064  0.00  0.00     0.092 A 
ENDROOT
BRANCH   4  12
ATOM     12  C   UNL d   1       3.817  -0.203  -0.032  0.00  0.00     0.103 A 
ATOM     13  N   UNL d   1       4.483  -1.305  -0.322  0.00  0.00    -0.348 N 
ATOM     14  C   UNL d   1       5.847  -1.053  -0.304  0.00  0.00     0.050 A 
ATOM     15  HN  UNL d   1       4.058  -2.209  -0.530  1.00  0.00     0.166 HD
ATOM     16  C   UNL d   1       6.194   0.238   0.048  0.00  0.00     0.082 A 
ATOM     17  S   UNL d   1       4.787   1.176   0.306  0.00  0.00    -0.080 SA
BRANCH  14  18
ATOM     18  C   UNL d   1       6.816  -2.067  -0.702  0.00  0.00    -0.009 A 
ATOM     19  C   UNL d   1       6.443  -3.046  -1.635  0.00  0.00     0.015 A 
ATOM     20  C   UNL d   1       7.373  -3.982  -2.097  0.00  0.00     0.024 A 
ATOM     21  C   UNL d   1       8.681  -3.951  -1.618  0.00  0.00     0.034 A 
ATOM     22  C   UNL d   1       9.062  -3.002  -0.672  0.00  0.00     0.024 A 
ATOM     23 CL   UNL d   1       9.835  -5.084  -2.202  0.00  0.00    -0.084 Cl
ATOM     24  C   UNL d   1       8.131  -2.065  -0.213  0.00  0.00     0.015 A 
ENDBRANCH  14  18
ENDBRANCH   4  12
BRANCH   7  25
ATOM     25  C   UNL d   1      -0.688   2.925   0.016  0.00  0.00    -0.006 A 
ATOM     26  C   UNL d   1      -0.555   3.608  -1.203  0.00  0.00     0.030 A 
ATOM     27  C   UNL d   1      -0.479   5.009  -1.237  0.00  0.00     0.048 A 
ATOM     28  C   UNL d   1      -0.528   5.720  -0.028  0.00  0.00     0.016 A 
ATOM     29  C   UNL d   1      -0.651   5.044   1.187  0.00  0.00     0.002 A 
ATOM     30  C   UNL d   1      -0.734   3.652   1.210  0.00  0.00     0.014 A 
BRANCH  27  31
ATOM     31  C   UNL d   1      -0.360   5.753  -2.544  0.00  0.00     0.417 C 
ATOM     32  F   UNL d   1      -0.333   4.938  -3.636  0.00  0.00    -0.166 F 
ATOM     33  F   UNL d   1      -1.402   6.607  -2.748  0.00  0.00    -0.166 F 
ATOM     34  F   UNL d   1       0.766   6.514  -2.617  0.00  0.00    -0.166 F 
ENDBRANCH  27  31
ENDBRANCH   7  25
TORSDOF 4
