REMARK  4 active torsions:
REMARK  status: ('A' for Active; 'I' for Inactive)
REMARK    1  A    between atoms: C_7  and  C_1 
REMARK    2  A    between atoms: C_2  and  C_7 
REMARK    3  A    between atoms: O_17  and  C_3 
REMARK    4  A    between atoms: O_16  and  C_4 
ROOT
ATOM      1  C   UNL d   1       3.052  -1.660   0.183  0.00  0.00     0.095 C 
ENDROOT
BRANCH   1   2
ATOM      2  C   UNL d   1       4.372  -0.930   0.127  0.00  0.00     0.056 A 
ATOM      3  C   UNL d   1       5.038  -0.440   1.188  0.00  0.00     0.091 A 
ATOM      4  C   UNL d   1       6.400   0.078   1.035  0.00  0.00     0.032 A 
ATOM      5  C   UNL d   1       7.156   0.593   2.095  0.00  0.00     0.017 A 
ATOM      6  C   UNL d   1       6.997   0.028  -0.221  0.00  0.00     0.092 A 
ATOM      7  C   UNL d   1       8.473   1.023   1.893  0.00  0.00     0.001 A 
ATOM      8  C   UNL d   1       9.052   0.943   0.627  0.00  0.00     0.003 A 
ATOM      9  C   UNL d   1       8.310   0.446  -0.440  0.00  0.00     0.038 A 
ATOM     10  O   UNL d   1       6.294  -0.450  -1.337  0.00  0.00    -0.274 OA
ATOM     11  C   UNL d   1       4.990  -0.890  -1.221  0.00  0.00     0.297 A 
ATOM     12  O   UNL d   1       4.352  -1.253  -2.208  0.00  0.00    -0.259 OA
BRANCH   3  13
ATOM     13  O   UNL d   1       4.549  -0.431   2.478  0.00  0.00    -0.359 OA
ATOM     14  H   UNL d   1       3.569  -0.500   2.486  0.00  0.00     0.217 HD
ENDBRANCH   3  13
ENDBRANCH   1   2
BRANCH   1  15
ATOM     15  C   UNL d   1       1.843  -0.791  -0.062  0.00  0.00     0.056 C 
ATOM     16  C   UNL d   1       1.257  -0.585  -1.255  0.00  0.00     0.091 C 
ATOM     17  C   UNL d   1      -0.010   0.141  -1.346  0.00  0.00     0.032 A 
ATOM     18  C   UNL d   1      -0.630   0.445  -2.564  0.00  0.00     0.017 A 
ATOM     19  C   UNL d   1      -0.647   0.523  -0.171  0.00  0.00     0.092 A 
ATOM     20  C   UNL d   1      -1.868   1.095  -2.591  0.00  0.00     0.001 A 
ATOM     21  C   UNL d   1      -2.504   1.438  -1.398  0.00  0.00     0.003 A 
ATOM     22  C   UNL d   1      -1.892   1.153  -0.178  0.00  0.00     0.038 A 
ATOM     23  O   UNL d   1      -0.044   0.305   1.079  0.00  0.00    -0.274 OA
ATOM     24  C   UNL d   1       1.224  -0.244   1.171  0.00  0.00     0.297 C 
ATOM     25  O   UNL d   1       1.823  -0.309   2.244  0.00  0.00    -0.259 OA
BRANCH  16  26
ATOM     26  O   UNL d   1       1.732  -1.064  -2.456  0.00  0.00    -0.359 OA
ATOM     27  H   UNL d   1       2.691  -1.268  -2.404  0.00  0.00     0.217 HD
ENDBRANCH  16  26
ENDBRANCH   1  15
TORSDOF 4
