REMARK  4 active torsions:
REMARK  status: ('A' for Active; 'I' for Inactive)
REMARK    1  A    between atoms: C_2  and  N_1 
REMARK       I    between atoms: C_4  and  N_1 
REMARK    2  A    between atoms: N_5  and  C_2 
REMARK    3  A    between atoms: C_3  and  N_5 
REMARK    4  A    between atoms: C_12  and  C_4 
ROOT
ATOM      1  C   UNL d   1       0.486  -1.389   0.408  0.00  0.00     0.179 C 
ATOM      2  S   UNL d   1      -1.180  -1.243   0.423  0.00  0.00    -0.040 SA
ENDROOT
BRANCH   1   3
ATOM      3  N   UNL d   1       1.387  -0.656  -0.341  0.00  0.00    -0.299 N 
ATOM      4  C   UNL d   1       1.044   0.405  -1.171  0.00  0.00     0.257 C 
ATOM      5  O   UNL d   1       0.142   0.410  -1.999  0.00  0.00    -0.267 OA
ATOM      6  H   UNL d   1       2.272  -0.571   0.137  0.00  0.00     0.171 HD
BRANCH   4   7
ATOM      7  C   UNL d   1       1.904   1.610  -1.055  0.00  0.00     0.032 A 
ATOM      8  C   UNL d   1       3.297   1.532  -1.084  0.00  0.00     0.017 A 
ATOM      9  C   UNL d   1       4.055   2.700  -0.964  0.00  0.00     0.001 A 
ATOM     10  C   UNL d   1       3.423   3.937  -0.813  0.00  0.00     0.000 A 
ATOM     11  C   UNL d   1       2.031   4.015  -0.792  0.00  0.00     0.001 A 
ATOM     12  C   UNL d   1       1.269   2.853  -0.919  0.00  0.00     0.017 A 
ENDBRANCH   4   7
ENDBRANCH   1   3
BRANCH   1  13
ATOM     13  N   UNL d   1       1.036  -2.193   1.370  0.00  0.00    -0.331 N 
ATOM     14  H   UNL d   1       0.429  -2.312   2.178  0.00  0.00     0.168 HD
BRANCH  13  15
ATOM     15  C   UNL d   1       2.240  -2.935   1.426  0.00  0.00     0.069 A 
ATOM     16  C   UNL d   1       2.831  -3.097   2.696  0.00  0.00     0.039 A 
ATOM     17  C   UNL d   1       3.920  -3.951   2.898  0.00  0.00     0.028 A 
ATOM     18 BR   UNL d   1       2.204  -2.121   4.210  0.00  0.00    -0.049 Br
ATOM     19  C   UNL d   1       4.422  -4.708   1.840  0.00  0.00    -0.059 A 
ATOM     20  C   UNL d   1       3.867  -4.536   0.566  0.00  0.00     0.028 A 
ATOM     21  C   UNL d   1       5.541  -5.681   2.077  0.00  0.00     0.048 C 
ATOM     22  C   UNL d   1       2.786  -3.659   0.351  0.00  0.00     0.039 A 
ATOM     23 BR   UNL d   1       2.023  -3.720  -1.390  0.00  0.00    -0.049 Br
ENDBRANCH  13  15
ENDBRANCH   1  13
TORSDOF 4
