REMARK  8 active torsions:
REMARK  status: ('A' for Active; 'I' for Inactive)
REMARK    1  A    between atoms: N_4  and  C_1 
REMARK    2  A    between atoms: C_6  and  C_2 
REMARK       I    between atoms: C_7  and  N_4 
REMARK    3  A    between atoms: O_14  and  C_6 
REMARK    4  A    between atoms: C_9  and  C_7 
REMARK    5  A    between atoms: C_10  and  C_9 
REMARK    6  A    between atoms: O_15  and  C_10 
REMARK    7  A    between atoms: C_17  and  O_14 
REMARK    8  A    between atoms: C_18  and  O_15 
ROOT
ATOM      1  C   UNL d   1       0.265  -0.775   0.848  0.00  0.00     0.073 C 
ATOM      2  C   UNL d   1       1.106   0.287   1.142  0.00  0.00     0.074 C 
ATOM      3  S   UNL d   1      -1.367  -0.320   0.684  0.00  0.00    -0.088 SA
ATOM      4  C   UNL d   1       0.397   1.541   0.878  0.00  0.00    -0.037 C 
ATOM      5  C   UNL d   1      -0.947   1.325   0.634  0.00  0.00     0.059 C 
ATOM      6  C   UNL d   1       0.995   2.914   0.857  0.00  0.00     0.050 C 
ENDROOT
BRANCH   1   7
ATOM      7  N   UNL d   1       0.427  -2.136   0.656  0.00  0.00    -0.222 NA
ATOM      8  C   UNL d   1       1.115  -2.515  -0.497  0.00  0.00     0.211 C 
ATOM      9  O   UNL d   1       1.888  -1.796  -1.131  0.00  0.00    -0.279 OA
ATOM     10  H   UNL d   1      -0.439  -2.657   0.785  0.00  0.00     0.137 HD
BRANCH   8  11
ATOM     11  C   UNL d   1       0.828  -3.925  -0.962  0.00  0.00     0.207 C 
BRANCH  11  12
ATOM     12  C   UNL d   1      -0.633  -4.229  -1.141  0.00  0.00     0.267 C 
ATOM     13  O   UNL d   1      -1.467  -4.040  -0.262  0.00  0.00    -0.265 OA
BRANCH  12  14
ATOM     14  O   UNL d   1      -0.883  -4.791  -2.354  0.00  0.00    -0.322 OA
BRANCH  14  15
ATOM     15  C   UNL d   1      -2.193  -5.346  -2.568  0.00  0.00     0.174 C 
ATOM     16  C   UNL d   1      -3.253  -4.289  -2.826  0.00  0.00     0.034 C 
ENDBRANCH  14  15
ENDBRANCH  12  14
ENDBRANCH  11  12
ENDBRANCH   8  11
ENDBRANCH   1   7
BRANCH   2  17
ATOM     17  C   UNL d   1       2.481   0.165   1.647  0.00  0.00     0.296 C 
ATOM     18  O   UNL d   1       3.188  -0.826   1.564  0.00  0.00    -0.259 OA
BRANCH  17  19
ATOM     19  O   UNL d   1       2.857   1.309   2.307  0.00  0.00    -0.318 OA
BRANCH  19  20
ATOM     20  C   UNL d   1       4.228   1.479   2.692  0.00  0.00     0.174 C 
ATOM     21  C   UNL d   1       4.429   1.196   4.170  0.00  0.00     0.034 C 
ENDBRANCH  19  20
ENDBRANCH  17  19
ENDBRANCH   2  17
TORSDOF 8
