REMARK  6 active torsions:
REMARK  status: ('A' for Active; 'I' for Inactive)
REMARK    1  A    between atoms: C_2  and  S_1 
REMARK    2  A    between atoms: N_9  and  S_1 
REMARK    3  A    between atoms: C_12  and  C_3 
REMARK    4  A    between atoms: C_5  and  C_13 
REMARK    5  A    between atoms: C_14  and  C_6 
REMARK    6  A    between atoms: C_7  and  N_16 
ROOT
ATOM      1  S   UNL d   1       1.343  -0.225   0.338  0.00  0.00     0.250 S 
ATOM      2  O   UNL d   1       1.098  -0.025   1.751  0.00  0.00    -0.205 OA
ATOM      3  O   UNL d   1       1.004  -1.473  -0.308  0.00  0.00    -0.205 OA
ENDROOT
BRANCH   1   4
ATOM      4  C   UNL d   1       3.109  -0.052   0.184  0.00  0.00     0.116 A 
ATOM      5  S   UNL d   1       3.728   0.027  -1.409  0.00  0.00    -0.075 SA
ATOM      6  C   UNL d   1       5.293   0.417  -0.846  0.00  0.00     0.035 A 
ATOM      7  C   UNL d   1       5.369   0.373   0.533  0.00  0.00     0.023 A 
ATOM      8  C   UNL d   1       4.105   0.090   1.127  0.00  0.00     0.034 A 
BRANCH   6   9
ATOM      9  C   UNL d   1       6.437   0.791  -1.734  0.00  0.00     0.074 A 
ATOM     10  C   UNL d   1       6.439   0.798  -3.146  0.00  0.00     0.077 A 
ATOM     11  C   UNL d   1       7.684   1.276  -3.485  0.00  0.00     0.184 A 
ATOM     12  O   UNL d   1       8.387   1.527  -2.349  0.00  0.00    -0.233 OA
ATOM     13  N   UNL d   1       7.611   1.213  -1.248  0.00  0.00    -0.260 N 
ATOM     14  HN  UNL d   1       7.878   1.288  -0.266  1.00  0.00     0.195 HD
BRANCH  11  15
ATOM     15  C   UNL d   1       8.364   1.564  -4.755  0.00  0.00     0.441 C 
ATOM     16  F   UNL d   1       7.613   1.185  -5.824  0.00  0.00    -0.164 F 
ATOM     17  F   UNL d   1       8.617   2.889  -4.912  0.00  0.00    -0.164 F 
ATOM     18  F   UNL d   1       9.550   0.916  -4.865  0.00  0.00    -0.164 F 
ENDBRANCH  11  15
ENDBRANCH   6   9
ENDBRANCH   1   4
BRANCH   1  19
ATOM     19  N   UNL d   1       0.603   1.045  -0.514  0.00  0.00    -0.204 NA
ATOM     20  C   UNL d   1       1.093   2.435  -0.226  0.00  0.00     0.122 C 
ATOM     21  C   UNL d   1       0.504   3.011   1.076  0.00  0.00     0.112 C 
ATOM     22  N   UNL d   1      -0.964   3.016   0.941  0.00  0.00    -0.266 NA
ATOM     23  C   UNL d   1      -1.498   1.643   0.783  0.00  0.00     0.112 C 
ATOM     24  C   UNL d   1      -0.902   1.006  -0.493  0.00  0.00     0.122 C 
BRANCH  22  25
ATOM     25  C   UNL d   1      -1.679   3.847   1.796  0.00  0.00     0.097 A 
ATOM     26  C   UNL d   1      -1.587   5.241   1.735  0.00  0.00     0.086 A 
ATOM     27  C   UNL d   1      -2.388   6.008   2.606  0.00  0.00     0.021 A 
ATOM     28  C   UNL d   1      -3.285   5.393   3.464  0.00  0.00     0.018 A 
ATOM     29  C   UNL d   1      -3.339   4.019   3.438  0.00  0.00     0.089 A 
ATOM     30  N   UNL d   1      -2.562   3.256   2.639  0.00  0.00    -0.356 N 
ATOM     31  HN  UNL d   1      -2.638   2.239   2.670  1.00  0.00     0.166 HD
BRANCH  26  32
ATOM     32  C   UNL d   1      -0.711   5.987   0.771  0.00  0.00     0.420 C 
ATOM     33  F   UNL d   1      -0.296   5.305  -0.333  0.00  0.00    -0.166 F 
ATOM     34  F   UNL d   1      -1.317   7.108   0.278  0.00  0.00    -0.166 F 
ATOM     35  F   UNL d   1       0.432   6.438   1.370  0.00  0.00    -0.166 F 
ENDBRANCH  26  32
ENDBRANCH  22  25
ENDBRANCH   1  19
TORSDOF 6
