REMARK  4 active torsions:
REMARK  status: ('A' for Active; 'I' for Inactive)
REMARK    1  A    between atoms: C_10  and  C_3 
REMARK    2  A    between atoms: N_6  and  C_9 
REMARK    3  A    between atoms: C_15  and  C_8 
REMARK    4  A    between atoms: O_22  and  C_18 
ROOT
ATOM      1  N   UNL d   1       1.572  -0.049   0.016  0.00  0.00    -0.331 N 
ATOM      2  HN  UNL d   1       2.523  -0.414  -0.036  1.00  0.00     0.168 HD
ATOM      3  C   UNL d   1       1.180   1.183   0.059  0.00  0.00     0.162 A 
ATOM      4  C   UNL d   1       0.387  -0.743   0.057  0.00  0.00     0.111 A 
ATOM      5  O   UNL d   1      -0.147   1.420   0.135  0.00  0.00    -0.256 OA
ATOM      6  C   UNL d   1      -0.761   0.206   0.142  0.00  0.00     0.316 A 
ATOM      7  C   UNL d   1       0.304  -2.078   0.006  0.00  0.00     0.047 C 
ATOM      8  O   UNL d   1      -1.955   0.002   0.205  0.00  0.00    -0.257 OA
ENDROOT
BRANCH   7   9
ATOM      9  C   UNL d   1      -0.938  -2.849   0.015  0.00  0.00    -0.032 A 
ATOM     10  C   UNL d   1      -1.532  -3.226   1.222  0.00  0.00     0.033 A 
ATOM     11  C   UNL d   1      -2.698  -4.011   1.241  0.00  0.00     0.045 A 
ATOM     12 BR   UNL d   1      -3.272  -4.545   2.973  0.00  0.00    -0.048 Br
ATOM     13  C   UNL d   1      -3.294  -4.406   0.035  0.00  0.00     0.085 A 
ATOM     14  C   UNL d   1      -2.693  -4.009  -1.170  0.00  0.00     0.039 A 
ATOM     15  C   UNL d   1      -1.528  -3.237  -1.186  0.00  0.00     0.014 A 
BRANCH  13  16
ATOM     16  O   UNL d   1      -4.364  -5.233  -0.168  0.00  0.00    -0.355 OA
ATOM     17  C   UNL d   1      -5.469  -5.138   0.718  0.00  0.00     0.210 C 
ENDBRANCH  13  16
ENDBRANCH   7   9
BRANCH   3  18
ATOM     18  C   UNL d   1       2.025   2.388   0.018  0.00  0.00     0.018 A 
ATOM     19  C   UNL d   1       3.411   2.250  -0.133  0.00  0.00     0.052 A 
ATOM     20  C   UNL d   1       4.210   3.401  -0.196  0.00  0.00     0.103 A 
ATOM     21  C   UNL d   1       3.639   4.679  -0.106  0.00  0.00     0.036 A 
ATOM     22  C   UNL d   1       2.259   4.806   0.051  0.00  0.00     0.003 A 
ATOM     23  C   UNL d   1       1.456   3.668   0.112  0.00  0.00     0.016 A 
BRANCH  20  24
ATOM     24  N   UNL d   1       5.664   3.272  -0.364  0.00  0.00    -0.116 N 
ATOM     25  O   UNL d   1       6.135   2.129  -0.438  0.00  0.00    -0.532 OA
ATOM     26  O   UNL d   1       6.331   4.314  -0.424  0.00  0.00    -0.532 OA
ENDBRANCH  20  24
ENDBRANCH   3  18
TORSDOF 4
