REMARK  4 active torsions:
REMARK  status: ('A' for Active; 'I' for Inactive)
REMARK    1  A    between atoms: C_6  and  C_1 
REMARK    2  A    between atoms: C_3  and  C_2 
REMARK       I    between atoms: N_7  and  C_3 
REMARK    3  A    between atoms: C_8  and  N_7 
REMARK    4  A    between atoms: N_11  and  C_12 
ROOT
ATOM      1  C   UNL d   1       0.340  -2.264   0.156  0.00  0.00     0.261 C 
ATOM      2  N   UNL d   1      -0.435  -3.425   0.140  0.00  0.00    -0.321 N 
ATOM      3  O   UNL d   1      -0.052  -1.144  -0.141  0.00  0.00    -0.267 OA
ATOM      4  H   UNL d   1      -0.057  -4.221   0.638  0.00  0.00     0.169 HD
ENDROOT
BRANCH   1   5
ATOM      5  C   UNL d   1       1.690  -2.495   0.639  0.00  0.00     0.093 A 
ATOM      6  C   UNL d   1       2.510  -1.768   1.587  0.00  0.00     0.086 A 
ATOM      7  N   UNL d   1       3.673  -2.428   1.743  0.00  0.00    -0.259 N 
ATOM      8  O   UNL d   1       3.691  -3.461   0.854  0.00  0.00    -0.241 OA
ATOM      9  HN  UNL d   1       4.411  -2.195   2.408  1.00  0.00     0.195 HD
ATOM     10  C   UNL d   1       2.515  -3.511   0.198  0.00  0.00     0.090 A 
ATOM     11  C   UNL d   1       2.426  -4.590  -0.816  0.00  0.00     0.080 C 
BRANCH   6  12
ATOM     12  C   UNL d   1       2.301  -0.571   2.433  0.00  0.00     0.037 A 
ATOM     13  C   UNL d   1       1.168  -0.397   3.253  0.00  0.00     0.048 A 
ATOM     14 CL   UNL d   1      -0.195  -1.454   3.243  0.00  0.00    -0.083 Cl
ATOM     15  C   UNL d   1       1.106   0.634   4.210  0.00  0.00     0.025 A 
ATOM     16  C   UNL d   1       2.175   1.501   4.400  0.00  0.00     0.003 A 
ATOM     17  C   UNL d   1       3.292   1.375   3.589  0.00  0.00     0.025 A 
ATOM     18  C   UNL d   1       3.347   0.375   2.600  0.00  0.00     0.048 A 
ATOM     19 CL   UNL d   1       4.774   0.411   1.607  0.00  0.00    -0.083 Cl
ENDBRANCH   6  12
ENDBRANCH   1   5
BRANCH   2  20
ATOM     20  C   UNL d   1      -1.799  -3.513  -0.240  0.00  0.00     0.062 A 
ATOM     21  C   UNL d   1      -2.696  -4.420   0.373  0.00  0.00     0.065 A 
ATOM     22  C   UNL d   1      -4.024  -4.493  -0.095  0.00  0.00     0.033 A 
ATOM     23  C   UNL d   1      -4.457  -3.712  -1.165  0.00  0.00     0.009 A 
ATOM     24  C   UNL d   1      -3.564  -2.866  -1.819  0.00  0.00    -0.060 A 
ATOM     25  C   UNL d   1      -2.248  -2.760  -1.341  0.00  0.00     0.038 A 
ATOM     26  C   UNL d   1      -4.037  -2.041  -2.980  0.00  0.00     0.048 C 
BRANCH  21  27
ATOM     27  N   UNL d   1      -2.380  -5.212   1.522  0.00  0.00    -0.331 N 
ATOM     28  C   UNL d   1      -1.469  -4.928   2.519  0.00  0.00     0.097 A 
ATOM     29  C   UNL d   1      -1.520  -5.902   3.490  0.00  0.00     0.019 A 
ATOM     30  C   UNL d   1      -2.492  -6.836   3.087  0.00  0.00     0.019 A 
ATOM     31  C   UNL d   1      -2.998  -6.399   1.883  0.00  0.00     0.097 A 
ENDBRANCH  21  27
ENDBRANCH   2  20
TORSDOF 4
