REMARK  6 active torsions:
REMARK  status: ('A' for Active; 'I' for Inactive)
REMARK    1  A    between atoms: O_8  and  C_1 
REMARK    2  A    between atoms: N_5  and  C_2 
REMARK    3  A    between atoms: N_4  and  C_3 
REMARK    4  A    between atoms: C_6  and  O_8 
REMARK    5  A    between atoms: C_7  and  C_6 
REMARK    6  A    between atoms: C_9  and  C_10 
ROOT
ATOM      1  C   UNL d   1       1.123  -0.337  -0.129  0.00  0.00     0.145 A 
ATOM      2  C   UNL d   1       0.051  -1.218   0.056  0.00  0.00     0.140 A 
ATOM      3  C   UNL d   1       0.857   1.039  -0.064  0.00  0.00     0.140 A 
ATOM      4  C   UNL d   1      -1.530   0.635   0.229  0.00  0.00     0.052 A 
ATOM      5  C   UNL d   1      -0.454   1.527   0.108  0.00  0.00     0.055 A 
ATOM      6  C   UNL d   1      -1.262  -0.743   0.249  0.00  0.00     0.055 A 
ENDROOT
BRANCH   1   7
ATOM      7  O   UNL d   1       2.396  -0.751  -0.571  0.00  0.00    -0.270 OA
BRANCH   7   8
ATOM      8  C   UNL d   1       3.167  -1.535   0.274  0.00  0.00     0.300 C 
ATOM      9  O   UNL d   1       2.852  -1.942   1.375  0.00  0.00    -0.259 OA
BRANCH   8  10
ATOM     10  C   UNL d   1       4.449  -1.776  -0.421  0.00  0.00     0.061 A 
ATOM     11  C   UNL d   1       4.833  -3.053  -0.843  0.00  0.00     0.051 A 
ATOM     12  C   UNL d   1       6.035  -3.224  -1.541  0.00  0.00     0.048 A 
ATOM     13 CL   UNL d   1       3.865  -4.453  -0.568  0.00  0.00    -0.083 Cl
ATOM     14  C   UNL d   1       6.852  -2.124  -1.801  0.00  0.00     0.035 A 
ATOM     15  C   UNL d   1       6.485  -0.853  -1.367  0.00  0.00     0.025 A 
ATOM     16 CL   UNL d   1       8.323  -2.335  -2.668  0.00  0.00    -0.084 Cl
ATOM     17  C   UNL d   1       5.284  -0.677  -0.676  0.00  0.00     0.021 A 
ENDBRANCH   8  10
ENDBRANCH   7   8
ENDBRANCH   1   7
BRANCH   2  18
ATOM     18  N   UNL d   1       0.214  -2.659  -0.049  0.00  0.00    -0.113 N 
ATOM     19  O   UNL d   1       0.818  -3.083  -1.041  0.00  0.00    -0.532 OA
ATOM     20  O   UNL d   1      -0.334  -3.352   0.816  0.00  0.00    -0.532 OA
ENDBRANCH   2  18
BRANCH   3  21
ATOM     21  N   UNL d   1       1.933   2.014  -0.199  0.00  0.00    -0.113 N 
ATOM     22  O   UNL d   1       3.013   1.759   0.347  0.00  0.00    -0.532 OA
ATOM     23  O   UNL d   1       1.681   3.051  -0.825  0.00  0.00    -0.532 OA
ENDBRANCH   3  21
BRANCH   4  24
ATOM     24  C   UNL d   1      -2.957   1.135   0.309  0.00  0.00     0.417 C 
ATOM     25  F   UNL d   1      -3.093   2.421  -0.116  0.00  0.00    -0.166 F 
ATOM     26  F   UNL d   1      -3.802   0.397  -0.461  0.00  0.00    -0.166 F 
ATOM     27  F   UNL d   1      -3.452   1.094   1.571  0.00  0.00    -0.166 F 
ENDBRANCH   4  24
TORSDOF 6
