REMARK  1 active torsions:
REMARK  status: ('A' for Active; 'I' for Inactive)
REMARK    1  A    between atoms: C_2  and  N_1 
ROOT
ATOM      1  C   UNL d   1      -2.614   0.094  -0.979  0.00  0.00     0.051 A 
ATOM      2  N   UNL d   1      -3.568   3.088   0.748  0.00  0.00    -0.191 NA
ATOM      3  C   UNL d   1      -3.578   2.182   0.018  0.00  0.00     0.102 C 
ATOM      4  C   UNL d   1      -3.612   1.097  -0.921  0.00  0.00     0.071 A 
ATOM      5  C   UNL d   1      -2.841  -0.943  -1.910  0.00  0.00     0.031 A 
ATOM      6  C   UNL d   1      -4.745   1.051  -1.762  0.00  0.00     0.025 A 
ATOM      7  C   UNL d   1      -3.974  -0.995  -2.732  0.00  0.00     0.002 A 
ATOM      8  C   UNL d   1      -4.926   0.008  -2.662  0.00  0.00     0.002 A 
ENDROOT
BRANCH   1   9
ATOM      9  N   UNL d   1      -1.467   0.071  -0.202  0.00  0.00    -0.376 N 
ATOM     10  C   UNL d   1      -0.828  -1.183   0.245  0.00  0.00     0.149 C 
ATOM     11  C   UNL d   1       0.631  -1.218  -0.232  0.00  0.00     0.187 C 
ATOM     12  O   UNL d   1       1.359  -0.082   0.262  0.00  0.00    -0.388 OA
ATOM     13  C   UNL d   1       0.767   1.134  -0.219  0.00  0.00     0.187 C 
ATOM     14  C   UNL d   1      -0.711   1.276   0.193  0.00  0.00     0.149 C 
ENDBRANCH   1   9
TORSDOF 1
