REMARK  5 active torsions:
REMARK  status: ('A' for Active; 'I' for Inactive)
REMARK    1  A    between atoms: C_7  and  C_3 
REMARK    2  A    between atoms: C_9  and  C_4 
REMARK    3  A    between atoms: O_10  and  C_9 
REMARK    4  A    between atoms: C_12  and  O_10 
REMARK    5  A    between atoms: O_19  and  C_13 
ROOT
ATOM      1  N   UNL d   1       0.512  -0.414  -0.994  0.00  0.00    -0.351 N 
ATOM      2  HN  UNL d   1       0.533  -0.742  -1.959  1.00  0.00     0.166 HD
ATOM      3  C   UNL d   1       0.715   0.898  -0.599  0.00  0.00     0.049 A 
ATOM      4  C   UNL d   1       0.290  -1.177   0.058  0.00  0.00     0.075 A 
ATOM      5  S   UNL d   1       0.248  -0.351   1.568  0.00  0.00    -0.084 SA
ATOM      6  C   UNL d   1       0.572   1.123   0.757  0.00  0.00     0.082 A 
ENDROOT
BRANCH   4   7
ATOM      7  C   UNL d   1       0.017  -2.649   0.002  0.00  0.00     0.240 C 
BRANCH   7   8
ATOM      8  O   UNL d   1       1.267  -3.331   0.133  0.00  0.00    -0.345 OA
BRANCH   8   9
ATOM      9  C   UNL d   1       1.213  -4.699   0.088  0.00  0.00     0.069 A 
ATOM     10  C   UNL d   1       0.052  -5.464  -0.023  0.00  0.00     0.039 A 
ATOM     11  C   UNL d   1       0.119  -6.862  -0.046  0.00  0.00     0.039 A 
ATOM     12  C   UNL d   1       1.350  -7.510   0.045  0.00  0.00     0.068 A 
ATOM     13  C   UNL d   1       2.513  -6.745   0.147  0.00  0.00     0.039 A 
ATOM     14  C   UNL d   1       2.445  -5.347   0.169  0.00  0.00     0.039 A 
BRANCH  12  15
ATOM     15  O   UNL d   1       1.542  -8.863   0.048  0.00  0.00    -0.356 OA
ATOM     16  C   UNL d   1       0.376  -9.673  -0.055  0.00  0.00     0.210 C 
ENDBRANCH  12  15
ENDBRANCH   8   9
ENDBRANCH   7   8
ENDBRANCH   4   7
BRANCH   3  17
ATOM     17  C   UNL d   1       1.025   1.939  -1.571  0.00  0.00    -0.006 A 
ATOM     18  C   UNL d   1       0.547   1.826  -2.882  0.00  0.00     0.056 A 
ATOM     19  C   UNL d   1       0.844   2.814  -3.815  0.00  0.00     0.117 A 
ATOM     20  F   UNL d   1       0.374   2.703  -5.065  0.00  0.00    -0.206 F 
ATOM     21  C   UNL d   1       1.619   3.915  -3.475  0.00  0.00     0.042 A 
ATOM     22  C   UNL d   1       2.112   4.033  -2.177  0.00  0.00     0.004 A 
ATOM     23  C   UNL d   1       1.816   3.049  -1.229  0.00  0.00     0.014 A 
ENDBRANCH   3  17
TORSDOF 5
