REMARK  7 active torsions:
REMARK  status: ('A' for Active; 'I' for Inactive)
REMARK    1  A    between atoms: C_2  and  S_1 
REMARK    2  A    between atoms: N_6  and  S_1 
REMARK    3  A    between atoms: O_14  and  C_5 
REMARK    4  A    between atoms: C_18  and  N_6 
REMARK    5  A    between atoms: O_19  and  C_7 
REMARK    6  A    between atoms: C_12  and  C_20 
REMARK    7  A    between atoms: C_20  and  C_18 
ROOT
ATOM      1  N   UNL d   1       2.679   0.001   0.446  0.00  0.00    -0.315 N 
ATOM      2  H   UNL d   1       3.105   0.683   1.071  0.00  0.00     0.172 HD
ENDROOT
BRANCH   1   3
ATOM      3  S   UNL d   1       0.999   0.163   0.388  0.00  0.00     0.258 S 
ATOM      4  O   UNL d   1       0.722   1.583   0.392  0.00  0.00    -0.201 OA
ATOM      5  O   UNL d   1       0.500  -0.717  -0.644  0.00  0.00    -0.201 OA
BRANCH   3   6
ATOM      6  C   UNL d   1       0.495  -0.474   1.970  0.00  0.00     0.079 A 
ATOM      7  C   UNL d   1       0.813   0.253   3.121  0.00  0.00     0.026 A 
ATOM      8  C   UNL d   1       0.376  -0.202   4.365  0.00  0.00     0.008 A 
ATOM      9  C   UNL d   1      -0.393  -1.370   4.464  0.00  0.00    -0.062 A 
ATOM     10  C   UNL d   1      -0.694  -2.095   3.302  0.00  0.00     0.008 A 
ATOM     11  C   UNL d   1      -0.894  -1.819   5.807  0.00  0.00     0.048 C 
ATOM     12  C   UNL d   1      -0.254  -1.649   2.053  0.00  0.00     0.026 A 
ENDBRANCH   3   6
ENDBRANCH   1   3
BRANCH   1  13
ATOM     13  C   UNL d   1       3.227  -1.362   0.448  0.00  0.00     0.137 C 
BRANCH  13  14
ATOM     14  C   UNL d   1       4.756  -1.312   0.455  0.00  0.00     0.059 C 
BRANCH  14  15
ATOM     15  C   UNL d   1       5.336  -2.704   0.468  0.00  0.00    -0.054 A 
ATOM     16  C   UNL d   1       5.583  -3.382  -0.737  0.00  0.00     0.046 A 
ATOM     17  C   UNL d   1       6.078  -4.699  -0.752  0.00  0.00     0.102 A 
ATOM     18  C   UNL d   1       6.320  -5.344   0.474  0.00  0.00     0.101 A 
ATOM     19  C   UNL d   1       6.059  -4.665   1.673  0.00  0.00     0.040 A 
ATOM     20  C   UNL d   1       5.574  -3.358   1.676  0.00  0.00     0.010 A 
BRANCH  17  21
ATOM     21  O   UNL d   1       6.326  -5.386  -1.909  0.00  0.00    -0.353 OA
ATOM     22  C   UNL d   1       6.090  -4.736  -3.151  0.00  0.00     0.210 C 
ENDBRANCH  17  21
BRANCH  18  23
ATOM     23  O   UNL d   1       6.792  -6.611   0.701  0.00  0.00    -0.353 OA
ATOM     24  C   UNL d   1       7.165  -7.417  -0.406  0.00  0.00     0.210 C 
ENDBRANCH  18  23
ENDBRANCH  14  15
ENDBRANCH  13  14
ENDBRANCH   1  13
TORSDOF 7
