REMARK  7 active torsions:
REMARK  status: ('A' for Active; 'I' for Inactive)
REMARK    1  A    between atoms: C_13  and  C_1 
REMARK    2  A    between atoms: C_14  and  C_2 
REMARK    3  A    between atoms: C_4  and  C_3 
REMARK    4  A    between atoms: C_11  and  C_8 
REMARK    5  A    between atoms: C_10  and  C_12 
REMARK    6  A    between atoms: O_23  and  C_13 
REMARK    7  A    between atoms: O_22  and  C_14 
ROOT
ATOM      1  C   UNL d   1      -1.231  -1.067   0.146  0.00  0.00     0.054 C 
ATOM      2  C   UNL d   1       1.322  -1.036   0.088  0.00  0.00     0.054 C 
ATOM      3  C   UNL d   1       0.056  -1.863  -0.153  0.00  0.00     0.125 C 
ATOM      4  C   UNL d   1      -1.206   0.286   0.069  0.00  0.00     0.018 C 
ATOM      5  C   UNL d   1       1.248   0.315   0.034  0.00  0.00     0.018 C 
ATOM      6  N   UNL d   1       0.012   0.926  -0.127  0.00  0.00    -0.362 N 
ATOM      7  C   UNL d   1      -2.381   1.227   0.169  0.00  0.00     0.069 C 
ATOM      8  C   UNL d   1       2.432   1.243   0.136  0.00  0.00     0.069 C 
ATOM      9  H   UNL d   1      -0.002   1.946  -0.102  0.00  0.00     0.165 HD
ENDROOT
BRANCH   3  10
ATOM     10  C   UNL d   1       0.012  -2.348  -1.588  0.00  0.00     0.067 A 
ATOM     11  O   UNL d   1       0.093  -3.690  -1.823  0.00  0.00    -0.313 OA
ATOM     12  C   UNL d   1      -0.071  -3.873  -3.164  0.00  0.00     0.086 A 
ATOM     13  C   UNL d   1      -0.184  -2.645  -3.792  0.00  0.00     0.040 A 
ATOM     14  C   UNL d   1      -0.125  -1.667  -2.781  0.00  0.00     0.036 A 
BRANCH  12  15
ATOM     15  C   UNL d   1      -0.012  -5.239  -3.667  0.00  0.00     0.013 A 
ATOM     16  C   UNL d   1      -0.551  -6.361  -3.010  0.00  0.00     0.060 A 
ATOM     17  C   UNL d   1      -0.363  -7.640  -3.591  0.00  0.00     0.017 A 
ATOM     18  C   UNL d   1       0.299  -7.806  -4.806  0.00  0.00     0.001 A 
ATOM     19  C   UNL d   1       0.789  -6.695  -5.475  0.00  0.00     0.001 A 
ATOM     20  C   UNL d   1       0.634  -5.429  -4.910  0.00  0.00     0.015 A 
BRANCH  16  21
ATOM     21  C   UNL d   1      -1.355  -6.336  -1.729  0.00  0.00     0.418 C 
ATOM     22  F   UNL d   1      -1.768  -5.129  -1.265  0.00  0.00    -0.166 F 
ATOM     23  F   UNL d   1      -2.514  -7.055  -1.863  0.00  0.00    -0.166 F 
ATOM     24  F   UNL d   1      -0.692  -6.934  -0.697  0.00  0.00    -0.166 F 
ENDBRANCH  16  21
ENDBRANCH  12  15
ENDBRANCH   3  10
BRANCH   2  25
ATOM     25  C   UNL d   1       2.607  -1.738   0.351  0.00  0.00     0.292 C 
ATOM     26  O   UNL d   1       3.691  -1.180   0.475  0.00  0.00    -0.260 OA
BRANCH  25  27
ATOM     27  O   UNL d   1       2.427  -3.075   0.473  0.00  0.00    -0.323 OA
ATOM     28  C   UNL d   1       3.633  -3.790   0.763  0.00  0.00     0.213 C 
ENDBRANCH  25  27
ENDBRANCH   2  25
BRANCH   1  29
ATOM     29  C   UNL d   1      -2.469  -1.859   0.406  0.00  0.00     0.292 C 
ATOM     30  O   UNL d   1      -3.603  -1.503   0.142  0.00  0.00    -0.260 OA
BRANCH  29  31
ATOM     31  O   UNL d   1      -2.142  -3.033   1.005  0.00  0.00    -0.323 OA
ATOM     32  C   UNL d   1      -3.244  -3.907   1.252  0.00  0.00     0.213 C 
ENDBRANCH  29  31
ENDBRANCH   1  29
TORSDOF 7
