REMARK  7 active torsions:
REMARK  status: ('A' for Active; 'I' for Inactive)
REMARK    1  A    between atoms: C_4  and  C_1 
REMARK       I    between atoms: N_9  and  C_1 
REMARK    2  A    between atoms: O_14  and  C_2 
REMARK    3  A    between atoms: C_3  and  C_4 
REMARK    4  A    between atoms: O_15  and  C_5 
REMARK    5  A    between atoms: C_16  and  N_9 
REMARK    6  A    between atoms: C_11  and  C_18 
REMARK    7  A    between atoms: C_18  and  C_16 
ROOT
ATOM      1  C   UNL d   1       2.426  -0.086  -1.513  0.00  0.00     0.221 C 
ATOM      2  O   UNL d   1       3.008  -0.979  -2.121  0.00  0.00    -0.273 OA
ATOM      3  N   UNL d   1       2.603   0.159  -0.165  0.00  0.00    -0.360 N 
ATOM      4  H   UNL d   1       1.849   0.672   0.280  0.00  0.00     0.162 HD
ENDROOT
BRANCH   3   5
ATOM      5  C   UNL d   1       3.309  -0.779   0.689  0.00  0.00     0.127 C 
BRANCH   5   6
ATOM      6  C   UNL d   1       4.843  -0.778   0.554  0.00  0.00     0.058 C 
BRANCH   6   7
ATOM      7  C   UNL d   1       5.537  -1.797   1.447  0.00  0.00    -0.054 A 
ATOM      8  C   UNL d   1       6.751  -2.387   1.038  0.00  0.00     0.046 A 
ATOM      9  C   UNL d   1       7.385  -3.385   1.805  0.00  0.00     0.102 A 
ATOM     10  C   UNL d   1       6.805  -3.771   3.026  0.00  0.00     0.101 A 
ATOM     11  C   UNL d   1       5.625  -3.159   3.452  0.00  0.00     0.040 A 
ATOM     12  C   UNL d   1       5.008  -2.173   2.686  0.00  0.00     0.010 A 
BRANCH   9  13
ATOM     13  O   UNL d   1       8.520  -4.043   1.412  0.00  0.00    -0.353 OA
ATOM     14  C   UNL d   1       9.108  -3.698   0.167  0.00  0.00     0.210 C 
ENDBRANCH   9  13
BRANCH  10  15
ATOM     15  O   UNL d   1       7.223  -4.756   3.883  0.00  0.00    -0.353 OA
ATOM     16  C   UNL d   1       8.618  -5.006   3.958  0.00  0.00     0.210 C 
ENDBRANCH  10  15
ENDBRANCH   6   7
ENDBRANCH   5   6
ENDBRANCH   3   5
BRANCH   1  17
ATOM     17  C   UNL d   1       1.433   0.853  -2.183  0.00  0.00     0.144 C 
BRANCH  17  18
ATOM     18  C   UNL d   1       0.082   0.223  -2.407  0.00  0.00    -0.011 A 
ATOM     19  C   UNL d   1      -0.746  -0.093  -1.324  0.00  0.00     0.123 A 
ATOM     20  F   UNL d   1      -0.336   0.173  -0.077  0.00  0.00    -0.206 F 
ATOM     21  C   UNL d   1      -2.000  -0.668  -1.514  0.00  0.00     0.043 A 
ATOM     22  C   UNL d   1      -2.450  -0.931  -2.806  0.00  0.00     0.003 A 
ATOM     23  C   UNL d   1      -1.642  -0.616  -3.900  0.00  0.00     0.001 A 
ATOM     24  C   UNL d   1      -0.383  -0.042  -3.703  0.00  0.00     0.011 A 
ENDBRANCH  17  18
ENDBRANCH   1  17
TORSDOF 7
