REMARK  3 active torsions:
REMARK  status: ('A' for Active; 'I' for Inactive)
REMARK       I    between atoms: C_2  and  N_1 
REMARK    1  A    between atoms: C_5  and  C_2 
REMARK    2  A    between atoms: C_11  and  N_3 
REMARK    3  A    between atoms: N_4  and  C_5 
ROOT
ATOM      1  N   UNL d   1      -1.339   0.047   0.041  0.00  0.00    -0.348 N 
ATOM      2  C   UNL d   1      -2.542   0.059   0.727  0.00  0.00     0.248 C 
ATOM      3  N   UNL d   1       1.528  -0.067   0.002  0.00  0.00    -0.378 N 
ATOM      4  C   UNL d   1      -0.673  -1.224  -0.276  0.00  0.00     0.145 C 
ATOM      5  C   UNL d   1      -0.566   1.231  -0.353  0.00  0.00     0.145 C 
ATOM      6  C   UNL d   1       0.754  -1.290   0.316  0.00  0.00     0.143 C 
ATOM      7  C   UNL d   1       0.829   1.196   0.293  0.00  0.00     0.143 C 
ATOM      8  O   UNL d   1      -3.088  -0.984   1.103  0.00  0.00    -0.271 OA
ENDROOT
BRANCH   2   9
ATOM      9  C   UNL d   1      -3.208   1.413   1.042  0.00  0.00     0.374 C 
BRANCH   9  10
ATOM     10  N   UNL d   1      -3.601   2.131  -0.189  0.00  0.00     0.101 N 
ATOM     11  C   UNL d   1      -4.639   1.412  -0.963  0.00  0.00     0.299 C 
ATOM     12  C   UNL d   1      -6.062   1.530  -0.391  0.00  0.00     0.198 C 
ATOM     13  O   UNL d   1      -6.440   2.902  -0.222  0.00  0.00    -0.388 OA
ATOM     14  C   UNL d   1      -5.523   3.568   0.650  0.00  0.00     0.198 C 
ATOM     15  C   UNL d   1      -4.085   3.497   0.108  0.00  0.00     0.299 C 
ENDBRANCH   9  10
ENDBRANCH   2   9
BRANCH   3  16
ATOM     16  C   UNL d   1       2.519  -0.128  -0.968  0.00  0.00     0.030 A 
ATOM     17  C   UNL d   1       3.546  -1.081  -0.864  0.00  0.00     0.029 A 
ATOM     18  C   UNL d   1       4.607  -1.126  -1.776  0.00  0.00     0.002 A 
ATOM     19  C   UNL d   1       4.658  -0.221  -2.829  0.00  0.00     0.000 A 
ATOM     20  C   UNL d   1       3.646   0.725  -2.967  0.00  0.00     0.002 A 
ATOM     21  C   UNL d   1       2.596   0.769  -2.042  0.00  0.00     0.029 A 
ENDBRANCH   3  16
TORSDOF 3
