REMARK  10 active torsions:
REMARK  status: ('A' for Active; 'I' for Inactive)
REMARK    1  A    between atoms: C_15  and  N_1 
REMARK    2  A    between atoms: C_9  and  C_2 
REMARK    3  A    between atoms: S_8  and  C_5 
REMARK    4  A    between atoms: C_14  and  S_8 
REMARK    5  A    between atoms: C_10  and  C_14 
REMARK    6  A    between atoms: C_13  and  C_10 
REMARK    7  A    between atoms: C_11  and  C_12 
REMARK    8  A    between atoms: C_27  and  C_15 
REMARK    9  A    between atoms: C_32  and  C_27 
REMARK   10  A    between atoms: O_28  and  C_32 
ROOT
ATOM      1  N   UNL d   1      -0.268  -1.166   0.220  0.00  0.00    -0.311 N 
ATOM      2  C   UNL d   1       0.966  -0.533   0.069  0.00  0.00     0.134 A 
ATOM      3  N   UNL d   1       0.743   0.773   0.052  0.00  0.00    -0.283 N 
ATOM      4  HN  UNL d   1       1.460   1.491  -0.055  1.00  0.00     0.188 HD
ATOM      5  C   UNL d   1      -1.197  -0.149   0.285  0.00  0.00     0.163 A 
ATOM      6  N   UNL d   1      -0.598   1.010   0.202  0.00  0.00    -0.278 N 
ATOM      7  HN  UNL d   1      -1.048   1.925   0.240  1.00  0.00     0.189 HD
ENDROOT
BRANCH   5   8
ATOM      8  S   UNL d   1      -2.908  -0.383   0.464  0.00  0.00    -0.085 SA
BRANCH   8   9
ATOM      9  C   UNL d   1      -3.517   1.328   0.408  0.00  0.00     0.166 C 
BRANCH   9  10
ATOM     10  C   UNL d   1      -5.026   1.336   0.574  0.00  0.00     0.169 C 
ATOM     11  O   UNL d   1      -5.769   1.210  -0.397  0.00  0.00    -0.291 OA
BRANCH  10  12
ATOM     12  C   UNL d   1      -5.647   1.484   1.936  0.00  0.00     0.011 A 
ATOM     13  C   UNL d   1      -4.899   1.534   3.119  0.00  0.00     0.017 A 
ATOM     14  C   UNL d   1      -5.545   1.657   4.358  0.00  0.00     0.025 A 
ATOM     15  C   UNL d   1      -6.936   1.725   4.422  0.00  0.00     0.034 A 
ATOM     16  C   UNL d   1      -7.691   1.682   3.255  0.00  0.00     0.025 A 
ATOM     17 CL   UNL d   1      -7.718   1.855   5.948  0.00  0.00    -0.084 Cl
ATOM     18  C   UNL d   1      -7.050   1.563   2.017  0.00  0.00     0.017 A 
ENDBRANCH  10  12
ENDBRANCH   9  10
ENDBRANCH   8   9
ENDBRANCH   5   8
BRANCH   1  19
ATOM     19  C   UNL d   1      -0.563  -2.582   0.106  0.00  0.00     0.135 C 
BRANCH  19  20
ATOM     20  C   UNL d   1      -0.589  -3.386   1.408  0.00  0.00     0.046 C 
BRANCH  20  21
ATOM     21  C   UNL d   1      -1.621  -2.968   2.442  0.00  0.00     0.168 C 
BRANCH  21  22
ATOM     22  O   UNL d   1      -1.427  -3.816   3.576  0.00  0.00    -0.396 OA
ATOM     23  C   UNL d   1      -2.306  -3.491   4.642  0.00  0.00     0.201 C 
ENDBRANCH  21  22
ENDBRANCH  20  21
ENDBRANCH  19  20
ENDBRANCH   1  19
BRANCH   2  24
ATOM     24  C   UNL d   1       2.304  -1.135  -0.102  0.00  0.00     0.009 A 
ATOM     25  C   UNL d   1       3.284  -0.482  -0.862  0.00  0.00     0.016 A 
ATOM     26  C   UNL d   1       4.561  -1.045  -1.057  0.00  0.00     0.009 A 
ATOM     27  C   UNL d   1       4.913  -2.287  -0.500  0.00  0.00    -0.051 A 
ATOM     28  C   UNL d   1       3.949  -2.903   0.303  0.00  0.00     0.009 A 
ATOM     29  C   UNL d   1       2.688  -2.327   0.507  0.00  0.00     0.016 A 
BRANCH  27  30
ATOM     30  C   UNL d   1       6.279  -2.943  -0.773  0.00  0.00    -0.024 C 
ATOM     31  C   UNL d   1       6.450  -4.321  -0.087  0.00  0.00     0.019 C 
ATOM     32  C   UNL d   1       6.445  -3.172  -2.290  0.00  0.00     0.019 C 
ATOM     33  C   UNL d   1       7.424  -2.042  -0.267  0.00  0.00     0.019 C 
ENDBRANCH  27  30
ENDBRANCH   2  24
TORSDOF 10
