REMARK  9 active torsions:
REMARK  status: ('A' for Active; 'I' for Inactive)
REMARK    1  A    between atoms: C_9  and  C_1 
REMARK       I    between atoms: C_2  and  N_4 
REMARK    2  A    between atoms: C_10  and  C_2 
REMARK    3  A    between atoms: N_4  and  C_9 
REMARK    4  A    between atoms: C_11  and  C_10 
REMARK    5  A    between atoms: C_15  and  C_11 
REMARK    6  A    between atoms: C_12  and  C_13 
REMARK    7  A    between atoms: C_13  and  C_14 
REMARK    8  A    between atoms: C_14  and  C_16 
REMARK    9  A    between atoms: C_16  and  C_15 
ROOT
ATOM      1  C   UNL d   1       0.355   4.826  -0.015  0.00  0.00     0.217 C 
ATOM      2  N   UNL d   1       0.581   3.471   0.034  0.00  0.00    -0.355 N 
ATOM      3  O   UNL d   1      -0.770   5.311  -0.026  0.00  0.00    -0.274 OA
ATOM      4  H   UNL d   1       1.514   3.105  -0.099  0.00  0.00     0.162 HD
ENDROOT
BRANCH   1   5
ATOM      5  C   UNL d   1       1.631   5.647  -0.043  0.00  0.00     0.103 C 
BRANCH   5   6
ATOM      6  C   UNL d   1       1.330   7.144  -0.065  0.00  0.00     0.009 C 
BRANCH   6   7
ATOM      7  C   UNL d   1       2.602   7.992  -0.073  0.00  0.00     0.000 C 
BRANCH   7   8
ATOM      8  C   UNL d   1       2.250   9.480  -0.089  0.00  0.00     0.000 C 
BRANCH   8   9
ATOM      9  C   UNL d   1       3.498  10.361  -0.097  0.00  0.00     0.000 C 
BRANCH   9  10
ATOM     10  C   UNL d   1       3.118  11.843  -0.114  0.00  0.00    -0.000 C 
BRANCH  10  11
ATOM     11  C   UNL d   1       4.357  12.736  -0.121  0.00  0.00    -0.005 C 
ATOM     12  C   UNL d   1       3.977  14.208  -0.138  0.00  0.00     0.005 C 
ENDBRANCH  10  11
ENDBRANCH   9  10
ENDBRANCH   8   9
ENDBRANCH   7   8
ENDBRANCH   6   7
ENDBRANCH   5   6
ENDBRANCH   1   5
BRANCH   2  13
ATOM     13  C   UNL d   1      -0.529   2.549  -0.011  0.00  0.00     0.187 C 
BRANCH  13  14
ATOM     14  C   UNL d   1      -0.013   1.159  -0.009  0.00  0.00     0.070 A 
ATOM     15  O   UNL d   1       0.775   0.796  -1.065  0.00  0.00    -0.325 OA
ATOM     16  C   UNL d   1       1.116  -0.505  -0.876  0.00  0.00     0.142 A 
ATOM     17  C   UNL d   1       0.567  -0.982   0.291  0.00  0.00     0.027 A 
ATOM     18  C   UNL d   1      -0.162   0.093   0.853  0.00  0.00     0.036 A 
ENDBRANCH  13  14
ENDBRANCH   2  13
TORSDOF 9
