REMARK  5 active torsions:
REMARK  status: ('A' for Active; 'I' for Inactive)
REMARK    1  A    between atoms: C_4  and  N_1 
REMARK    2  A    between atoms: C_3  and  C_6 
REMARK    3  A    between atoms: N_7  and  C_4 
REMARK    4  A    between atoms: N_14  and  C_5 
REMARK    5  A    between atoms: C_10  and  N_7 
ROOT
ATOM      1  C   UNL d   1       4.346   3.714  -1.883  0.00  0.00     0.050 A 
ATOM      2  C   UNL d   1       3.028   3.433  -1.473  0.00  0.00     0.045 A 
ATOM      3  C   UNL d   1       2.522   2.127  -1.510  0.00  0.00     0.035 A 
ATOM      4  C   UNL d   1       5.148   2.667  -2.357  0.00  0.00     0.016 A 
ATOM      5  C   UNL d   1       4.644   1.372  -2.421  0.00  0.00     0.003 A 
ATOM      6  C   UNL d   1       3.338   1.107  -2.005  0.00  0.00     0.029 A 
ENDROOT
BRANCH   3   7
ATOM      7  N   UNL d   1       1.179   1.937  -1.131  0.00  0.00    -0.333 N 
ATOM      8  H   UNL d   1       0.598   2.768  -1.081  0.00  0.00     0.168 HD
BRANCH   7   9
ATOM      9  C   UNL d   1       0.464   0.791  -0.850  0.00  0.00     0.177 C 
ATOM     10  S   UNL d   1       1.082  -0.657  -0.259  0.00  0.00    -0.040 SA
BRANCH   9  11
ATOM     11  N   UNL d   1      -0.888   0.977  -0.989  0.00  0.00    -0.329 N 
ATOM     12  C   UNL d   1      -1.305   1.125  -2.204  0.00  0.00     0.179 C 
ATOM     13  HN  UNL d   1      -1.521   0.997  -0.189  1.00  0.00     0.169 HD
BRANCH  12  14
ATOM     14  N   UNL d   1      -2.614   1.253  -2.606  0.00  0.00    -0.386 N 
ATOM     15  C   UNL d   1      -2.924   1.457  -4.013  0.00  0.00     0.149 C 
ATOM     16  C   UNL d   1      -3.658   0.586  -1.833  0.00  0.00     0.149 C 
ENDBRANCH  12  14
ENDBRANCH   9  11
ENDBRANCH   7   9
ENDBRANCH   3   7
BRANCH   1  17
ATOM     17  C   UNL d   1       4.903   5.114  -1.833  0.00  0.00     0.417 C 
ATOM     18  F   UNL d   1       4.056   6.019  -1.268  0.00  0.00    -0.166 F 
ATOM     19  F   UNL d   1       6.061   5.192  -1.122  0.00  0.00    -0.166 F 
ATOM     20  F   UNL d   1       5.192   5.600  -3.073  0.00  0.00    -0.166 F 
ENDBRANCH   1  17
TORSDOF 5
