REMARK  5 active torsions:
REMARK  status: ('A' for Active; 'I' for Inactive)
REMARK    1  A    between atoms: N_7  and  C_1 
REMARK    2  A    between atoms: C_9  and  C_4 
REMARK    3  A    between atoms: N_10  and  C_5 
REMARK    4  A    between atoms: C_11  and  N_7 
REMARK    5  A    between atoms: C_12  and  N_10 
ROOT
ATOM      1  C   UNL d   1       0.785  -1.165  -0.113  0.00  0.00     0.117 C 
ATOM      2  N   UNL d   1       1.547  -0.042  -0.091  0.00  0.00    -0.333 N 
ATOM      3  HN  UNL d   1       2.564  -0.122  -0.098  1.00  0.00     0.168 HD
ATOM      4  C   UNL d   1      -0.620  -1.089  -0.057  0.00  0.00     0.059 C 
ATOM      5  C   UNL d   1       0.976   1.171  -0.059  0.00  0.00     0.082 C 
ATOM      6  C   UNL d   1      -1.230   0.171  -0.168  0.00  0.00    -0.041 C 
ATOM      7  C   UNL d   1      -0.404   1.299  -0.185  0.00  0.00     0.050 C 
ATOM      8  C   UNL d   1      -2.718   0.374  -0.236  0.00  0.00     0.049 C 
ENDROOT
BRANCH   1   9
ATOM      9  N   UNL d   1       1.426  -2.403  -0.210  0.00  0.00    -0.367 N 
ATOM     10  H   UNL d   1       1.225  -2.953   0.622  0.00  0.00     0.162 HD
BRANCH   9  11
ATOM     11  C   UNL d   1       2.825  -2.559  -0.653  0.00  0.00     0.021 C 
ATOM     12  C   UNL d   1       3.792  -2.301   0.507  0.00  0.00     0.037 C 
ATOM     13  C   UNL d   1       2.973  -4.032  -1.089  0.00  0.00     0.037 C 
ATOM     14  C   UNL d   1       3.178  -1.713  -1.888  0.00  0.00     0.037 C 
ENDBRANCH   9  11
ENDBRANCH   1   9
BRANCH   4  15
ATOM     15  C   UNL d   1      -1.485  -2.282   0.186  0.00  0.00     0.160 C 
ATOM     16  O   UNL d   1      -2.409  -2.194   0.992  0.00  0.00    -0.293 OA
ATOM     17  C   UNL d   1      -1.228  -3.589  -0.519  0.00  0.00     0.097 C 
ENDBRANCH   4  15
BRANCH   5  18
ATOM     18  N   UNL d   1       1.723   2.354   0.033  0.00  0.00    -0.271 NA
ATOM     19  H   UNL d   1       1.141   3.064   0.465  0.00  0.00     0.130 HD
BRANCH  18  20
ATOM     20  C   UNL d   1       3.083   2.388   0.610  0.00  0.00     0.005 C 
ATOM     21  C   UNL d   1       4.139   2.020  -0.436  0.00  0.00     0.032 C 
ATOM     22  C   UNL d   1       3.336   3.858   1.022  0.00  0.00     0.032 C 
ATOM     23  C   UNL d   1       3.227   1.544   1.881  0.00  0.00     0.032 C 
ENDBRANCH  18  20
ENDBRANCH   5  18
TORSDOF 5
