REMARK  3 active torsions:
REMARK  status: ('A' for Active; 'I' for Inactive)
REMARK    1  A    between atoms: C_2  and  N_1 
REMARK    2  A    between atoms: C_9  and  C_4 
REMARK    3  A    between atoms: C_10  and  C_6 
ROOT
ATOM      1  C   UNL d   1      -0.934  -3.917  -4.996  0.00  0.00    -0.055 A 
ATOM      2  C   UNL d   1       0.179  -4.392  -4.288  0.00  0.00     0.008 A 
ATOM      3  C   UNL d   1      -1.476  -2.680  -4.626  0.00  0.00     0.008 A 
ATOM      4  C   UNL d   1       0.228  -2.385  -2.913  0.00  0.00    -0.035 A 
ATOM      5  C   UNL d   1       0.750  -3.637  -3.258  0.00  0.00     0.012 A 
ATOM      6  C   UNL d   1      -0.907  -1.926  -3.592  0.00  0.00     0.012 A 
ENDROOT
BRANCH   4   7
ATOM      7  C   UNL d   1       0.875  -1.628  -1.830  0.00  0.00     0.035 C 
ATOM      8  C   UNL d   1       0.864  -0.290  -1.763  0.00  0.00     0.168 C 
BRANCH   8   9
ATOM      9  N   UNL d   1       1.562   0.387  -0.695  0.00  0.00    -0.127 N 
ATOM     10  O   UNL d   1       1.475   1.622  -0.698  0.00  0.00    -0.532 OA
ATOM     11  O   UNL d   1       2.191  -0.283   0.133  0.00  0.00    -0.532 OA
ENDBRANCH   8   9
ENDBRANCH   4   7
BRANCH   1  12
ATOM     12  C   UNL d   1      -1.546  -4.705  -6.141  0.00  0.00     0.010 C 
ATOM     13  C   UNL d   1      -0.534  -4.929  -7.270  0.00  0.00     0.015 C 
ATOM     14  C   UNL d   1      -2.132  -6.036  -5.666  0.00  0.00     0.015 C 
ENDBRANCH   1  12
TORSDOF 3
