REMARK  4 active torsions:
REMARK  status: ('A' for Active; 'I' for Inactive)
REMARK    1  A    between atoms: C_2  and  N_1 
REMARK    2  A    between atoms: C_4  and  C_3 
REMARK    3  A    between atoms: O_12  and  C_7 
REMARK    4  A    between atoms: O_13  and  C_10 
ROOT
ATOM      1  C   UNL d   1       0.088  -1.835  -3.086  0.00  0.00     0.001 A 
ATOM      2  C   UNL d   1      -1.000  -1.133  -3.629  0.00  0.00     0.078 A 
ATOM      3  C   UNL d   1       0.442  -3.079  -3.641  0.00  0.00     0.051 A 
ATOM      4  C   UNL d   1      -1.719  -1.699  -4.688  0.00  0.00     0.040 A 
ATOM      5  C   UNL d   1      -0.270  -3.630  -4.713  0.00  0.00     0.069 A 
ATOM      6  C   UNL d   1      -1.357  -2.935  -5.232  0.00  0.00     0.039 A 
ENDROOT
BRANCH   1   7
ATOM      7  C   UNL d   1       0.861  -1.366  -1.934  0.00  0.00     0.038 C 
ATOM      8  C   UNL d   1       0.459  -1.623  -0.683  0.00  0.00     0.168 C 
BRANCH   8   9
ATOM      9  N   UNL d   1       1.180  -1.039   0.422  0.00  0.00    -0.127 N 
ATOM     10  O   UNL d   1       0.823  -1.407   1.549  0.00  0.00    -0.532 OA
ATOM     11  O   UNL d   1       2.068  -0.211   0.189  0.00  0.00    -0.532 OA
ENDBRANCH   8   9
ENDBRANCH   1   7
BRANCH   2  12
ATOM     12  O   UNL d   1      -1.525   0.052  -3.190  0.00  0.00    -0.355 OA
ATOM     13  C   UNL d   1      -0.615   1.063  -2.772  0.00  0.00     0.210 C 
ENDBRANCH   2  12
BRANCH   5  14
ATOM     14  O   UNL d   1       0.189  -4.841  -5.151  0.00  0.00    -0.356 OA
ATOM     15  C   UNL d   1      -0.496  -5.429  -6.253  0.00  0.00     0.210 C 
ENDBRANCH   5  14
TORSDOF 4
