REMARK  4 active torsions:
REMARK  status: ('A' for Active; 'I' for Inactive)
REMARK    1  A    between atoms: C_2  and  S_1 
REMARK    2  A    between atoms: O_13  and  S_1 
REMARK    3  A    between atoms: C_3  and  C_7 
REMARK    4  A    between atoms: C_16  and  O_13 
ROOT
ATOM      1  C   UNL d   1       0.385   1.526  -0.559  0.00  0.00     0.128 A 
ATOM      2  S   UNL d   1       1.299   2.935  -0.231  0.00  0.00    -0.074 SA
ATOM      3  C   UNL d   1       0.142   3.951  -0.970  0.00  0.00     0.033 A 
ATOM      4  C   UNL d   1      -0.739   1.822  -1.308  0.00  0.00     0.035 A 
ATOM      5  C   UNL d   1      -0.885   3.223  -1.534  0.00  0.00     0.023 A 
ENDROOT
BRANCH   1   6
ATOM      6  S   UNL d   1       1.003  -0.008   0.111  0.00  0.00     0.309 S 
ATOM      7  O   UNL d   1      -0.144  -0.893   0.109  0.00  0.00    -0.192 OA
ATOM      8  O   UNL d   1       1.718   0.333   1.322  0.00  0.00    -0.192 OA
BRANCH   6   9
ATOM      9  O   UNL d   1       2.043  -0.458  -1.064  0.00  0.00    -0.229 OA
BRANCH   9  10
ATOM     10  C   UNL d   1       2.717  -1.653  -0.991  0.00  0.00     0.089 A 
ATOM     11  C   UNL d   1       3.030  -2.261  -2.210  0.00  0.00     0.040 A 
ATOM     12  C   UNL d   1       3.756  -3.456  -2.238  0.00  0.00     0.026 A 
ATOM     13  C   UNL d   1       4.180  -4.036  -1.045  0.00  0.00     0.034 A 
ATOM     14  C   UNL d   1       3.877  -3.433   0.174  0.00  0.00     0.026 A 
ATOM     15 CL   UNL d   1       5.093  -5.493  -1.074  0.00  0.00    -0.084 Cl
ATOM     16  C   UNL d   1       3.148  -2.240   0.201  0.00  0.00     0.040 A 
ENDBRANCH   9  10
ENDBRANCH   6   9
ENDBRANCH   1   6
BRANCH   3  17
ATOM     17  C   UNL d   1       0.203   5.451  -1.005  0.00  0.00     0.056 A 
ATOM     18  N   UNL d   1      -0.823   6.192  -1.573  0.00  0.00    -0.353 N 
ATOM     19  C   UNL d   1      -0.575   7.479  -1.444  0.00  0.00     0.047 A 
ATOM     20  HN  UNL d   1      -1.649   5.798  -2.024  1.00  0.00     0.166 HD
ATOM     21  C   UNL d   1      -1.485   8.566  -1.896  0.00  0.00     0.076 C 
ATOM     22  S   UNL d   1       0.918   7.871  -0.688  0.00  0.00    -0.087 SA
ATOM     23  C   UNL d   1       1.233   6.200  -0.473  0.00  0.00     0.082 A 
ENDBRANCH   3  17
TORSDOF 4
