REMARK  6 active torsions:
REMARK  status: ('A' for Active; 'I' for Inactive)
REMARK    1  A    between atoms: C_11  and  N_1 
REMARK    2  A    between atoms: N_6  and  C_8 
REMARK    3  A    between atoms: C_22  and  C_11 
REMARK    4  A    between atoms: O_25  and  C_16 
REMARK    5  A    between atoms: O_27  and  C_18 
REMARK    6  A    between atoms: C_21  and  C_22 
ROOT
ATOM      1  N   UNL d   1       2.219  -0.155   0.144  0.00  0.00    -0.280 N 
ATOM      2  C   UNL d   1       1.457  -0.480   1.262  0.00  0.00     0.261 C 
ATOM      3  C   UNL d   1       1.663   0.406  -1.006  0.00  0.00     0.261 C 
ATOM      4  C   UNL d   1       0.019  -0.728   1.044  0.00  0.00     0.047 A 
ATOM      5  C   UNL d   1       0.185   0.316  -1.150  0.00  0.00     0.044 A 
ATOM      6  C   UNL d   1      -0.575  -0.290  -0.143  0.00  0.00     0.006 A 
ATOM      7  C   UNL d   1      -2.103  -1.533   1.859  0.00  0.00     0.104 A 
ATOM      8  C   UNL d   1      -0.729  -1.364   2.043  0.00  0.00     0.054 A 
ATOM      9  C   UNL d   1      -1.972  -0.445  -0.315  0.00  0.00    -0.021 A 
ATOM     10  C   UNL d   1      -2.728  -1.070   0.692  0.00  0.00     0.048 A 
ATOM     11  O   UNL d   1       2.311   0.975  -1.879  0.00  0.00    -0.267 OA
ATOM     12  O   UNL d   1       1.888  -0.528   2.411  0.00  0.00    -0.267 OA
ATOM     13  C   UNL d   1      -0.433   0.800  -2.308  0.00  0.00     0.018 A 
ATOM     14  C   UNL d   1      -2.575   0.041  -1.485  0.00  0.00     0.012 A 
ATOM     15  C   UNL d   1      -1.813   0.670  -2.471  0.00  0.00     0.002 A 
ENDROOT
BRANCH   1  16
ATOM     16  C   UNL d   1       3.679  -0.118   0.316  0.00  0.00     0.140 C 
BRANCH  16  17
ATOM     17  C   UNL d   1       4.366  -1.499   0.211  0.00  0.00     0.059 C 
BRANCH  17  18
ATOM     18  C   UNL d   1       3.969  -2.504   1.272  0.00  0.00    -0.054 A 
ATOM     19  C   UNL d   1       2.918  -3.402   1.024  0.00  0.00     0.046 A 
ATOM     20  C   UNL d   1       2.438  -4.264   2.021  0.00  0.00     0.102 A 
ATOM     21  C   UNL d   1       3.079  -4.276   3.272  0.00  0.00     0.101 A 
ATOM     22  C   UNL d   1       4.136  -3.391   3.517  0.00  0.00     0.040 A 
ATOM     23  C   UNL d   1       4.579  -2.509   2.528  0.00  0.00     0.010 A 
BRANCH  20  24
ATOM     24  O   UNL d   1       1.339  -5.065   1.854  0.00  0.00    -0.353 OA
ATOM     25  C   UNL d   1       0.624  -4.969   0.630  0.00  0.00     0.210 C 
ENDBRANCH  20  24
BRANCH  21  26
ATOM     26  O   UNL d   1       2.749  -5.043   4.362  0.00  0.00    -0.353 OA
ATOM     27  C   UNL d   1       2.240  -6.343   4.090  0.00  0.00     0.210 C 
ENDBRANCH  21  26
ENDBRANCH  17  18
ENDBRANCH  16  17
ENDBRANCH   1  16
BRANCH   7  28
ATOM     28  N   UNL d   1      -2.903  -2.187   2.902  0.00  0.00    -0.116 N 
ATOM     29  O   UNL d   1      -2.315  -2.597   3.911  0.00  0.00    -0.532 OA
ATOM     30  O   UNL d   1      -4.122  -2.294   2.705  0.00  0.00    -0.532 OA
ENDBRANCH   7  28
TORSDOF 6
