REMARK  6 active torsions:
REMARK  status: ('A' for Active; 'I' for Inactive)
REMARK    1  A    between atoms: C_9  and  N_1 
REMARK    2  A    between atoms: C_10  and  C_7 
REMARK    3  A    between atoms: C_8  and  C_10 
REMARK    4  A    between atoms: C_11  and  C_9 
REMARK    5  A    between atoms: O_17  and  C_11 
REMARK    6  A    between atoms: C_21  and  O_17 
ROOT
ATOM      1  N   UNL d   1       0.058  -1.022   0.074  0.00  0.00    -0.207 N 
ATOM      2  N   UNL d   1       1.285  -0.577   0.397  0.00  0.00    -0.003 NA
ATOM      3  N   UNL d   1      -0.846  -0.071  -0.227  0.00  0.00    -0.272 N 
ATOM      4  HN  UNL d   1      -1.809  -0.159  -0.551  1.00  0.00     0.189 HD
ATOM      5  N   UNL d   1       1.174   0.743   0.399  0.00  0.00    -0.270 N 
ATOM      6  HN  UNL d   1       1.903   1.416   0.635  1.00  0.00     0.185 HD
ATOM      7  C   UNL d   1      -0.114   1.028   0.022  0.00  0.00     0.114 A 
ENDROOT
BRANCH   7   8
ATOM      8  C   UNL d   1      -0.646   2.411  -0.045  0.00  0.00     0.121 C 
BRANCH   8   9
ATOM      9  C   UNL d   1      -0.422   2.882  -1.465  0.00  0.00    -0.008 A 
ATOM     10  C   UNL d   1      -1.397   2.690  -2.466  0.00  0.00     0.042 A 
ATOM     11 CL   UNL d   1      -2.940   1.977  -2.134  0.00  0.00    -0.084 Cl
ATOM     12  C   UNL d   1      -1.168   3.087  -3.789  0.00  0.00     0.024 A 
ATOM     13  C   UNL d   1       0.034   3.688  -4.145  0.00  0.00     0.003 A 
ATOM     14  C   UNL d   1       1.006   3.902  -3.174  0.00  0.00     0.024 A 
ATOM     15  C   UNL d   1       0.783   3.506  -1.849  0.00  0.00     0.042 A 
ATOM     16 CL   UNL d   1       2.050   3.845  -0.720  0.00  0.00    -0.084 Cl
ENDBRANCH   8   9
ENDBRANCH   7   8
BRANCH   1  17
ATOM     17  C   UNL d   1      -0.234  -2.427  -0.035  0.00  0.00     0.278 C 
BRANCH  17  18
ATOM     18  C   UNL d   1      -0.664  -2.971   1.293  0.00  0.00     0.280 C 
ATOM     19  O   UNL d   1      -0.888  -2.329   2.305  0.00  0.00    -0.263 OA
BRANCH  18  20
ATOM     20  O   UNL d   1      -0.721  -4.337   1.214  0.00  0.00    -0.320 OA
BRANCH  20  21
ATOM     21  C   UNL d   1      -0.781  -5.016   2.477  0.00  0.00     0.174 C 
ATOM     22  C   UNL d   1       0.643  -5.274   2.937  0.00  0.00     0.034 C 
ENDBRANCH  20  21
ENDBRANCH  18  20
ENDBRANCH  17  18
ENDBRANCH   1  17
TORSDOF 6
