REMARK  9 active torsions:
REMARK  status: ('A' for Active; 'I' for Inactive)
REMARK    1  A    between atoms: C_10  and  N_1 
REMARK    2  A    between atoms: N_9  and  C_2 
REMARK    3  A    between atoms: C_11  and  C_5 
REMARK    4  A    between atoms: C_6  and  C_12 
REMARK    5  A    between atoms: C_7  and  O_15 
REMARK    6  A    between atoms: C_8  and  O_14 
REMARK    7  A    between atoms: C_25  and  N_9 
REMARK    8  A    between atoms: O_14  and  C_33 
REMARK    9  A    between atoms: O_15  and  C_32 
ROOT
ATOM      1  N   UNL d   1      -0.061  -1.081  -0.085  0.00  0.00    -0.300 N 
ATOM      2  C   UNL d   1      -0.174   1.236   0.026  0.00  0.00     0.080 A 
ATOM      3  C   UNL d   1       0.733   0.056  -0.116  0.00  0.00     0.270 A 
ATOM      4  C   UNL d   1      -1.416   0.753   0.093  0.00  0.00     0.033 A 
ATOM      5  C   UNL d   1      -1.464  -0.741   0.078  0.00  0.00     0.151 A 
ATOM      6  O   UNL d   1       1.940   0.179  -0.256  0.00  0.00    -0.266 OA
ENDROOT
BRANCH   2   7
ATOM      7  N   UNL d   1       0.313   2.520   0.036  0.00  0.00    -0.255 NA
ATOM      8  H   UNL d   1       1.269   2.502  -0.339  0.00  0.00     0.134 HD
BRANCH   7   9
ATOM      9  C   UNL d   1       0.367   3.309   1.215  0.00  0.00     0.013 A 
ATOM     10  C   UNL d   1       0.031   2.835   2.492  0.00  0.00     0.026 A 
ATOM     11  C   UNL d   1       0.233   3.627   3.633  0.00  0.00     0.039 A 
ATOM     12  C   UNL d   1       0.775   4.904   3.512  0.00  0.00     0.078 A 
ATOM     13  C   UNL d   1       1.038   5.410   2.238  0.00  0.00     0.039 A 
ATOM     14  C   UNL d   1       0.841   4.620   1.103  0.00  0.00     0.026 A 
BRANCH  12  15
ATOM     15  O   UNL d   1       1.100   5.750   4.530  0.00  0.00    -0.255 OA
BRANCH  15  16
ATOM     16  C   UNL d   1       1.212   5.208   5.838  0.00  0.00     0.530 C 
ATOM     17  F   UNL d   1       1.849   4.018   5.847  0.00  0.00    -0.144 F 
ATOM     18  F   UNL d   1       1.932   6.068   6.595  0.00  0.00    -0.144 F 
ATOM     19  F   UNL d   1      -0.008   5.072   6.395  0.00  0.00    -0.144 F 
ENDBRANCH  15  16
ENDBRANCH  12  15
ENDBRANCH   7   9
ENDBRANCH   2   7
BRANCH   1  20
ATOM     20  C   UNL d   1       0.410  -2.419  -0.193  0.00  0.00     0.038 A 
ATOM     21  C   UNL d   1       1.729  -2.754   0.144  0.00  0.00     0.032 A 
ATOM     22  C   UNL d   1       2.197  -4.074   0.052  0.00  0.00     0.039 A 
ATOM     23  C   UNL d   1       1.365  -5.076  -0.436  0.00  0.00     0.078 A 
ATOM     24  C   UNL d   1       0.039  -4.761  -0.738  0.00  0.00     0.039 A 
ATOM     25  C   UNL d   1      -0.437  -3.451  -0.609  0.00  0.00     0.032 A 
BRANCH  23  26
ATOM     26  O   UNL d   1       1.695  -6.378  -0.656  0.00  0.00    -0.255 OA
BRANCH  26  27
ATOM     27  C   UNL d   1       3.063  -6.733  -0.779  0.00  0.00     0.530 C 
ATOM     28  F   UNL d   1       3.829  -5.744  -1.286  0.00  0.00    -0.144 F 
ATOM     29  F   UNL d   1       3.553  -7.109   0.421  0.00  0.00    -0.144 F 
ATOM     30  F   UNL d   1       3.151  -7.789  -1.621  0.00  0.00    -0.144 F 
ENDBRANCH  26  27
ENDBRANCH  23  26
ENDBRANCH   1  20
BRANCH   5  31
ATOM     31  C   UNL d   1      -2.097  -1.250   1.366  0.00  0.00    -0.031 A 
ATOM     32  C   UNL d   1      -3.482  -1.468   1.422  0.00  0.00     0.010 A 
ATOM     33  C   UNL d   1      -4.093  -1.883   2.609  0.00  0.00     0.017 A 
ATOM     34  C   UNL d   1      -3.333  -2.090   3.767  0.00  0.00     0.047 A 
ATOM     35  C   UNL d   1      -1.949  -1.871   3.717  0.00  0.00     0.017 A 
ATOM     36  C   UNL d   1      -1.342  -1.446   2.535  0.00  0.00     0.010 A 
BRANCH  34  37
ATOM     37  C   UNL d   1      -3.969  -2.542   5.058  0.00  0.00     0.417 C 
ATOM     38  F   UNL d   1      -5.322  -2.668   4.984  0.00  0.00    -0.166 F 
ATOM     39  F   UNL d   1      -3.502  -3.753   5.471  0.00  0.00    -0.166 F 
ATOM     40  F   UNL d   1      -3.731  -1.679   6.085  0.00  0.00    -0.166 F 
ENDBRANCH  34  37
ENDBRANCH   5  31
TORSDOF 9
