REMARK  3 active torsions:
REMARK  status: ('A' for Active; 'I' for Inactive)
REMARK    1  A    between atoms: C_8  and  C_1 
REMARK    2  A    between atoms: C_4  and  C_2 
REMARK    3  A    between atoms: C_3  and  N_9 
REMARK       I    between atoms: N_9  and  C_4 
ROOT
ATOM      1  C   UNL d   1      -1.437  -0.759  -0.026  0.00  0.00     0.086 C 
ATOM      2  C   UNL d   1      -0.102  -1.281  -0.051  0.00  0.00     0.093 C 
ATOM      3  N   UNL d   1      -1.412   0.539   0.316  0.00  0.00    -0.259 N 
ATOM      4  HN  UNL d   1      -2.220   1.134   0.499  1.00  0.00     0.195 HD
ATOM      5  O   UNL d   1      -0.092   0.913   0.373  0.00  0.00    -0.241 OA
ATOM      6  C   UNL d   1       0.693  -0.163   0.132  0.00  0.00     0.090 C 
ATOM      7  C   UNL d   1       2.144   0.113   0.078  0.00  0.00     0.080 C 
ENDROOT
BRANCH   2   8
ATOM      8  C   UNL d   1       0.389  -2.626  -0.284  0.00  0.00     0.262 C 
ATOM      9  N   UNL d   1       1.392  -2.957   0.604  0.00  0.00    -0.307 N 
ATOM     10  H   UNL d   1       1.405  -2.441   1.478  0.00  0.00     0.170 HD
ATOM     11  O   UNL d   1      -0.087  -3.354  -1.146  0.00  0.00    -0.267 OA
BRANCH   9  12
ATOM     12  C   UNL d   1       2.368  -3.928   0.474  0.00  0.00     0.126 A 
ATOM     13  N   UNL d   1       2.805  -4.612  -0.640  0.00  0.00    -0.281 N 
ATOM     14  N   UNL d   1       3.870  -5.410  -0.377  0.00  0.00    -0.302 N 
ATOM     15  C   UNL d   1       2.462  -4.463  -2.034  0.00  0.00     0.179 C 
ATOM     16  C   UNL d   1       4.142  -5.203   0.911  0.00  0.00     0.025 A 
ATOM     17  HN  UNL d   1       4.357  -6.032  -1.023  1.00  0.00     0.186 HD
ATOM     18  C   UNL d   1       3.218  -4.315   1.493  0.00  0.00     0.076 A 
ATOM     19  C   UNL d   1       5.329  -5.833   1.538  0.00  0.00     0.070 C 
ENDBRANCH   9  12
ENDBRANCH   2   8
BRANCH   1  20
ATOM     20  C   UNL d   1      -2.720  -1.417  -0.270  0.00  0.00     0.037 A 
ATOM     21  C   UNL d   1      -3.137  -2.533   0.477  0.00  0.00     0.048 A 
ATOM     22 CL   UNL d   1      -2.193  -3.205   1.769  0.00  0.00    -0.083 Cl
ATOM     23  C   UNL d   1      -4.384  -3.131   0.244  0.00  0.00     0.025 A 
ATOM     24  C   UNL d   1      -5.252  -2.610  -0.712  0.00  0.00     0.003 A 
ATOM     25  C   UNL d   1      -4.868  -1.494  -1.448  0.00  0.00     0.025 A 
ATOM     26  C   UNL d   1      -3.611  -0.908  -1.241  0.00  0.00     0.048 A 
ATOM     27 CL   UNL d   1      -3.231   0.443  -2.262  0.00  0.00    -0.083 Cl
ENDBRANCH   1  20
TORSDOF 3
