REMARK  7 active torsions:
REMARK  status: ('A' for Active; 'I' for Inactive)
REMARK    1  A    between atoms: N_6  and  C_1 
REMARK    2  A    between atoms: N_7  and  C_1 
REMARK    3  A    between atoms: C_2  and  C_8 
REMARK    4  A    between atoms: C_8  and  N_6 
REMARK    5  A    between atoms: C_9  and  N_7 
REMARK    6  A    between atoms: C_10  and  C_9 
REMARK    7  A    between atoms: C_11  and  C_10 
ROOT
ATOM      1  C   UNL d   1       0.783  -0.084  -0.141  0.00  0.00     0.167 C 
ATOM      2  S   UNL d   1      -0.029  -1.442  -0.691  0.00  0.00    -0.041 SA
ENDROOT
BRANCH   1   3
ATOM      3  N   UNL d   1       0.181   1.106   0.231  0.00  0.00    -0.367 N 
ATOM      4  H   UNL d   1       0.770   1.827   0.610  0.00  0.00     0.161 HD
BRANCH   3   5
ATOM      5  C   UNL d   1      -1.105   1.551  -0.281  0.00  0.00     0.126 C 
BRANCH   5   6
ATOM      6  C   UNL d   1      -2.104   1.735   0.812  0.00  0.00     0.003 A 
ATOM      7  C   UNL d   1      -3.501   2.177   0.426  0.00  0.00     0.007 A 
ATOM      8  C   UNL d   1      -2.607   3.107   1.196  0.00  0.00     0.007 A 
ENDBRANCH   5   6
ENDBRANCH   3   5
ENDBRANCH   1   3
BRANCH   1   9
ATOM      9  N   UNL d   1       2.160   0.014  -0.078  0.00  0.00    -0.367 N 
ATOM     10  H   UNL d   1       2.559   0.767   0.468  0.00  0.00     0.161 HD
BRANCH   9  11
ATOM     11  C   UNL d   1       3.071  -0.803  -0.871  0.00  0.00     0.122 C 
BRANCH  11  12
ATOM     12  C   UNL d   1       4.545  -0.508  -0.613  0.00  0.00     0.019 C 
BRANCH  12  13
ATOM     13  C   UNL d   1       4.954  -0.875   0.812  0.00  0.00    -0.003 C 
ATOM     14  C   UNL d   1       6.439  -0.662   1.047  0.00  0.00     0.005 C 
ENDBRANCH  12  13
ENDBRANCH  11  12
ENDBRANCH   9  11
ENDBRANCH   1   9
TORSDOF 7
