REMARK  5 active torsions:
REMARK  status: ('A' for Active; 'I' for Inactive)
REMARK    1  A    between atoms: C_3  and  C_1 
REMARK    2  A    between atoms: C_2  and  C_10 
REMARK    3  A    between atoms: N_6  and  C_3 
REMARK    4  A    between atoms: C_13  and  C_3 
REMARK    5  A    between atoms: O_22  and  C_4 
ROOT
ATOM      1  C   UNL d   1       2.755  -2.117  -0.126  0.00  0.00     0.291 C 
ENDROOT
BRANCH   1   2
ATOM      2  C   UNL d   1       1.725  -0.985   0.054  0.00  0.00     0.015 A 
ATOM      3  C   UNL d   1       0.927  -0.818   1.214  0.00  0.00     0.077 A 
ATOM      4  C   UNL d   1       0.049   0.268   1.350  0.00  0.00     0.076 A 
ATOM      5  C   UNL d   1       0.009   1.201   0.343  0.00  0.00     0.107 A 
ATOM      6  C   UNL d   1       0.744   1.048  -0.804  0.00  0.00     0.105 A 
ATOM      7  O   UNL d   1      -0.712   2.356   0.341  0.00  0.00    -0.323 OA
ATOM      8  C   UNL d   1       1.559  -0.045  -0.995  0.00  0.00     0.052 A 
ATOM      9  O   UNL d   1       0.588   2.085  -1.668  0.00  0.00    -0.323 OA
ATOM     10  C   UNL d   1      -0.240   2.964  -0.878  0.00  0.00     0.352 C 
BRANCH   3  11
ATOM     11  O   UNL d   1       0.924  -1.682   2.272  0.00  0.00    -0.360 OA
ATOM     12  H   UNL d   1       1.726  -2.222   2.276  0.00  0.00     0.217 HD
ENDBRANCH   3  11
ENDBRANCH   1   2
BRANCH   1  13
ATOM     13  N   UNL d   1       2.564  -2.843  -1.430  0.00  0.00     0.102 N 
ATOM     14  C   UNL d   1       1.248  -3.521  -1.452  0.00  0.00     0.273 C 
ATOM     15  C   UNL d   1       0.985  -4.221  -2.787  0.00  0.00     0.030 C 
ATOM     16  C   UNL d   1       2.077  -5.228  -3.111  0.00  0.00     0.003 C 
ATOM     17  C   UNL d   1       3.437  -4.556  -3.033  0.00  0.00     0.030 C 
ATOM     18  C   UNL d   1       3.628  -3.831  -1.700  0.00  0.00     0.273 C 
ENDBRANCH   1  13
BRANCH   1  19
ATOM     19  C   UNL d   1       4.211  -1.625   0.089  0.00  0.00    -0.021 A 
ATOM     20  C   UNL d   1       5.142  -2.477   0.718  0.00  0.00     0.010 A 
ATOM     21  C   UNL d   1       6.512  -2.180   0.719  0.00  0.00     0.017 A 
ATOM     22  C   UNL d   1       6.988  -1.006   0.122  0.00  0.00     0.047 A 
ATOM     23  C   UNL d   1       6.062  -0.107  -0.414  0.00  0.00     0.017 A 
ATOM     24  C   UNL d   1       4.699  -0.418  -0.438  0.00  0.00     0.010 A 
BRANCH  22  25
ATOM     25  C   UNL d   1       8.462  -0.712   0.003  0.00  0.00     0.417 C 
ATOM     26  F   UNL d   1       9.257  -1.727   0.446  0.00  0.00    -0.166 F 
ATOM     27  F   UNL d   1       8.841  -0.481  -1.285  0.00  0.00    -0.166 F 
ATOM     28  F   UNL d   1       8.837   0.392   0.705  0.00  0.00    -0.166 F 
ENDBRANCH  22  25
ENDBRANCH   1  19
TORSDOF 5
