REMARK  3 active torsions:
REMARK  status: ('A' for Active; 'I' for Inactive)
REMARK    1  A    between atoms: C_3  and  C_1 
REMARK    2  A    between atoms: C_6  and  C_2 
REMARK    3  A    between atoms: C_10  and  C_3 
ROOT
ATOM      1  C   UNL d   1       0.611   0.967  -0.009  0.00  0.00     0.081 C 
ATOM      2  C   UNL d   1      -0.891   0.984   0.072  0.00  0.00     0.089 C 
ATOM      3  N   UNL d   1       1.174  -0.204   0.012  0.00  0.00    -0.321 N 
ATOM      4  HN  UNL d   1       2.168  -0.409  -0.093  1.00  0.00     0.180 HD
ATOM      5  N   UNL d   1       0.175  -1.095   0.201  0.00  0.00    -0.239 NA
ATOM      6  C   UNL d   1      -1.135  -0.518  -0.109  0.00  0.00     0.126 C 
ATOM      7  H   UNL d   1       0.341  -1.990  -0.264  0.00  0.00     0.146 HD
ENDROOT
BRANCH   2   8
ATOM      8  C   UNL d   1      -1.485   1.524   1.364  0.00  0.00    -0.036 A 
ATOM      9  C   UNL d   1      -2.771   2.152   1.386  0.00  0.00    -0.019 A 
ATOM     10  C   UNL d   1      -3.283   2.614   2.627  0.00  0.00    -0.025 A 
ATOM     11  C   UNL d   1      -3.589   2.345   0.245  0.00  0.00     0.013 A 
ATOM     12  C   UNL d   1      -4.537   3.244   2.689  0.00  0.00     0.012 A 
ATOM     13  C   UNL d   1      -2.541   2.439   3.803  0.00  0.00     0.012 A 
ATOM     14  C   UNL d   1      -5.308   3.427   1.544  0.00  0.00     0.001 A 
ATOM     15  C   UNL d   1      -4.835   2.976   0.322  0.00  0.00     0.001 A 
ATOM     16  C   UNL d   1      -1.305   1.805   3.779  0.00  0.00     0.001 A 
ATOM     17  C   UNL d   1      -0.786   1.346   2.574  0.00  0.00     0.009 A 
ENDBRANCH   2   8
BRANCH   1  18
ATOM     18  C   UNL d   1       1.377   2.250  -0.202  0.00  0.00     0.206 C 
ATOM     19  O   UNL d   1       0.753   3.242  -0.561  0.00  0.00    -0.285 OA
BRANCH  18  20
ATOM     20  C   UNL d   1       2.853   2.290  -0.054  0.00  0.00     0.016 A 
ATOM     21  C   UNL d   1       3.570   3.210  -0.831  0.00  0.00     0.015 A 
ATOM     22  C   UNL d   1       4.965   3.239  -0.778  0.00  0.00     0.001 A 
ATOM     23  C   UNL d   1       5.649   2.362   0.062  0.00  0.00     0.000 A 
ATOM     24  C   UNL d   1       4.939   1.468   0.863  0.00  0.00     0.001 A 
ATOM     25  C   UNL d   1       3.544   1.435   0.812  0.00  0.00     0.015 A 
ENDBRANCH  18  20
ENDBRANCH   1  18
TORSDOF 3
