REMARK  5 active torsions:
REMARK  status: ('A' for Active; 'I' for Inactive)
REMARK    1  A    between atoms: N_5  and  C_1 
REMARK    2  A    between atoms: N_6  and  C_1 
REMARK       I    between atoms: C_2  and  N_4 
REMARK    3  A    between atoms: C_3  and  C_2 
REMARK    4  A    between atoms: N_4  and  N_5 
REMARK    5  A    between atoms: C_8  and  N_6 
ROOT
ATOM      1  N   UNL d   1       0.508   0.684  -1.159  0.00  0.00    -0.273 N 
ATOM      2  H   UNL d   1      -0.336   0.335  -1.599  0.00  0.00     0.189 HD
ENDROOT
BRANCH   1   3
ATOM      3  N   UNL d   1       1.185   1.724  -1.809  0.00  0.00    -0.264 N 
ATOM      4  C   UNL d   1       2.392   1.455  -2.435  0.00  0.00     0.271 C 
ATOM      5  O   UNL d   1       2.979   0.383  -2.410  0.00  0.00    -0.266 OA
ATOM      6  H   UNL d   1       0.749   2.640  -1.813  0.00  0.00     0.190 HD
BRANCH   4   7
ATOM      7  C   UNL d   1       2.976   2.570  -3.199  0.00  0.00     0.049 A 
ATOM      8  C   UNL d   1       4.325   2.856  -3.047  0.00  0.00     0.104 A 
ATOM      9  N   UNL d   1       4.974   3.802  -3.778  0.00  0.00    -0.374 N 
ATOM     10  C   UNL d   1       4.252   4.445  -4.713  0.00  0.00     0.087 A 
ATOM     11  HN  UNL d   1       5.960   4.013  -3.625  1.00  0.00     0.164 HD
ATOM     12  C   UNL d   1       2.902   4.219  -4.945  0.00  0.00     0.018 A 
ATOM     13  C   UNL d   1       2.248   3.264  -4.163  0.00  0.00     0.020 A 
ENDBRANCH   4   7
ENDBRANCH   1   3
BRANCH   1  14
ATOM     14  C   UNL d   1       0.999   0.042  -0.044  0.00  0.00     0.191 C 
ATOM     15  S   UNL d   1       2.053   0.709   1.073  0.00  0.00    -0.039 SA
BRANCH  14  16
ATOM     16  N   UNL d   1       0.473  -1.203   0.209  0.00  0.00    -0.332 N 
ATOM     17  H   UNL d   1       0.615  -1.524   1.162  0.00  0.00     0.168 HD
BRANCH  16  18
ATOM     18  C   UNL d   1      -0.115  -2.125  -0.683  0.00  0.00     0.035 A 
ATOM     19  C   UNL d   1       0.158  -2.140  -2.054  0.00  0.00     0.053 A 
ATOM     20  C   UNL d   1      -0.475  -3.071  -2.882  0.00  0.00     0.036 A 
ATOM     21 CL   UNL d   1      -0.137  -3.087  -4.569  0.00  0.00    -0.084 Cl
ATOM     22  C   UNL d   1      -1.378  -3.990  -2.353  0.00  0.00     0.024 A 
ATOM     23  C   UNL d   1      -1.622  -4.005  -0.982  0.00  0.00     0.004 A 
ATOM     24  C   UNL d   1      -0.974  -3.090  -0.147  0.00  0.00     0.029 A 
ENDBRANCH  16  18
ENDBRANCH  14  16
ENDBRANCH   1  14
TORSDOF 5
