REMARK  3 active torsions:
REMARK  status: ('A' for Active; 'I' for Inactive)
REMARK       I    between atoms: C_2  and  N_3 
REMARK    1  A    between atoms: C_7  and  C_2 
REMARK    2  A    between atoms: N_3  and  C_4 
REMARK    3  A    between atoms: C_9  and  C_10 
ROOT
ATOM      1  C   UNL d   1       1.160   4.868   0.017  0.00  0.00     0.109 A 
ATOM      2  C   UNL d   1       1.046   3.470   0.101  0.00  0.00     0.059 A 
ATOM      3  C   UNL d   1       0.205   5.771   0.571  0.00  0.00     0.105 C 
ATOM      4  N   UNL d   1      -0.486   6.538   1.112  0.00  0.00    -0.191 NA
ATOM      5  C   UNL d   1       2.360   5.429  -0.438  0.00  0.00     0.139 A 
ATOM      6  F   UNL d   1       2.476   6.758  -0.585  0.00  0.00    -0.204 F 
ATOM      7  C   UNL d   1       2.201   2.691  -0.115  0.00  0.00     0.031 A 
ATOM      8  C   UNL d   1       3.410   3.274  -0.506  0.00  0.00     0.005 A 
ATOM      9  C   UNL d   1       3.478   4.645  -0.708  0.00  0.00     0.044 A 
ENDROOT
BRANCH   2  10
ATOM     10  N   UNL d   1      -0.134   2.731   0.385  0.00  0.00    -0.321 N 
ATOM     11  C   UNL d   1      -1.431   3.117   0.070  0.00  0.00     0.256 C 
ATOM     12  O   UNL d   1      -1.741   4.162  -0.487  0.00  0.00    -0.267 OA
ATOM     13  H   UNL d   1      -0.005   1.735   0.511  0.00  0.00     0.169 HD
BRANCH  11  14
ATOM     14  C   UNL d   1      -2.477   2.068   0.284  0.00  0.00     0.032 A 
ATOM     15  C   UNL d   1      -2.350   1.054   1.237  0.00  0.00     0.017 A 
ATOM     16  C   UNL d   1      -3.261  -0.013   1.254  0.00  0.00     0.009 A 
ATOM     17  C   UNL d   1      -4.320  -0.094   0.328  0.00  0.00    -0.051 A 
ATOM     18  C   UNL d   1      -4.493   0.996  -0.541  0.00  0.00     0.009 A 
ATOM     19  C   UNL d   1      -3.586   2.062  -0.565  0.00  0.00     0.017 A 
BRANCH  17  20
ATOM     20  C   UNL d   1      -5.186  -1.367   0.234  0.00  0.00    -0.024 C 
ATOM     21  C   UNL d   1      -6.252  -1.304  -0.884  0.00  0.00     0.019 C 
ATOM     22  C   UNL d   1      -4.271  -2.573  -0.086  0.00  0.00     0.019 C 
ATOM     23  C   UNL d   1      -5.923  -1.646   1.559  0.00  0.00     0.019 C 
ENDBRANCH  17  20
ENDBRANCH  11  14
ENDBRANCH   2  10
TORSDOF 3
