REMARK  3 active torsions:
REMARK  status: ('A' for Active; 'I' for Inactive)
REMARK    1  A    between atoms: N_9  and  N_5 
REMARK       I    between atoms: C_8  and  N_9 
REMARK    2  A    between atoms: O_15  and  C_8 
REMARK    3  A    between atoms: C_18  and  O_15 
ROOT
ATOM      1  C   UNL d   1       1.408   0.999  -0.035  0.00  0.00     0.129 A 
ATOM      2  C   UNL d   1      -0.016   0.444  -0.076  0.00  0.00     0.275 A 
ATOM      3  C   UNL d   1       2.292  -0.156  -0.051  0.00  0.00     0.027 A 
ATOM      4  N   UNL d   1       0.127  -0.928  -0.134  0.00  0.00    -0.321 N 
ATOM      5  N   UNL d   1       1.810   2.226   0.002  0.00  0.00    -0.290 N 
ATOM      6  HN  UNL d   1       2.803   2.457   0.027  1.00  0.00     0.187 HD
ATOM      7  C   UNL d   1       1.473  -1.283  -0.121  0.00  0.00     0.048 A 
ATOM      8  C   UNL d   1       3.668  -0.226  -0.014  0.00  0.00     0.058 A 
ATOM      9  O   UNL d   1      -1.026   1.116  -0.053  0.00  0.00    -0.266 OA
ATOM     10  C   UNL d   1       2.014  -2.551  -0.169  0.00  0.00     0.033 A 
ATOM     11  C   UNL d   1       4.217  -1.501  -0.062  0.00  0.00     0.117 A 
ATOM     12  C   UNL d   1       3.411  -2.652  -0.142  0.00  0.00     0.044 A 
ATOM     13  F   UNL d   1       5.548  -1.642  -0.033  0.00  0.00    -0.206 F 
ATOM     14  H   UNL d   1      -0.656  -1.566  -0.172  0.00  0.00     0.169 HD
ENDROOT
BRANCH   5  15
ATOM     15  N   UNL d   1       0.857   3.199   0.005  0.00  0.00    -0.245 N 
ATOM     16  C   UNL d   1       1.213   4.507   0.229  0.00  0.00     0.379 C 
ATOM     17  O   UNL d   1       2.354   4.931   0.360  0.00  0.00    -0.237 OA
ATOM     18  H   UNL d   1      -0.133   2.960   0.006  0.00  0.00     0.192 HD
BRANCH  16  19
ATOM     19  O   UNL d   1       0.089   5.263   0.356  0.00  0.00    -0.303 OA
BRANCH  19  20
ATOM     20  C   UNL d   1       0.303   6.570   0.906  0.00  0.00     0.176 C 
ATOM     21  C   UNL d   1       0.201   6.474   2.418  0.00  0.00     0.034 C 
ENDBRANCH  19  20
ENDBRANCH  16  19
ENDBRANCH   5  15
TORSDOF 3
