REMARK  2 active torsions:
REMARK  status: ('A' for Active; 'I' for Inactive)
REMARK    1  A    between atoms: C_4  and  C_1 
REMARK    2  A    between atoms: C_14  and  C_5 
ROOT
ATOM      1  C   UNL d   1       0.540  -1.002  -0.054  0.00  0.00     0.186 A 
ATOM      2  N   UNL d   1       1.204   0.109   0.186  0.00  0.00    -0.318 N 
ATOM      3  HN  UNL d   1       2.174   0.216   0.483  1.00  0.00     0.169 HD
ATOM      4  C   UNL d   1       0.270   1.093  -0.062  0.00  0.00     0.138 A 
ATOM      5  N   UNL d   1      -0.942   0.615  -0.389  0.00  0.00    -0.242 N 
ATOM      6  HN  UNL d   1      -1.793   1.141  -0.588  1.00  0.00     0.196 HD
ATOM      7  O   UNL d   1      -0.764  -0.762  -0.393  0.00  0.00    -0.217 OA
ENDROOT
BRANCH   1   8
ATOM      8  C   UNL d   1       1.135  -2.354   0.004  0.00  0.00     0.073 A 
ATOM      9  C   UNL d   1       0.516  -3.527  -0.351  0.00  0.00     0.089 A 
ATOM     10  O   UNL d   1       1.389  -4.555  -0.174  0.00  0.00    -0.242 OA
ATOM     11  C   UNL d   1      -0.816  -3.882  -0.878  0.00  0.00     0.080 C 
ATOM     12  N   UNL d   1       2.594  -4.065   0.299  0.00  0.00    -0.265 N 
ATOM     13  C   UNL d   1       2.436  -2.738   0.402  0.00  0.00     0.045 A 
ATOM     14  HN  UNL d   1       3.430  -4.604   0.524  1.00  0.00     0.194 HD
ATOM     15  C   UNL d   1       3.549  -1.892   0.891  0.00  0.00     0.071 C 
ENDBRANCH   1   8
BRANCH   4  16
ATOM     16  C   UNL d   1       0.602   2.513  -0.028  0.00  0.00     0.010 A 
ATOM     17  C   UNL d   1       1.904   2.929   0.290  0.00  0.00     0.015 A 
ATOM     18  C   UNL d   1       2.243   4.284   0.270  0.00  0.00     0.001 A 
ATOM     19  C   UNL d   1       1.285   5.239  -0.064  0.00  0.00     0.000 A 
ATOM     20  C   UNL d   1      -0.015   4.842  -0.370  0.00  0.00     0.001 A 
ATOM     21  C   UNL d   1      -0.356   3.487  -0.350  0.00  0.00     0.015 A 
ENDBRANCH   4  16
TORSDOF 2
