REMARK  3 active torsions:
REMARK  status: ('A' for Active; 'I' for Inactive)
REMARK    1  A    between atoms: N_5  and  C_1 
REMARK    2  A    between atoms: C_9  and  C_4 
REMARK       I    between atoms: C_8  and  N_5 
REMARK    3  A    between atoms: C_12  and  C_8 
ROOT
ATOM      1  C   UNL d   1      -1.591   0.209  -0.132  0.00  0.00     0.152 A 
ATOM      2  N   UNL d   1      -1.454  -1.089  -0.159  0.00  0.00    -0.335 N 
ATOM      3  HN  UNL d   1      -2.225  -1.753  -0.238  1.00  0.00     0.168 HD
ATOM      4  C   UNL d   1      -0.113  -1.438  -0.066  0.00  0.00     0.057 A 
ATOM      5  S   UNL d   1      -0.149   1.107  -0.003  0.00  0.00    -0.057 SA
ATOM      6  C   UNL d   1       0.763  -0.359  -0.030  0.00  0.00     0.010 A 
ATOM      7  C   UNL d   1       2.253  -0.297  -0.028  0.00  0.00     0.059 C 
ENDROOT
BRANCH   1   8
ATOM      8  N   UNL d   1      -2.730   0.970  -0.177  0.00  0.00    -0.303 N 
ATOM      9  C   UNL d   1      -3.959   0.424  -0.470  0.00  0.00     0.257 C 
ATOM     10  O   UNL d   1      -4.183  -0.736  -0.807  0.00  0.00    -0.267 OA
ATOM     11  H   UNL d   1      -2.613   1.966  -0.088  0.00  0.00     0.171 HD
BRANCH   9  12
ATOM     12  C   UNL d   1      -5.111   1.368  -0.434  0.00  0.00     0.032 A 
ATOM     13  C   UNL d   1      -6.156   1.175  -1.347  0.00  0.00     0.017 A 
ATOM     14  C   UNL d   1      -7.276   2.010  -1.329  0.00  0.00     0.007 A 
ATOM     15  C   UNL d   1      -7.377   3.040  -0.387  0.00  0.00    -0.062 A 
ATOM     16  C   UNL d   1      -6.335   3.226   0.532  0.00  0.00     0.007 A 
ATOM     17  C   UNL d   1      -8.596   3.917  -0.373  0.00  0.00     0.048 C 
ATOM     18  C   UNL d   1      -5.207   2.396   0.512  0.00  0.00     0.017 A 
ENDBRANCH   9  12
ENDBRANCH   1   8
BRANCH   4  19
ATOM     19  C   UNL d   1       0.260  -2.854  -0.049  0.00  0.00    -0.007 A 
ATOM     20  C   UNL d   1      -0.527  -3.780  -0.746  0.00  0.00     0.038 A 
ATOM     21  C   UNL d   1      -0.215  -5.145  -0.730  0.00  0.00     0.040 A 
ATOM     22 CL   UNL d   1      -1.240  -6.224  -1.609  0.00  0.00    -0.084 Cl
ATOM     23  C   UNL d   1       0.895  -5.618  -0.014  0.00  0.00    -0.040 A 
ATOM     24  C   UNL d   1       1.671  -4.695   0.696  0.00  0.00     0.009 A 
ATOM     25  C   UNL d   1       1.259  -7.075   0.030  0.00  0.00     0.050 C 
ATOM     26  C   UNL d   1       1.348  -3.334   0.690  0.00  0.00     0.014 A 
ENDBRANCH   4  19
TORSDOF 3
