REMARK  3 active torsions:
REMARK  status: ('A' for Active; 'I' for Inactive)
REMARK    1  A    between atoms: C_12  and  C_2 
REMARK    2  A    between atoms: O_13  and  C_10 
REMARK    3  A    between atoms: O_14  and  C_12 
ROOT
ATOM      1  C   UNL d   1      -0.052   0.357  -0.009  0.00  0.00     0.093 A 
ATOM      2  C   UNL d   1       1.203  -1.772  -0.018  0.00  0.00    -0.016 A 
ATOM      3  O   UNL d   1       1.160   1.074  -0.017  0.00  0.00    -0.275 OA
ATOM      4  C   UNL d   1       2.374   0.416  -0.034  0.00  0.00     0.288 A 
ATOM      5  C   UNL d   1      -0.077  -1.043  -0.013  0.00  0.00     0.007 A 
ATOM      6  C   UNL d   1       2.336  -1.052  -0.029  0.00  0.00     0.092 A 
ATOM      7  C   UNL d   1      -1.213   1.134   0.002  0.00  0.00     0.074 A 
ATOM      8  C   UNL d   1      -1.334  -1.661  -0.013  0.00  0.00     0.017 A 
ATOM      9  O   UNL d   1       3.444   1.012  -0.032  0.00  0.00    -0.260 OA
ATOM     10  C   UNL d   1      -2.441   0.491   0.005  0.00  0.00     0.068 A 
ATOM     11  C   UNL d   1      -2.510  -0.897  -0.004  0.00  0.00     0.037 A 
ENDROOT
BRANCH   2  12
ATOM     12  C   UNL d   1       1.260  -3.276   0.043  0.00  0.00     0.206 C 
BRANCH  12  13
ATOM     13  O   UNL d   1       0.700  -3.835  -1.143  0.00  0.00    -0.391 OA
ATOM     14  C   UNL d   1       0.828  -5.253  -1.159  0.00  0.00     0.201 C 
ENDBRANCH  12  13
ENDBRANCH   2  12
BRANCH  10  15
ATOM     15  O   UNL d   1      -3.610   1.190   0.013  0.00  0.00    -0.361 OA
ATOM     16  H   UNL d   1      -3.407   2.142  -0.001  0.00  0.00     0.217 HD
ENDBRANCH  10  15
TORSDOF 3
