REMARK  5 active torsions:
REMARK  status: ('A' for Active; 'I' for Inactive)
REMARK    1  A    between atoms: C_2  and  C_1 
REMARK       I    between atoms: N_4  and  C_2 
REMARK    2  A    between atoms: C_7  and  C_3 
REMARK    3  A    between atoms: C_5  and  N_4 
REMARK    4  A    between atoms: C_14  and  C_6 
REMARK    5  A    between atoms: O_16  and  C_7 
ROOT
ATOM      1  C   UNL d   1       0.949   0.433   0.176  0.00  0.00     0.113 C 
ATOM      2  C   UNL d   1       0.381   1.546  -0.334  0.00  0.00     0.039 C 
ATOM      3  C   UNL d   1       0.210  -0.672   0.674  0.00  0.00     0.105 C 
ATOM      4  N   UNL d   1      -0.367  -1.591   1.090  0.00  0.00    -0.191 NA
ENDROOT
BRANCH   1   5
ATOM      5  C   UNL d   1       2.444   0.445   0.313  0.00  0.00     0.266 C 
ATOM      6  N   UNL d   1       3.030  -0.792   0.487  0.00  0.00    -0.321 N 
ATOM      7  H   UNL d   1       2.521  -1.621   0.184  0.00  0.00     0.169 HD
ATOM      8  O   UNL d   1       3.065   1.504   0.251  0.00  0.00    -0.267 OA
BRANCH   6   9
ATOM      9  C   UNL d   1       4.363  -1.034   0.904  0.00  0.00     0.051 A 
ATOM     10  C   UNL d   1       5.011  -2.254   0.608  0.00  0.00     0.066 A 
ATOM     11  C   UNL d   1       6.312  -2.481   1.099  0.00  0.00     0.020 A 
ATOM     12  C   UNL d   1       6.960  -1.528   1.885  0.00  0.00     0.001 A 
ATOM     13  C   UNL d   1       6.322  -0.330   2.178  0.00  0.00     0.002 A 
ATOM     14  C   UNL d   1       5.037  -0.084   1.689  0.00  0.00     0.030 A 
BRANCH  10  15
ATOM     15  C   UNL d   1       4.460  -3.322  -0.280  0.00  0.00     0.295 C 
ATOM     16  O   UNL d   1       5.129  -4.251  -0.707  0.00  0.00    -0.259 OA
BRANCH  15  17
ATOM     17  O   UNL d   1       3.145  -3.119  -0.558  0.00  0.00    -0.322 OA
ATOM     18  C   UNL d   1       2.590  -4.055  -1.486  0.00  0.00     0.213 C 
ENDBRANCH  15  17
ENDBRANCH  10  15
ENDBRANCH   6   9
ENDBRANCH   1   5
BRANCH   2  19
ATOM     19  C   UNL d   1      -1.050   1.883  -0.401  0.00  0.00    -0.035 A 
ATOM     20  C   UNL d   1      -1.891   1.741   0.712  0.00  0.00     0.013 A 
ATOM     21  C   UNL d   1      -3.218   2.179   0.666  0.00  0.00     0.023 A 
ATOM     22  C   UNL d   1      -3.718   2.785  -0.489  0.00  0.00     0.044 A 
ATOM     23  C   UNL d   1      -5.068   3.263  -0.522  0.00  0.00     0.099 C 
ATOM     24  C   UNL d   1      -2.885   2.942  -1.600  0.00  0.00     0.023 A 
ATOM     25  N   UNL d   1      -6.161   3.656  -0.545  0.00  0.00    -0.191 NA
ATOM     26  C   UNL d   1      -1.558   2.497  -1.554  0.00  0.00     0.013 A 
ENDBRANCH   2  19
TORSDOF 5
