REMARK  0 active torsions:
REMARK  status: ('A' for Active; 'I' for Inactive)
ROOT
ATOM      1  C   UNL d   1      -1.214  -0.983  -0.000  0.00  0.00     0.023 A 
ATOM      2  S   UNL d   1       0.085  -2.103  -0.003  0.00  0.00    -0.088 SA
ATOM      3  C   UNL d   1      -0.730   0.334   0.001  0.00  0.00    -0.006 A 
ATOM      4  C   UNL d   1       1.284  -0.893  -0.002  0.00  0.00     0.018 A 
ATOM      5  C   UNL d   1       0.748   0.399  -0.001  0.00  0.00    -0.001 A 
ATOM      6  C   UNL d   1       1.693   1.484  -0.002  0.00  0.00    -0.049 A 
ATOM      7  C   UNL d   1      -2.606  -1.314   0.001  0.00  0.00    -0.038 A 
ATOM      8  C   UNL d   1      -1.715   1.355   0.005  0.00  0.00     0.014 A 
ATOM      9  C   UNL d   1       2.668  -1.159  -0.003  0.00  0.00     0.026 A 
ATOM     10  C   UNL d   1       3.083   1.191  -0.003  0.00  0.00     0.014 A 
ATOM     11  C   UNL d   1      -3.538  -0.252   0.007  0.00  0.00    -0.055 A 
ATOM     12  C   UNL d   1       3.574  -0.107  -0.003  0.00  0.00    -0.060 A 
ATOM     13  C   UNL d   1      -3.082   1.063   0.008  0.00  0.00     0.008 A 
ATOM     14  C   UNL d   1       1.376   2.961  -0.002  0.00  0.00     0.049 C 
ATOM     15  C   UNL d   1      -3.096  -2.743  -0.004  0.00  0.00     0.050 C 
ATOM     16  C   UNL d   1      -5.030  -0.465   0.013  0.00  0.00     0.049 C 
ATOM     17  C   UNL d   1       5.051  -0.367  -0.004  0.00  0.00     0.048 C 
ENDROOT
TORSDOF 0
