REMARK  3 active torsions:
REMARK  status: ('A' for Active; 'I' for Inactive)
REMARK    1  A    between atoms: N_9  and  C_1 
REMARK    2  A    between atoms: C_3  and  C_5 
REMARK       I    between atoms: C_5  and  N_10 
REMARK       I    between atoms: C_11  and  N_9 
REMARK    3  A    between atoms: N_10  and  C_13 
ROOT
ATOM      1  C   UNL d   1      -1.827  -1.380   0.067  0.00  0.00     0.112 C 
ATOM      2  C   UNL d   1      -2.147   0.080   0.179  0.00  0.00     0.315 C 
ATOM      3  O   UNL d   1      -1.124   0.986  -0.071  0.00  0.00    -0.273 OA
ATOM      4  C   UNL d   1      -0.549  -1.770   0.010  0.00  0.00     0.050 C 
ATOM      5  C   UNL d   1       0.524  -0.791  -0.013  0.00  0.00     0.002 A 
ATOM      6  C   UNL d   1       0.211   0.553  -0.139  0.00  0.00     0.090 A 
ATOM      7  C   UNL d   1       1.864  -1.182   0.043  0.00  0.00     0.043 A 
ATOM      8  C   UNL d   1       2.889  -0.236  -0.051  0.00  0.00     0.035 A 
ATOM      9  O   UNL d   1      -3.296   0.443   0.427  0.00  0.00    -0.257 OA
ATOM     10  C   UNL d   1       1.208   1.510  -0.295  0.00  0.00     0.040 A 
ATOM     11  C   UNL d   1       2.548   1.110  -0.260  0.00  0.00     0.032 A 
ENDROOT
BRANCH   8  12
ATOM     12  N   UNL d   1       4.258  -0.557   0.072  0.00  0.00    -0.320 N 
ATOM     13  C   UNL d   1       4.809  -1.806   0.386  0.00  0.00     0.330 C 
ATOM     14  O   UNL d   1       4.166  -2.842   0.555  0.00  0.00    -0.263 OA
ATOM     15  H   UNL d   1       4.917   0.212  -0.016  0.00  0.00     0.169 HD
BRANCH  13  16
ATOM     16  C   UNL d   1       6.342  -1.773   0.528  0.00  0.00     0.472 C 
ATOM     17  F   UNL d   1       6.845  -0.524   0.296  0.00  0.00    -0.162 F 
ATOM     18  F   UNL d   1       6.758  -2.123   1.776  0.00  0.00    -0.162 F 
ATOM     19  F   UNL d   1       6.969  -2.606  -0.346  0.00  0.00    -0.162 F 
ENDBRANCH  13  16
ENDBRANCH   8  12
BRANCH   1  20
ATOM     20  N   UNL d   1      -2.923  -2.230   0.024  0.00  0.00    -0.322 N 
ATOM     21  C   UNL d   1      -2.933  -3.590  -0.221  0.00  0.00     0.218 C 
ATOM     22  O   UNL d   1      -1.950  -4.296  -0.405  0.00  0.00    -0.274 OA
ATOM     23  C   UNL d   1      -4.319  -4.179  -0.299  0.00  0.00     0.117 C 
ATOM     24  H   UNL d   1      -3.817  -1.752   0.122  0.00  0.00     0.169 HD
ENDBRANCH   1  20
TORSDOF 3
