REMARK  3 active torsions:
REMARK  status: ('A' for Active; 'I' for Inactive)
REMARK    1  A    between atoms: C_10  and  C_3 
REMARK    2  A    between atoms: N_6  and  C_9 
REMARK    3  A    between atoms: C_15  and  C_8 
ROOT
ATOM      1  N   UNL d   1       1.550  -0.073   0.039  0.00  0.00    -0.331 N 
ATOM      2  HN  UNL d   1       2.500  -0.440   0.010  1.00  0.00     0.168 HD
ATOM      3  C   UNL d   1       1.161   1.161   0.059  0.00  0.00     0.162 A 
ATOM      4  C   UNL d   1       0.362  -0.765   0.066  0.00  0.00     0.111 A 
ATOM      5  O   UNL d   1      -0.168   1.402   0.105  0.00  0.00    -0.256 OA
ATOM      6  C   UNL d   1      -0.786   0.188   0.115  0.00  0.00     0.316 A 
ATOM      7  C   UNL d   1       0.284  -2.101   0.032  0.00  0.00     0.047 C 
ATOM      8  O   UNL d   1      -1.982  -0.011   0.157  0.00  0.00    -0.257 OA
ENDROOT
BRANCH   3   9
ATOM      9  C   UNL d   1       2.010   2.363   0.022  0.00  0.00     0.018 A 
ATOM     10  C   UNL d   1       3.397   2.222  -0.115  0.00  0.00     0.052 A 
ATOM     11  C   UNL d   1       4.201   3.370  -0.164  0.00  0.00     0.103 A 
ATOM     12  C   UNL d   1       3.632   4.649  -0.075  0.00  0.00     0.036 A 
ATOM     13  C   UNL d   1       2.251   4.780   0.065  0.00  0.00     0.003 A 
ATOM     14  C   UNL d   1       1.443   3.643   0.113  0.00  0.00     0.016 A 
BRANCH  11  15
ATOM     15  N   UNL d   1       5.656   3.238  -0.313  0.00  0.00    -0.116 N 
ATOM     16  O   UNL d   1       6.125   2.093  -0.386  0.00  0.00    -0.532 OA
ATOM     17  O   UNL d   1       6.327   4.278  -0.359  0.00  0.00    -0.532 OA
ENDBRANCH  11  15
ENDBRANCH   3   9
BRANCH   7  18
ATOM     18  C   UNL d   1      -0.953  -2.880   0.010  0.00  0.00    -0.034 A 
ATOM     19  C   UNL d   1      -1.534  -3.230  -1.215  0.00  0.00     0.013 A 
ATOM     20  C   UNL d   1      -2.710  -3.983  -1.247  0.00  0.00     0.024 A 
ATOM     21  C   UNL d   1      -3.306  -4.387  -0.054  0.00  0.00     0.034 A 
ATOM     22  C   UNL d   1      -2.736  -4.043   1.171  0.00  0.00     0.024 A 
ATOM     23 CL   UNL d   1      -4.751  -5.319  -0.094  0.00  0.00    -0.084 Cl
ATOM     24  C   UNL d   1      -1.560  -3.289   1.204  0.00  0.00     0.013 A 
ENDBRANCH   7  18
TORSDOF 3
