REMARK  4 active torsions:
REMARK  status: ('A' for Active; 'I' for Inactive)
REMARK    1  A    between atoms: C_6  and  N_1 
REMARK    2  A    between atoms: C_2  and  C_9 
REMARK    3  A    between atoms: C_17  and  C_3 
REMARK       I    between atoms: C_8  and  N_11 
REMARK    4  A    between atoms: N_11  and  C_18 
ROOT
ATOM      1  C   UNL d   1      -2.232   4.172   2.309  0.00  0.00     0.055 C 
ATOM      2  C   UNL d   1      -3.358   3.764   2.933  0.00  0.00     0.034 C 
ATOM      3  C   UNL d   1      -1.358   3.222   1.678  0.00  0.00     0.100 C 
ATOM      4  N   UNL d   1      -0.640   2.481   1.148  0.00  0.00    -0.191 NA
ENDROOT
BRANCH   1   5
ATOM      5  C   UNL d   1      -1.890   5.623   2.244  0.00  0.00    -0.015 A 
ATOM      6  C   UNL d   1      -2.206   6.501   3.299  0.00  0.00     0.015 A 
ATOM      7  C   UNL d   1      -1.864   7.858   3.246  0.00  0.00     0.037 A 
ATOM      8  C   UNL d   1      -1.180   8.355   2.133  0.00  0.00     0.102 A 
ATOM      9  C   UNL d   1      -0.842   7.505   1.077  0.00  0.00     0.037 A 
ATOM     10  C   UNL d   1      -1.198   6.151   1.136  0.00  0.00     0.015 A 
BRANCH   8  11
ATOM     11  N   UNL d   1      -0.811   9.776   2.080  0.00  0.00    -0.116 N 
ATOM     12  O   UNL d   1      -0.189  10.173   1.085  0.00  0.00    -0.532 OA
ATOM     13  O   UNL d   1      -1.145  10.493   3.033  0.00  0.00    -0.532 OA
ENDBRANCH   8  11
ENDBRANCH   1   5
BRANCH   2  14
ATOM     14  C   UNL d   1      -3.786   2.367   3.068  0.00  0.00    -0.035 A 
ATOM     15  C   UNL d   1      -3.345   1.586   4.139  0.00  0.00     0.013 A 
ATOM     16  C   UNL d   1      -3.755   0.252   4.253  0.00  0.00     0.030 A 
ATOM     17  C   UNL d   1      -4.607  -0.320   3.299  0.00  0.00     0.034 A 
ATOM     18  C   UNL d   1      -5.050   0.471   2.237  0.00  0.00     0.030 A 
ATOM     19  C   UNL d   1      -4.642   1.806   2.121  0.00  0.00     0.013 A 
BRANCH  17  20
ATOM     20  N   UNL d   1      -4.957  -1.677   3.467  0.00  0.00    -0.328 N 
ATOM     21  C   UNL d   1      -5.764  -2.442   2.644  0.00  0.00     0.218 C 
ATOM     22  O   UNL d   1      -6.351  -2.066   1.635  0.00  0.00    -0.274 OA
ATOM     23  C   UNL d   1      -5.885  -3.877   3.094  0.00  0.00     0.117 C 
ATOM     24  H   UNL d   1      -4.553  -2.139   4.272  0.00  0.00     0.169 HD
ENDBRANCH  17  20
ENDBRANCH   2  14
TORSDOF 4
