REMARK  4 active torsions:
REMARK  status: ('A' for Active; 'I' for Inactive)
REMARK    1  A    between atoms: C_11  and  C_3 
REMARK    2  A    between atoms: C_12  and  C_4 
REMARK    3  A    between atoms: C_14  and  C_10 
REMARK    4  A    between atoms: O_23  and  C_20 
ROOT
ATOM      1  C   UNL d   1       0.285  -0.744   0.025  0.00  0.00     0.144 A 
ATOM      2  N   UNL d   1       0.283   0.639   0.006  0.00  0.00    -0.202 N 
ATOM      3  C   UNL d   1       2.353   0.091  -0.043  0.00  0.00     0.147 A 
ATOM      4  C   UNL d   1       1.609  -1.145   0.006  0.00  0.00     0.053 A 
ATOM      5  N   UNL d   1       1.529   1.159  -0.014  0.00  0.00    -0.284 N 
ATOM      6  HN  UNL d   1       1.790   2.145  -0.008  1.00  0.00     0.187 HD
ATOM      7  N   UNL d   1      -0.921  -1.373   0.056  0.00  0.00    -0.339 N 
ATOM      8  C   UNL d   1      -0.870   1.448   0.001  0.00  0.00     0.270 A 
ATOM      9  C   UNL d   1      -2.145   0.688   0.005  0.00  0.00     0.106 A 
ATOM     10  C   UNL d   1      -2.104  -0.655   0.031  0.00  0.00     0.049 A 
ATOM     11  O   UNL d   1      -0.815   2.668  -0.011  0.00  0.00    -0.266 OA
ATOM     12  H   UNL d   1      -1.013  -2.385   0.131  0.00  0.00     0.167 HD
ENDROOT
BRANCH   4  13
ATOM     13  C   UNL d   1       2.071  -2.530  -0.011  0.00  0.00    -0.020 A 
ATOM     14  C   UNL d   1       3.212  -2.904   0.712  0.00  0.00     0.015 A 
ATOM     15  C   UNL d   1       3.756  -4.189   0.593  0.00  0.00     0.037 A 
ATOM     16  C   UNL d   1       3.131  -5.141  -0.206  0.00  0.00     0.068 A 
ATOM     17  C   UNL d   1       1.944  -4.809  -0.857  0.00  0.00     0.037 A 
ATOM     18  C   UNL d   1       1.430  -3.507  -0.782  0.00  0.00     0.015 A 
BRANCH  16  19
ATOM     19  O   UNL d   1       3.564  -6.427  -0.373  0.00  0.00    -0.356 OA
ATOM     20  C   UNL d   1       4.979  -6.598  -0.388  0.00  0.00     0.210 C 
ENDBRANCH  16  19
ENDBRANCH   4  13
BRANCH   3  21
ATOM     21  C   UNL d   1       3.846   0.312  -0.130  0.00  0.00     0.434 C 
ATOM     22  F   UNL d   1       4.559  -0.820  -0.372  0.00  0.00    -0.165 F 
ATOM     23  F   UNL d   1       4.184   1.175  -1.126  0.00  0.00    -0.165 F 
ATOM     24  F   UNL d   1       4.346   0.830   1.026  0.00  0.00    -0.165 F 
ENDBRANCH   3  21
BRANCH  10  25
ATOM     25  C   UNL d   1      -3.374  -1.392   0.032  0.00  0.00    -0.009 A 
ATOM     26  C   UNL d   1      -3.994  -1.738  -1.175  0.00  0.00     0.013 A 
ATOM     27  C   UNL d   1      -5.241  -2.368  -1.170  0.00  0.00     0.001 A 
ATOM     28  C   UNL d   1      -5.873  -2.654   0.039  0.00  0.00     0.000 A 
ATOM     29  C   UNL d   1      -5.258  -2.319   1.245  0.00  0.00     0.001 A 
ATOM     30  C   UNL d   1      -4.011  -1.691   1.242  0.00  0.00     0.013 A 
ENDBRANCH  10  25
TORSDOF 4
