REMARK  4 active torsions:
REMARK  status: ('A' for Active; 'I' for Inactive)
REMARK    1  A    between atoms: C_5  and  C_1 
REMARK    2  A    between atoms: N_13  and  C_1 
REMARK    3  A    between atoms: C_2  and  C_6 
REMARK    4  A    between atoms: O_14  and  N_3 
ROOT
ATOM      1  C   UNL d   1       0.244   0.021   1.274  0.00  0.00     0.004 A 
ATOM      2  C   UNL d   1      -1.200  -0.209   3.688  0.00  0.00    -0.004 A 
ATOM      3  C   UNL d   1       0.677   0.695   2.419  0.00  0.00     0.015 A 
ATOM      4  C   UNL d   1      -0.911  -0.764   1.329  0.00  0.00     0.015 A 
ATOM      5  C   UNL d   1      -0.046   0.589   3.612  0.00  0.00     0.013 A 
ATOM      6  C   UNL d   1      -1.626  -0.873   2.525  0.00  0.00     0.013 A 
ENDROOT
BRANCH   1   7
ATOM      7  C   UNL d   1       1.010   0.133  -0.002  0.00  0.00     0.108 C 
ATOM      8  N   UNL d   1       2.292   0.371   0.056  0.00  0.00    -0.258 N 
ATOM      9  HN  UNL d   1       2.821   0.484   0.920  1.00  0.00     0.195 HD
BRANCH   8  10
ATOM     10  O   UNL d   1       2.843   0.451  -1.235  0.00  0.00    -0.289 OA
ATOM     11  H   UNL d   1       3.799   0.469  -1.041  0.00  0.00     0.244 HD
ENDBRANCH   8  10
BRANCH   7  12
ATOM     12  N   UNL d   1       0.343  -0.008  -1.197  0.00  0.00    -0.287 NA
ATOM     13  H   UNL d   1       0.947   0.299  -1.956  0.00  0.00     0.125 HD
ATOM     14  H   UNL d   1      -0.567   0.438  -1.230  0.00  0.00     0.125 HD
ENDBRANCH   7  12
ENDBRANCH   1   7
BRANCH   2  15
ATOM     15  C   UNL d   1      -2.014  -0.292   4.966  0.00  0.00     0.294 C 
ATOM     16  O   UNL d   1      -1.199  -0.112   6.136  0.00  0.00    -0.355 OA
ATOM     17  C   UNL d   1      -1.255  -1.360   6.823  0.00  0.00     0.197 C 
ATOM     18  C   UNL d   1      -2.584  -1.932   6.419  0.00  0.00     0.197 C 
ATOM     19  O   UNL d   1      -2.706  -1.549   5.053  0.00  0.00    -0.355 OA
ENDBRANCH   2  15
TORSDOF 4
