REMARK  5 active torsions:
REMARK  status: ('A' for Active; 'I' for Inactive)
REMARK    1  A    between atoms: C_7  and  C_1 
REMARK    2  A    between atoms: O_13  and  C_7 
REMARK    3  A    between atoms: N_8  and  N_10 
REMARK    4  A    between atoms: C_15  and  C_12 
REMARK    5  A    between atoms: C_22  and  O_13 
ROOT
ATOM      1  C   UNL d   1      -0.095   1.379   0.024  0.00  0.00     0.109 A 
ATOM      2  C   UNL d   1      -1.399   0.919   0.001  0.00  0.00     0.153 A 
ATOM      3  N   UNL d   1      -0.053  -0.917  -0.011  0.00  0.00    -0.302 N 
ATOM      4  HN  UNL d   1       0.255  -1.889  -0.015  1.00  0.00     0.186 HD
ATOM      5  N   UNL d   1      -1.307  -0.444  -0.019  0.00  0.00    -0.283 N 
ATOM      6  C   UNL d   1       0.698   0.191   0.004  0.00  0.00     0.042 A 
ATOM      7  N   UNL d   1      -2.627   1.498   0.021  0.00  0.00    -0.284 N 
ATOM      8  C   UNL d   1       2.177   0.060   0.002  0.00  0.00     0.071 C 
ATOM      9  H   UNL d   1      -2.091  -1.085  -0.021  0.00  0.00     0.188 HD
ATOM     10  H   UNL d   1      -2.708   2.520  -0.026  0.00  0.00     0.188 HD
ENDROOT
BRANCH   1  11
ATOM     11  C   UNL d   1       0.327   2.762   0.029  0.00  0.00     0.299 C 
ATOM     12  O   UNL d   1      -0.473   3.698  -0.000  0.00  0.00    -0.259 OA
BRANCH  11  13
ATOM     13  O   UNL d   1       1.677   2.916  -0.033  0.00  0.00    -0.318 OA
BRANCH  13  14
ATOM     14  C   UNL d   1       2.110   4.157  -0.604  0.00  0.00     0.174 C 
ATOM     15  C   UNL d   1       2.128   3.976  -2.111  0.00  0.00     0.034 C 
ENDBRANCH  13  14
ENDBRANCH  11  13
ENDBRANCH   1  11
BRANCH   7  16
ATOM     16  N   UNL d   1      -3.734   0.722  -0.103  0.00  0.00    -0.309 N 
ATOM     17  C   UNL d   1      -4.839   1.164   0.403  0.00  0.00     0.118 C 
ATOM     18  HN  UNL d   1      -3.696  -0.179  -0.579  1.00  0.00     0.186 HD
BRANCH  17  19
ATOM     19  C   UNL d   1      -6.073   0.354   0.267  0.00  0.00    -0.018 A 
ATOM     20  C   UNL d   1      -6.031  -0.867  -0.419  0.00  0.00     0.036 A 
ATOM     21  C   UNL d   1      -7.197  -1.607  -0.585  0.00  0.00     0.034 A 
ATOM     22 CL   UNL d   1      -7.148  -3.101  -1.438  0.00  0.00    -0.084 Cl
ATOM     23  C   UNL d   1      -8.408  -1.139  -0.079  0.00  0.00     0.024 A 
ATOM     24  C   UNL d   1      -8.450   0.078   0.607  0.00  0.00     0.003 A 
ATOM     25  C   UNL d   1      -7.281   0.825   0.788  0.00  0.00     0.013 A 
ENDBRANCH  17  19
ENDBRANCH   7  16
TORSDOF 5
