REMARK  6 active torsions:
REMARK  status: ('A' for Active; 'I' for Inactive)
REMARK    1  A    between atoms: C_7  and  C_1 
REMARK    2  A    between atoms: O_13  and  C_7 
REMARK    3  A    between atoms: N_8  and  N_10 
REMARK    4  A    between atoms: C_15  and  C_12 
REMARK    5  A    between atoms: C_22  and  O_13 
REMARK    6  A    between atoms: O_17  and  C_16 
ROOT
ATOM      1  C   UNL d   1      -0.099   1.358   0.035  0.00  0.00     0.109 A 
ATOM      2  C   UNL d   1      -1.391   0.875   0.057  0.00  0.00     0.153 A 
ATOM      3  N   UNL d   1      -0.029  -0.943   0.027  0.00  0.00    -0.302 N 
ATOM      4  HN  UNL d   1       0.291  -1.912   0.021  1.00  0.00     0.186 HD
ATOM      5  N   UNL d   1      -1.287  -0.484   0.033  0.00  0.00    -0.283 N 
ATOM      6  C   UNL d   1       0.710   0.176   0.029  0.00  0.00     0.042 A 
ATOM      7  N   UNL d   1      -2.619   1.445   0.089  0.00  0.00    -0.284 N 
ATOM      8  C   UNL d   1       2.189   0.058   0.007  0.00  0.00     0.071 C 
ATOM      9  H   UNL d   1      -2.067  -1.130   0.016  0.00  0.00     0.188 HD
ATOM     10  H   UNL d   1      -2.699   2.467   0.037  0.00  0.00     0.188 HD
ENDROOT
BRANCH   1  11
ATOM     11  C   UNL d   1       0.285   2.750  -0.030  0.00  0.00     0.299 C 
ATOM     12  O   UNL d   1      -0.524   3.670  -0.096  0.00  0.00    -0.259 OA
BRANCH  11  13
ATOM     13  O   UNL d   1       1.637   2.909  -0.109  0.00  0.00    -0.318 OA
BRANCH  13  14
ATOM     14  C   UNL d   1       2.089   4.146  -0.673  0.00  0.00     0.174 C 
ATOM     15  C   UNL d   1       2.135   3.981  -2.183  0.00  0.00     0.034 C 
ENDBRANCH  13  14
ENDBRANCH  11  13
ENDBRANCH   1  11
BRANCH   7  16
ATOM     16  N   UNL d   1      -3.716   0.666  -0.075  0.00  0.00    -0.309 N 
ATOM     17  C   UNL d   1      -4.837   1.131   0.375  0.00  0.00     0.118 C 
ATOM     18  HN  UNL d   1      -3.661  -0.244  -0.532  1.00  0.00     0.186 HD
BRANCH  17  19
ATOM     19  C   UNL d   1      -6.068   0.323   0.238  0.00  0.00    -0.017 A 
ATOM     20  C   UNL d   1      -6.018  -0.909  -0.429  0.00  0.00     0.049 A 
ATOM     21  C   UNL d   1      -7.182  -1.660  -0.561  0.00  0.00     0.066 A 
ATOM     22  C   UNL d   1      -8.382  -1.204  -0.036  0.00  0.00     0.036 A 
ATOM     23  C   UNL d   1      -8.429   0.019   0.635  0.00  0.00     0.004 A 
ATOM     24  C   UNL d   1      -7.270   0.788   0.777  0.00  0.00     0.013 A 
BRANCH  21  25
ATOM     25  O   UNL d   1      -7.173  -2.859  -1.211  0.00  0.00    -0.361 OA
ATOM     26  H   UNL d   1      -6.277  -3.038  -1.536  0.00  0.00     0.217 HD
ENDBRANCH  21  25
ENDBRANCH  17  19
ENDBRANCH   7  16
TORSDOF 6
