REMARK  7 active torsions:
REMARK  status: ('A' for Active; 'I' for Inactive)
REMARK    1  A    between atoms: C_8  and  C_1 
REMARK    2  A    between atoms: C_2  and  C_9 
REMARK    3  A    between atoms: O_22  and  C_3 
REMARK    4  A    between atoms: C_4  and  N_11 
REMARK    5  A    between atoms: N_12  and  C_4 
REMARK    6  A    between atoms: N_11  and  N_6 
REMARK    7  A    between atoms: C_17  and  N_12 
ROOT
ATOM      1  N   UNL d   1      -2.490   3.155   0.030  0.00  0.00    -0.276 N 
ATOM      2  H   UNL d   1      -2.386   2.277  -0.465  0.00  0.00     0.189 HD
ENDROOT
BRANCH   1   3
ATOM      3  C   UNL d   1      -3.765   3.677   0.115  0.00  0.00     0.191 C 
ATOM      4  S   UNL d   1      -4.241   4.931   1.109  0.00  0.00    -0.039 SA
BRANCH   3   5
ATOM      5  N   UNL d   1      -4.711   3.014  -0.633  0.00  0.00    -0.332 N 
ATOM      6  H   UNL d   1      -5.668   3.145  -0.319  0.00  0.00     0.168 HD
BRANCH   5   7
ATOM      7  C   UNL d   1      -4.561   2.511  -1.943  0.00  0.00     0.035 A 
ATOM      8  C   UNL d   1      -3.520   2.912  -2.789  0.00  0.00     0.045 A 
ATOM      9  C   UNL d   1      -3.455   2.462  -4.119  0.00  0.00     0.050 A 
ATOM     10  C   UNL d   1      -4.436   1.574  -4.582  0.00  0.00     0.016 A 
ATOM     11  C   UNL d   1      -5.477   1.173  -3.744  0.00  0.00     0.003 A 
ATOM     12  C   UNL d   1      -5.550   1.655  -2.436  0.00  0.00     0.029 A 
BRANCH   9  13
ATOM     13  C   UNL d   1      -2.376   2.952  -5.052  0.00  0.00     0.417 C 
ATOM     14  F   UNL d   1      -1.529   3.852  -4.482  0.00  0.00    -0.166 F 
ATOM     15  F   UNL d   1      -1.589   1.939  -5.508  0.00  0.00    -0.166 F 
ATOM     16  F   UNL d   1      -2.882   3.561  -6.159  0.00  0.00    -0.166 F 
ENDBRANCH   9  13
ENDBRANCH   5   7
ENDBRANCH   3   5
ENDBRANCH   1   3
BRANCH   1  17
ATOM     17  N   UNL d   1      -1.389   3.868   0.371  0.00  0.00    -0.302 N 
ATOM     18  C   UNL d   1      -0.228   3.278   0.408  0.00  0.00     0.035 C 
ATOM     19  C   UNL d   1      -0.026   1.779   0.273  0.00  0.00     0.070 C 
ATOM     20  HN  UNL d   1      -1.469   4.859   0.597  1.00  0.00     0.186 HD
BRANCH  18  21
ATOM     21  C   UNL d   1       0.994   4.152   0.555  0.00  0.00     0.024 A 
ATOM     22  C   UNL d   1       0.877   5.555   0.655  0.00  0.00     0.099 A 
ATOM     23  C   UNL d   1       2.028   6.357   0.682  0.00  0.00     0.069 A 
ATOM     24 CL   UNL d   1       1.926   8.081   0.758  0.00  0.00    -0.081 Cl
ATOM     25  C   UNL d   1       3.297   5.783   0.626  0.00  0.00     0.050 A 
ATOM     26  C   UNL d   1       3.412   4.400   0.552  0.00  0.00     0.036 A 
ATOM     27  C   UNL d   1       2.277   3.586   0.513  0.00  0.00     0.040 A 
ATOM     28 CL   UNL d   1       4.973   3.678   0.482  0.00  0.00    -0.084 Cl
BRANCH  22  29
ATOM     29  O   UNL d   1      -0.338   6.190   0.713  0.00  0.00    -0.358 OA
ATOM     30  H   UNL d   1      -1.057   5.519   0.676  0.00  0.00     0.217 HD
ENDBRANCH  22  29
ENDBRANCH  18  21
ENDBRANCH   1  17
TORSDOF 7
