REMARK  4 active torsions:
REMARK  status: ('A' for Active; 'I' for Inactive)
REMARK    1  A    between atoms: C_6  and  C_1 
REMARK    2  A    between atoms: O_18  and  C_2 
REMARK    3  A    between atoms: C_8  and  C_6 
REMARK    4  A    between atoms: C_9  and  C_8 
ROOT
ATOM      1  C   UNL d   1       1.771  -0.800  -0.098  0.00  0.00     0.059 C 
ATOM      2  C   UNL d   1       1.464   0.511  -0.174  0.00  0.00     0.091 C 
ATOM      3  C   UNL d   1       0.665  -1.793  -0.289  0.00  0.00     0.297 C 
ATOM      4  O   UNL d   1      -0.502  -1.365  -0.897  0.00  0.00    -0.274 OA
ATOM      5  C   UNL d   1       0.107   0.948  -0.514  0.00  0.00     0.032 A 
ATOM      6  C   UNL d   1      -0.812  -0.001  -0.935  0.00  0.00     0.092 A 
ATOM      7  O   UNL d   1       0.816  -2.971   0.020  0.00  0.00    -0.259 OA
ATOM      8  C   UNL d   1      -0.301   2.288  -0.475  0.00  0.00     0.017 A 
ATOM      9  C   UNL d   1      -2.090   0.348  -1.373  0.00  0.00     0.038 A 
ATOM     10  C   UNL d   1      -1.589   2.654  -0.880  0.00  0.00     0.001 A 
ATOM     11  C   UNL d   1      -2.478   1.685  -1.346  0.00  0.00     0.003 A 
ENDROOT
BRANCH   1  12
ATOM     12  C   UNL d   1       3.090  -1.516   0.133  0.00  0.00     0.131 C 
BRANCH  12  13
ATOM     13  C   UNL d   1       4.366  -0.705   0.320  0.00  0.00     0.164 C 
ATOM     14  O   UNL d   1       4.366   0.418   0.821  0.00  0.00    -0.292 OA
BRANCH  13  15
ATOM     15  C   UNL d   1       5.680  -1.303  -0.047  0.00  0.00     0.013 A 
ATOM     16  C   UNL d   1       5.905  -2.683  -0.038  0.00  0.00     0.054 A 
ATOM     17  C   UNL d   1       7.199  -3.166  -0.251  0.00  0.00     0.103 A 
ATOM     18  O   UNL d   1       7.372  -4.523  -0.147  0.00  0.00    -0.346 OA
ATOM     19  C   UNL d   1       8.253  -2.287  -0.526  0.00  0.00     0.102 A 
ATOM     20  C   UNL d   1       8.747  -4.839   0.107  0.00  0.00     0.202 C 
ATOM     21  C   UNL d   1       9.650  -4.114  -0.877  0.00  0.00     0.202 C 
ATOM     22  O   UNL d   1       9.546  -2.694  -0.727  0.00  0.00    -0.346 OA
ATOM     23  C   UNL d   1       8.024  -0.916  -0.566  0.00  0.00     0.040 A 
ATOM     24  C   UNL d   1       6.741  -0.423  -0.319  0.00  0.00     0.018 A 
ENDBRANCH  13  15
ENDBRANCH  12  13
ENDBRANCH   1  12
BRANCH   2  25
ATOM     25  O   UNL d   1       2.340   1.561  -0.013  0.00  0.00    -0.359 OA
ATOM     26  H   UNL d   1       3.168   1.259   0.418  0.00  0.00     0.217 HD
ENDBRANCH   2  25
TORSDOF 4
