REMARK  8 active torsions:
REMARK  status: ('A' for Active; 'I' for Inactive)
REMARK    1  A    between atoms: C_9  and  C_3 
REMARK    2  A    between atoms: C_22  and  C_7 
REMARK    3  A    between atoms: O_19  and  C_9 
REMARK    4  A    between atoms: C_10  and  C_12 
REMARK    5  A    between atoms: C_11  and  C_13 
REMARK    6  A    between atoms: C_14  and  C_15 
REMARK    7  A    between atoms: N_30  and  C_15 
REMARK    8  A    between atoms: N_16  and  O_19 
ROOT
ATOM      1  C   UNL d   1      -4.817   2.886   0.929  0.00  0.00     0.109 C 
ATOM      2  N   UNL d   1      -3.781   2.137   1.158  0.00  0.00    -0.246 N 
ATOM      3  HN  UNL d   1      -3.113   2.303   1.912  1.00  0.00     0.196 HD
ENDROOT
BRANCH   1   4
ATOM      4  C   UNL d   1      -5.126   3.953   1.935  0.00  0.00     0.005 A 
ATOM      5  C   UNL d   1      -4.107   4.498   2.728  0.00  0.00     0.031 A 
ATOM      6  C   UNL d   1      -4.400   5.470   3.699  0.00  0.00     0.049 A 
ATOM      7  C   UNL d   1      -5.736   5.875   3.874  0.00  0.00     0.032 A 
ATOM      8  C   UNL d   1      -6.768   5.331   3.091  0.00  0.00     0.049 A 
ATOM      9  C   UNL d   1      -6.449   4.367   2.121  0.00  0.00     0.031 A 
BRANCH   6  10
ATOM     10  C   UNL d   1      -3.289   6.065   4.534  0.00  0.00     0.417 C 
ATOM     11  F   UNL d   1      -3.723   7.020   5.404  0.00  0.00    -0.166 F 
ATOM     12  F   UNL d   1      -2.645   5.136   5.291  0.00  0.00    -0.166 F 
ATOM     13  F   UNL d   1      -2.333   6.665   3.773  0.00  0.00    -0.166 F 
ENDBRANCH   6  10
BRANCH   8  14
ATOM     14  C   UNL d   1      -8.205   5.759   3.272  0.00  0.00     0.417 C 
ATOM     15  F   UNL d   1      -8.375   6.704   4.237  0.00  0.00    -0.166 F 
ATOM     16  F   UNL d   1      -8.729   6.288   2.132  0.00  0.00    -0.166 F 
ATOM     17  F   UNL d   1      -9.018   4.723   3.612  0.00  0.00    -0.166 F 
ENDBRANCH   8  14
ENDBRANCH   1   4
BRANCH   1  18
ATOM     18  N   UNL d   1      -5.633   2.757  -0.170  0.00  0.00    -0.286 NA
ATOM     19  H   UNL d   1      -6.014   3.625  -0.533  0.00  0.00     0.125 HD
ATOM     20  H   UNL d   1      -5.202   2.205  -0.906  0.00  0.00     0.125 HD
ENDBRANCH   1  18
BRANCH   2  21
ATOM     21  O   UNL d   1      -3.686   1.064   0.241  0.00  0.00    -0.193 OA
BRANCH  21  22
ATOM     22  C   UNL d   1      -2.384   0.612   0.213  0.00  0.00     0.322 C 
ATOM     23  O   UNL d   1      -1.408   1.349   0.336  0.00  0.00    -0.257 OA
BRANCH  22  24
ATOM     24  C   UNL d   1      -2.312  -0.843   0.037  0.00  0.00     0.090 A 
ATOM     25  C   UNL d   1      -1.162  -1.620  -0.030  0.00  0.00    -0.020 A 
ATOM     26  C   UNL d   1      -1.481  -3.017  -0.061  0.00  0.00     0.030 A 
ATOM     27  C   UNL d   1       0.268  -1.202  -0.012  0.00  0.00     0.051 C 
ATOM     28  C   UNL d   1      -2.817  -3.272  -0.060  0.00  0.00     0.024 A 
ATOM     29  S   UNL d   1      -0.544  -4.484  -0.079  0.00  0.00    -0.092 SA
ATOM     30  S   UNL d   1      -3.748  -1.799  -0.060  0.00  0.00    -0.082 SA
ATOM     31  C   UNL d   1      -3.122  -4.670  -0.050  0.00  0.00     0.035 A 
ATOM     32  C   UNL d   1      -1.976  -5.452  -0.041  0.00  0.00    -0.008 A 
BRANCH  32  33
ATOM     33  C   UNL d   1      -1.843  -6.986  -0.005  0.00  0.00    -0.018 C 
ATOM     34  C   UNL d   1      -1.116  -7.434   1.281  0.00  0.00     0.020 C 
ATOM     35  C   UNL d   1      -3.224  -7.675  -0.020  0.00  0.00     0.020 C 
ATOM     36  C   UNL d   1      -1.060  -7.489  -1.236  0.00  0.00     0.020 C 
ENDBRANCH  32  33
ENDBRANCH  22  24
ENDBRANCH  21  22
ENDBRANCH   2  21
TORSDOF 8
