REMARK  5 active torsions:
REMARK  status: ('A' for Active; 'I' for Inactive)
REMARK    1  A    between atoms: C_2  and  N_1 
REMARK       I    between atoms: C_3  and  N_11 
REMARK    2  A    between atoms: C_8  and  C_3 
REMARK    3  A    between atoms: N_11  and  N_4 
REMARK    4  A    between atoms: C_9  and  C_10 
REMARK    5  A    between atoms: C_18  and  C_19 
ROOT
ATOM      1  C   UNL d   1       2.831  -5.974  -3.189  0.00  0.00     0.270 C 
ATOM      2  N   UNL d   1       3.523  -5.806  -4.386  0.00  0.00    -0.266 N 
ATOM      3  O   UNL d   1       1.680  -6.388  -3.089  0.00  0.00    -0.266 OA
ATOM      4  H   UNL d   1       4.420  -5.338  -4.413  0.00  0.00     0.190 HD
ENDROOT
BRANCH   2   5
ATOM      5  N   UNL d   1       2.927  -6.177  -5.554  0.00  0.00    -0.308 N 
ATOM      6  C   UNL d   1       3.601  -6.000  -6.645  0.00  0.00     0.118 C 
ATOM      7  HN  UNL d   1       1.990  -6.578  -5.568  1.00  0.00     0.186 HD
BRANCH   6   8
ATOM      8  C   UNL d   1       3.016  -6.377  -7.952  0.00  0.00    -0.017 A 
ATOM      9  C   UNL d   1       3.748  -6.184  -9.126  0.00  0.00     0.048 A 
ATOM     10  C   UNL d   1       3.164  -6.529 -10.356  0.00  0.00     0.103 A 
ATOM     11  C   UNL d   1       1.870  -7.068 -10.415  0.00  0.00     0.036 A 
ATOM     12  C   UNL d   1       1.154  -7.264  -9.235  0.00  0.00     0.003 A 
ATOM     13  C   UNL d   1       1.724  -6.919  -8.009  0.00  0.00     0.013 A 
BRANCH  10  14
ATOM     14  N   UNL d   1       3.911  -6.316 -11.603  0.00  0.00    -0.116 N 
ATOM     15  O   UNL d   1       5.045  -5.824 -11.512  0.00  0.00    -0.532 OA
ATOM     16  O   UNL d   1       3.367  -6.638 -12.667  0.00  0.00    -0.532 OA
ENDBRANCH  10  14
ENDBRANCH   6   8
ENDBRANCH   2   5
BRANCH   1  17
ATOM     17  C   UNL d   1       3.571  -5.588  -1.955  0.00  0.00     0.033 A 
ATOM     18  C   UNL d   1       2.859  -5.123  -0.845  0.00  0.00     0.017 A 
ATOM     19  C   UNL d   1       3.533  -4.748   0.326  0.00  0.00     0.009 A 
ATOM     20  C   UNL d   1       4.936  -4.834   0.425  0.00  0.00    -0.051 A 
ATOM     21  C   UNL d   1       5.625  -5.344  -0.693  0.00  0.00     0.009 A 
ATOM     22  C   UNL d   1       4.956  -5.719  -1.863  0.00  0.00     0.017 A 
BRANCH  20  23
ATOM     23  C   UNL d   1       5.670  -4.367   1.695  0.00  0.00    -0.024 C 
ATOM     24  C   UNL d   1       7.206  -4.535   1.601  0.00  0.00     0.019 C 
ATOM     25  C   UNL d   1       5.387  -2.868   1.940  0.00  0.00     0.019 C 
ATOM     26  C   UNL d   1       5.205  -5.162   2.934  0.00  0.00     0.019 C 
ENDBRANCH  20  23
ENDBRANCH   1  17
TORSDOF 5
