REMARK  4 active torsions:
REMARK  status: ('A' for Active; 'I' for Inactive)
REMARK    1  A    between atoms: C_10  and  N_6 
REMARK    2  A    between atoms: C_11  and  C_10 
REMARK       I    between atoms: N_14  and  C_11 
REMARK    3  A    between atoms: N_12  and  N_14 
REMARK    4  A    between atoms: C_19  and  C_18 
ROOT
ATOM      1  C   UNL d   1       1.861   0.976   0.294  0.00  0.00     0.276 C 
ENDROOT
BRANCH   1   2
ATOM      2  N   UNL d   1       0.847  -0.027   0.540  0.00  0.00    -0.196 N 
ATOM      3  N   UNL d   1       1.011  -1.345   0.253  0.00  0.00    -0.113 N 
ATOM      4  C   UNL d   1      -0.273  -1.724   0.112  0.00  0.00     0.712 A 
ATOM      5  HN  UNL d   1       1.867  -1.893   0.169  1.00  0.00     0.207 HD
ATOM      6  N   UNL d   1      -1.148  -0.688   0.352  0.00  0.00    -0.115 N 
ATOM      7  N   UNL d   1      -0.753  -2.943  -0.270  0.00  0.00    -0.215 N 
ATOM      8  N   UNL d   1      -0.432   0.379   0.643  0.00  0.00    -0.211 N 
ATOM      9  HN  UNL d   1      -2.166  -0.738   0.311  1.00  0.00     0.207 HD
ATOM     10  HN  UNL d   1      -0.772   1.308   0.891  1.00  0.00     0.210 HD
ATOM     11  C   UNL d   1      -0.324  -4.095   0.534  0.00  0.00     0.141 C 
ATOM     12  C   UNL d   1      -2.174  -2.971  -0.648  0.00  0.00     0.141 C 
ATOM     13  C   UNL d   1      -0.656  -5.413  -0.172  0.00  0.00     0.020 C 
ATOM     14  C   UNL d   1      -2.110  -5.493  -0.630  0.00  0.00     0.003 C 
ATOM     15  C   UNL d   1      -2.517  -4.249  -1.405  0.00  0.00     0.020 C 
ENDBRANCH   1   2
BRANCH   1  16
ATOM     16  C   UNL d   1       3.257   0.684   0.766  0.00  0.00     0.257 C 
ATOM     17  N   UNL d   1       3.656  -0.637   0.750  0.00  0.00    -0.269 N 
ATOM     18  H   UNL d   1       2.980  -1.368   0.507  0.00  0.00     0.190 HD
ATOM     19  O   UNL d   1       4.018   1.628   1.006  0.00  0.00    -0.270 OA
BRANCH  17  20
ATOM     20  N   UNL d   1       4.984  -0.890   0.564  0.00  0.00    -0.308 N 
ATOM     21  C   UNL d   1       5.307  -2.128   0.390  0.00  0.00     0.118 C 
ATOM     22  HN  UNL d   1       5.680  -0.145   0.563  1.00  0.00     0.186 HD
BRANCH  21  23
ATOM     23  C   UNL d   1       6.663  -2.486  -0.072  0.00  0.00    -0.017 A 
ATOM     24  C   UNL d   1       7.643  -1.505  -0.223  0.00  0.00     0.030 A 
ATOM     25  C   UNL d   1       8.833  -1.876  -0.817  0.00  0.00     0.088 A 
ATOM     26  N   UNL d   1       9.095  -3.130  -1.247  0.00  0.00    -0.375 N 
ATOM     27  C   UNL d   1       8.129  -4.058  -1.069  0.00  0.00     0.088 A 
ATOM     28  HN  UNL d   1       9.984  -3.366  -1.688  1.00  0.00     0.164 HD
ATOM     29  C   UNL d   1       6.906  -3.792  -0.482  0.00  0.00     0.030 A 
ENDBRANCH  21  23
ENDBRANCH  17  20
ENDBRANCH   1  16
TORSDOF 4
