REMARK  5 active torsions:
REMARK  status: ('A' for Active; 'I' for Inactive)
REMARK    1  A    between atoms: C_2  and  S_1 
REMARK    2  A    between atoms: N_3  and  S_1 
REMARK    3  A    between atoms: C_6  and  N_3 
REMARK    4  A    between atoms: C_4  and  C_8 
REMARK    5  A    between atoms: C_5  and  C_9 
ROOT
ATOM      1  S   UNL d   1       1.055   0.076  -0.049  0.00  0.00     0.265 S 
ATOM      2  O   UNL d   1       0.478   1.235  -0.691  0.00  0.00    -0.200 OA
ATOM      3  O   UNL d   1       2.493  -0.052   0.090  0.00  0.00    -0.200 OA
ENDROOT
BRANCH   1   4
ATOM      4  C   UNL d   1       0.473  -1.353  -0.927  0.00  0.00     0.102 A 
ATOM      5  C   UNL d   1       1.424  -2.236  -1.473  0.00  0.00     0.043 A 
ATOM      6  C   UNL d   1       1.024  -3.334  -2.252  0.00  0.00     0.049 A 
ATOM      7  C   UNL d   1      -0.345  -3.542  -2.470  0.00  0.00     0.018 A 
ATOM      8  C   UNL d   1      -1.290  -2.665  -1.929  0.00  0.00     0.026 A 
ATOM      9  C   UNL d   1      -0.888  -1.561  -1.165  0.00  0.00     0.057 A 
ATOM     10 CL   UNL d   1      -2.141  -0.537  -0.563  0.00  0.00    -0.083 Cl
BRANCH   6  11
ATOM     11  C   UNL d   1       2.037  -4.272  -2.871  0.00  0.00     0.417 C 
ATOM     12  F   UNL d   1       3.326  -3.935  -2.599  0.00  0.00    -0.166 F 
ATOM     13  F   UNL d   1       1.883  -5.553  -2.439  0.00  0.00    -0.166 F 
ATOM     14  F   UNL d   1       1.938  -4.318  -4.228  0.00  0.00    -0.166 F 
ENDBRANCH   6  11
ENDBRANCH   1   4
BRANCH   1  15
ATOM     15  N   UNL d   1       0.386  -0.035   1.494  0.00  0.00    -0.277 N 
ATOM     16  H   UNL d   1      -0.605   0.215   1.498  0.00  0.00     0.179 HD
BRANCH  15  17
ATOM     17  C   UNL d   1       0.788  -1.087   2.370  0.00  0.00     0.082 A 
ATOM     18  C   UNL d   1       1.962  -0.949   3.113  0.00  0.00     0.049 A 
ATOM     19  C   UNL d   1       2.323  -1.925   4.061  0.00  0.00     0.050 A 
ATOM     20  C   UNL d   1       1.506  -3.059   4.219  0.00  0.00     0.019 A 
ATOM     21  C   UNL d   1       0.355  -3.215   3.446  0.00  0.00     0.045 A 
ATOM     22  C   UNL d   1       0.002  -2.229   2.532  0.00  0.00     0.143 A 
ATOM     23  F   UNL d   1      -1.124  -2.378   1.823  0.00  0.00    -0.204 F 
BRANCH  19  24
ATOM     24  C   UNL d   1       3.543  -1.754   4.937  0.00  0.00     0.417 C 
ATOM     25  F   UNL d   1       4.269  -0.638   4.658  0.00  0.00    -0.166 F 
ATOM     26  F   UNL d   1       3.216  -1.668   6.256  0.00  0.00    -0.166 F 
ATOM     27  F   UNL d   1       4.406  -2.802   4.835  0.00  0.00    -0.166 F 
ENDBRANCH  19  24
ENDBRANCH  15  17
ENDBRANCH   1  15
TORSDOF 5
