REMARK  3 active torsions:
REMARK  status: ('A' for Active; 'I' for Inactive)
REMARK    1  A    between atoms: N_2  and  C_1 
REMARK    2  A    between atoms: N_4  and  N_2 
REMARK    3  A    between atoms: C_6  and  N_4 
ROOT
ATOM      1  N   UNL d   1       1.027   2.099   1.378  0.00  0.00    -0.204 NA
ATOM      2  H   UNL d   1       0.621   2.253   0.448  0.00  0.00     0.153 HD
ENDROOT
BRANCH   1   3
ATOM      3  N   UNL d   1       2.403   2.408   1.335  0.00  0.00    -0.293 N 
ATOM      4  H   UNL d   1       2.843   2.729   2.195  0.00  0.00     0.183 HD
BRANCH   3   5
ATOM      5  C   UNL d   1       3.127   2.307   0.186  0.00  0.00     0.180 C 
ATOM      6  S   UNL d   1       4.701   2.819   0.091  0.00  0.00    -0.040 SA
ATOM      7  N   UNL d   1       2.491   1.790  -0.895  0.00  0.00    -0.375 N 
ATOM      8  H   UNL d   1       1.802   1.073  -0.707  0.00  0.00     0.158 HD
ATOM      9  H   UNL d   1       3.083   1.604  -1.695  0.00  0.00     0.158 HD
ENDBRANCH   3   5
ENDBRANCH   1   3
BRANCH   1  10
ATOM     10  C   UNL d   1       0.317   2.970   2.254  0.00  0.00     0.027 A 
ATOM     11  C   UNL d   1       0.563   4.352   2.299  0.00  0.00     0.028 A 
ATOM     12  C   UNL d   1      -0.218   5.187   3.100  0.00  0.00     0.044 A 
ATOM     13  C   UNL d   1      -1.261   4.644   3.841  0.00  0.00     0.116 A 
ATOM     14  C   UNL d   1      -1.545   3.286   3.785  0.00  0.00     0.044 A 
ATOM     15  F   UNL d   1      -2.014   5.446   4.604  0.00  0.00    -0.206 F 
ATOM     16  C   UNL d   1      -0.764   2.452   2.979  0.00  0.00     0.028 A 
ENDBRANCH   1  10
TORSDOF 3
