REMARK  4 active torsions:
REMARK  status: ('A' for Active; 'I' for Inactive)
REMARK    1  A    between atoms: C_6  and  C_1 
REMARK    2  A    between atoms: N_4  and  C_2 
REMARK       I    between atoms: C_3  and  N_4 
REMARK    3  A    between atoms: C_5  and  C_3 
REMARK    4  A    between atoms: O_13  and  C_6 
ROOT
ATOM      1  C   UNL d   1       2.945   2.857   0.019  0.00  0.00     0.257 C 
ATOM      2  N   UNL d   1       2.685   1.530  -0.260  0.00  0.00    -0.321 N 
ATOM      3  O   UNL d   1       2.099   3.733   0.175  0.00  0.00    -0.267 OA
ATOM      4  H   UNL d   1       3.459   0.884  -0.157  0.00  0.00     0.169 HD
ENDROOT
BRANCH   2   5
ATOM      5  C   UNL d   1       1.426   0.927  -0.327  0.00  0.00     0.058 C 
ATOM      6  C   UNL d   1       0.198   1.477  -0.659  0.00  0.00     0.106 C 
ATOM      7  S   UNL d   1      -1.082   0.347  -0.413  0.00  0.00    -0.094 SA
ATOM      8  C   UNL d   1       0.002  -0.911  -0.034  0.00  0.00     0.053 C 
ATOM      9  C   UNL d   1       1.306  -0.476  -0.040  0.00  0.00     0.038 C 
BRANCH   6  10
ATOM     10  C   UNL d   1      -0.164   2.762  -1.217  0.00  0.00     0.302 C 
ATOM     11  O   UNL d   1      -1.200   3.383  -0.997  0.00  0.00    -0.259 OA
BRANCH  10  12
ATOM     12  O   UNL d   1       0.777   3.132  -2.132  0.00  0.00    -0.322 OA
ATOM     13  C   UNL d   1       0.665   4.452  -2.659  0.00  0.00     0.213 C 
ENDBRANCH  10  12
ENDBRANCH   6  10
ENDBRANCH   2   5
BRANCH   1  14
ATOM     14  C   UNL d   1       4.385   3.236   0.185  0.00  0.00     0.054 A 
ATOM     15  C   UNL d   1       5.397   2.389   0.668  0.00  0.00     0.049 A 
ATOM     16 CL   UNL d   1       5.150   0.734   1.109  0.00  0.00    -0.083 Cl
ATOM     17  C   UNL d   1       6.698   2.880   0.856  0.00  0.00     0.025 A 
ATOM     18  C   UNL d   1       7.004   4.209   0.568  0.00  0.00     0.002 A 
ATOM     19  C   UNL d   1       6.015   5.054   0.079  0.00  0.00     0.001 A 
ATOM     20  C   UNL d   1       4.716   4.573  -0.111  0.00  0.00     0.019 A 
ENDBRANCH   1  14
TORSDOF 4
