REMARK  9 active torsions:
REMARK  status: ('A' for Active; 'I' for Inactive)
REMARK    1  A    between atoms: C_2  and  N_1 
REMARK    2  A    between atoms: S_10  and  C_3 
REMARK    3  A    between atoms: S_12  and  C_7 
REMARK    4  A    between atoms: C_15  and  S_10 
REMARK    5  A    between atoms: C_16  and  S_12 
REMARK    6  A    between atoms: O_13  and  C_18 
REMARK    7  A    between atoms: O_14  and  C_17 
REMARK    8  A    between atoms: C_18  and  C_15 
REMARK    9  A    between atoms: C_17  and  C_16 
ROOT
ATOM      1  C   UNL d   1       0.373  -0.182   1.273  0.00  0.00     0.136 A 
ATOM      2  C   UNL d   1      -0.747  -0.983   1.084  0.00  0.00     0.104 A 
ATOM      3  N   UNL d   1      -1.486  -1.395   2.143  0.00  0.00    -0.343 N 
ATOM      4  HN  UNL d   1      -2.299  -1.993   2.002  1.00  0.00     0.167 HD
ATOM      5  C   UNL d   1       0.748   0.214   2.561  0.00  0.00     0.042 A 
ATOM      6  C   UNL d   1      -1.132  -1.004   3.389  0.00  0.00     0.070 A 
ATOM      7  C   UNL d   1      -0.027  -0.201   3.638  0.00  0.00     0.039 A 
ENDROOT
BRANCH   2   8
ATOM      8  S   UNL d   1      -1.289  -1.613  -0.496  0.00  0.00    -0.108 SA
BRANCH   8   9
ATOM      9  C   UNL d   1      -3.069  -1.916  -0.179  0.00  0.00     0.107 C 
BRANCH   9  10
ATOM     10  C   UNL d   1      -3.856  -0.631   0.065  0.00  0.00     0.174 C 
BRANCH  10  11
ATOM     11  O   UNL d   1      -5.240  -0.946   0.210  0.00  0.00    -0.400 OA
ATOM     12  H   UNL d   1      -5.709  -0.102   0.335  0.00  0.00     0.209 HD
ENDBRANCH  10  11
ENDBRANCH   9  10
ENDBRANCH   8   9
ENDBRANCH   2   8
BRANCH   1  13
ATOM     13  N   UNL d   1       1.158   0.300   0.165  0.00  0.00    -0.113 N 
ATOM     14  O   UNL d   1       0.581   1.013  -0.670  0.00  0.00    -0.532 OA
ATOM     15  O   UNL d   1       2.365   0.035   0.173  0.00  0.00    -0.532 OA
ENDBRANCH   1  13
BRANCH   6  16
ATOM     16  S   UNL d   1      -2.165  -1.521   4.737  0.00  0.00    -0.110 SA
BRANCH  16  17
ATOM     17  C   UNL d   1      -2.762  -3.135   4.102  0.00  0.00     0.107 C 
BRANCH  17  18
ATOM     18  C   UNL d   1      -1.642  -4.157   3.904  0.00  0.00     0.174 C 
BRANCH  18  19
ATOM     19  O   UNL d   1      -0.989  -4.441   5.138  0.00  0.00    -0.400 OA
ATOM     20  H   UNL d   1      -0.249  -5.040   4.939  0.00  0.00     0.209 HD
ENDBRANCH  18  19
ENDBRANCH  17  18
ENDBRANCH  16  17
ENDBRANCH   6  16
TORSDOF 9
