REMARK  5 active torsions:
REMARK  status: ('A' for Active; 'I' for Inactive)
REMARK    1  A    between atoms: C_5  and  N_1 
REMARK    2  A    between atoms: C_4  and  C_2 
REMARK    3  A    between atoms: C_10  and  C_2 
REMARK    4  A    between atoms: C_3  and  C_8 
REMARK    5  A    between atoms: O_12  and  C_4 
ROOT
ATOM      1  C   UNL d   1       1.653  -0.524   5.062  0.00  0.00     0.048 C 
ATOM      2  C   UNL d   1       0.413  -1.011   4.851  0.00  0.00     0.030 C 
ENDROOT
BRANCH   1   3
ATOM      3  C   UNL d   1       2.498  -0.123   3.893  0.00  0.00     0.177 C 
ATOM      4  O   UNL d   1       3.711  -0.235   3.869  0.00  0.00    -0.646 OA
BRANCH   3   5
ATOM      5  O   UNL d   1       1.804   0.399   2.857  0.00  0.00    -0.773 OA
ATOM      6  H   UNL d   1       0.873   0.608   3.046  0.00  0.00     0.167 HD
ENDBRANCH   3   5
ENDBRANCH   1   3
BRANCH   1   7
ATOM      7  C   UNL d   1       2.267  -0.521   6.404  0.00  0.00    -0.019 A 
ATOM      8  C   UNL d   1       2.951  -1.656   6.861  0.00  0.00     0.012 A 
ATOM      9  C   UNL d   1       3.531  -1.667   8.130  0.00  0.00     0.001 A 
ATOM     10  C   UNL d   1       3.431  -0.544   8.951  0.00  0.00     0.000 A 
ATOM     11  C   UNL d   1       2.760   0.592   8.500  0.00  0.00     0.001 A 
ATOM     12  C   UNL d   1       2.179   0.606   7.229  0.00  0.00     0.012 A 
ENDBRANCH   1   7
BRANCH   2  13
ATOM     13  C   UNL d   1      -0.530  -1.499   5.864  0.00  0.00    -0.033 A 
ATOM     14  C   UNL d   1      -0.742  -2.876   5.992  0.00  0.00     0.047 A 
ATOM     15  C   UNL d   1      -1.731  -3.347   6.867  0.00  0.00     0.103 A 
ATOM     16  C   UNL d   1      -2.499  -2.455   7.625  0.00  0.00     0.036 A 
ATOM     17  C   UNL d   1      -2.268  -1.083   7.512  0.00  0.00     0.003 A 
ATOM     18  C   UNL d   1      -1.289  -0.607   6.634  0.00  0.00     0.011 A 
BRANCH  15  19
ATOM     19  N   UNL d   1      -1.988  -4.789   6.957  0.00  0.00    -0.116 N 
ATOM     20  O   UNL d   1      -1.290  -5.544   6.266  0.00  0.00    -0.532 OA
ATOM     21  O   UNL d   1      -2.897  -5.166   7.711  0.00  0.00    -0.532 OA
ENDBRANCH  15  19
ENDBRANCH   2  13
TORSDOF 5
