REMARK  5 active torsions:
REMARK  status: ('A' for Active; 'I' for Inactive)
REMARK    1  A    between atoms: C_21  and  C_5 
REMARK    2  A    between atoms: C_6  and  C_22 
REMARK    3  A    between atoms: N_11  and  N_13 
REMARK    4  A    between atoms: C_27  and  C_15 
REMARK    5  A    between atoms: C_28  and  C_16 
ROOT
ATOM      1  N   UNL d   1       3.890  -3.436  -0.161  0.00  0.00    -0.304 N 
ATOM      2  HN  UNL d   1       4.380  -2.647  -0.582  1.00  0.00     0.186 HD
ATOM      3  C   UNL d   1       4.475  -4.553   0.162  0.00  0.00     0.032 C 
ATOM      4  C   UNL d   1       3.742  -5.663   0.908  0.00  0.00     0.070 C 
ENDROOT
BRANCH   1   5
ATOM      5  N   UNL d   1       2.525  -3.429   0.127  0.00  0.00    -0.304 N 
ATOM      6  C   UNL d   1       1.934  -2.287  -0.008  0.00  0.00     0.032 C 
ATOM      7  C   UNL d   1       2.682  -0.990  -0.290  0.00  0.00     0.070 C 
ATOM      8  HN  UNL d   1       2.027  -4.268   0.424  1.00  0.00     0.186 HD
BRANCH   6   9
ATOM      9  C   UNL d   1       0.423  -2.193   0.126  0.00  0.00    -0.006 A 
ATOM     10  C   UNL d   1      -0.119  -0.991   0.618  0.00  0.00     0.022 A 
ATOM     11  C   UNL d   1      -1.511  -0.744   0.711  0.00  0.00    -0.042 A 
ATOM     12  C   UNL d   1      -2.393  -1.723   0.225  0.00  0.00    -0.043 A 
ATOM     13  C   UNL d   1      -2.005   0.586   1.291  0.00  0.00    -0.020 C 
ATOM     14  C   UNL d   1      -1.845  -2.950  -0.202  0.00  0.00     0.016 A 
ATOM     15  C   UNL d   1      -3.913  -1.524   0.166  0.00  0.00    -0.020 C 
ATOM     16  C   UNL d   1      -0.460  -3.220  -0.243  0.00  0.00    -0.046 A 
ATOM     17  C   UNL d   1      -4.584  -2.481   1.176  0.00  0.00     0.020 C 
ATOM     18  C   UNL d   1      -4.459  -1.841  -1.248  0.00  0.00     0.020 C 
ATOM     19  C   UNL d   1      -4.327  -0.067   0.473  0.00  0.00     0.015 C 
ATOM     20  C   UNL d   1      -3.519   0.541   1.605  0.00  0.00     0.015 C 
ATOM     21  C   UNL d   1      -1.702   1.714   0.280  0.00  0.00     0.020 C 
ATOM     22  C   UNL d   1      -1.299   0.921   2.627  0.00  0.00     0.020 C 
BRANCH  16  23
ATOM     23  C   UNL d   1      -0.082  -4.598  -0.737  0.00  0.00     0.035 C 
ATOM     24  C   UNL d   1      -0.108  -4.705  -2.255  0.00  0.00     0.010 C 
ENDBRANCH  16  23
ENDBRANCH   6   9
ENDBRANCH   1   5
BRANCH   3  25
ATOM     25  C   UNL d   1       5.885  -4.824  -0.274  0.00  0.00    -0.006 A 
ATOM     26  C   UNL d   1       6.161  -6.144  -0.674  0.00  0.00     0.022 A 
ATOM     27  C   UNL d   1       7.416  -6.566  -1.156  0.00  0.00    -0.042 A 
ATOM     28  C   UNL d   1       7.618  -8.046  -1.493  0.00  0.00    -0.020 C 
ATOM     29  C   UNL d   1       8.413  -5.596  -1.343  0.00  0.00    -0.043 A 
ATOM     30  C   UNL d   1       9.108  -8.374  -1.725  0.00  0.00     0.015 C 
ATOM     31  C   UNL d   1       6.787  -8.392  -2.748  0.00  0.00     0.020 C 
ATOM     32  C   UNL d   1       7.149  -8.952  -0.328  0.00  0.00     0.020 C 
ATOM     33  C   UNL d   1       9.787  -7.344  -2.610  0.00  0.00     0.015 C 
ATOM     34  C   UNL d   1       9.766  -5.925  -1.990  0.00  0.00    -0.020 C 
ATOM     35  C   UNL d   1      10.882  -5.802  -0.931  0.00  0.00     0.020 C 
ATOM     36  C   UNL d   1      10.077  -4.947  -3.148  0.00  0.00     0.020 C 
ATOM     37  C   UNL d   1       8.142  -4.274  -0.919  0.00  0.00     0.016 A 
ATOM     38  C   UNL d   1       6.898  -3.863  -0.382  0.00  0.00    -0.046 A 
BRANCH  38  39
ATOM     39  C   UNL d   1       6.758  -2.404  -0.005  0.00  0.00     0.035 C 
ATOM     40  C   UNL d   1       6.532  -2.148   1.478  0.00  0.00     0.010 C 
ENDBRANCH  38  39
ENDBRANCH   3  25
TORSDOF 5
