REMARK  3 active torsions:
REMARK  status: ('A' for Active; 'I' for Inactive)
REMARK    1  A    between atoms: C_11  and  C_3 
REMARK    2  A    between atoms: C_7  and  C_4 
REMARK    3  A    between atoms: C_8  and  C_14 
ROOT
ATOM      1  N   UNL d   1       1.334  -0.586   0.444  0.00  0.00    -0.349 N 
ATOM      2  HN  UNL d   1       2.117  -1.087   0.866  1.00  0.00     0.166 HD
ATOM      3  C   UNL d   1       0.266  -1.161  -0.077  0.00  0.00     0.084 A 
ATOM      4  C   UNL d   1       1.243   0.797   0.336  0.00  0.00     0.050 A 
ATOM      5  S   UNL d   1      -0.913  -0.058  -0.693  0.00  0.00    -0.081 SA
ATOM      6  C   UNL d   1       0.092   1.255  -0.270  0.00  0.00     0.082 A 
ENDROOT
BRANCH   3   7
ATOM      7  C   UNL d   1       0.013  -2.614  -0.105  0.00  0.00    -0.002 A 
ATOM      8  C   UNL d   1       0.534  -3.434   0.904  0.00  0.00     0.015 A 
ATOM      9  C   UNL d   1       0.266  -4.812   0.924  0.00  0.00     0.010 A 
ATOM     10  C   UNL d   1      -0.520  -5.410  -0.075  0.00  0.00    -0.035 A 
ATOM     11  C   UNL d   1      -1.018  -4.591  -1.098  0.00  0.00     0.010 A 
ATOM     12  C   UNL d   1      -0.749  -3.219  -1.117  0.00  0.00     0.015 A 
BRANCH  10  13
ATOM     13  C   UNL d   1      -0.822  -6.893  -0.018  0.00  0.00     0.141 C 
ATOM     14  S   UNL d   1      -0.363  -7.789  -1.531  0.00  0.00    -0.148 SA
ATOM     15  C   UNL d   1      -1.453  -9.192  -1.212  0.00  0.00     0.085 C 
ATOM     16  C   UNL d   1      -2.799  -8.642  -0.778  0.00  0.00     0.085 C 
ATOM     17  S   UNL d   1      -2.576  -7.238   0.358  0.00  0.00    -0.148 SA
ENDBRANCH  10  13
ENDBRANCH   3   7
BRANCH   4  18
ATOM     18  C   UNL d   1       2.308   1.673   0.813  0.00  0.00    -0.007 A 
ATOM     19  C   UNL d   1       3.635   1.221   0.801  0.00  0.00     0.039 A 
ATOM     20  C   UNL d   1       4.675   2.050   1.240  0.00  0.00     0.056 A 
ATOM     21 CL   UNL d   1       6.285   1.426   1.173  0.00  0.00    -0.083 Cl
ATOM     22  C   UNL d   1       4.393   3.339   1.707  0.00  0.00     0.055 A 
ATOM     23  C   UNL d   1       3.072   3.793   1.731  0.00  0.00     0.026 A 
ATOM     24 CL   UNL d   1       5.622   4.417   2.265  0.00  0.00    -0.083 Cl
ATOM     25  C   UNL d   1       2.037   2.965   1.288  0.00  0.00     0.015 A 
ENDBRANCH   4  18
TORSDOF 3
