REMARK  2 active torsions:
REMARK  status: ('A' for Active; 'I' for Inactive)
REMARK    1  A    between atoms: C_5  and  C_1 
REMARK    2  A    between atoms: O_11  and  C_10 
ROOT
ATOM      1  C   UNL d   1      -3.395  -1.438  -0.046  0.00  0.00     0.100 C 
ATOM      2  C   UNL d   1      -4.511  -0.555  -0.058  0.00  0.00     0.104 C 
ATOM      3  N   UNL d   1      -5.457   0.117  -0.069  0.00  0.00    -0.191 NA
ATOM      4  C   UNL d   1      -3.606  -2.770  -0.062  0.00  0.00     0.156 C 
ENDROOT
BRANCH   1   5
ATOM      5  C   UNL d   1      -2.045  -0.943  -0.024  0.00  0.00     0.098 A 
ATOM      6  N   UNL d   1      -0.943  -1.674  -0.010  0.00  0.00    -0.348 N 
ATOM      7  C   UNL d   1       0.194  -0.879  -0.004  0.00  0.00     0.050 A 
ATOM      8  HN  UNL d   1      -0.930  -2.694  -0.004  1.00  0.00     0.166 HD
ATOM      9  C   UNL d   1       1.526  -1.340   0.004  0.00  0.00     0.031 A 
ATOM     10  C   UNL d   1      -0.038   0.493  -0.008  0.00  0.00     0.033 A 
ATOM     11  C   UNL d   1       2.581  -0.421   0.002  0.00  0.00     0.002 A 
ATOM     12  C   UNL d   1       2.325   0.946  -0.004  0.00  0.00     0.002 A 
ATOM     13  C   UNL d   1       1.012   1.427  -0.008  0.00  0.00     0.021 A 
ATOM     14  S   UNL d   1      -1.730   0.770  -0.015  0.00  0.00    -0.069 SA
ENDBRANCH   1   5
BRANCH   4  15
ATOM     15  O   UNL d   1      -4.818  -3.423  -0.087  0.00  0.00    -0.371 OA
ATOM     16  H   UNL d   1      -5.564  -2.794  -0.092  0.00  0.00     0.216 HD
ENDBRANCH   4  15
TORSDOF 2
