REMARK  5 active torsions:
REMARK  status: ('A' for Active; 'I' for Inactive)
REMARK    1  A    between atoms: C_4  and  C_1 
REMARK    2  A    between atoms: C_2  and  C_3 
REMARK    3  A    between atoms: N_6  and  C_10 
REMARK    4  A    between atoms: C_9  and  C_8 
REMARK    5  A    between atoms: O_20  and  C_13 
ROOT
ATOM      1  C   UNL d   1       0.015   1.743  -3.027  0.00  0.00     0.050 A 
ATOM      2  C   UNL d   1       0.692   0.228  -1.239  0.00  0.00     0.050 A 
ATOM      3  C   UNL d   1       0.550   1.528  -1.748  0.00  0.00     0.032 A 
ATOM      4  C   UNL d   1      -0.286  -0.671  -3.294  0.00  0.00     0.033 A 
ATOM      5  C   UNL d   1      -0.403   0.633  -3.783  0.00  0.00     0.045 A 
ATOM      6  C   UNL d   1       0.295  -0.860  -2.035  0.00  0.00     0.045 A 
ENDROOT
BRANCH   4   7
ATOM      7  N   UNL d   1      -0.735  -1.722  -4.113  0.00  0.00    -0.365 N 
ATOM      8  C   UNL d   1      -1.295  -2.754  -3.557  0.00  0.00     0.102 C 
ATOM      9  HN  UNL d   1      -0.624  -1.675  -5.125  1.00  0.00     0.165 HD
BRANCH   8  10
ATOM     10  C   UNL d   1      -1.832  -3.876  -4.354  0.00  0.00     0.012 A 
ATOM     11  C   UNL d   1      -1.896  -3.838  -5.750  0.00  0.00     0.077 A 
ATOM     12  C   UNL d   1      -2.459  -4.899  -6.455  0.00  0.00     0.037 A 
ATOM     13  C   UNL d   1      -2.955  -6.008  -5.765  0.00  0.00     0.003 A 
ATOM     14  C   UNL d   1      -2.883  -6.055  -4.373  0.00  0.00     0.001 A 
ATOM     15  C   UNL d   1      -2.323  -4.991  -3.663  0.00  0.00     0.015 A 
BRANCH  11  16
ATOM     16  O   UNL d   1      -1.436  -2.780  -6.486  0.00  0.00    -0.360 OA
ATOM     17  H   UNL d   1      -1.049  -2.135  -5.852  0.00  0.00     0.217 HD
ENDBRANCH  11  16
ENDBRANCH   8  10
ENDBRANCH   4   7
BRANCH   2  18
ATOM     18  C   UNL d   1       1.237  -0.025   0.145  0.00  0.00     0.417 C 
ATOM     19  F   UNL d   1       1.574   1.110   0.814  0.00  0.00    -0.166 F 
ATOM     20  F   UNL d   1       2.354  -0.802   0.130  0.00  0.00    -0.166 F 
ATOM     21  F   UNL d   1       0.340  -0.675   0.937  0.00  0.00    -0.166 F 
ENDBRANCH   2  18
BRANCH   1  22
ATOM     22  C   UNL d   1      -0.119   3.135  -3.595  0.00  0.00     0.417 C 
ATOM     23  F   UNL d   1       0.304   4.109  -2.742  0.00  0.00    -0.166 F 
ATOM     24  F   UNL d   1       0.599   3.304  -4.738  0.00  0.00    -0.166 F 
ATOM     25  F   UNL d   1      -1.407   3.448  -3.908  0.00  0.00    -0.166 F 
ENDBRANCH   1  22
TORSDOF 5
