REMARK  6 active torsions:
REMARK  status: ('A' for Active; 'I' for Inactive)
REMARK    1  A    between atoms: N_12  and  C_2 
REMARK    2  A    between atoms: C_7  and  C_6 
REMARK    3  A    between atoms: C_18  and  N_12 
REMARK    4  A    between atoms: C_16  and  C_18 
REMARK    5  A    between atoms: C_19  and  C_16 
REMARK    6  A    between atoms: O_17  and  C_19 
ROOT
ATOM      1  C   UNL d   1      -1.366  -0.365  -0.048  0.00  0.00     0.140 C 
ATOM      2  C   UNL d   1      -0.456  -1.365  -0.176  0.00  0.00     0.074 C 
ATOM      3  S   UNL d   1       1.232  -1.023  -0.508  0.00  0.00    -0.086 SA
ATOM      4  C   UNL d   1      -1.024   1.079  -0.021  0.00  0.00     0.265 C 
ATOM      5  N   UNL d   1       0.270   1.479  -0.067  0.00  0.00    -0.338 N 
ATOM      6  C   UNL d   1       1.457   0.681  -0.039  0.00  0.00     0.193 C 
ATOM      7  C   UNL d   1      -2.760  -0.668   0.054  0.00  0.00     0.107 C 
ATOM      8  N   UNL d   1      -3.880  -0.969   0.111  0.00  0.00    -0.191 NA
ATOM      9  O   UNL d   1      -1.897   1.946   0.049  0.00  0.00    -0.267 OA
ATOM     10  H   UNL d   1       0.386   2.482   0.003  0.00  0.00     0.164 HD
ENDROOT
BRANCH   2  11
ATOM     11  N   UNL d   1      -0.789  -2.731  -0.162  0.00  0.00    -0.286 NA
ATOM     12  H   UNL d   1      -1.632  -2.917  -0.708  0.00  0.00     0.128 HD
BRANCH  11  13
ATOM     13  C   UNL d   1      -0.895  -3.450   1.119  0.00  0.00     0.095 C 
BRANCH  13  14
ATOM     14  C   UNL d   1      -0.630  -4.938   0.899  0.00  0.00     0.041 C 
BRANCH  14  15
ATOM     15  C   UNL d   1      -0.678  -5.717   2.209  0.00  0.00     0.168 C 
BRANCH  15  16
ATOM     16  O   UNL d   1      -1.972  -5.578   2.791  0.00  0.00    -0.396 OA
ATOM     17  C   UNL d   1      -2.071  -6.256   4.037  0.00  0.00     0.201 C 
ENDBRANCH  15  16
ENDBRANCH  14  15
ENDBRANCH  13  14
ENDBRANCH  11  13
ENDBRANCH   2  11
BRANCH   6  18
ATOM     18  C   UNL d   1       2.144   0.816   1.292  0.00  0.00     0.015 A 
ATOM     19  S   UNL d   1       3.762   1.408   1.343  0.00  0.00    -0.103 SA
ATOM     20  C   UNL d   1       3.854   1.222   3.037  0.00  0.00     0.050 A 
ATOM     21  C   UNL d   1       2.682   0.734   3.567  0.00  0.00     0.008 A 
ATOM     22  C   UNL d   1       1.694   0.505   2.564  0.00  0.00     0.018 A 
ENDBRANCH   6  18
TORSDOF 6
