REMARK  4 active torsions:
REMARK  status: ('A' for Active; 'I' for Inactive)
REMARK    1  A    between atoms: S_10  and  C_1 
REMARK    2  A    between atoms: C_2  and  S_9 
REMARK    3  A    between atoms: S_9  and  C_15 
REMARK    4  A    between atoms: C_15  and  S_10 
ROOT
ATOM      1  C   UNL d   1      -4.923  -0.198  -0.079  0.00  0.00     0.162 C 
ENDROOT
BRANCH   1   2
ATOM      2  S   UNL d   1      -6.565  -0.977  -0.106  0.00  0.00    -0.094 SA
BRANCH   2   3
ATOM      3  C   UNL d   1      -7.654   0.384  -0.143  0.00  0.00     0.114 A 
ATOM      4  N   UNL d   1      -7.256   1.635  -0.137  0.00  0.00    -0.344 N 
ATOM      5  C   UNL d   1      -8.368   2.471  -0.172  0.00  0.00     0.050 A 
ATOM      6  HN  UNL d   1      -6.284   1.945  -0.110  1.00  0.00     0.167 HD
ATOM      7  C   UNL d   1      -8.351   3.882  -0.178  0.00  0.00     0.031 A 
ATOM      8  C   UNL d   1      -9.605   1.825  -0.206  0.00  0.00     0.034 A 
ATOM      9  C   UNL d   1      -9.556   4.596  -0.217  0.00  0.00     0.002 A 
ATOM     10  C   UNL d   1     -10.775   3.925  -0.250  0.00  0.00     0.002 A 
ATOM     11  C   UNL d   1     -10.820   2.530  -0.244  0.00  0.00     0.021 A 
ATOM     12  S   UNL d   1      -9.348   0.127  -0.191  0.00  0.00    -0.063 SA
ENDBRANCH   2   3
ENDBRANCH   1   2
BRANCH   1  13
ATOM     13  S   UNL d   1      -3.703  -1.548  -0.066  0.00  0.00    -0.094 SA
BRANCH  13  14
ATOM     14  C   UNL d   1      -2.184  -0.695  -0.015  0.00  0.00     0.114 A 
ATOM     15  N   UNL d   1      -2.095   0.614  -0.006  0.00  0.00    -0.344 N 
ATOM     16  C   UNL d   1      -0.757   0.984   0.038  0.00  0.00     0.050 A 
ATOM     17  HN  UNL d   1      -2.886   1.258  -0.028  1.00  0.00     0.167 HD
ATOM     18  C   UNL d   1      -0.261   2.304   0.060  0.00  0.00     0.031 A 
ATOM     19  C   UNL d   1       0.159  -0.070   0.062  0.00  0.00     0.034 A 
ATOM     20  C   UNL d   1       1.121   2.530   0.105  0.00  0.00     0.002 A 
ATOM     21  C   UNL d   1       2.011   1.462   0.129  0.00  0.00     0.002 A 
ATOM     22  C   UNL d   1       1.547   0.144   0.107  0.00  0.00     0.021 A 
ATOM     23  S   UNL d   1      -0.703  -1.556   0.028  0.00  0.00    -0.063 SA
ENDBRANCH  13  14
ENDBRANCH   1  13
TORSDOF 4
