REMARK  4 active torsions:
REMARK  status: ('A' for Active; 'I' for Inactive)
REMARK    1  A    between atoms: C_8  and  C_2 
REMARK    2  A    between atoms: C_3  and  C_9 
REMARK    3  A    between atoms: O_10  and  C_3 
REMARK    4  A    between atoms: C_9  and  C_8 
ROOT
ATOM      1  C   UNL d   1      -0.127   2.704   0.034  0.00  0.00     0.056 C 
ENDROOT
BRANCH   1   2
ATOM      2  C   UNL d   1       0.241   1.246   0.040  0.00  0.00    -0.017 A 
ATOM      3  S   UNL d   1       1.085   0.564   1.368  0.00  0.00    -0.106 SA
ATOM      4  C   UNL d   1       1.103  -0.984   0.646  0.00  0.00     0.050 A 
ATOM      5  C   UNL d   1       0.456  -0.995  -0.569  0.00  0.00     0.008 A 
ATOM      6  C   UNL d   1      -0.043   0.294  -0.919  0.00  0.00     0.015 A 
ENDBRANCH   1   2
BRANCH   1   7
ATOM      7  C   UNL d   1       1.098   3.612  -0.043  0.00  0.00     0.115 C 
BRANCH   7   8
ATOM      8  C   UNL d   1       0.697   5.063  -0.086  0.00  0.00     0.139 C 
ATOM      9  O   UNL d   1      -0.450   5.479  -0.128  0.00  0.00    -0.650 OA
BRANCH   8  10
ATOM     10  O   UNL d   1       1.766   5.894  -0.081  0.00  0.00    -0.776 OA
ATOM     11  H   UNL d   1       2.625   5.431  -0.044  0.00  0.00     0.167 HD
ENDBRANCH   8  10
ENDBRANCH   7   8
ENDBRANCH   1   7
TORSDOF 4
