REMARK  2 active torsions:
REMARK  status: ('A' for Active; 'I' for Inactive)
REMARK    1  A    between atoms: C_4  and  C_1 
REMARK    2  A    between atoms: O_17  and  C_11 
ROOT
ATOM      1  C   UNL d   1       1.226  -1.460  -0.039  0.00  0.00     0.066 A 
ATOM      2  C   UNL d   1      -0.070  -0.756  -0.005  0.00  0.00     0.015 A 
ATOM      3  C   UNL d   1      -0.059   0.648  -0.010  0.00  0.00     0.093 A 
ATOM      4  O   UNL d   1       1.144   1.382  -0.050  0.00  0.00    -0.275 OA
ATOM      5  C   UNL d   1       2.371   0.751  -0.046  0.00  0.00     0.289 A 
ATOM      6  C   UNL d   1       2.346  -0.715  -0.050  0.00  0.00     0.099 A 
ATOM      7  C   UNL d   1      -1.327  -1.377   0.049  0.00  0.00     0.042 A 
ATOM      8  C   UNL d   1      -1.226   1.417   0.041  0.00  0.00     0.076 A 
ATOM      9  C   UNL d   1      -2.505  -0.619   0.112  0.00  0.00     0.068 A 
ATOM     10  C   UNL d   1      -2.450   0.773   0.112  0.00  0.00     0.090 A 
ATOM     11  O   UNL d   1       3.431   1.361  -0.046  0.00  0.00    -0.260 OA
ATOM     12 CL   UNL d   1      -4.026  -1.428   0.200  0.00  0.00    -0.081 Cl
ENDROOT
BRANCH   1  13
ATOM     13  C   UNL d   1       1.381  -2.954  -0.047  0.00  0.00     0.418 C 
ATOM     14  F   UNL d   1       0.230  -3.663  -0.059  0.00  0.00    -0.166 F 
ATOM     15  F   UNL d   1       2.089  -3.362  -1.135  0.00  0.00    -0.166 F 
ATOM     16  F   UNL d   1       2.078  -3.374   1.042  0.00  0.00    -0.166 F 
ENDBRANCH   1  13
BRANCH  10  17
ATOM     17  O   UNL d   1      -3.571   1.547   0.193  0.00  0.00    -0.359 OA
ATOM     18  H   UNL d   1      -4.337   0.948   0.279  0.00  0.00     0.217 HD
ENDBRANCH  10  17
TORSDOF 2
