REMARK  6 active torsions:
REMARK  status: ('A' for Active; 'I' for Inactive)
REMARK    1  A    between atoms: C_6  and  N_1 
REMARK    2  A    between atoms: C_2  and  C_8 
REMARK    3  A    between atoms: C_18  and  C_3 
REMARK    4  A    between atoms: C_10  and  C_11 
REMARK    5  A    between atoms: C_19  and  C_18 
REMARK    6  A    between atoms: C_20  and  C_19 
ROOT
ATOM      1  C   UNL d   1      -4.609   6.132  -1.341  0.00  0.00     0.051 C 
ATOM      2  C   UNL d   1      -4.415   4.978  -0.665  0.00  0.00     0.001 C 
ATOM      3  C   UNL d   1      -3.530   6.680  -2.113  0.00  0.00     0.100 C 
ATOM      4  N   UNL d   1      -2.659   7.118  -2.736  0.00  0.00    -0.191 NA
ENDROOT
BRANCH   1   5
ATOM      5  C   UNL d   1      -5.914   6.871  -1.331  0.00  0.00    -0.016 A 
ATOM      6  C   UNL d   1      -6.777   6.868  -0.219  0.00  0.00     0.015 A 
ATOM      7  C   UNL d   1      -7.972   7.608  -0.219  0.00  0.00     0.037 A 
ATOM      8  C   UNL d   1      -8.320   8.372  -1.338  0.00  0.00     0.102 A 
ATOM      9  C   UNL d   1      -7.487   8.388  -2.459  0.00  0.00     0.037 A 
ATOM     10  C   UNL d   1      -6.300   7.641  -2.449  0.00  0.00     0.015 A 
BRANCH   8  11
ATOM     11  N   UNL d   1      -9.556   9.168  -1.333  0.00  0.00    -0.116 N 
ATOM     12  O   UNL d   1      -9.824   9.821  -2.349  0.00  0.00    -0.532 OA
ATOM     13  O   UNL d   1     -10.257   9.135  -0.311  0.00  0.00    -0.532 OA
ENDBRANCH   8  11
ENDBRANCH   1   5
BRANCH   2  14
ATOM     14  C   UNL d   1      -3.159   4.098  -0.722  0.00  0.00     0.010 C 
ATOM     15  C   UNL d   1      -3.590   2.622  -0.639  0.00  0.00     0.014 C 
BRANCH  14  16
ATOM     16  C   UNL d   1      -2.107   4.463   0.365  0.00  0.00     0.046 C 
BRANCH  16  17
ATOM     17  C   UNL d   1      -0.847   3.620   0.278  0.00  0.00    -0.058 C 
ATOM     18  C   UNL d   1       0.005   3.708  -0.827  0.00  0.00     0.007 C 
ATOM     19  C   UNL d   1       0.979   2.727  -1.052  0.00  0.00     0.008 C 
ATOM     20  C   UNL d   1       1.105   1.616  -0.196  0.00  0.00    -0.051 C 
ATOM     21  C   UNL d   1       0.402   1.666   1.016  0.00  0.00     0.008 C 
ATOM     22  C   UNL d   1      -0.570   2.650   1.247  0.00  0.00     0.007 C 
BRANCH  20  23
ATOM     23  C   UNL d   1       1.791   0.328  -0.699  0.00  0.00    -0.024 C 
ATOM     24  C   UNL d   1       1.606  -0.884   0.246  0.00  0.00     0.019 C 
ATOM     25  C   UNL d   1       1.114  -0.062  -2.039  0.00  0.00     0.019 C 
ATOM     26  C   UNL d   1       3.301   0.503  -0.935  0.00  0.00     0.019 C 
ENDBRANCH  20  23
ENDBRANCH  16  17
ENDBRANCH  14  16
ENDBRANCH   2  14
TORSDOF 6
