REMARK  2 active torsions:
REMARK  status: ('A' for Active; 'I' for Inactive)
REMARK    1  A    between atoms: S_12  and  C_3 
REMARK    2  A    between atoms: C_14  and  S_12 
ROOT
ATOM      1  C   UNL d   1      -0.202   0.953   0.110  0.00  0.00     0.060 A 
ATOM      2  C   UNL d   1       0.141  -0.388   0.067  0.00  0.00     0.137 A 
ATOM      3  C   UNL d   1      -1.560   1.246   0.053  0.00  0.00     0.091 A 
ATOM      4  N   UNL d   1       2.082   0.795   0.185  0.00  0.00    -0.307 N 
ATOM      5  HN  UNL d   1       3.074   1.027   0.237  1.00  0.00     0.186 HD
ATOM      6  N   UNL d   1       1.509  -0.427   0.096  0.00  0.00    -0.281 N 
ATOM      7  C   UNL d   1       1.034   1.627   0.189  0.00  0.00     0.125 A 
ATOM      8  N   UNL d   1      -0.706  -1.429  -0.011  0.00  0.00    -0.337 N 
ATOM      9  HN  UNL d   1      -0.413  -2.406  -0.036  1.00  0.00     0.168 HD
ATOM     10  N   UNL d   1      -2.459   0.235  -0.026  0.00  0.00    -0.346 N 
ATOM     11  HN  UNL d   1      -3.460   0.423  -0.067  1.00  0.00     0.167 HD
ATOM     12  C   UNL d   1      -1.987  -1.025  -0.051  0.00  0.00     0.183 A 
ATOM     13  C   UNL d   1       2.344  -1.599   0.005  0.00  0.00     0.179 C 
ENDROOT
BRANCH   3  14
ATOM     14  S   UNL d   1      -2.119   2.912  -0.046  0.00  0.00    -0.072 SA
BRANCH  14  15
ATOM     15  C   UNL d   1      -2.534   3.357   1.630  0.00  0.00     0.007 A 
ATOM     16  C   UNL d   1      -2.547   4.725   1.946  0.00  0.00     0.020 A 
ATOM     17  C   UNL d   1      -2.892   5.164   3.228  0.00  0.00     0.025 A 
ATOM     18  C   UNL d   1      -3.230   4.235   4.206  0.00  0.00     0.034 A 
ATOM     19  C   UNL d   1      -3.230   2.874   3.910  0.00  0.00     0.025 A 
ATOM     20 CL   UNL d   1      -3.659   4.770   5.783  0.00  0.00    -0.084 Cl
ATOM     21  C   UNL d   1      -2.889   2.437   2.624  0.00  0.00     0.020 A 
ENDBRANCH  14  15
ENDBRANCH   3  14
TORSDOF 2
