REMARK  5 active torsions:
REMARK  status: ('A' for Active; 'I' for Inactive)
REMARK    1  A    between atoms: C_6  and  C_1 
REMARK    2  A    between atoms: S_7  and  C_2 
REMARK    3  A    between atoms: C_13  and  S_7 
REMARK    4  A    between atoms: C_12  and  C_15 
REMARK    5  A    between atoms: C_17  and  C_13 
ROOT
ATOM      1  C   UNL d   1      -0.182   0.998   0.084  0.00  0.00     0.177 A 
ATOM      2  C   UNL d   1      -0.326  -1.139   0.119  0.00  0.00     0.211 A 
ATOM      3  O   UNL d   1      -1.110  -0.012   0.188  0.00  0.00    -0.267 OA
ATOM      4  N   UNL d   1       1.044   0.530  -0.028  0.00  0.00    -0.277 N 
ATOM      5  HN  UNL d   1       1.899   1.080  -0.110  1.00  0.00     0.189 HD
ATOM      6  N   UNL d   1       0.951  -0.849  -0.013  0.00  0.00    -0.272 N 
ATOM      7  HN  UNL d   1       1.722  -1.512  -0.090  1.00  0.00     0.189 HD
ENDROOT
BRANCH   1   8
ATOM      8  C   UNL d   1      -0.682   2.377   0.065  0.00  0.00     0.039 A 
ATOM      9  C   UNL d   1       0.142   3.475  -0.219  0.00  0.00     0.020 A 
ATOM     10  N   UNL d   1      -0.314   4.763  -0.234  0.00  0.00    -0.355 N 
ATOM     11  C   UNL d   1       1.602   3.340  -0.552  0.00  0.00     0.069 C 
ATOM     12  C   UNL d   1      -1.625   5.012   0.027  0.00  0.00     0.117 A 
ATOM     13  HN  UNL d   1       0.323   5.532  -0.440  1.00  0.00     0.166 HD
ATOM     14  C   UNL d   1      -2.510   3.974   0.300  0.00  0.00     0.035 A 
ATOM     15  C   UNL d   1      -2.034   2.659   0.320  0.00  0.00     0.020 A 
BRANCH  12  16
ATOM     16  C   UNL d   1      -2.133   6.449   0.029  0.00  0.00     0.432 C 
ATOM     17  F   UNL d   1      -1.181   7.387  -0.239  0.00  0.00    -0.165 F 
ATOM     18  F   UNL d   1      -3.123   6.654  -0.890  0.00  0.00    -0.165 F 
ATOM     19  F   UNL d   1      -2.677   6.807   1.230  0.00  0.00    -0.165 F 
ENDBRANCH  12  16
ENDBRANCH   1   8
BRANCH   2  20
ATOM     20  S   UNL d   1      -0.976  -2.742  -0.038  0.00  0.00    -0.002 SA
BRANCH  20  21
ATOM     21  C   UNL d   1      -0.665  -3.328   1.589  0.00  0.00     0.227 C 
ATOM     22  O   UNL d   1      -0.674  -2.574   2.551  0.00  0.00    -0.279 OA
BRANCH  21  23
ATOM     23  C   UNL d   1      -0.503  -4.811   1.786  0.00  0.00     0.021 A 
ATOM     24  C   UNL d   1      -0.530  -5.299   3.105  0.00  0.00     0.018 A 
ATOM     25  C   UNL d   1      -0.429  -6.672   3.368  0.00  0.00     0.025 A 
ATOM     26  C   UNL d   1      -0.293  -7.570   2.314  0.00  0.00     0.034 A 
ATOM     27  C   UNL d   1      -0.240  -7.105   1.002  0.00  0.00     0.025 A 
ATOM     28 CL   UNL d   1      -0.196  -9.258   2.630  0.00  0.00    -0.084 Cl
ATOM     29  C   UNL d   1      -0.341  -5.731   0.738  0.00  0.00     0.018 A 
ENDBRANCH  21  23
ENDBRANCH  20  21
ENDBRANCH   2  20
TORSDOF 5
