REMARK  5 active torsions:
REMARK  status: ('A' for Active; 'I' for Inactive)
REMARK    1  A    between atoms: C_5  and  N_1 
REMARK    2  A    between atoms: C_2  and  N_3 
REMARK    3  A    between atoms: N_4  and  C_2 
REMARK    4  A    between atoms: C_7  and  N_4 
REMARK    5  A    between atoms: N_6  and  C_8 
ROOT
ATOM      1  N   UNL d   1      -1.633  -4.586  -5.967  0.00  0.00    -0.355 N 
ATOM      2  N   UNL d   1      -2.113  -2.818  -3.730  0.00  0.00    -0.364 N 
ATOM      3  C   UNL d   1      -1.514  -5.098  -4.592  0.00  0.00     0.145 C 
ATOM      4  C   UNL d   1      -1.347  -3.147  -6.091  0.00  0.00     0.145 C 
ATOM      5  C   UNL d   1      -2.178  -2.305  -5.114  0.00  0.00     0.144 C 
ATOM      6  C   UNL d   1      -2.368  -4.269  -3.607  0.00  0.00     0.144 C 
ENDROOT
BRANCH   1   7
ATOM      7  C   UNL d   1      -2.073  -5.381  -7.009  0.00  0.00     0.174 C 
ATOM      8  S   UNL d   1      -3.224  -4.910  -8.127  0.00  0.00    -0.041 SA
BRANCH   7   9
ATOM      9  N   UNL d   1      -1.593  -6.666  -7.068  0.00  0.00    -0.333 N 
ATOM     10  H   UNL d   1      -2.148  -7.304  -7.629  0.00  0.00     0.168 HD
BRANCH   9  11
ATOM     11  C   UNL d   1      -0.274  -7.090  -6.766  0.00  0.00     0.040 A 
ATOM     12  C   UNL d   1       0.773  -6.156  -6.735  0.00  0.00     0.037 A 
ATOM     13  C   UNL d   1       2.079  -6.500  -6.376  0.00  0.00    -0.054 A 
ATOM     14  C   UNL d   1       3.135  -5.428  -6.361  0.00  0.00     0.049 C 
ATOM     15  C   UNL d   1       2.347  -7.824  -6.006  0.00  0.00    -0.056 A 
ATOM     16  C   UNL d   1       1.326  -8.782  -6.128  0.00  0.00     0.016 A 
ATOM     17  C   UNL d   1       3.703  -8.233  -5.506  0.00  0.00     0.049 C 
ATOM     18  C   UNL d   1       0.020  -8.438  -6.529  0.00  0.00    -0.035 A 
ATOM     19  C   UNL d   1      -0.989  -9.551  -6.611  0.00  0.00     0.050 C 
ENDBRANCH   9  11
ENDBRANCH   7   9
ENDBRANCH   1   7
BRANCH   2  20
ATOM     20  C   UNL d   1      -1.183  -2.243  -2.873  0.00  0.00     0.103 A 
ATOM     21  C   UNL d   1      -1.354  -2.364  -1.488  0.00  0.00     0.051 A 
ATOM     22  C   UNL d   1      -0.511  -1.691  -0.601  0.00  0.00     0.041 A 
ATOM     23  C   UNL d   1       0.506  -0.902  -1.127  0.00  0.00     0.118 A 
ATOM     24  C   UNL d   1       0.643  -0.834  -2.502  0.00  0.00     0.125 A 
ATOM     25  N   UNL d   1      -0.181  -1.480  -3.372  0.00  0.00    -0.350 N 
ATOM     26  HN  UNL d   1      -0.047  -1.392  -4.379  1.00  0.00     0.166 HD
BRANCH  23  27
ATOM     27  N   UNL d   1       1.393  -0.140  -0.258  0.00  0.00    -0.114 N 
ATOM     28  O   UNL d   1       2.301   0.509  -0.791  0.00  0.00    -0.532 OA
ATOM     29  O   UNL d   1       1.182  -0.189   0.963  0.00  0.00    -0.532 OA
ENDBRANCH  23  27
ENDBRANCH   2  20
TORSDOF 5
