REMARK  6 active torsions:
REMARK  status: ('A' for Active; 'I' for Inactive)
REMARK    1  A    between atoms: N_3  and  S_1 
REMARK    2  A    between atoms: C_9  and  S_1 
REMARK    3  A    between atoms: C_2  and  N_3 
REMARK    4  A    between atoms: C_7  and  C_4 
REMARK    5  A    between atoms: O_15  and  C_7 
REMARK    6  A    between atoms: C_20  and  O_15 
ROOT
ATOM      1  N   UNL d   1       0.758  -1.065  -0.995  0.00  0.00    -0.174 NA
ATOM      2  H   UNL d   1       1.454  -0.591  -0.409  0.00  0.00     0.146 HD
ENDROOT
BRANCH   1   3
ATOM      3  C   UNL d   1       1.077  -0.863  -2.389  0.00  0.00     0.080 A 
ATOM      4  C   UNL d   1       2.316  -0.503  -2.905  0.00  0.00     0.075 A 
ATOM      5  C   UNL d   1       2.245  -0.379  -4.358  0.00  0.00    -0.037 A 
ATOM      6  C   UNL d   1       3.369  -0.014  -5.280  0.00  0.00     0.050 C 
ATOM      7  C   UNL d   1       0.968  -0.632  -4.824  0.00  0.00     0.059 A 
ATOM      8  S   UNL d   1      -0.132  -1.002  -3.582  0.00  0.00    -0.088 SA
BRANCH   4   9
ATOM      9  C   UNL d   1       3.536  -0.322  -2.115  0.00  0.00     0.296 C 
ATOM     10  O   UNL d   1       4.661  -0.523  -2.559  0.00  0.00    -0.259 OA
BRANCH   9  11
ATOM     11  O   UNL d   1       3.293   0.135  -0.848  0.00  0.00    -0.318 OA
BRANCH  11  12
ATOM     12  C   UNL d   1       4.471   0.369  -0.053  0.00  0.00     0.174 C 
ATOM     13  C   UNL d   1       5.124   1.694  -0.415  0.00  0.00     0.034 C 
ENDBRANCH  11  12
ENDBRANCH   9  11
ENDBRANCH   4   9
ENDBRANCH   1   3
BRANCH   1  14
ATOM     14  S   UNL d   1       0.874  -2.710  -0.537  0.00  0.00     0.246 S 
ATOM     15  O   UNL d   1       2.113  -2.807   0.209  0.00  0.00    -0.206 OA
ATOM     16  O   UNL d   1       0.605  -3.587  -1.656  0.00  0.00    -0.206 OA
BRANCH  14  17
ATOM     17  C   UNL d   1      -0.469  -2.889   0.619  0.00  0.00     0.074 A 
ATOM     18  C   UNL d   1      -1.726  -3.287   0.154  0.00  0.00     0.025 A 
ATOM     19  C   UNL d   1      -2.743  -3.572   1.071  0.00  0.00     0.008 A 
ATOM     20  C   UNL d   1      -2.511  -3.469   2.449  0.00  0.00    -0.062 A 
ATOM     21  C   UNL d   1      -1.251  -3.059   2.902  0.00  0.00     0.008 A 
ATOM     22  C   UNL d   1      -3.601  -3.835   3.416  0.00  0.00     0.048 C 
ATOM     23  C   UNL d   1      -0.228  -2.775   1.992  0.00  0.00     0.025 A 
ENDBRANCH  14  17
ENDBRANCH   1  14
TORSDOF 6
