REMARK  9 active torsions:
REMARK  status: ('A' for Active; 'I' for Inactive)
REMARK    1  A    between atoms: C_2  and  C_1 
REMARK    2  A    between atoms: C_3  and  C_1 
REMARK    3  A    between atoms: O_11  and  C_2 
REMARK    4  A    between atoms: O_10  and  C_3 
REMARK    5  A    between atoms: N_5  and  C_4 
REMARK    6  A    between atoms: N_8  and  N_5 
REMARK    7  A    between atoms: C_9  and  N_8 
REMARK    8  A    between atoms: C_16  and  O_10 
REMARK    9  A    between atoms: C_15  and  O_11 
ROOT
ATOM      1  C   UNL d   1       0.990   0.023   0.068  0.00  0.00     0.130 C 
ATOM      2  C   UNL d   1       2.340   0.053   0.088  0.00  0.00     0.125 C 
ENDROOT
BRANCH   1   3
ATOM      3  C   UNL d   1       0.138   1.089   0.662  0.00  0.00     0.300 C 
ATOM      4  O   UNL d   1      -1.065   1.204   0.464  0.00  0.00    -0.259 OA
BRANCH   3   5
ATOM      5  O   UNL d   1       0.875   2.004   1.353  0.00  0.00    -0.318 OA
BRANCH   5   6
ATOM      6  C   UNL d   1       0.233   3.268   1.583  0.00  0.00     0.174 C 
ATOM      7  C   UNL d   1       0.320   4.113   0.324  0.00  0.00     0.034 C 
ENDBRANCH   5   6
ENDBRANCH   3   5
ENDBRANCH   1   3
BRANCH   1   8
ATOM      8  C   UNL d   1       0.379  -1.036  -0.770  0.00  0.00     0.300 C 
ATOM      9  O   UNL d   1       0.939  -1.571  -1.718  0.00  0.00    -0.259 OA
BRANCH   8  10
ATOM     10  O   UNL d   1      -0.896  -1.279  -0.378  0.00  0.00    -0.318 OA
BRANCH  10  11
ATOM     11  C   UNL d   1      -1.754  -1.873  -1.362  0.00  0.00     0.174 C 
ATOM     12  C   UNL d   1      -2.312  -0.774  -2.251  0.00  0.00     0.034 C 
ENDBRANCH  10  11
ENDBRANCH   8  10
ENDBRANCH   1   8
BRANCH   2  13
ATOM     13  N   UNL d   1       3.150   0.979   0.698  0.00  0.00    -0.331 N 
ATOM     14  H   UNL d   1       2.686   1.570   1.396  0.00  0.00     0.179 HD
BRANCH  13  15
ATOM     15  N   UNL d   1       4.537   0.990   0.590  0.00  0.00    -0.233 NA
ATOM     16  H   UNL d   1       4.841   0.542  -0.279  0.00  0.00     0.147 HD
BRANCH  15  17
ATOM     17  C   UNL d   1       5.046   2.390   0.591  0.00  0.00     0.019 C 
ATOM     18  C   UNL d   1       4.705   3.120   1.904  0.00  0.00     0.033 C 
ATOM     19  C   UNL d   1       6.578   2.311   0.472  0.00  0.00     0.033 C 
ATOM     20  C   UNL d   1       4.505   3.181  -0.615  0.00  0.00     0.033 C 
ENDBRANCH  15  17
ENDBRANCH  13  15
ENDBRANCH   2  13
TORSDOF 9
