REMARK  4 active torsions:
REMARK  status: ('A' for Active; 'I' for Inactive)
REMARK    1  A    between atoms: N_8  and  C_1 
REMARK    2  A    between atoms: C_5  and  C_2 
REMARK       I    between atoms: C_7  and  N_9 
REMARK    3  A    between atoms: C_12  and  C_7 
REMARK    4  A    between atoms: N_19  and  C_13 
ROOT
ATOM      1  C   UNL d   1      -0.784  -6.933   0.952  0.00  0.00     0.253 C 
ATOM      2  N   UNL d   1      -1.024  -2.876   0.130  0.00  0.00    -0.377 N 
ATOM      3  N   UNL d   1      -0.597  -5.678   0.387  0.00  0.00    -0.345 N 
ATOM      4  C   UNL d   1      -0.430  -3.412   1.375  0.00  0.00     0.143 C 
ATOM      5  C   UNL d   1      -1.192  -5.117  -0.845  0.00  0.00     0.146 C 
ATOM      6  C   UNL d   1      -1.962  -3.813  -0.518  0.00  0.00     0.143 C 
ATOM      7  C   UNL d   1       0.302  -4.731   1.065  0.00  0.00     0.146 C 
ATOM      8  O   UNL d   1      -0.142  -7.314   1.931  0.00  0.00    -0.267 OA
ENDROOT
BRANCH   2   9
ATOM      9  C   UNL d   1      -1.127  -1.501  -0.060  0.00  0.00     0.045 A 
ATOM     10  C   UNL d   1      -1.284  -0.650   1.046  0.00  0.00     0.064 A 
ATOM     11  C   UNL d   1      -1.253   0.732   0.885  0.00  0.00     0.119 A 
ATOM     12  N   UNL d   1      -1.101   1.308  -0.334  0.00  0.00    -0.352 N 
ATOM     13  C   UNL d   1      -0.965   0.520  -1.409  0.00  0.00     0.045 A 
ATOM     14  HN  UNL d   1      -1.091   2.323  -0.430  1.00  0.00     0.166 HD
ATOM     15  C   UNL d   1      -0.975  -0.892  -1.341  0.00  0.00     0.017 A 
ATOM     16  C   UNL d   1      -0.775   1.148  -2.631  0.00  0.00     0.030 A 
ATOM     17  C   UNL d   1      -0.769  -1.603  -2.556  0.00  0.00     0.016 A 
ATOM     18  C   UNL d   1      -0.613  -0.953  -3.779  0.00  0.00     0.001 A 
ATOM     19  C   UNL d   1      -0.607   0.431  -3.816  0.00  0.00     0.002 A 
BRANCH  11  20
ATOM     20  C   UNL d   1      -1.363   1.613   2.121  0.00  0.00     0.432 C 
ATOM     21  F   UNL d   1      -1.231   2.948   1.879  0.00  0.00    -0.165 F 
ATOM     22  F   UNL d   1      -2.561   1.468   2.761  0.00  0.00    -0.165 F 
ATOM     23  F   UNL d   1      -0.415   1.314   3.058  0.00  0.00    -0.165 F 
ENDBRANCH  11  20
ENDBRANCH   2   9
BRANCH   1  24
ATOM     24  C   UNL d   1      -1.777  -7.884   0.389  0.00  0.00     0.032 A 
ATOM     25  C   UNL d   1      -1.467  -9.245   0.367  0.00  0.00     0.019 A 
ATOM     26  C   UNL d   1      -2.378 -10.173  -0.161  0.00  0.00     0.030 A 
ATOM     27  C   UNL d   1      -3.619  -9.779  -0.687  0.00  0.00     0.029 A 
ATOM     28  C   UNL d   1      -3.925  -8.411  -0.593  0.00  0.00     0.030 A 
ATOM     29  C   UNL d   1      -3.041  -7.483  -0.033  0.00  0.00     0.019 A 
BRANCH  27  30
ATOM     30  N   UNL d   1      -4.537 -10.672  -1.214  0.00  0.00    -0.390 N 
ATOM     31  C   UNL d   1      -5.367 -10.298  -2.357  0.00  0.00     0.149 C 
ATOM     32  C   UNL d   1      -4.475 -12.102  -0.936  0.00  0.00     0.149 C 
ENDBRANCH  27  30
ENDBRANCH   1  24
TORSDOF 4
