REMARK  5 active torsions:
REMARK  status: ('A' for Active; 'I' for Inactive)
REMARK       I    between atoms: N_2  and  C_1 
REMARK    1  A    between atoms: C_3  and  C_1 
REMARK    2  A    between atoms: C_7  and  N_2 
REMARK    3  A    between atoms: C_4  and  C_7 
REMARK    4  A    between atoms: O_11  and  C_4 
REMARK    5  A    between atoms: O_14  and  C_10 
ROOT
ATOM      1  C   UNL d   1       1.056  -0.019   0.129  0.00  0.00     0.252 C 
ATOM      2  N   UNL d   1       1.043   0.330   1.458  0.00  0.00    -0.347 N 
ATOM      3  O   UNL d   1       1.696  -0.975  -0.297  0.00  0.00    -0.268 OA
ATOM      4  H   UNL d   1       0.635   1.206   1.769  0.00  0.00     0.163 HD
ENDROOT
BRANCH   1   5
ATOM      5  C   UNL d   1       0.276   0.851  -0.796  0.00  0.00     0.032 A 
ATOM      6  C   UNL d   1       0.645   0.894  -2.146  0.00  0.00     0.020 A 
ATOM      7  C   UNL d   1      -0.054   1.705  -3.049  0.00  0.00     0.038 A 
ATOM      8  C   UNL d   1      -1.131   2.475  -2.609  0.00  0.00     0.068 A 
ATOM      9  C   UNL d   1      -1.510   2.416  -1.266  0.00  0.00     0.038 A 
ATOM     10  C   UNL d   1      -0.818   1.607  -0.361  0.00  0.00     0.020 A 
BRANCH   8  11
ATOM     11  O   UNL d   1      -1.889   3.316  -3.375  0.00  0.00    -0.356 OA
ATOM     12  C   UNL d   1      -1.549   3.418  -4.751  0.00  0.00     0.210 C 
ENDBRANCH   8  11
ENDBRANCH   1   5
BRANCH   2  13
ATOM     13  C   UNL d   1       1.810  -0.414   2.436  0.00  0.00     0.232 C 
BRANCH  13  14
ATOM     14  C   UNL d   1       1.703   0.254   3.799  0.00  0.00     0.158 C 
ATOM     15  O   UNL d   1       1.093   1.294   4.007  0.00  0.00    -0.649 OA
BRANCH  14  16
ATOM     16  O   UNL d   1       2.360  -0.411   4.778  0.00  0.00    -0.775 OA
ATOM     17  H   UNL d   1       2.808  -1.225   4.476  0.00  0.00     0.167 HD
ENDBRANCH  14  16
ENDBRANCH  13  14
ENDBRANCH   2  13
TORSDOF 5
