REMARK  5 active torsions:
REMARK  status: ('A' for Active; 'I' for Inactive)
REMARK    1  A    between atoms: C_10  and  C_2 
REMARK    2  A    between atoms: C_11  and  C_6 
REMARK    3  A    between atoms: C_7  and  C_12 
REMARK    4  A    between atoms: C_26  and  C_23 
REMARK    5  A    between atoms: C_27  and  C_26 
ROOT
ATOM      1  C   UNL d   1      -0.518  -0.372   0.068  0.00  0.00     0.123 A 
ATOM      2  C   UNL d   1       0.240  -1.494   0.030  0.00  0.00     0.003 A 
ATOM      3  C   UNL d   1       0.162   0.962   0.113  0.00  0.00     0.267 A 
ATOM      4  N   UNL d   1       1.535   0.951   0.149  0.00  0.00    -0.322 N 
ATOM      5  C   UNL d   1       1.695  -1.384   0.067  0.00  0.00     0.044 A 
ATOM      6  C   UNL d   1       2.291  -0.189   0.129  0.00  0.00     0.046 A 
ATOM      7  C   UNL d   1      -1.940  -0.380   0.067  0.00  0.00     0.106 C 
ATOM      8  N   UNL d   1      -3.102  -0.422   0.076  0.00  0.00    -0.191 NA
ATOM      9  O   UNL d   1      -0.458   2.020   0.113  0.00  0.00    -0.266 OA
ATOM     10  H   UNL d   1       1.990   1.856   0.177  0.00  0.00     0.169 HD
ENDROOT
BRANCH   2  11
ATOM     11  C   UNL d   1      -0.384  -2.830  -0.056  0.00  0.00    -0.024 A 
ATOM     12  C   UNL d   1      -0.663  -3.397  -1.305  0.00  0.00     0.013 A 
ATOM     13  C   UNL d   1      -1.238  -4.668  -1.389  0.00  0.00     0.017 A 
ATOM     14  C   UNL d   1      -1.534  -5.395  -0.227  0.00  0.00     0.048 A 
ATOM     15  C   UNL d   1      -1.228  -4.831   1.022  0.00  0.00     0.017 A 
ATOM     16  C   UNL d   1      -0.657  -3.558   1.107  0.00  0.00     0.013 A 
BRANCH  14  17
ATOM     17  C   UNL d   1      -2.179  -6.759  -0.301  0.00  0.00     0.417 C 
ATOM     18  F   UNL d   1      -2.440  -7.171  -1.573  0.00  0.00    -0.166 F 
ATOM     19  F   UNL d   1      -1.402  -7.731   0.253  0.00  0.00    -0.166 F 
ATOM     20  F   UNL d   1      -3.368  -6.810   0.360  0.00  0.00    -0.166 F 
ENDBRANCH  14  17
ENDBRANCH   2  11
BRANCH   6  21
ATOM     21  C   UNL d   1       3.748  -0.055   0.142  0.00  0.00    -0.009 A 
ATOM     22  C   UNL d   1       4.443   0.058  -1.066  0.00  0.00     0.014 A 
ATOM     23  C   UNL d   1       5.830   0.208  -1.068  0.00  0.00     0.008 A 
ATOM     24  C   UNL d   1       6.544   0.255   0.137  0.00  0.00    -0.058 A 
ATOM     25  C   UNL d   1       5.842   0.133   1.345  0.00  0.00     0.008 A 
ATOM     26  C   UNL d   1       4.454  -0.030   1.348  0.00  0.00     0.014 A 
BRANCH  24  27
ATOM     27  C   UNL d   1       8.039   0.482   0.125  0.00  0.00     0.042 C 
BRANCH  27  28
ATOM     28  C   UNL d   1       8.873  -0.615   0.815  0.00  0.00    -0.019 C 
ATOM     29  C   UNL d   1       8.714  -1.978   0.139  0.00  0.00     0.010 C 
ATOM     30  C   UNL d   1      10.352  -0.217   0.818  0.00  0.00     0.010 C 
ENDBRANCH  27  28
ENDBRANCH  24  27
ENDBRANCH   6  21
TORSDOF 5
