REMARK  3 active torsions:
REMARK  status: ('A' for Active; 'I' for Inactive)
REMARK    1  A    between atoms: C_2  and  C_1 
REMARK       I    between atoms: N_5  and  C_2 
REMARK    2  A    between atoms: C_6  and  C_9 
REMARK    3  A    between atoms: N_8  and  C_11 
ROOT
ATOM      1  C   UNL d   1      -3.164   0.317   0.071  0.00  0.00     0.255 C 
ATOM      2  N   UNL d   1      -4.013   1.419  -0.246  0.00  0.00    -0.348 N 
ATOM      3  C   UNL d   1      -5.646   3.855  -0.651  0.00  0.00     0.091 C 
ATOM      4  C   UNL d   1      -5.894   2.909   0.533  0.00  0.00     0.045 C 
ATOM      5  C   UNL d   1      -5.152   2.998  -1.822  0.00  0.00     0.045 C 
ATOM      6  C   UNL d   1      -3.895   2.228  -1.457  0.00  0.00     0.128 C 
ATOM      7  C   UNL d   1      -4.680   2.048   0.895  0.00  0.00     0.128 C 
ATOM      8  O   UNL d   1      -3.191  -0.216   1.182  0.00  0.00    -0.267 OA
ENDROOT
BRANCH   1   9
ATOM      9  C   UNL d   1      -2.194  -0.239  -0.931  0.00  0.00     0.054 A 
ATOM     10  C   UNL d   1      -1.973  -1.617  -1.065  0.00  0.00     0.021 A 
ATOM     11  N   UNL d   1      -1.112  -2.134  -1.995  0.00  0.00    -0.355 N 
ATOM     12  C   UNL d   1      -2.584  -2.655  -0.167  0.00  0.00     0.069 C 
ATOM     13  C   UNL d   1      -0.428  -1.292  -2.816  0.00  0.00     0.117 A 
ATOM     14  HN  UNL d   1      -0.984  -3.143  -2.072  1.00  0.00     0.166 HD
ATOM     15  C   UNL d   1      -0.556   0.085  -2.697  0.00  0.00     0.035 A 
ATOM     16  C   UNL d   1      -1.404   0.602  -1.719  0.00  0.00     0.021 A 
BRANCH  13  17
ATOM     17  C   UNL d   1       0.505  -1.853  -3.881  0.00  0.00     0.432 C 
ATOM     18  F   UNL d   1       0.704  -3.198  -3.812  0.00  0.00    -0.165 F 
ATOM     19  F   UNL d   1       0.053  -1.605  -5.146  0.00  0.00    -0.165 F 
ATOM     20  F   UNL d   1       1.750  -1.290  -3.828  0.00  0.00    -0.165 F 
ENDBRANCH  13  17
ENDBRANCH   1   9
BRANCH   3  21
ATOM     21  N   UNL d   1      -4.794   5.019  -0.391  0.00  0.00    -0.362 N 
ATOM     22  C   UNL d   1      -4.274   5.426   0.811  0.00  0.00     0.091 A 
ATOM     23  C   UNL d   1      -3.564   6.591   0.611  0.00  0.00     0.019 A 
ATOM     24  C   UNL d   1      -3.683   6.930  -0.753  0.00  0.00     0.019 A 
ATOM     25  C   UNL d   1      -4.468   5.961  -1.343  0.00  0.00     0.091 A 
ENDBRANCH   3  21
TORSDOF 3
