REMARK  5 active torsions:
REMARK  status: ('A' for Active; 'I' for Inactive)
REMARK       I    between atoms: N_3  and  C_1 
REMARK    1  A    between atoms: C_5  and  C_1 
REMARK    2  A    between atoms: C_2  and  O_7 
REMARK    3  A    between atoms: C_6  and  C_2 
REMARK    4  A    between atoms: C_4  and  N_3 
REMARK    5  A    between atoms: O_7  and  C_8 
ROOT
ATOM      1  C   UNL d   1       1.516  -1.897  -1.109  0.00  0.00     0.070 A 
ATOM      2  C   UNL d   1       0.891  -2.613  -2.149  0.00  0.00     0.106 A 
ATOM      3  C   UNL d   1       2.538  -2.569  -0.409  0.00  0.00     0.056 A 
ATOM      4  C   UNL d   1       1.276  -3.930  -2.473  0.00  0.00     0.041 A 
ATOM      5  C   UNL d   1       2.906  -3.886  -0.725  0.00  0.00     0.036 A 
ATOM      6  C   UNL d   1       2.283  -4.568  -1.760  0.00  0.00     0.026 A 
ATOM      7 CL   UNL d   1       4.143  -4.680   0.173  0.00  0.00    -0.084 Cl
ENDROOT
BRANCH   1   8
ATOM      8  N   UNL d   1       1.164  -0.550  -0.788  0.00  0.00    -0.320 N 
ATOM      9  C   UNL d   1       1.419   0.093   0.417  0.00  0.00     0.256 C 
ATOM     10  O   UNL d   1       1.905  -0.454   1.404  0.00  0.00    -0.267 OA
ATOM     11  H   UNL d   1       0.528  -0.086  -1.433  0.00  0.00     0.169 HD
BRANCH   9  12
ATOM     12  C   UNL d   1       1.033   1.537   0.572  0.00  0.00     0.035 A 
ATOM     13  C   UNL d   1       0.911   2.443  -0.486  0.00  0.00     0.041 A 
ATOM     14  C   UNL d   1       0.670   3.800  -0.213  0.00  0.00     0.036 A 
ATOM     15 CL   UNL d   1       0.567   4.933  -1.509  0.00  0.00    -0.084 Cl
ATOM     16  C   UNL d   1       0.533   4.267   1.095  0.00  0.00     0.047 A 
ATOM     17  C   UNL d   1       0.632   3.363   2.143  0.00  0.00     0.036 A 
ATOM     18  C   UNL d   1       0.882   2.014   1.889  0.00  0.00     0.041 A 
ATOM     19 CL   UNL d   1       0.464   3.912   3.765  0.00  0.00    -0.084 Cl
ENDBRANCH   9  12
ENDBRANCH   1   8
BRANCH   2  20
ATOM     20  O   UNL d   1      -0.261  -2.229  -2.913  0.00  0.00    -0.273 OA
BRANCH  20  21
ATOM     21  C   UNL d   1      -1.047  -1.098  -2.931  0.00  0.00     0.298 C 
ATOM     22  O   UNL d   1      -0.790  -0.031  -2.390  0.00  0.00    -0.259 OA
BRANCH  21  23
ATOM     23  C   UNL d   1      -2.325  -1.398  -3.627  0.00  0.00     0.043 A 
ATOM     24  C   UNL d   1      -3.408  -0.542  -3.389  0.00  0.00     0.041 A 
ATOM     25  C   UNL d   1      -4.662  -0.840  -3.920  0.00  0.00     0.036 A 
ATOM     26 CL   UNL d   1      -6.001   0.178  -3.556  0.00  0.00    -0.084 Cl
ATOM     27  C   UNL d   1      -4.847  -1.961  -4.723  0.00  0.00     0.047 A 
ATOM     28  C   UNL d   1      -3.756  -2.780  -5.007  0.00  0.00     0.036 A 
ATOM     29  C   UNL d   1      -2.500  -2.516  -4.457  0.00  0.00     0.041 A 
ATOM     30 CL   UNL d   1      -3.964  -4.136  -6.046  0.00  0.00    -0.084 Cl
ENDBRANCH  21  23
ENDBRANCH  20  21
ENDBRANCH   2  20
TORSDOF 5
