REMARK  6 active torsions:
REMARK  status: ('A' for Active; 'I' for Inactive)
REMARK    1  A    between atoms: N_2  and  S_1 
REMARK    2  A    between atoms: C_5  and  S_1 
REMARK    3  A    between atoms: C_3  and  N_2 
REMARK    4  A    between atoms: C_11  and  C_4 
REMARK    5  A    between atoms: C_18  and  C_8 
REMARK    6  A    between atoms: C_19  and  C_11 
ROOT
ATOM      1  C   UNL d   1       0.885   2.075  -1.569  0.00  0.00     0.035 A 
ATOM      2  C   UNL d   1       2.223   2.540  -1.565  0.00  0.00    -0.032 A 
ATOM      3  C   UNL d   1      -0.176   2.944  -1.917  0.00  0.00    -0.036 A 
ATOM      4  C   UNL d   1       2.470   3.850  -2.024  0.00  0.00     0.009 A 
ATOM      5  C   UNL d   1       1.435   4.692  -2.416  0.00  0.00     0.001 A 
ATOM      6  C   UNL d   1       0.121   4.248  -2.347  0.00  0.00     0.009 A 
ENDROOT
BRANCH   1   7
ATOM      7  N   UNL d   1       0.591   0.699  -1.265  0.00  0.00    -0.180 NA
ATOM      8  H   UNL d   1      -0.183   0.335  -1.814  0.00  0.00     0.146 HD
BRANCH   7   9
ATOM      9  S   UNL d   1       0.484   0.242   0.370  0.00  0.00     0.245 S 
ATOM     10  O   UNL d   1       0.450   1.422   1.206  0.00  0.00    -0.206 OA
ATOM     11  O   UNL d   1       1.428  -0.829   0.596  0.00  0.00    -0.206 OA
BRANCH   9  12
ATOM     12  C   UNL d   1      -1.131  -0.518   0.454  0.00  0.00     0.074 A 
ATOM     13  C   UNL d   1      -1.447  -1.570  -0.412  0.00  0.00     0.025 A 
ATOM     14  C   UNL d   1      -2.696  -2.188  -0.316  0.00  0.00     0.008 A 
ATOM     15  C   UNL d   1      -3.621  -1.780   0.656  0.00  0.00    -0.062 A 
ATOM     16  C   UNL d   1      -3.292  -0.722   1.514  0.00  0.00     0.008 A 
ATOM     17  C   UNL d   1      -4.941  -2.484   0.777  0.00  0.00     0.048 C 
ATOM     18  C   UNL d   1      -2.051  -0.088   1.414  0.00  0.00     0.025 A 
ENDBRANCH   9  12
ENDBRANCH   7   9
ENDBRANCH   1   7
BRANCH   2  19
ATOM     19  C   UNL d   1       3.407   1.669  -1.138  0.00  0.00     0.016 C 
ATOM     20  C   UNL d   1       4.487   2.462  -0.381  0.00  0.00     0.015 C 
BRANCH  19  21
ATOM     21  C   UNL d   1       3.980   0.917  -2.356  0.00  0.00     0.004 C 
ATOM     22  C   UNL d   1       5.172   0.029  -2.024  0.00  0.00     0.006 C 
ENDBRANCH  19  21
ENDBRANCH   2  19
BRANCH   3  23
ATOM     23  C   UNL d   1      -1.634   2.548  -1.870  0.00  0.00     0.036 C 
ATOM     24  C   UNL d   1      -2.127   1.990  -3.196  0.00  0.00     0.010 C 
ENDBRANCH   3  23
TORSDOF 6
