REMARK  5 active torsions:
REMARK  status: ('A' for Active; 'I' for Inactive)
REMARK    1  A    between atoms: C_6  and  C_1 
REMARK    2  A    between atoms: C_5  and  C_2 
REMARK       I    between atoms: N_10  and  C_5 
REMARK    3  A    between atoms: C_9  and  O_11 
REMARK    4  A    between atoms: C_20  and  N_10 
REMARK    5  A    between atoms: O_11  and  C_14 
ROOT
ATOM      1  C   UNL d   1       0.181  -2.516   0.660  0.00  0.00     0.261 C 
ATOM      2  N   UNL d   1       0.255  -3.764   0.083  0.00  0.00    -0.322 N 
ATOM      3  O   UNL d   1      -0.843  -1.857   0.763  0.00  0.00    -0.267 OA
ATOM      4  H   UNL d   1       1.165  -4.091  -0.208  0.00  0.00     0.169 HD
ENDROOT
BRANCH   2   5
ATOM      5  C   UNL d   1      -0.827  -4.667  -0.056  0.00  0.00     0.050 C 
ATOM      6  C   UNL d   1      -0.630  -5.833  -0.785  0.00  0.00     0.119 C 
ATOM      7  N   UNL d   1      -1.456  -6.904  -0.749  0.00  0.00    -0.344 N 
ATOM      8  C   UNL d   1      -2.475  -6.857   0.119  0.00  0.00     0.148 C 
ATOM      9  HN  UNL d   1      -1.310  -7.711  -1.356  1.00  0.00     0.167 HD
ATOM     10  C   UNL d   1      -2.854  -5.681   0.752  0.00  0.00     0.059 C 
ATOM     11  C   UNL d   1      -2.031  -4.555   0.632  0.00  0.00     0.035 C 
BRANCH   8  12
ATOM     12  O   UNL d   1      -3.001  -8.024   0.663  0.00  0.00    -0.290 OA
BRANCH  12  13
ATOM     13  C   UNL d   1      -2.976  -9.229  -0.002  0.00  0.00     0.121 C 
ATOM     14  C   UNL d   1      -1.882  -9.856  -0.621  0.00  0.00     0.069 C 
ATOM     15 CL   UNL d   1      -0.224  -9.399  -0.404  0.00  0.00    -0.081 Cl
ATOM     16  C   UNL d   1      -2.056 -11.070  -1.309  0.00  0.00     0.027 C 
ATOM     17  C   UNL d   1      -3.266 -11.753  -1.259  0.00  0.00     0.003 C 
ATOM     18  C   UNL d   1      -4.309 -11.229  -0.507  0.00  0.00     0.027 C 
ATOM     19  C   UNL d   1      -4.168  -9.975   0.101  0.00  0.00     0.069 C 
ATOM     20 CL   UNL d   1      -5.499  -9.415   1.063  0.00  0.00    -0.081 Cl
ENDBRANCH  12  13
ENDBRANCH   8  12
ENDBRANCH   2   5
BRANCH   1  21
ATOM     21  C   UNL d   1       1.459  -1.964   1.072  0.00  0.00     0.093 C 
ATOM     22  C   UNL d   1       2.350  -2.237   2.176  0.00  0.00     0.086 C 
ATOM     23  N   UNL d   1       3.270  -1.254   2.225  0.00  0.00    -0.259 N 
ATOM     24  O   UNL d   1       3.137  -0.500   1.094  0.00  0.00    -0.241 OA
ATOM     25  HN  UNL d   1       3.946  -1.101   2.973  1.00  0.00     0.195 HD
ATOM     26  C   UNL d   1       2.073  -0.936   0.387  0.00  0.00     0.090 C 
ATOM     27  C   UNL d   1       1.851  -0.259  -0.906  0.00  0.00     0.080 C 
BRANCH  22  28
ATOM     28  C   UNL d   1       2.444  -3.346   3.163  0.00  0.00     0.037 A 
ATOM     29  C   UNL d   1       3.715  -3.834   3.589  0.00  0.00     0.048 A 
ATOM     30 CL   UNL d   1       5.249  -3.206   3.059  0.00  0.00    -0.083 Cl
ATOM     31  C   UNL d   1       3.836  -4.920   4.475  0.00  0.00     0.025 A 
ATOM     32  C   UNL d   1       2.712  -5.588   4.929  0.00  0.00     0.003 A 
ATOM     33  C   UNL d   1       1.460  -5.124   4.552  0.00  0.00     0.025 A 
ATOM     34  C   UNL d   1       1.323  -3.992   3.723  0.00  0.00     0.048 A 
ATOM     35 CL   UNL d   1      -0.297  -3.416   3.576  0.00  0.00    -0.083 Cl
ENDBRANCH  22  28
ENDBRANCH   1  21
TORSDOF 5
