REMARK  9 active torsions:
REMARK  status: ('A' for Active; 'I' for Inactive)
REMARK    1  A    between atoms: C_4  and  S_1 
REMARK    2  A    between atoms: N_13  and  S_1 
REMARK    3  A    between atoms: C_2  and  C_5 
REMARK    4  A    between atoms: C_3  and  C_6 
REMARK    5  A    between atoms: O_25  and  C_12 
REMARK    6  A    between atoms: C_26  and  N_13 
REMARK    7  A    between atoms: O_27  and  C_14 
REMARK    8  A    between atoms: C_23  and  C_28 
REMARK    9  A    between atoms: C_28  and  C_26 
ROOT
ATOM      1  S   UNL d   1       0.928  -0.002  -0.231  0.00  0.00     0.241 S 
ATOM      2  O   UNL d   1       0.382  -0.665   0.933  0.00  0.00    -0.206 OA
ATOM      3  O   UNL d   1       0.663   1.391  -0.504  0.00  0.00    -0.206 OA
ENDROOT
BRANCH   1   4
ATOM      4  C   UNL d   1       0.451  -0.938  -1.669  0.00  0.00     0.076 A 
ATOM      5  C   UNL d   1       0.349  -2.331  -1.573  0.00  0.00     0.041 A 
ATOM      6  C   UNL d   1      -0.095  -3.086  -2.668  0.00  0.00     0.050 A 
ATOM      7  C   UNL d   1      -0.466  -2.417  -3.846  0.00  0.00     0.032 A 
ATOM      8  C   UNL d   1      -0.428  -1.013  -3.933  0.00  0.00     0.050 A 
ATOM      9  C   UNL d   1       0.055  -0.277  -2.838  0.00  0.00     0.041 A 
BRANCH   6  10
ATOM     10  C   UNL d   1      -0.203  -4.592  -2.591  0.00  0.00     0.417 C 
ATOM     11  F   UNL d   1       0.049  -5.091  -1.350  0.00  0.00    -0.166 F 
ATOM     12  F   UNL d   1      -1.440  -5.043  -2.935  0.00  0.00    -0.166 F 
ATOM     13  F   UNL d   1       0.671  -5.214  -3.428  0.00  0.00    -0.166 F 
ENDBRANCH   6  10
BRANCH   8  14
ATOM     14  C   UNL d   1      -0.955  -0.330  -5.176  0.00  0.00     0.417 C 
ATOM     15  F   UNL d   1      -0.967   1.028  -5.091  0.00  0.00    -0.166 F 
ATOM     16  F   UNL d   1      -0.227  -0.635  -6.284  0.00  0.00    -0.166 F 
ATOM     17  F   UNL d   1      -2.236  -0.700  -5.455  0.00  0.00    -0.166 F 
ENDBRANCH   8  14
ENDBRANCH   1   4
BRANCH   1  18
ATOM     18  N   UNL d   1       2.614  -0.150  -0.204  0.00  0.00    -0.215 NA
ATOM     19  H   UNL d   1       3.031   0.761  -0.013  0.00  0.00     0.139 HD
BRANCH  18  20
ATOM     20  C   UNL d   1       3.166  -1.306   0.529  0.00  0.00     0.109 C 
BRANCH  20  21
ATOM     21  C   UNL d   1       4.697  -1.275   0.548  0.00  0.00     0.054 C 
BRANCH  21  22
ATOM     22  C   UNL d   1       5.228  -2.479   1.294  0.00  0.00    -0.054 A 
ATOM     23  C   UNL d   1       5.503  -3.678   0.616  0.00  0.00     0.046 A 
ATOM     24  C   UNL d   1       5.900  -4.837   1.308  0.00  0.00     0.102 A 
ATOM     25  C   UNL d   1       6.039  -4.789   2.704  0.00  0.00     0.101 A 
ATOM     26  C   UNL d   1       5.782  -3.583   3.373  0.00  0.00     0.040 A 
ATOM     27  C   UNL d   1       5.379  -2.440   2.682  0.00  0.00     0.010 A 
BRANCH  24  28
ATOM     28  O   UNL d   1       6.216  -5.997   0.651  0.00  0.00    -0.353 OA
ATOM     29  C   UNL d   1       5.501  -6.268  -0.549  0.00  0.00     0.210 C 
ENDBRANCH  24  28
BRANCH  25  30
ATOM     30  O   UNL d   1       6.398  -5.792   3.566  0.00  0.00    -0.353 OA
ATOM     31  C   UNL d   1       6.560  -7.107   3.058  0.00  0.00     0.210 C 
ENDBRANCH  25  30
ENDBRANCH  21  22
ENDBRANCH  20  21
ENDBRANCH  18  20
ENDBRANCH   1  18
TORSDOF 9
