REMARK  4 active torsions:
REMARK  status: ('A' for Active; 'I' for Inactive)
REMARK    1  A    between atoms: C_2  and  C_1 
REMARK    2  A    between atoms: O_3  and  C_1 
REMARK    3  A    between atoms: C_5  and  O_3 
REMARK    4  A    between atoms: C_6  and  C_4 
ROOT
ATOM      1  C   UNL d   1       1.084  -1.790   0.334  0.00  0.00     0.304 C 
ATOM      2  O   UNL d   1       1.127  -2.929  -0.092  0.00  0.00    -0.259 OA
ENDROOT
BRANCH   1   3
ATOM      3  C   UNL d   1       1.802  -1.321   1.536  0.00  0.00     0.116 A 
ATOM      4  C   UNL d   1       2.991  -1.939   1.913  0.00  0.00     0.135 A 
ATOM      5  F   UNL d   1       3.569  -2.865   1.135  0.00  0.00    -0.205 F 
ATOM      6  C   UNL d   1       3.622  -1.607   3.113  0.00  0.00     0.043 A 
ATOM      7  C   UNL d   1       3.062  -0.648   3.957  0.00  0.00     0.006 A 
ATOM      8  C   UNL d   1       1.879  -0.010   3.581  0.00  0.00     0.043 A 
ATOM      9  C   UNL d   1       1.257  -0.353   2.380  0.00  0.00     0.135 A 
ATOM     10  F   UNL d   1       0.098   0.254   2.091  0.00  0.00    -0.205 F 
ENDBRANCH   1   3
BRANCH   1  11
ATOM     11  O   UNL d   1       0.357  -0.734  -0.203  0.00  0.00    -0.274 OA
BRANCH  11  12
ATOM     12  C   UNL d   1      -0.975  -0.868  -0.674  0.00  0.00     0.093 A 
ATOM     13  C   UNL d   1      -1.673   0.320  -0.948  0.00  0.00     0.043 A 
ATOM     14  C   UNL d   1      -3.064   0.276  -1.120  0.00  0.00     0.018 A 
ATOM     15  C   UNL d   1      -3.741  -0.943  -1.085  0.00  0.00     0.001 A 
ATOM     16  C   UNL d   1      -3.031  -2.126  -0.900  0.00  0.00     0.003 A 
ATOM     17  C   UNL d   1      -1.650  -2.092  -0.687  0.00  0.00     0.038 A 
BRANCH  13  18
ATOM     18  C   UNL d   1      -1.023   1.655  -1.041  0.00  0.00     0.158 C 
ATOM     19  O   UNL d   1      -1.639   2.655  -0.675  0.00  0.00    -0.293 OA
ATOM     20  C   UNL d   1       0.348   1.771  -1.655  0.00  0.00     0.097 C 
ENDBRANCH  13  18
ENDBRANCH  11  12
ENDBRANCH   1  11
TORSDOF 4
