REMARK  8 active torsions:
REMARK  status: ('A' for Active; 'I' for Inactive)
REMARK    1  A    between atoms: C_20  and  C_2 
REMARK    2  A    between atoms: C_9  and  C_17 
REMARK    3  A    between atoms: O_12  and  C_9 
REMARK    4  A    between atoms: C_19  and  O_12 
REMARK    5  A    between atoms: O_15  and  C_13 
REMARK    6  A    between atoms: C_17  and  O_15 
REMARK    7  A    between atoms: C_16  and  C_19 
REMARK    8  A    between atoms: C_22  and  C_20 
ROOT
ATOM      1  C   UNL d   1       0.340   0.579  -0.059  0.00  0.00     0.092 A 
ATOM      2  C   UNL d   1      -0.517  -1.737  -0.042  0.00  0.00    -0.039 A 
ATOM      3  O   UNL d   1      -0.983   1.066  -0.086  0.00  0.00    -0.275 OA
ATOM      4  C   UNL d   1      -2.061   0.202  -0.041  0.00  0.00     0.288 A 
ATOM      5  C   UNL d   1       0.609  -0.793  -0.001  0.00  0.00     0.004 A 
ATOM      6  C   UNL d   1      -1.762  -1.236  -0.075  0.00  0.00     0.090 A 
ATOM      7  C   UNL d   1       1.351   1.545  -0.080  0.00  0.00     0.075 A 
ATOM      8  C   UNL d   1       1.948  -1.183   0.083  0.00  0.00     0.017 A 
ATOM      9  O   UNL d   1      -3.221   0.599   0.010  0.00  0.00    -0.260 OA
ATOM     10  C   UNL d   1       2.676   1.133  -0.039  0.00  0.00     0.072 A 
ATOM     11  C   UNL d   1       2.970  -0.227   0.073  0.00  0.00     0.038 A 
ENDROOT
BRANCH  10  12
ATOM     12  O   UNL d   1       3.765   1.952  -0.066  0.00  0.00    -0.341 OA
BRANCH  12  13
ATOM     13  C   UNL d   1       3.608   3.200  -0.737  0.00  0.00     0.286 C 
BRANCH  13  14
ATOM     14  C   UNL d   1       4.983   3.697  -1.155  0.00  0.00     0.283 C 
ATOM     15  O   UNL d   1       6.051   3.144  -0.927  0.00  0.00    -0.263 OA
BRANCH  14  16
ATOM     16  O   UNL d   1       4.868   4.895  -1.803  0.00  0.00    -0.312 OA
BRANCH  16  17
ATOM     17  C   UNL d   1       6.070   5.672  -1.798  0.00  0.00     0.256 C 
BRANCH  17  18
ATOM     18  C   UNL d   1       6.150   6.448  -0.487  0.00  0.00     0.147 C 
ATOM     19  O   UNL d   1       5.265   6.377   0.373  0.00  0.00    -0.296 OA
ATOM     20  C   UNL d   1       7.346   7.332  -0.287  0.00  0.00     0.093 C 
ENDBRANCH  17  18
ENDBRANCH  16  17
ENDBRANCH  14  16
ENDBRANCH  13  14
ENDBRANCH  12  13
ENDBRANCH  10  12
BRANCH   2  21
ATOM     21  C   UNL d   1      -0.290  -3.229  -0.077  0.00  0.00     0.039 C 
BRANCH  21  22
ATOM     22  C   UNL d   1      -0.211  -3.820   1.333  0.00  0.00     0.000 C 
ATOM     23  C   UNL d   1       0.046  -5.318   1.297  0.00  0.00     0.005 C 
ENDBRANCH  21  22
ENDBRANCH   2  21
TORSDOF 8
