REMARK  3 active torsions:
REMARK  status: ('A' for Active; 'I' for Inactive)
REMARK    1  A    between atoms: C_2  and  N_1 
REMARK    2  A    between atoms: S_4  and  C_3 
REMARK    3  A    between atoms: C_9  and  S_4 
ROOT
ATOM      1  C   UNL d   1      -1.071  -1.581  -0.102  0.00  0.00     0.136 A 
ATOM      2  C   UNL d   1      -0.604  -0.842  -1.181  0.00  0.00     0.108 A 
ATOM      3  N   UNL d   1       0.499  -1.244  -1.872  0.00  0.00    -0.358 N 
ATOM      4  HN  UNL d   1       0.848  -0.704  -2.663  1.00  0.00     0.166 HD
ATOM      5  C   UNL d   1      -0.418  -2.753   0.299  0.00  0.00     0.040 A 
ATOM      6  C   UNL d   1       1.119  -2.383  -1.477  0.00  0.00     0.089 A 
ATOM      7  C   UNL d   1       0.703  -3.162  -0.410  0.00  0.00     0.020 A 
ENDROOT
BRANCH   2   8
ATOM      8  S   UNL d   1      -1.444   0.570  -1.873  0.00  0.00    -0.070 SA
BRANCH   8   9
ATOM      9  C   UNL d   1      -0.460   1.919  -1.250  0.00  0.00     0.007 A 
ATOM     10  C   UNL d   1       0.721   2.304  -1.895  0.00  0.00     0.020 A 
ATOM     11  C   UNL d   1       1.430   3.431  -1.462  0.00  0.00     0.025 A 
ATOM     12  C   UNL d   1       0.956   4.173  -0.382  0.00  0.00     0.034 A 
ATOM     13  C   UNL d   1      -0.212   3.794   0.275  0.00  0.00     0.025 A 
ATOM     14 CL   UNL d   1       1.808   5.577   0.132  0.00  0.00    -0.084 Cl
ATOM     15  C   UNL d   1      -0.921   2.671  -0.164  0.00  0.00     0.020 A 
ENDBRANCH   8   9
ENDBRANCH   2   8
BRANCH   1  16
ATOM     16  N   UNL d   1      -2.258  -1.189   0.610  0.00  0.00    -0.113 N 
ATOM     17  O   UNL d   1      -2.209  -0.139   1.262  0.00  0.00    -0.532 OA
ATOM     18  O   UNL d   1      -3.217  -1.970   0.569  0.00  0.00    -0.532 OA
ENDBRANCH   1  16
TORSDOF 3
