REMARK  6 active torsions:
REMARK  status: ('A' for Active; 'I' for Inactive)
REMARK    1  A    between atoms: C_3  and  C_1 
REMARK    2  A    between atoms: C_12  and  C_2 
REMARK    3  A    between atoms: C_19  and  C_6 
REMARK    4  A    between atoms: C_16  and  C_9 
REMARK    5  A    between atoms: C_13  and  C_17 
REMARK    6  A    between atoms: C_14  and  C_18 
ROOT
ATOM      1  C   UNL d   1       2.351   1.552  -0.080  0.00  0.00     0.185 A 
ATOM      2  N   UNL d   1       2.611   2.475   0.814  0.00  0.00    -0.318 N 
ATOM      3  HN  UNL d   1       2.015   2.806   1.573  1.00  0.00     0.169 HD
ATOM      4  C   UNL d   1       3.877   2.890   0.481  0.00  0.00     0.138 A 
ATOM      5  N   UNL d   1       4.375   2.288  -0.609  0.00  0.00    -0.242 N 
ATOM      6  HN  UNL d   1       5.276   2.448  -1.062  1.00  0.00     0.196 HD
ATOM      7  O   UNL d   1       3.374   1.396  -0.977  0.00  0.00    -0.217 OA
ENDROOT
BRANCH   1   8
ATOM      8  C   UNL d   1       1.133   0.714  -0.085  0.00  0.00     0.059 A 
ATOM      9  C   UNL d   1       0.029   0.828   0.739  0.00  0.00     0.174 A 
ATOM     10  O   UNL d   1      -0.835  -0.205   0.456  0.00  0.00    -0.304 OA
ATOM     11  C   UNL d   1      -0.281  -0.967  -0.537  0.00  0.00     0.089 A 
ATOM     12  C   UNL d   1       0.907  -0.394  -0.935  0.00  0.00     0.056 A 
BRANCH   9  13
ATOM     13  C   UNL d   1      -0.406   1.769   1.803  0.00  0.00     0.440 C 
ATOM     14  F   UNL d   1       0.401   2.846   1.971  0.00  0.00    -0.164 F 
ATOM     15  F   UNL d   1      -1.643   2.270   1.543  0.00  0.00    -0.164 F 
ATOM     16  F   UNL d   1      -0.483   1.155   3.013  0.00  0.00    -0.164 F 
ENDBRANCH   9  13
BRANCH  11  17
ATOM     17  C   UNL d   1      -1.029  -2.157  -0.940  0.00  0.00     0.019 A 
ATOM     18  C   UNL d   1      -0.413  -3.343  -1.387  0.00  0.00     0.047 A 
ATOM     19 CL   UNL d   1       1.304  -3.575  -1.404  0.00  0.00    -0.083 Cl
ATOM     20  C   UNL d   1      -1.183  -4.434  -1.810  0.00  0.00     0.025 A 
ATOM     21  C   UNL d   1      -2.575  -4.370  -1.783  0.00  0.00     0.002 A 
ATOM     22  C   UNL d   1      -3.200  -3.216  -1.322  0.00  0.00     0.001 A 
ATOM     23  C   UNL d   1      -2.436  -2.123  -0.904  0.00  0.00     0.016 A 
ENDBRANCH  11  17
ENDBRANCH   1   8
BRANCH   4  24
ATOM     24  C   UNL d   1       4.631   3.809   1.324  0.00  0.00     0.011 A 
ATOM     25  C   UNL d   1       4.054   4.337   2.490  0.00  0.00     0.031 A 
ATOM     26  C   UNL d   1       4.808   5.118   3.381  0.00  0.00     0.049 A 
ATOM     27  C   UNL d   1       6.153   5.386   3.078  0.00  0.00     0.032 A 
ATOM     28  C   UNL d   1       6.746   4.879   1.911  0.00  0.00     0.049 A 
ATOM     29  C   UNL d   1       5.969   4.106   1.035  0.00  0.00     0.031 A 
BRANCH  26  30
ATOM     30  C   UNL d   1       4.180   5.613   4.664  0.00  0.00     0.417 C 
ATOM     31  F   UNL d   1       5.056   6.272   5.473  0.00  0.00    -0.166 F 
ATOM     32  F   UNL d   1       3.150   6.475   4.445  0.00  0.00    -0.166 F 
ATOM     33  F   UNL d   1       3.671   4.599   5.416  0.00  0.00    -0.166 F 
ENDBRANCH  26  30
BRANCH  28  34
ATOM     34  C   UNL d   1       8.207   5.102   1.603  0.00  0.00     0.417 C 
ATOM     35  F   UNL d   1       8.868   5.787   2.575  0.00  0.00    -0.166 F 
ATOM     36  F   UNL d   1       8.882   3.929   1.447  0.00  0.00    -0.166 F 
ATOM     37  F   UNL d   1       8.396   5.801   0.452  0.00  0.00    -0.166 F 
ENDBRANCH  28  34
ENDBRANCH   4  24
TORSDOF 6
