REMARK  5 active torsions:
REMARK  status: ('A' for Active; 'I' for Inactive)
REMARK    1  A    between atoms: N_2  and  C_1 
REMARK    2  A    between atoms: C_6  and  C_3 
REMARK    3  A    between atoms: O_16  and  C_7 
REMARK    4  A    between atoms: O_17  and  C_8 
REMARK    5  A    between atoms: O_18  and  C_9 
ROOT
ATOM      1  C   UNL d   1       1.791  -0.691   0.117  0.00  0.00     0.115 C 
ATOM      2  C   UNL d   1       2.338   0.613  -0.384  0.00  0.00     0.218 C 
ATOM      3  C   UNL d   1       0.527  -0.864   0.529  0.00  0.00     0.049 C 
ATOM      4  O   UNL d   1       1.633   1.745   0.209  0.00  0.00    -0.334 OA
ATOM      5  C   UNL d   1       0.271   1.585   0.311  0.00  0.00     0.080 A 
ATOM      6  C   UNL d   1      -0.326   0.321   0.441  0.00  0.00    -0.001 A 
ATOM      7  C   UNL d   1      -0.504   2.739   0.267  0.00  0.00     0.037 A 
ATOM      8  C   UNL d   1      -1.719   0.223   0.459  0.00  0.00     0.014 A 
ATOM      9  C   UNL d   1      -2.500   1.379   0.367  0.00  0.00     0.001 A 
ATOM     10  C   UNL d   1      -1.894   2.634   0.285  0.00  0.00     0.003 A 
ENDROOT
BRANCH   2  11
ATOM     11  C   UNL d   1       2.279   0.799  -1.903  0.00  0.00    -0.017 A 
ATOM     12  C   UNL d   1       1.254   0.233  -2.677  0.00  0.00     0.050 A 
ATOM     13  C   UNL d   1       1.125   0.481  -4.050  0.00  0.00     0.104 A 
ATOM     14  C   UNL d   1       2.073   1.288  -4.707  0.00  0.00     0.135 A 
ATOM     15  C   UNL d   1       3.098   1.881  -3.933  0.00  0.00     0.104 A 
ATOM     16  C   UNL d   1       3.195   1.628  -2.553  0.00  0.00     0.050 A 
BRANCH  13  17
ATOM     17  O   UNL d   1       0.107  -0.104  -4.763  0.00  0.00    -0.353 OA
ATOM     18  C   UNL d   1      -1.123  -0.308  -4.071  0.00  0.00     0.210 C 
ENDBRANCH  13  17
BRANCH  14  19
ATOM     19  O   UNL d   1       2.114   1.551  -6.051  0.00  0.00    -0.351 OA
ATOM     20  C   UNL d   1       1.145   0.987  -6.919  0.00  0.00     0.210 C 
ENDBRANCH  14  19
BRANCH  15  21
ATOM     21  O   UNL d   1       4.109   2.697  -4.385  0.00  0.00    -0.353 OA
ATOM     22  C   UNL d   1       3.806   3.558  -5.477  0.00  0.00     0.210 C 
ENDBRANCH  15  21
ENDBRANCH   2  11
BRANCH   1  23
ATOM     23  N   UNL d   1       2.694  -1.824   0.103  0.00  0.00    -0.117 N 
ATOM     24  O   UNL d   1       3.860  -1.622  -0.246  0.00  0.00    -0.532 OA
ATOM     25  O   UNL d   1       2.244  -2.931   0.440  0.00  0.00    -0.532 OA
ENDBRANCH   1  23
TORSDOF 5
