REMARK  2 active torsions:
REMARK  status: ('A' for Active; 'I' for Inactive)
REMARK    1  A    between atoms: C_8  and  N_1 
REMARK    2  A    between atoms: N_6  and  C_4 
ROOT
ATOM      1  N   UNL d   1       0.146   0.820   0.102  0.00  0.00    -0.251 N 
ATOM      2  C   UNL d   1      -0.948   0.064   0.480  0.00  0.00     0.265 C 
ATOM      3  C   UNL d   1       1.235   0.016  -0.158  0.00  0.00     0.233 C 
ATOM      4  C   UNL d   1      -0.656  -1.388   0.139  0.00  0.00     0.323 C 
ATOM      5  C   UNL d   1       0.862  -1.415   0.082  0.00  0.00     0.149 C 
ATOM      6  O   UNL d   1      -2.003   0.427   0.978  0.00  0.00    -0.270 OA
ATOM      7  O   UNL d   1       2.380   0.336  -0.457  0.00  0.00    -0.273 OA
ENDROOT
BRANCH   1   8
ATOM      8  C   UNL d   1       0.166   2.246   0.025  0.00  0.00     0.045 A 
ATOM      9  C   UNL d   1      -0.761   3.041   0.716  0.00  0.00     0.030 A 
ATOM     10  C   UNL d   1      -0.733   4.439   0.627  0.00  0.00     0.002 A 
ATOM     11  C   UNL d   1       0.209   5.072  -0.175  0.00  0.00     0.000 A 
ATOM     12  C   UNL d   1       1.124   4.307  -0.887  0.00  0.00     0.002 A 
ATOM     13  C   UNL d   1       1.106   2.911  -0.782  0.00  0.00     0.030 A 
ENDBRANCH   1   8
BRANCH   4  14
ATOM     14  N   UNL d   1      -1.296  -1.897  -1.094  0.00  0.00     0.106 N 
ATOM     15  C   UNL d   1      -0.978  -1.242  -2.376  0.00  0.00     0.299 C 
ATOM     16  C   UNL d   1      -1.864  -0.033  -2.713  0.00  0.00     0.198 C 
ATOM     17  O   UNL d   1      -3.246  -0.401  -2.702  0.00  0.00    -0.388 OA
ATOM     18  C   UNL d   1      -3.627  -0.908  -1.417  0.00  0.00     0.198 C 
ATOM     19  C   UNL d   1      -2.755  -2.105  -0.993  0.00  0.00     0.299 C 
ENDBRANCH   4  14
TORSDOF 2
