REMARK  1 active torsions:
REMARK  status: ('A' for Active; 'I' for Inactive)
REMARK    1  A    between atoms: C_15  and  C_1 
ROOT
ATOM      1  C   UNL d   1      -0.817   1.058   1.248  0.00  0.00     0.068 C 
ATOM      2  C   UNL d   1      -1.524   0.288   0.083  0.00  0.00     0.010 C 
ATOM      3  C   UNL d   1       0.720   0.765   1.129  0.00  0.00     0.010 C 
ATOM      4  C   UNL d   1      -1.045   2.526   1.131  0.00  0.00     0.071 C 
ATOM      5  N   UNL d   1      -1.203   3.673   1.055  0.00  0.00    -0.196 NA
ATOM      6  C   UNL d   1       0.531   0.478  -1.382  0.00  0.00    -0.013 C 
ATOM      7  C   UNL d   1       0.256  -1.513   0.132  0.00  0.00    -0.013 C 
ATOM      8  C   UNL d   1      -0.978   0.750  -1.289  0.00  0.00     0.011 C 
ATOM      9  C   UNL d   1       0.998  -0.751   1.245  0.00  0.00     0.011 C 
ATOM     10  C   UNL d   1       1.258   1.224  -0.251  0.00  0.00     0.011 C 
ATOM     11  C   UNL d   1      -1.255  -1.230   0.206  0.00  0.00     0.011 C 
ATOM     12  C   UNL d   1       0.780  -1.032  -1.231  0.00  0.00     0.009 C 
ENDROOT
BRANCH   1  13
ATOM     13  C   UNL d   1      -1.353   0.636   2.647  0.00  0.00     0.149 C 
ATOM     14  C   UNL d   1      -2.798   0.871   2.791  0.00  0.00     0.060 C 
ATOM     15  N   UNL d   1      -3.945   1.030   2.875  0.00  0.00    -0.197 NA
ENDBRANCH   1  13
TORSDOF 1
