REMARK  10 active torsions:
REMARK  status: ('A' for Active; 'I' for Inactive)
REMARK    1  A    between atoms: C_14  and  N_1 
REMARK    2  A    between atoms: C_17  and  C_5 
REMARK    3  A    between atoms: C_15  and  C_8 
REMARK    4  A    between atoms: C_9  and  C_14 
REMARK    5  A    between atoms: C_23  and  C_10 
REMARK    6  A    between atoms: C_24  and  C_11 
REMARK    7  A    between atoms: O_27  and  C_13 
REMARK    8  A    between atoms: C_22  and  C_17 
REMARK    9  A    between atoms: O_28  and  C_22 
REMARK   10  A    between atoms: C_37  and  O_28 
ROOT
ATOM      1  N   UNL d   1       5.151   0.532   0.862  0.00  0.00    -0.351 N 
ATOM      2  HN  UNL d   1       4.710   0.531   1.783  1.00  0.00     0.166 HD
ATOM      3  C   UNL d   1       6.197   1.365   0.489  0.00  0.00     0.049 A 
ATOM      4  C   UNL d   1       4.803  -0.259  -0.135  0.00  0.00     0.071 A 
ATOM      5  S   UNL d   1       5.744  -0.076  -1.565  0.00  0.00    -0.085 SA
ATOM      6  C   UNL d   1       6.643   1.170  -0.804  0.00  0.00     0.081 A 
ENDROOT
BRANCH   4   7
ATOM      7  C   UNL d   1       3.711  -1.289  -0.078  0.00  0.00     0.217 C 
BRANCH   7   8
ATOM      8  N   UNL d   1       2.423  -0.703  -0.452  0.00  0.00    -0.251 N 
ATOM      9  N   UNL d   1       2.116  -0.687  -1.794  0.00  0.00    -0.298 N 
ATOM     10  C   UNL d   1       0.967  -0.220  -2.184  0.00  0.00     0.046 A 
ATOM     11  HN  UNL d   1       2.786  -1.040  -2.478  1.00  0.00     0.187 HD
ATOM     12  C   UNL d   1      -0.061   0.279  -1.238  0.00  0.00     0.004 A 
ATOM     13  C   UNL d   1       0.275   0.296   0.113  0.00  0.00     0.046 A 
ATOM     14  C   UNL d   1      -1.337   0.706  -1.631  0.00  0.00     0.014 A 
ATOM     15  C   UNL d   1       1.582  -0.229   0.549  0.00  0.00     0.273 A 
ATOM     16  C   UNL d   1      -0.641   0.767   1.066  0.00  0.00     0.018 A 
ATOM     17  O   UNL d   1       1.839  -0.264   1.747  0.00  0.00    -0.266 OA
ATOM     18  C   UNL d   1      -1.899   1.211   0.668  0.00  0.00     0.001 A 
ATOM     19  C   UNL d   1      -2.248   1.176  -0.680  0.00  0.00     0.001 A 
BRANCH  10  20
ATOM     20  C   UNL d   1       0.683  -0.271  -3.674  0.00  0.00     0.170 C 
BRANCH  20  21
ATOM     21  C   UNL d   1       0.409   1.050  -4.337  0.00  0.00     0.264 C 
ATOM     22  O   UNL d   1       0.455   2.145  -3.796  0.00  0.00    -0.265 OA
BRANCH  21  23
ATOM     23  O   UNL d   1      -0.009   0.824  -5.618  0.00  0.00    -0.322 OA
BRANCH  23  24
ATOM     24  C   UNL d   1      -0.692   1.906  -6.268  0.00  0.00     0.174 C 
ATOM     25  C   UNL d   1       0.191   2.579  -7.298  0.00  0.00     0.034 C 
ENDBRANCH  23  24
ENDBRANCH  21  23
ENDBRANCH  20  21
ENDBRANCH  10  20
ENDBRANCH   7   8
ENDBRANCH   4   7
BRANCH   3  26
ATOM     26  C   UNL d   1       6.728   2.372   1.413  0.00  0.00    -0.008 A 
ATOM     27  C   UNL d   1       8.011   2.910   1.278  0.00  0.00     0.024 A 
ATOM     28  C   UNL d   1       8.514   3.883   2.166  0.00  0.00    -0.016 A 
ATOM     29  C   UNL d   1       7.661   4.294   3.227  0.00  0.00     0.079 A 
ATOM     30  C   UNL d   1       6.357   3.770   3.421  0.00  0.00    -0.016 A 
ATOM     31  C   UNL d   1       5.929   2.809   2.478  0.00  0.00     0.024 A 
BRANCH  28  32
ATOM     32  C   UNL d   1       9.940   4.468   1.981  0.00  0.00    -0.021 C 
ATOM     33  C   UNL d   1      10.700   3.867   0.769  0.00  0.00     0.019 C 
ATOM     34  C   UNL d   1       9.875   5.992   1.728  0.00  0.00     0.019 C 
ATOM     35  C   UNL d   1      10.822   4.183   3.219  0.00  0.00     0.019 C 
ENDBRANCH  28  32
BRANCH  29  36
ATOM     36  O   UNL d   1       8.191   5.235   4.068  0.00  0.00    -0.360 OA
ATOM     37  H   UNL d   1       7.533   5.545   4.699  0.00  0.00     0.217 HD
ENDBRANCH  29  36
BRANCH  30  38
ATOM     38  C   UNL d   1       5.416   4.161   4.591  0.00  0.00    -0.021 C 
ATOM     39  C   UNL d   1       4.072   3.378   4.596  0.00  0.00     0.019 C 
ATOM     40  C   UNL d   1       6.078   3.841   5.952  0.00  0.00     0.019 C 
ATOM     41  C   UNL d   1       5.011   5.652   4.515  0.00  0.00     0.019 C 
ENDBRANCH  30  38
ENDBRANCH   3  26
TORSDOF 10
