REMARK  2 active torsions:
REMARK  status: ('A' for Active; 'I' for Inactive)
REMARK    1  A    between atoms: N_4  and  C_1 
REMARK    2  A    between atoms: C_6  and  C_2 
REMARK       I    between atoms: C_8  and  N_4 
REMARK       I    between atoms: N_11  and  C_6 
ROOT
ATOM      1  C   UNL d   1       0.486  -1.204   0.025  0.00  0.00     0.092 A 
ATOM      2  C   UNL d   1       1.380  -0.144  -0.049  0.00  0.00     0.072 A 
ATOM      3  S   UNL d   1      -1.126  -0.714   0.286  0.00  0.00    -0.083 SA
ATOM      4  C   UNL d   1       0.645   1.123  -0.006  0.00  0.00    -0.037 A 
ATOM      5  C   UNL d   1      -0.716   0.924   0.131  0.00  0.00     0.059 A 
ATOM      6  C   UNL d   1       1.237   2.498  -0.083  0.00  0.00     0.050 C 
ENDROOT
BRANCH   1   7
ATOM      7  N   UNL d   1       0.569  -2.584   0.039  0.00  0.00    -0.321 N 
ATOM      8  C   UNL d   1       1.241  -3.293  -0.935  0.00  0.00     0.218 C 
ATOM      9  O   UNL d   1       1.826  -2.818  -1.903  0.00  0.00    -0.274 OA
ATOM     10  C   UNL d   1       1.204  -4.783  -0.704  0.00  0.00     0.117 C 
ATOM     11  H   UNL d   1      -0.251  -3.042   0.416  0.00  0.00     0.169 HD
ENDBRANCH   1   7
BRANCH   2  12
ATOM     12  C   UNL d   1       2.845  -0.215  -0.021  0.00  0.00     0.252 C 
ATOM     13  O   UNL d   1       3.538   0.565   0.629  0.00  0.00    -0.268 OA
ATOM     14  N   UNL d   1       3.454  -1.160  -0.780  0.00  0.00    -0.366 N 
ATOM     15  H   UNL d   1       2.935  -1.697  -1.473  0.00  0.00     0.159 HD
ATOM     16  H   UNL d   1       4.460  -1.138  -0.851  0.00  0.00     0.159 HD
ENDBRANCH   2  12
TORSDOF 2
