REMARK  9 active torsions:
REMARK  status: ('A' for Active; 'I' for Inactive)
REMARK    1  A    between atoms: C_9  and  C_3 
REMARK    2  A    between atoms: O_16  and  C_4 
REMARK    3  A    between atoms: S_11  and  C_5 
REMARK    4  A    between atoms: C_18  and  C_8 
REMARK    5  A    between atoms: C_13  and  C_9 
REMARK    6  A    between atoms: C_10  and  C_14 
REMARK    7  A    between atoms: C_12  and  C_10 
REMARK    8  A    between atoms: C_14  and  S_11 
REMARK    9  A    between atoms: O_19  and  C_18 
ROOT
ATOM      1  N   UNL d   1      -0.069  -1.114  -0.296  0.00  0.00    -0.317 N 
ATOM      2  HN  UNL d   1      -0.508  -2.019  -0.467  1.00  0.00     0.170 HD
ATOM      3  C   UNL d   1      -0.222   1.296  -0.145  0.00  0.00     0.021 C 
ATOM      4  C   UNL d   1      -0.741   0.039  -0.409  0.00  0.00     0.150 C 
ATOM      5  C   UNL d   1       1.212  -1.002   0.056  0.00  0.00     0.146 C 
ATOM      6  N   UNL d   1       1.867   0.164   0.169  0.00  0.00    -0.338 N 
ATOM      7  HN  UNL d   1       2.873   0.187   0.336  1.00  0.00     0.168 HD
ATOM      8  C   UNL d   1       1.152   1.310   0.054  0.00  0.00     0.045 C 
ENDROOT
BRANCH   5   9
ATOM      9  S   UNL d   1       2.114  -2.449   0.551  0.00  0.00    -0.086 SA
BRANCH   9  10
ATOM     10  C   UNL d   1       1.101  -3.756  -0.196  0.00  0.00     0.161 C 
BRANCH  10  11
ATOM     11  C   UNL d   1       1.716  -5.105   0.146  0.00  0.00     0.144 C 
ATOM     12  O   UNL d   1       2.693  -5.515  -0.499  0.00  0.00    -0.296 OA
BRANCH  11  13
ATOM     13  C   UNL d   1       1.070  -5.992   1.236  0.00  0.00     0.010 C 
ATOM     14  C   UNL d   1      -0.029  -6.830   0.568  0.00  0.00     0.022 C 
ATOM     15  C   UNL d   1       2.144  -6.937   1.809  0.00  0.00     0.022 C 
ATOM     16  C   UNL d   1       0.475  -5.197   2.405  0.00  0.00     0.022 C 
ENDBRANCH  11  13
ENDBRANCH  10  11
ENDBRANCH   9  10
ENDBRANCH   5   9
BRANCH   4  17
ATOM     17  O   UNL d   1      -2.037  -0.125  -0.810  0.00  0.00    -0.346 OA
ATOM     18  H   UNL d   1      -2.299   0.680  -1.285  0.00  0.00     0.219 HD
ENDBRANCH   4  17
BRANCH   8  19
ATOM     19  C   UNL d   1       1.963   2.587   0.104  0.00  0.00     0.224 C 
BRANCH  19  20
ATOM     20  O   UNL d   1       1.642   3.386   1.241  0.00  0.00    -0.390 OA
ATOM     21  C   UNL d   1       2.421   4.576   1.258  0.00  0.00     0.201 C 
ENDBRANCH  19  20
ENDBRANCH   8  19
BRANCH   3  22
ATOM     22  C   UNL d   1      -1.104   2.499   0.053  0.00  0.00     0.078 C 
BRANCH  22  23
ATOM     23  C   UNL d   1      -1.388   3.421  -1.109  0.00  0.00    -0.089 C 
ATOM     24  C   UNL d   1      -0.903   3.299  -2.357  0.00  0.00     0.014 C 
ATOM     25  C   UNL d   1      -2.306   4.569  -0.759  0.00  0.00     0.043 C 
ENDBRANCH  22  23
ENDBRANCH   3  22
TORSDOF 9
