REMARK  2 active torsions:
REMARK  status: ('A' for Active; 'I' for Inactive)
REMARK       I    between atoms: N_2  and  C_1 
REMARK    1  A    between atoms: C_3  and  C_1 
REMARK    2  A    between atoms: C_8  and  N_2 
ROOT
ATOM      1  C   UNL d   1       1.115  -0.009   0.093  0.00  0.00     0.256 C 
ATOM      2  N   UNL d   1       0.486   0.564  -1.000  0.00  0.00    -0.323 N 
ATOM      3  O   UNL d   1       2.321  -0.197   0.216  0.00  0.00    -0.267 OA
ATOM      4  H   UNL d   1      -0.478   0.852  -0.889  0.00  0.00     0.169 HD
ENDROOT
BRANCH   1   5
ATOM      5  C   UNL d   1       0.247  -0.389   1.242  0.00  0.00     0.034 A 
ATOM      6  C   UNL d   1      -1.067  -0.841   1.071  0.00  0.00     0.044 A 
ATOM      7  C   UNL d   1      -1.798  -1.261   2.187  0.00  0.00     0.073 A 
ATOM      8 CL   UNL d   1      -3.407  -1.836   1.969  0.00  0.00    -0.081 Cl
ATOM      9  C   UNL d   1      -1.225  -1.232   3.459  0.00  0.00     0.138 A 
ATOM     10  C   UNL d   1       0.079  -0.783   3.635  0.00  0.00     0.045 A 
ATOM     11  F   UNL d   1      -1.913  -1.647   4.532  0.00  0.00    -0.204 F 
ATOM     12  C   UNL d   1       0.816  -0.365   2.527  0.00  0.00     0.020 A 
ENDBRANCH   1   5
BRANCH   2  13
ATOM     13  C   UNL d   1       1.114   0.933  -2.213  0.00  0.00     0.036 A 
ATOM     14  C   UNL d   1       2.409   0.530  -2.564  0.00  0.00     0.056 A 
ATOM     15  C   UNL d   1       2.979   0.944  -3.770  0.00  0.00     0.074 A 
ATOM     16 CL   UNL d   1       4.575   0.437  -4.173  0.00  0.00    -0.081 Cl
ATOM     17  C   UNL d   1       2.257   1.760  -4.634  0.00  0.00     0.138 A 
ATOM     18  C   UNL d   1       0.963   2.153  -4.312  0.00  0.00     0.046 A 
ATOM     19  F   UNL d   1       2.790   2.180  -5.791  0.00  0.00    -0.204 F 
ATOM     20  C   UNL d   1       0.387   1.732  -3.107  0.00  0.00     0.032 A 
ENDBRANCH   2  13
TORSDOF 2
