REMARK  4 active torsions:
REMARK  status: ('A' for Active; 'I' for Inactive)
REMARK    1  A    between atoms: C_2  and  N_1 
REMARK    2  A    between atoms: O_12  and  C_6 
REMARK    3  A    between atoms: C_9  and  C_10 
REMARK    4  A    between atoms: C_15  and  O_12 
ROOT
ATOM      1  O   UNL d   1      -1.669   4.149  -2.317  0.00  0.00    -0.294 OA
ENDROOT
BRANCH   1   2
ATOM      2  C   UNL d   1      -2.580   3.154  -1.989  0.00  0.00     0.148 A 
ATOM      3  C   UNL d   1      -2.271   2.324  -0.919  0.00  0.00     0.059 A 
ATOM      4  C   UNL d   1      -3.161   1.291  -0.602  0.00  0.00     0.041 A 
ATOM      5  C   UNL d   1      -4.319   1.141  -1.367  0.00  0.00     0.118 A 
ATOM      6  C   UNL d   1      -4.560   2.025  -2.402  0.00  0.00     0.126 A 
ATOM      7  N   UNL d   1      -3.725   3.043  -2.712  0.00  0.00    -0.344 N 
ATOM      8  HN  UNL d   1      -3.947   3.702  -3.458  1.00  0.00     0.167 HD
BRANCH   5   9
ATOM      9  N   UNL d   1      -5.274   0.074  -1.103  0.00  0.00    -0.114 N 
ATOM     10  O   UNL d   1      -6.275   0.004  -1.828  0.00  0.00    -0.532 OA
ATOM     11  O   UNL d   1      -5.026  -0.701  -0.167  0.00  0.00    -0.532 OA
ENDBRANCH   5   9
ENDBRANCH   1   2
BRANCH   1  12
ATOM     12  C   UNL d   1      -1.617   4.558  -3.635  0.00  0.00     0.077 A 
ATOM     13  C   UNL d   1      -1.356   5.903  -3.883  0.00  0.00     0.038 A 
ATOM     14  C   UNL d   1      -1.258   6.370  -5.204  0.00  0.00     0.011 A 
ATOM     15  C   UNL d   1      -1.416   5.506  -6.306  0.00  0.00    -0.050 A 
ATOM     16  C   UNL d   1      -1.674   4.155  -6.024  0.00  0.00     0.011 A 
ATOM     17  C   UNL d   1      -1.750   3.684  -4.711  0.00  0.00     0.038 A 
BRANCH  15  18
ATOM     18  C   UNL d   1      -1.298   6.028  -7.750  0.00  0.00    -0.024 C 
ATOM     19  C   UNL d   1      -1.495   4.921  -8.813  0.00  0.00     0.019 C 
ATOM     20  C   UNL d   1      -2.361   7.116  -8.012  0.00  0.00     0.019 C 
ATOM     21  C   UNL d   1       0.101   6.637  -7.987  0.00  0.00     0.019 C 
ENDBRANCH  15  18
ENDBRANCH   1  12
TORSDOF 4
