REMARK  6 active torsions:
REMARK  status: ('A' for Active; 'I' for Inactive)
REMARK    1  A    between atoms: C_4  and  C_1 
REMARK    2  A    between atoms: C_6  and  C_2 
REMARK    3  A    between atoms: N_9  and  C_3 
REMARK       I    between atoms: N_15  and  C_4 
REMARK    4  A    between atoms: C_5  and  N_9 
REMARK    5  A    between atoms: O_16  and  C_6 
REMARK    6  A    between atoms: C_17  and  O_16 
ROOT
ATOM      1  C   UNL d   1       3.566   3.997  -0.198  0.00  0.00     0.135 C 
ATOM      2  C   UNL d   1       2.438   3.262  -0.214  0.00  0.00     0.117 C 
ATOM      3  C   UNL d   1       3.557   5.414  -0.105  0.00  0.00     0.107 C 
ATOM      4  N   UNL d   1       3.562   6.571  -0.012  0.00  0.00    -0.191 NA
ENDROOT
BRANCH   1   5
ATOM      5  C   UNL d   1       4.846   3.248  -0.156  0.00  0.00     0.305 C 
ATOM      6  O   UNL d   1       4.940   2.038  -0.307  0.00  0.00    -0.258 OA
BRANCH   5   7
ATOM      7  O   UNL d   1       5.880   4.083   0.123  0.00  0.00    -0.317 OA
BRANCH   7   8
ATOM      8  C   UNL d   1       7.151   3.458   0.365  0.00  0.00     0.174 C 
ATOM      9  C   UNL d   1       7.291   3.174   1.849  0.00  0.00     0.034 C 
ENDBRANCH   7   8
ENDBRANCH   5   7
ENDBRANCH   1   5
BRANCH   2  10
ATOM     10  N   UNL d   1       1.109   3.641  -0.205  0.00  0.00    -0.363 N 
ATOM     11  H   UNL d   1       0.548   3.127   0.489  0.00  0.00     0.165 HD
BRANCH  10  12
ATOM     12  C   UNL d   1       0.423   4.399  -1.104  0.00  0.00     0.055 A 
ATOM     13  C   UNL d   1      -0.909   4.743  -0.917  0.00  0.00     0.099 A 
ATOM     14  S   UNL d   1      -1.512   5.647  -2.243  0.00  0.00    -0.094 SA
ATOM     15  C   UNL d   1      -0.023   5.556  -3.072  0.00  0.00     0.053 A 
ATOM     16  C   UNL d   1       0.928   4.872  -2.349  0.00  0.00     0.038 A 
BRANCH  13  17
ATOM     17  C   UNL d   1      -1.747   4.412   0.226  0.00  0.00     0.258 C 
ATOM     18  O   UNL d   1      -1.389   3.676   1.146  0.00  0.00    -0.267 OA
ATOM     19  N   UNL d   1      -3.006   4.945   0.259  0.00  0.00    -0.365 N 
ATOM     20  H   UNL d   1      -3.335   5.573  -0.460  0.00  0.00     0.159 HD
ATOM     21  H   UNL d   1      -3.587   4.748   1.060  0.00  0.00     0.159 HD
ENDBRANCH  13  17
ENDBRANCH  10  12
ENDBRANCH   2  10
TORSDOF 6
