REMARK  4 active torsions:
REMARK  status: ('A' for Active; 'I' for Inactive)
REMARK    1  A    between atoms: C_4  and  C_3 
REMARK    2  A    between atoms: O_10  and  C_4 
REMARK    3  A    between atoms: O_12  and  C_5 
REMARK    4  A    between atoms: O_11  and  C_6 
ROOT
ATOM      1  N   UNL d   1      -0.693   1.181   0.028  0.00  0.00    -0.318 N 
ATOM      2  HN  UNL d   1      -1.205   2.063   0.044  1.00  0.00     0.170 HD
ATOM      3  C   UNL d   1       0.709  -1.240   0.014  0.00  0.00     0.045 A 
ATOM      4  C   UNL d   1      -1.308  -0.010   0.014  0.00  0.00     0.142 A 
ATOM      5  C   UNL d   1       0.648   1.125   0.019  0.00  0.00     0.142 A 
ATOM      6  C   UNL d   1      -0.685  -1.240   0.003  0.00  0.00     0.074 A 
ATOM      7  C   UNL d   1       1.399  -0.028   0.011  0.00  0.00     0.074 A 
ENDROOT
BRANCH   3   8
ATOM      8  C   UNL d   1       1.507  -2.489  -0.030  0.00  0.00     0.176 C 
ATOM      9  O   UNL d   1       2.620  -2.533  -0.525  0.00  0.00    -0.646 OA
BRANCH   8  10
ATOM     10  O   UNL d   1       0.918  -3.553   0.550  0.00  0.00    -0.773 OA
ATOM     11  H   UNL d   1       0.108  -3.374   1.060  0.00  0.00     0.167 HD
ENDBRANCH   8  10
ENDBRANCH   3   8
BRANCH   5  12
ATOM     12  O   UNL d   1       1.259   2.336   0.014  0.00  0.00    -0.346 OA
ATOM     13  H   UNL d   1       0.491   2.933   0.002  0.00  0.00     0.219 HD
ENDBRANCH   5  12
BRANCH   4  14
ATOM     14  O   UNL d   1      -2.662   0.061   0.005  0.00  0.00    -0.346 OA
ATOM     15  H   UNL d   1      -2.795   1.027  -0.006  0.00  0.00     0.219 HD
ENDBRANCH   4  14
TORSDOF 4
