REMARK  6 active torsions:
REMARK  status: ('A' for Active; 'I' for Inactive)
REMARK    1  A    between atoms: C_11  and  C_2 
REMARK    2  A    between atoms: S_18  and  C_5 
REMARK    3  A    between atoms: C_8  and  C_13 
REMARK    4  A    between atoms: C_9  and  C_12 
REMARK    5  A    between atoms: C_10  and  C_15 
REMARK    6  A    between atoms: C_15  and  S_18 
ROOT
ATOM      1  N   UNL d   1      -1.206  -0.023   0.186  0.00  0.00    -0.320 N 
ATOM      2  C   UNL d   1      -0.420   1.075  -0.064  0.00  0.00     0.132 A 
ATOM      3  N   UNL d   1       0.802   0.643  -0.327  0.00  0.00    -0.283 N 
ATOM      4  HN  UNL d   1       1.587   1.222  -0.625  1.00  0.00     0.188 HD
ATOM      5  C   UNL d   1      -0.371  -1.095   0.204  0.00  0.00     0.161 A 
ATOM      6  N   UNL d   1       0.838  -0.722  -0.133  0.00  0.00    -0.278 N 
ATOM      7  HN  UNL d   1       1.653  -1.327  -0.232  1.00  0.00     0.189 HD
ATOM      8  H   UNL d   1      -2.194  -0.040   0.392  0.00  0.00     0.169 HD
ENDROOT
BRANCH   2   9
ATOM      9  C   UNL d   1      -0.851   2.473   0.015  0.00  0.00     0.011 A 
ATOM     10  C   UNL d   1      -1.919   2.866   0.835  0.00  0.00     0.031 A 
ATOM     11  C   UNL d   1      -2.250   4.223   1.003  0.00  0.00     0.049 A 
ATOM     12  C   UNL d   1      -1.509   5.197   0.317  0.00  0.00     0.032 A 
ATOM     13  C   UNL d   1      -0.439   4.833  -0.514  0.00  0.00     0.049 A 
ATOM     14  C   UNL d   1      -0.124   3.468  -0.657  0.00  0.00     0.031 A 
BRANCH  11  15
ATOM     15  C   UNL d   1      -3.361   4.612   1.951  0.00  0.00     0.417 C 
ATOM     16  F   UNL d   1      -3.544   5.956   2.058  0.00  0.00    -0.166 F 
ATOM     17  F   UNL d   1      -4.562   4.095   1.578  0.00  0.00    -0.166 F 
ATOM     18  F   UNL d   1      -3.136   4.161   3.216  0.00  0.00    -0.166 F 
ENDBRANCH  11  15
BRANCH  13  19
ATOM     19  C   UNL d   1       0.390   5.881  -1.221  0.00  0.00     0.417 C 
ATOM     20  F   UNL d   1      -0.000   7.155  -0.936  0.00  0.00    -0.166 F 
ATOM     21  F   UNL d   1       1.708   5.814  -0.891  0.00  0.00    -0.166 F 
ATOM     22  F   UNL d   1       0.331   5.769  -2.576  0.00  0.00    -0.166 F 
ENDBRANCH  13  19
ENDBRANCH   2   9
BRANCH   5  23
ATOM     23  S   UNL d   1      -0.923  -2.653   0.688  0.00  0.00    -0.088 SA
BRANCH  23  24
ATOM     24  C   UNL d   1       0.636  -3.355   1.317  0.00  0.00     0.126 C 
BRANCH  24  25
ATOM     25  C   UNL d   1       0.450  -4.697   1.977  0.00  0.00     0.012 A 
ATOM     26  C   UNL d   1       0.159  -4.751   3.346  0.00  0.00     0.125 A 
ATOM     27  F   UNL d   1       0.019  -3.611   4.041  0.00  0.00    -0.205 F 
ATOM     28  C   UNL d   1       0.023  -5.958   4.030  0.00  0.00     0.043 A 
ATOM     29  C   UNL d   1       0.173  -7.160   3.344  0.00  0.00     0.005 A 
ATOM     30  C   UNL d   1       0.442  -7.136   1.976  0.00  0.00     0.024 A 
ATOM     31  C   UNL d   1       0.571  -5.917   1.295  0.00  0.00     0.044 A 
ATOM     32 CL   UNL d   1       0.893  -5.989  -0.400  0.00  0.00    -0.084 Cl
ENDBRANCH  24  25
ENDBRANCH  23  24
ENDBRANCH   5  23
TORSDOF 6
