REMARK  4 active torsions:
REMARK  status: ('A' for Active; 'I' for Inactive)
REMARK    1  A    between atoms: C_6  and  N_1 
REMARK    2  A    between atoms: C_2  and  C_8 
REMARK    3  A    between atoms: C_14  and  C_3 
REMARK    4  A    between atoms: O_20  and  C_15 
ROOT
ATOM      1  C   UNL d   1      -1.987  -1.925   4.460  0.00  0.00     0.055 C 
ATOM      2  C   UNL d   1      -3.143  -2.610   4.252  0.00  0.00     0.034 C 
ATOM      3  C   UNL d   1      -1.206  -1.414   3.310  0.00  0.00     0.100 C 
ATOM      4  N   UNL d   1      -0.604  -1.012   2.404  0.00  0.00    -0.191 NA
ENDROOT
BRANCH   1   5
ATOM      5  C   UNL d   1      -1.534  -1.661   5.880  0.00  0.00    -0.015 A 
ATOM      6  C   UNL d   1      -1.817  -2.544   6.948  0.00  0.00     0.015 A 
ATOM      7  C   UNL d   1      -1.368  -2.284   8.251  0.00  0.00     0.037 A 
ATOM      8  C   UNL d   1      -0.614  -1.135   8.504  0.00  0.00     0.102 A 
ATOM      9  C   UNL d   1      -0.310  -0.249   7.466  0.00  0.00     0.037 A 
ATOM     10  C   UNL d   1      -0.770  -0.515   6.168  0.00  0.00     0.015 A 
BRANCH   8  11
ATOM     11  N   UNL d   1      -0.135  -0.863   9.866  0.00  0.00    -0.116 N 
ATOM     12  O   UNL d   1       0.539   0.161  10.045  0.00  0.00    -0.532 OA
ATOM     13  O   UNL d   1      -0.434  -1.673  10.754  0.00  0.00    -0.532 OA
ENDBRANCH   8  11
ENDBRANCH   1   5
BRANCH   2  14
ATOM     14  C   UNL d   1      -3.668  -2.916   2.912  0.00  0.00    -0.035 A 
ATOM     15  C   UNL d   1      -3.279  -4.088   2.250  0.00  0.00     0.014 A 
ATOM     16  C   UNL d   1      -3.760  -4.363   0.966  0.00  0.00     0.037 A 
ATOM     17  C   UNL d   1      -4.622  -3.467   0.345  0.00  0.00     0.065 A 
ATOM     18  C   UNL d   1      -5.019  -2.300   0.989  0.00  0.00     0.037 A 
ATOM     19  C   UNL d   1      -4.540  -2.025   2.275  0.00  0.00     0.014 A 
BRANCH  17  20
ATOM     20  O   UNL d   1      -5.061  -3.773  -0.909  0.00  0.00    -0.361 OA
ATOM     21  H   UNL d   1      -5.594  -3.033  -1.243  0.00  0.00     0.217 HD
ENDBRANCH  17  20
ENDBRANCH   2  14
TORSDOF 4
