REMARK  4 active torsions:
REMARK  status: ('A' for Active; 'I' for Inactive)
REMARK    1  A    between atoms: S_3  and  C_1 
REMARK    2  A    between atoms: N_4  and  C_2 
REMARK    3  A    between atoms: C_12  and  S_3 
REMARK       I    between atoms: C_6  and  N_4 
REMARK    4  A    between atoms: C_9  and  C_6 
ROOT
ATOM      1  C   UNL d   1      -2.508   1.369   0.135  0.00  0.00     0.099 C 
ATOM      2  C   UNL d   1      -1.083   1.410   0.334  0.00  0.00     0.082 C 
ATOM      3  C   UNL d   1      -0.604   0.126   0.527  0.00  0.00     0.079 C 
ATOM      4  C   UNL d   1      -2.988   0.083  -0.015  0.00  0.00     0.077 C 
ATOM      5  S   UNL d   1      -1.764  -1.082   0.231  0.00  0.00    -0.090 SA
ATOM      6 BR   UNL d   1       1.086  -0.329   1.228  0.00  0.00    -0.041 Br
ENDROOT
BRANCH   2   7
ATOM      7  N   UNL d   1      -0.335   2.591   0.396  0.00  0.00    -0.320 N 
ATOM      8  C   UNL d   1       0.863   2.741  -0.282  0.00  0.00     0.258 C 
ATOM      9  O   UNL d   1       1.368   1.899  -1.020  0.00  0.00    -0.267 OA
ATOM     10  H   UNL d   1      -0.852   3.441   0.629  0.00  0.00     0.169 HD
BRANCH   8  11
ATOM     11  C   UNL d   1       1.464   4.100  -0.249  0.00  0.00     0.054 A 
ATOM     12  C   UNL d   1       1.560   4.886   0.902  0.00  0.00     0.049 A 
ATOM     13 CL   UNL d   1       1.076   4.338   2.467  0.00  0.00    -0.083 Cl
ATOM     14  C   UNL d   1       2.112   6.171   0.821  0.00  0.00     0.025 A 
ATOM     15  C   UNL d   1       2.583   6.665  -0.399  0.00  0.00     0.002 A 
ATOM     16  C   UNL d   1       2.518   5.872  -1.540  0.00  0.00     0.001 A 
ATOM     17  C   UNL d   1       1.967   4.592  -1.467  0.00  0.00     0.019 A 
ENDBRANCH   8  11
ENDBRANCH   2   7
BRANCH   1  18
ATOM     18  S   UNL d   1      -3.533   2.765   0.059  0.00  0.00     0.209 S 
ATOM     19  O   UNL d   1      -4.788   2.308   0.620  0.00  0.00    -0.217 OA
ATOM     20  O   UNL d   1      -2.751   3.829   0.664  0.00  0.00    -0.217 OA
BRANCH  18  21
ATOM     21  C   UNL d   1      -3.789   3.196  -1.633  0.00  0.00     0.064 A 
ATOM     22  C   UNL d   1      -5.049   3.679  -2.012  0.00  0.00     0.024 A 
ATOM     23  C   UNL d   1      -5.260   4.104  -3.323  0.00  0.00     0.002 A 
ATOM     24  C   UNL d   1      -4.219   4.043  -4.250  0.00  0.00     0.000 A 
ATOM     25  C   UNL d   1      -2.968   3.551  -3.871  0.00  0.00     0.002 A 
ATOM     26  C   UNL d   1      -2.747   3.125  -2.560  0.00  0.00     0.024 A 
ENDBRANCH  18  21
ENDBRANCH   1  18
TORSDOF 4
