REMARK  8 active torsions:
REMARK  status: ('A' for Active; 'I' for Inactive)
REMARK    1  A    between atoms: O_2  and  S_1 
REMARK    2  A    between atoms: C_5  and  S_1 
REMARK    3  A    between atoms: C_3  and  O_2 
REMARK    4  A    between atoms: C_7  and  C_4 
REMARK    5  A    between atoms: O_25  and  C_7 
REMARK    6  A    between atoms: C_8  and  N_18 
REMARK    7  A    between atoms: N_18  and  C_17 
REMARK    8  A    between atoms: C_29  and  O_25 
ROOT
ATOM      1  C   UNL d   1       5.351   7.631  -2.259  0.00  0.00     0.135 C 
ATOM      2  C   UNL d   1       5.094   6.332  -2.023  0.00  0.00     0.117 C 
ATOM      3  C   UNL d   1       4.371   8.643  -2.068  0.00  0.00     0.107 C 
ATOM      4  N   UNL d   1       3.531   9.423  -1.891  0.00  0.00    -0.191 NA
ENDROOT
BRANCH   1   5
ATOM      5  C   UNL d   1       6.734   7.995  -2.662  0.00  0.00     0.305 C 
ATOM      6  O   UNL d   1       7.630   7.184  -2.847  0.00  0.00    -0.258 OA
BRANCH   5   7
ATOM      7  O   UNL d   1       6.870   9.342  -2.700  0.00  0.00    -0.317 OA
BRANCH   7   8
ATOM      8  C   UNL d   1       8.220   9.832  -2.693  0.00  0.00     0.174 C 
ATOM      9  C   UNL d   1       8.652   9.998  -1.247  0.00  0.00     0.034 C 
ENDBRANCH   7   8
ENDBRANCH   5   7
ENDBRANCH   1   5
BRANCH   2  10
ATOM     10  N   UNL d   1       3.913   5.760  -1.618  0.00  0.00    -0.364 N 
ATOM     11  H   UNL d   1       3.114   6.388  -1.512  0.00  0.00     0.165 HD
BRANCH  10  12
ATOM     12  C   UNL d   1       3.629   4.414  -1.332  0.00  0.00     0.034 A 
ATOM     13  C   UNL d   1       2.288   4.011  -1.369  0.00  0.00     0.039 A 
ATOM     14  C   UNL d   1       1.881   2.683  -1.131  0.00  0.00    -0.023 A 
ATOM     15  C   UNL d   1       2.861   1.703  -0.930  0.00  0.00     0.117 A 
ATOM     16  C   UNL d   1       0.398   2.437  -1.125  0.00  0.00     0.051 C 
ATOM     17  C   UNL d   1       4.209   2.102  -0.869  0.00  0.00     0.071 A 
ATOM     18  C   UNL d   1       4.590   3.437  -1.075  0.00  0.00     0.056 A 
ATOM     19 CL   UNL d   1       5.458   0.951  -0.520  0.00  0.00    -0.081 Cl
BRANCH  15  20
ATOM     20  O   UNL d   1       2.600   0.364  -0.707  0.00  0.00    -0.227 OA
BRANCH  20  21
ATOM     21  S   UNL d   1       1.552  -0.476  -1.634  0.00  0.00     0.303 S 
ATOM     22  O   UNL d   1       1.577   0.048  -2.987  0.00  0.00    -0.193 OA
ATOM     23  O   UNL d   1       0.307  -0.630  -0.905  0.00  0.00    -0.193 OA
BRANCH  21  24
ATOM     24  C   UNL d   1       2.203  -2.125  -1.742  0.00  0.00     0.090 A 
ATOM     25  C   UNL d   1       2.962  -2.662  -0.704  0.00  0.00     0.049 A 
ATOM     26  C   UNL d   1       3.411  -3.977  -0.816  0.00  0.00     0.037 A 
ATOM     27 CL   UNL d   1       4.337  -4.670   0.459  0.00  0.00    -0.084 Cl
ATOM     28  C   UNL d   1       3.112  -4.746  -1.942  0.00  0.00     0.047 A 
ATOM     29  C   UNL d   1       2.350  -4.193  -2.968  0.00  0.00     0.037 A 
ATOM     30  C   UNL d   1       1.891  -2.883  -2.877  0.00  0.00     0.049 A 
ATOM     31 CL   UNL d   1       1.963  -5.136  -4.353  0.00  0.00    -0.084 Cl
ENDBRANCH  21  24
ENDBRANCH  20  21
ENDBRANCH  15  20
ENDBRANCH  10  12
ENDBRANCH   2  10
TORSDOF 8
