REMARK  2 active torsions:
REMARK  status: ('A' for Active; 'I' for Inactive)
REMARK    1  A    between atoms: C_2  and  C_1 
REMARK       I    between atoms: N_3  and  C_1 
REMARK    2  A    between atoms: C_5  and  N_3 
ROOT
ATOM      1  C   UNL d   1      -1.534  -1.666  -0.923  0.00  0.00    -0.086 C 
ATOM      2  C   UNL d   1      -1.150  -1.176   0.425  0.00  0.00     0.096 C 
ATOM      3  C   UNL d   1      -1.843  -2.088  -2.005  0.00  0.00     0.015 C 
ATOM      4  C   UNL d   1      -1.994   0.062   0.799  0.00  0.00     0.044 C 
ATOM      5  C   UNL d   1      -1.476  -2.289   1.458  0.00  0.00     0.044 C 
ATOM      6  C   UNL d   1      -1.697   0.552   2.216  0.00  0.00     0.004 C 
ATOM      7  C   UNL d   1      -1.224  -1.840   2.902  0.00  0.00     0.004 C 
ATOM      8  C   UNL d   1      -1.957  -0.544   3.244  0.00  0.00     0.000 C 
ENDROOT
BRANCH   2   9
ATOM      9  N   UNL d   1       0.308  -0.973   0.428  0.00  0.00    -0.337 N 
ATOM     10  C   UNL d   1       0.966   0.191   0.086  0.00  0.00     0.253 C 
ATOM     11  O   UNL d   1       0.407   1.248  -0.179  0.00  0.00    -0.268 OA
ATOM     12  H   UNL d   1       0.826  -1.833   0.349  0.00  0.00     0.164 HD
BRANCH  10  13
ATOM     13  C   UNL d   1       2.461   0.148   0.036  0.00  0.00     0.035 A 
ATOM     14  C   UNL d   1       3.215  -0.958   0.449  0.00  0.00     0.041 A 
ATOM     15  C   UNL d   1       4.604  -0.943   0.307  0.00  0.00     0.036 A 
ATOM     16 CL   UNL d   1       5.517  -2.322   0.783  0.00  0.00    -0.084 Cl
ATOM     17  C   UNL d   1       5.260   0.166  -0.218  0.00  0.00     0.047 A 
ATOM     18  C   UNL d   1       4.516   1.284  -0.580  0.00  0.00     0.036 A 
ATOM     19  C   UNL d   1       3.129   1.284  -0.450  0.00  0.00     0.041 A 
ATOM     20 CL   UNL d   1       5.316   2.672  -1.207  0.00  0.00    -0.084 Cl
ENDBRANCH  10  13
ENDBRANCH   2   9
TORSDOF 2
