REMARK  5 active torsions:
REMARK  status: ('A' for Active; 'I' for Inactive)
REMARK    1  A    between atoms: C_8  and  C_3 
REMARK    2  A    between atoms: C_9  and  N_4 
REMARK    3  A    between atoms: C_10  and  C_9 
REMARK    4  A    between atoms: O_19  and  C_10 
REMARK    5  A    between atoms: C_20  and  O_19 
ROOT
ATOM      1  N   UNL d   1      -0.309  -1.190  -0.151  0.00  0.00    -0.268 N 
ATOM      2  HN  UNL d   1      -0.520  -2.166  -0.358  1.00  0.00     0.190 HD
ATOM      3  C   UNL d   1       0.878  -0.578   0.004  0.00  0.00     0.144 A 
ATOM      4  N   UNL d   1      -1.143  -0.147   0.044  0.00  0.00    -0.207 N 
ATOM      5  N   UNL d   1       0.747   0.781   0.185  0.00  0.00    -0.266 N 
ATOM      6  HN  UNL d   1       1.505   1.453   0.302  1.00  0.00     0.186 HD
ATOM      7  N   UNL d   1      -0.549   1.050   0.180  0.00  0.00    -0.002 NA
ENDROOT
BRANCH   3   8
ATOM      8  C   UNL d   1       2.168  -1.251  -0.011  0.00  0.00     0.014 A 
ATOM      9  C   UNL d   1       2.255  -2.638  -0.205  0.00  0.00     0.039 A 
ATOM     10  C   UNL d   1       3.499  -3.270  -0.206  0.00  0.00     0.036 A 
ATOM     11 CL   UNL d   1       3.591  -4.972  -0.443  0.00  0.00    -0.084 Cl
ATOM     12  C   UNL d   1       4.668  -2.539  -0.014  0.00  0.00     0.047 A 
ATOM     13  C   UNL d   1       4.584  -1.163   0.179  0.00  0.00     0.036 A 
ATOM     14  C   UNL d   1       3.347  -0.518   0.181  0.00  0.00     0.039 A 
ATOM     15 CL   UNL d   1       6.021  -0.248   0.420  0.00  0.00    -0.084 Cl
ENDBRANCH   3   8
BRANCH   4  16
ATOM     16  C   UNL d   1      -2.574  -0.276  -0.050  0.00  0.00     0.278 C 
BRANCH  16  17
ATOM     17  C   UNL d   1      -3.154  -0.689   1.268  0.00  0.00     0.280 C 
ATOM     18  O   UNL d   1      -2.543  -0.859   2.312  0.00  0.00    -0.263 OA
BRANCH  17  19
ATOM     19  O   UNL d   1      -4.497  -0.898   1.111  0.00  0.00    -0.320 OA
BRANCH  19  20
ATOM     20  C   UNL d   1      -5.150  -1.571   2.199  0.00  0.00     0.174 C 
ATOM     21  C   UNL d   1      -5.089  -3.064   1.937  0.00  0.00     0.034 C 
ENDBRANCH  19  20
ENDBRANCH  17  19
ENDBRANCH  16  17
ENDBRANCH   4  16
TORSDOF 5
