REMARK  4 active torsions:
REMARK  status: ('A' for Active; 'I' for Inactive)
REMARK    1  A    between atoms: C_7  and  C_3 
REMARK    2  A    between atoms: N_15  and  C_4 
REMARK    3  A    between atoms: C_14  and  C_6 
REMARK    4  A    between atoms: O_21  and  C_18 
ROOT
ATOM      1  C   UNL d   1      -0.438   1.366  -0.070  0.00  0.00     0.066 C 
ATOM      2  C   UNL d   1      -0.849  -1.130  -0.067  0.00  0.00     0.081 C 
ATOM      3  C   UNL d   1       0.887   1.103  -0.034  0.00  0.00     0.077 C 
ATOM      4  C   UNL d   1       0.489  -1.293  -0.036  0.00  0.00     0.138 C 
ATOM      5  O   UNL d   1       1.352  -0.208   0.047  0.00  0.00    -0.300 OA
ATOM      6  C   UNL d   1      -1.466   0.254   0.010  0.00  0.00     0.112 C 
ATOM      7  C   UNL d   1      -0.892   2.716  -0.193  0.00  0.00     0.099 C 
ATOM      8  C   UNL d   1      -1.716  -2.263  -0.152  0.00  0.00     0.100 C 
ATOM      9  N   UNL d   1      -1.245   3.815  -0.310  0.00  0.00    -0.192 NA
ATOM     10  N   UNL d   1      -2.406  -3.188  -0.252  0.00  0.00    -0.191 NA
ENDROOT
BRANCH   3  11
ATOM     11  C   UNL d   1       1.927   2.156  -0.102  0.00  0.00     0.044 A 
ATOM     12  C   UNL d   1       3.232   2.021   0.638  0.00  0.00     0.012 A 
ATOM     13  C   UNL d   1       2.190   2.976   1.139  0.00  0.00     0.012 A 
ENDBRANCH   3  11
BRANCH   6  14
ATOM     14  C   UNL d   1      -2.589   0.445  -1.008  0.00  0.00    -0.043 A 
ATOM     15  C   UNL d   1      -3.892   0.715  -0.560  0.00  0.00     0.011 A 
ATOM     16  C   UNL d   1      -4.934   0.907  -1.471  0.00  0.00     0.037 A 
ATOM     17  C   UNL d   1      -4.690   0.832  -2.841  0.00  0.00     0.068 A 
ATOM     18  C   UNL d   1      -3.396   0.566  -3.292  0.00  0.00     0.037 A 
ATOM     19  C   UNL d   1      -2.349   0.375  -2.388  0.00  0.00     0.011 A 
BRANCH  17  20
ATOM     20  O   UNL d   1      -5.619   0.997  -3.830  0.00  0.00    -0.356 OA
ATOM     21  C   UNL d   1      -6.945   1.300  -3.415  0.00  0.00     0.210 C 
ENDBRANCH  17  20
ENDBRANCH   6  14
BRANCH   4  22
ATOM     22  N   UNL d   1       1.150  -2.498  -0.073  0.00  0.00    -0.282 NA
ATOM     23  H   UNL d   1       0.648  -3.268  -0.513  0.00  0.00     0.126 HD
ATOM     24  H   UNL d   1       2.107  -2.404  -0.404  0.00  0.00     0.126 HD
ENDBRANCH   4  22
TORSDOF 4
