REMARK  9 active torsions:
REMARK  status: ('A' for Active; 'I' for Inactive)
REMARK    1  A    between atoms: C_1  and  O_6 
REMARK    2  A    between atoms: C_2  and  O_7 
REMARK    3  A    between atoms: C_3  and  O_8 
REMARK    4  A    between atoms: C_4  and  C_14 
REMARK    5  A    between atoms: C_9  and  O_6 
REMARK    6  A    between atoms: C_10  and  O_7 
REMARK    7  A    between atoms: C_11  and  O_8 
REMARK    8  A    between atoms: C_13  and  O_15 
REMARK    9  A    between atoms: O_15  and  C_14 
ROOT
ATOM      1  C   UNL d   1       1.537   0.102   0.267  0.00  0.00     0.195 C 
ATOM      2  C   UNL d   1       0.873  -1.251  -0.091  0.00  0.00     0.195 C 
ATOM      3  C   UNL d   1       0.706   1.228  -0.390  0.00  0.00     0.187 C 
ATOM      4  C   UNL d   1      -0.611  -1.285   0.321  0.00  0.00     0.178 C 
ATOM      5  O   UNL d   1      -1.321  -0.178  -0.260  0.00  0.00    -0.378 OA
ATOM      6  C   UNL d   1      -0.767   1.107   0.029  0.00  0.00     0.203 C 
ENDROOT
BRANCH   4   7
ATOM      7  C   UNL d   1      -0.865  -1.404   1.838  0.00  0.00     0.213 C 
BRANCH   7   8
ATOM      8  O   UNL d   1      -2.275  -1.438   2.130  0.00  0.00    -0.319 OA
BRANCH   8   9
ATOM      9  C   UNL d   1      -2.888  -2.633   1.932  0.00  0.00     0.254 C 
ATOM     10  O   UNL d   1      -2.336  -3.659   1.563  0.00  0.00    -0.266 OA
ATOM     11  C   UNL d   1      -4.350  -2.533   2.246  0.00  0.00     0.126 C 
ENDBRANCH   8   9
ENDBRANCH   7   8
ENDBRANCH   4   7
BRANCH   2  12
ATOM     12  O   UNL d   1       1.560  -2.367   0.496  0.00  0.00    -0.311 OA
BRANCH  12  13
ATOM     13  C   UNL d   1       2.686  -2.771  -0.160  0.00  0.00     0.255 C 
ATOM     14  O   UNL d   1       3.104  -2.287  -1.204  0.00  0.00    -0.266 OA
ATOM     15  C   UNL d   1       3.359  -3.875   0.598  0.00  0.00     0.126 C 
ENDBRANCH  12  13
ENDBRANCH   2  12
BRANCH   1  16
ATOM     16  O   UNL d   1       1.560   0.323   1.710  0.00  0.00    -0.311 OA
BRANCH  16  17
ATOM     17  C   UNL d   1       2.543  -0.281   2.436  0.00  0.00     0.255 C 
ATOM     18  O   UNL d   1       3.469  -0.933   1.974  0.00  0.00    -0.266 OA
ATOM     19  C   UNL d   1       2.298  -0.134   3.911  0.00  0.00     0.126 C 
ENDBRANCH  16  17
ENDBRANCH   1  16
BRANCH   3  20
ATOM     20  O   UNL d   1       0.775   1.149  -1.837  0.00  0.00    -0.311 OA
BRANCH  20  21
ATOM     21  C   UNL d   1       1.875   1.714  -2.400  0.00  0.00     0.255 C 
ATOM     22  O   UNL d   1       2.770   2.263  -1.763  0.00  0.00    -0.266 OA
ATOM     23  C   UNL d   1       1.887   1.572  -3.890  0.00  0.00     0.126 C 
ENDBRANCH  20  21
ENDBRANCH   3  20
TORSDOF 9
