REMARK  6 active torsions:
REMARK  status: ('A' for Active; 'I' for Inactive)
REMARK    1  A    between atoms: S_8  and  C_3 
REMARK       I    between atoms: C_4  and  N_5 
REMARK       I    between atoms: N_9  and  C_4 
REMARK    2  A    between atoms: N_5  and  C_7 
REMARK    3  A    between atoms: S_10  and  C_6 
REMARK    4  A    between atoms: C_16  and  S_8 
REMARK    5  A    between atoms: C_12  and  N_9 
REMARK    6  A    between atoms: C_18  and  S_10 
ROOT
ATOM      1  N   UNL d   1      -1.622   0.062   0.012  0.00  0.00    -0.343 N 
ATOM      2  HN  UNL d   1      -2.581   0.041  -0.335  1.00  0.00     0.167 HD
ATOM      3  C   UNL d   1      -0.937   1.233   0.077  0.00  0.00     0.102 C 
ATOM      4  C   UNL d   1      -1.013  -1.072   0.413  0.00  0.00     0.075 C 
ATOM      5  C   UNL d   1       0.402   1.305   0.490  0.00  0.00     0.070 C 
ATOM      6  C   UNL d   1       0.946   0.132   1.035  0.00  0.00     0.035 C 
ATOM      7  C   UNL d   1       0.242  -1.069   0.991  0.00  0.00     0.039 C 
ENDROOT
BRANCH   5   8
ATOM      8  N   UNL d   1       1.308   2.390   0.430  0.00  0.00    -0.306 N 
ATOM      9  C   UNL d   1       1.480   3.469  -0.389  0.00  0.00     0.325 C 
ATOM     10  N   UNL d   1       0.649   3.615  -1.455  0.00  0.00    -0.309 N 
ATOM     11  O   UNL d   1       2.434   4.200  -0.125  0.00  0.00    -0.247 OA
ATOM     12  H   UNL d   1      -0.134   2.980  -1.491  0.00  0.00     0.170 HD
ATOM     13  H   UNL d   1       2.129   2.312   1.021  0.00  0.00     0.171 HD
BRANCH  10  14
ATOM     14  C   UNL d   1       0.590   4.690  -2.368  0.00  0.00     0.037 A 
ATOM     15  C   UNL d   1       1.567   5.679  -2.479  0.00  0.00     0.053 A 
ATOM     16  C   UNL d   1       1.378   6.750  -3.357  0.00  0.00     0.036 A 
ATOM     17 CL   UNL d   1       2.582   7.976  -3.482  0.00  0.00    -0.084 Cl
ATOM     18  C   UNL d   1       0.222   6.848  -4.128  0.00  0.00     0.024 A 
ATOM     19  C   UNL d   1      -0.744   5.850  -4.044  0.00  0.00     0.004 A 
ATOM     20  C   UNL d   1      -0.553   4.771  -3.179  0.00  0.00     0.029 A 
ENDBRANCH  10  14
ENDBRANCH   5   8
BRANCH   3  21
ATOM     21  S   UNL d   1      -1.952   2.618  -0.392  0.00  0.00    -0.070 SA
BRANCH  21  22
ATOM     22  C   UNL d   1      -2.553   3.207   1.176  0.00  0.00     0.007 A 
ATOM     23  C   UNL d   1      -2.263   4.519   1.575  0.00  0.00     0.019 A 
ATOM     24  C   UNL d   1      -2.810   5.033   2.754  0.00  0.00     0.001 A 
ATOM     25  C   UNL d   1      -3.653   4.247   3.535  0.00  0.00     0.000 A 
ATOM     26  C   UNL d   1      -3.945   2.940   3.145  0.00  0.00     0.001 A 
ATOM     27  C   UNL d   1      -3.399   2.424   1.967  0.00  0.00     0.019 A 
ENDBRANCH  21  22
ENDBRANCH   3  21
BRANCH   4  28
ATOM     28  S   UNL d   1      -1.889  -2.600   0.197  0.00  0.00    -0.073 SA
BRANCH  28  29
ATOM     29  C   UNL d   1      -2.012  -2.836  -1.576  0.00  0.00     0.007 A 
ATOM     30  C   UNL d   1      -1.611  -1.907  -2.545  0.00  0.00     0.019 A 
ATOM     31  C   UNL d   1      -1.776  -2.174  -3.910  0.00  0.00     0.001 A 
ATOM     32  C   UNL d   1      -2.341  -3.375  -4.326  0.00  0.00     0.000 A 
ATOM     33  C   UNL d   1      -2.733  -4.316  -3.379  0.00  0.00     0.001 A 
ATOM     34  C   UNL d   1      -2.569  -4.047  -2.016  0.00  0.00     0.019 A 
ENDBRANCH  28  29
ENDBRANCH   4  28
TORSDOF 6
