REMARK  2 active torsions:
REMARK  status: ('A' for Active; 'I' for Inactive)
REMARK    1  A    between atoms: C_2  and  C_1 
REMARK    2  A    between atoms: O_9  and  N_5 
ROOT
ATOM      1  C   UNL d   1      -0.196   0.989   0.006  0.00  0.00     0.145 C 
ATOM      2  N   UNL d   1       2.007  -0.266  -0.634  0.00  0.00    -0.190 NA
ATOM      3  C   UNL d   1       1.011   0.256  -0.337  0.00  0.00     0.120 C 
ATOM      4  N   UNL d   1      -1.286   0.315   0.228  0.00  0.00    -0.258 N 
ATOM      5  HN  UNL d   1      -2.179   0.754   0.452  1.00  0.00     0.195 HD
ENDROOT
BRANCH   1   6
ATOM      6  C   UNL d   1      -0.121   2.469   0.066  0.00  0.00     0.025 A 
ATOM      7  C   UNL d   1      -0.913   3.227   0.943  0.00  0.00     0.047 A 
ATOM      8 CL   UNL d   1      -1.998   2.541   2.101  0.00  0.00    -0.083 Cl
ATOM      9  C   UNL d   1      -0.809   4.625   0.950  0.00  0.00     0.025 A 
ATOM     10  C   UNL d   1       0.081   5.276   0.097  0.00  0.00     0.002 A 
ATOM     11  C   UNL d   1       0.873   4.534  -0.772  0.00  0.00     0.001 A 
ATOM     12  C   UNL d   1       0.773   3.140  -0.792  0.00  0.00     0.016 A 
ENDBRANCH   1   6
BRANCH   4  13
ATOM     13  O   UNL d   1      -1.115  -1.072   0.131  0.00  0.00    -0.289 OA
ATOM     14  H   UNL d   1      -1.988  -1.415   0.403  0.00  0.00     0.244 HD
ENDBRANCH   4  13
TORSDOF 2
