REMARK  7 active torsions:
REMARK  status: ('A' for Active; 'I' for Inactive)
REMARK    1  A    between atoms: C_2  and  S_1 
REMARK    2  A    between atoms: N_10  and  S_1 
REMARK    3  A    between atoms: C_12  and  C_3 
REMARK    4  A    between atoms: C_4  and  N_10 
REMARK    5  A    between atoms: C_17  and  C_8 
REMARK    6  A    between atoms: O_25  and  C_12 
REMARK    7  A    between atoms: C_18  and  C_19 
ROOT
ATOM      1  C   UNL d   1       2.124   2.968   0.980  0.00  0.00     0.103 A 
ATOM      2  C   UNL d   1       0.861   2.637   0.520  0.00  0.00     0.047 A 
ATOM      3  S   UNL d   1       2.043   4.272   2.098  0.00  0.00    -0.082 SA
ATOM      4  C   UNL d   1       0.352   4.469   1.913  0.00  0.00     0.018 A 
ATOM      5  C   UNL d   1      -0.129   3.559   0.992  0.00  0.00     0.045 A 
ENDROOT
BRANCH   2   6
ATOM      6  N   UNL d   1       0.506   1.591  -0.361  0.00  0.00    -0.179 NA
ATOM      7  H   UNL d   1      -0.319   1.779  -0.931  0.00  0.00     0.146 HD
BRANCH   6   8
ATOM      8  S   UNL d   1       0.263   0.025   0.294  0.00  0.00     0.263 S 
ATOM      9  O   UNL d   1      -0.067  -0.848  -0.812  0.00  0.00    -0.204 OA
ATOM     10  O   UNL d   1       1.300  -0.298   1.251  0.00  0.00    -0.204 OA
BRANCH   8  11
ATOM     11  C   UNL d   1      -1.214   0.037   1.241  0.00  0.00     0.161 A 
ATOM     12  N   UNL d   1      -1.968   1.179   1.471  0.00  0.00    -0.341 N 
ATOM     13  C   UNL d   1      -2.980   0.782   2.211  0.00  0.00     0.183 A 
ATOM     14  HN  UNL d   1      -1.779   2.125   1.137  1.00  0.00     0.167 HD
ATOM     15  N   UNL d   1      -2.943  -0.566   2.424  0.00  0.00    -0.354 N 
ATOM     16  C   UNL d   1      -1.824  -1.063   1.819  0.00  0.00     0.134 A 
ATOM     17  C   UNL d   1      -3.937  -1.319   3.148  0.00  0.00     0.156 C 
ENDBRANCH   8  11
ENDBRANCH   6   8
ENDBRANCH   2   6
BRANCH   1  18
ATOM     18  C   UNL d   1       3.445   2.443   0.672  0.00  0.00     0.301 C 
ATOM     19  O   UNL d   1       4.505   2.854   1.128  0.00  0.00    -0.259 OA
BRANCH  18  20
ATOM     20  O   UNL d   1       3.362   1.445  -0.254  0.00  0.00    -0.322 OA
ATOM     21  C   UNL d   1       4.607   0.855  -0.629  0.00  0.00     0.213 C 
ENDBRANCH  18  20
ENDBRANCH   1  18
BRANCH   4  22
ATOM     22  C   UNL d   1      -0.384   5.476   2.700  0.00  0.00    -0.019 A 
ATOM     23  C   UNL d   1      -1.704   5.244   3.110  0.00  0.00     0.013 A 
ATOM     24  C   UNL d   1      -2.399   6.189   3.885  0.00  0.00     0.009 A 
ATOM     25  C   UNL d   1      -1.806   7.404   4.273  0.00  0.00    -0.051 A 
ATOM     26  C   UNL d   1      -0.488   7.628   3.848  0.00  0.00     0.009 A 
ATOM     27  C   UNL d   1       0.203   6.688   3.074  0.00  0.00     0.013 A 
BRANCH  25  28
ATOM     28  C   UNL d   1      -2.583   8.438   5.108  0.00  0.00    -0.024 C 
ATOM     29  C   UNL d   1      -1.765   9.712   5.426  0.00  0.00     0.019 C 
ATOM     30  C   UNL d   1      -3.842   8.884   4.335  0.00  0.00     0.019 C 
ATOM     31  C   UNL d   1      -3.014   7.828   6.459  0.00  0.00     0.019 C 
ENDBRANCH  25  28
ENDBRANCH   4  22
TORSDOF 7
