REMARK  2 active torsions:
REMARK  status: ('A' for Active; 'I' for Inactive)
REMARK    1  A    between atoms: O_7  and  C_1 
REMARK    2  A    between atoms: C_9  and  O_7 
ROOT
ATOM      1  C   UNL d   1      -0.701   1.671  -0.099  0.00  0.00     0.090 A 
ATOM      2  N   UNL d   1      -1.059  -1.084  -0.051  0.00  0.00    -0.359 N 
ATOM      3  HN  UNL d   1      -1.198  -2.093  -0.003  1.00  0.00     0.166 HD
ATOM      4  C   UNL d   1       0.425   0.826  -0.043  0.00  0.00     0.025 A 
ATOM      5  C   UNL d   1       0.181  -0.563  -0.023  0.00  0.00     0.045 A 
ATOM      6  C   UNL d   1      -1.980   1.126  -0.208  0.00  0.00     0.062 A 
ATOM      7  C   UNL d   1      -2.117  -0.249  -0.144  0.00  0.00     0.008 A 
ATOM      8  C   UNL d   1       1.758   1.295  -0.006  0.00  0.00     0.016 A 
ATOM      9  C   UNL d   1       1.266  -1.427   0.031  0.00  0.00     0.030 A 
ATOM     10  C   UNL d   1      -3.485  -0.863  -0.121  0.00  0.00     0.068 C 
ATOM     11  C   UNL d   1       2.830   0.406   0.040  0.00  0.00     0.001 A 
ATOM     12  C   UNL d   1       2.582  -0.960   0.059  0.00  0.00     0.002 A 
ENDROOT
BRANCH   1  13
ATOM     13  O   UNL d   1      -0.487   3.037  -0.102  0.00  0.00    -0.310 OA
BRANCH  13  14
ATOM     14  C   UNL d   1      -1.351   3.855   0.594  0.00  0.00     0.076 A 
ATOM     15  C   UNL d   1      -2.000   3.493   1.777  0.00  0.00     0.038 A 
ATOM     16  C   UNL d   1      -2.888   4.381   2.388  0.00  0.00     0.009 A 
ATOM     17  C   UNL d   1      -3.096   5.658   1.855  0.00  0.00    -0.062 A 
ATOM     18  C   UNL d   1      -2.397   6.037   0.703  0.00  0.00     0.009 A 
ATOM     19  C   UNL d   1      -4.069   6.592   2.512  0.00  0.00     0.048 C 
ATOM     20  C   UNL d   1      -1.526   5.140   0.078  0.00  0.00     0.038 A 
ENDBRANCH  13  14
ENDBRANCH   1  13
TORSDOF 2
