REMARK  12 active torsions:
REMARK  status: ('A' for Active; 'I' for Inactive)
REMARK    1  A    between atoms: N_4  and  C_1 
REMARK    2  A    between atoms: N_5  and  C_1 
REMARK    3  A    between atoms: C_2  and  N_3 
REMARK    4  A    between atoms: N_6  and  C_2 
REMARK    5  A    between atoms: C_7  and  N_5 
REMARK    6  A    between atoms: C_8  and  N_6 
REMARK    7  A    between atoms: N_21  and  C_9 
REMARK    8  A    between atoms: N_22  and  C_10 
REMARK    9  A    between atoms: C_29  and  N_21 
REMARK   10  A    between atoms: C_32  and  N_21 
REMARK   11  A    between atoms: C_30  and  N_22 
REMARK   12  A    between atoms: C_31  and  N_22 
ROOT
ATOM      1  N   UNL d   1      -0.602   2.217   3.158  0.00  0.00    -0.355 N 
ATOM      2  N   UNL d   1       0.613   0.671   1.068  0.00  0.00    -0.355 N 
ATOM      3  C   UNL d   1      -0.740   0.352   1.553  0.00  0.00     0.145 C 
ATOM      4  C   UNL d   1       0.729   2.592   2.653  0.00  0.00     0.145 C 
ATOM      5  C   UNL d   1       0.965   2.093   1.223  0.00  0.00     0.145 C 
ATOM      6  C   UNL d   1      -0.895   0.784   3.019  0.00  0.00     0.145 C 
ENDROOT
BRANCH   1   7
ATOM      7  C   UNL d   1      -1.052   2.942   4.275  0.00  0.00     0.174 C 
ATOM      8  S   UNL d   1      -0.988   2.385   5.850  0.00  0.00    -0.041 SA
BRANCH   7   9
ATOM      9  N   UNL d   1      -1.627   4.123   3.844  0.00  0.00    -0.333 N 
ATOM     10  H   UNL d   1      -2.042   4.042   2.925  0.00  0.00     0.168 HD
BRANCH   9  11
ATOM     11  C   UNL d   1      -1.763   5.372   4.476  0.00  0.00     0.040 A 
ATOM     12  C   UNL d   1      -2.781   6.241   4.062  0.00  0.00    -0.033 A 
ATOM     13  C   UNL d   1      -2.713   7.596   4.437  0.00  0.00     0.038 A 
ATOM     14  C   UNL d   1      -3.993   5.804   3.283  0.00  0.00     0.050 C 
ATOM     15  C   UNL d   1      -1.672   8.121   5.217  0.00  0.00     0.030 A 
ATOM     16  C   UNL d   1      -0.761   7.193   5.734  0.00  0.00     0.031 A 
ATOM     17  C   UNL d   1      -0.794   5.840   5.363  0.00  0.00     0.032 A 
BRANCH  15  18
ATOM     18  N   UNL d   1      -1.534   9.489   5.411  0.00  0.00    -0.382 N 
BRANCH  18  19
ATOM     19  C   UNL d   1      -0.973  10.033   6.653  0.00  0.00     0.118 C 
ATOM     20  C   UNL d   1       0.489  10.416   6.492  0.00  0.00     0.026 C 
ENDBRANCH  18  19
BRANCH  18  21
ATOM     21  C   UNL d   1      -1.960  10.440   4.374  0.00  0.00     0.118 C 
ATOM     22  C   UNL d   1      -1.203  10.238   3.064  0.00  0.00     0.026 C 
ENDBRANCH  18  21
ENDBRANCH  15  18
ENDBRANCH   9  11
ENDBRANCH   7   9
ENDBRANCH   1   7
BRANCH   2  23
ATOM     23  C   UNL d   1       1.155   0.025  -0.058  0.00  0.00     0.174 C 
ATOM     24  S   UNL d   1       0.264  -0.407  -1.408  0.00  0.00    -0.041 SA
BRANCH  23  25
ATOM     25  N   UNL d   1       2.490  -0.269   0.181  0.00  0.00    -0.333 N 
ATOM     26  H   UNL d   1       2.675  -0.459   1.157  0.00  0.00     0.168 HD
BRANCH  25  27
ATOM     27  C   UNL d   1       3.537  -0.540  -0.721  0.00  0.00     0.040 A 
ATOM     28  C   UNL d   1       4.587  -1.391  -0.347  0.00  0.00    -0.033 A 
ATOM     29  C   UNL d   1       5.733  -1.464  -1.168  0.00  0.00     0.038 A 
ATOM     30  C   UNL d   1       4.543  -2.306   0.846  0.00  0.00     0.050 C 
ATOM     31  C   UNL d   1       5.861  -0.751  -2.370  0.00  0.00     0.030 A 
ATOM     32  C   UNL d   1       4.760   0.025  -2.746  0.00  0.00     0.031 A 
ATOM     33  C   UNL d   1       3.623   0.142  -1.934  0.00  0.00     0.032 A 
BRANCH  31  34
ATOM     34  N   UNL d   1       7.019  -0.852  -3.137  0.00  0.00    -0.382 N 
BRANCH  34  35
ATOM     35  C   UNL d   1       8.316  -0.770  -2.449  0.00  0.00     0.118 C 
ATOM     36  C   UNL d   1       9.023  -2.116  -2.475  0.00  0.00     0.026 C 
ENDBRANCH  34  35
BRANCH  34  37
ATOM     37  C   UNL d   1       7.013  -0.565  -4.575  0.00  0.00     0.118 C 
ATOM     38  C   UNL d   1       6.285  -1.663  -5.339  0.00  0.00     0.026 C 
ENDBRANCH  34  37
ENDBRANCH  31  34
ENDBRANCH  25  27
ENDBRANCH  23  25
ENDBRANCH   2  23
TORSDOF 12
