REMARK  4 active torsions:
REMARK  status: ('A' for Active; 'I' for Inactive)
REMARK    1  A    between atoms: C_4  and  C_1 
REMARK    2  A    between atoms: C_2  and  C_3 
REMARK    3  A    between atoms: N_6  and  N_13 
REMARK    4  A    between atoms: N_13  and  C_14 
ROOT
ATOM      1  C   UNL d   1      -0.472  -0.611   7.078  0.00  0.00     0.209 C 
ATOM      2  N   UNL d   1      -0.142   0.085   6.033  0.00  0.00    -0.282 N 
ATOM      3  HN  UNL d   1       0.327   0.983   6.151  1.00  0.00     0.188 HD
ATOM      4  N   UNL d   1      -1.800  -2.829   6.843  0.00  0.00    -0.189 NA
ATOM      5  N   UNL d   1       0.289   0.377   9.356  0.00  0.00    -0.189 NA
ATOM      6  C   UNL d   1      -1.194  -1.843   6.965  0.00  0.00     0.130 C 
ATOM      7  C   UNL d   1      -0.050  -0.050   8.332  0.00  0.00     0.130 C 
ENDROOT
BRANCH   2   8
ATOM      8  N   UNL d   1      -0.417  -0.375   4.779  0.00  0.00    -0.299 N 
ATOM      9  H   UNL d   1      -1.127  -1.080   4.569  0.00  0.00     0.187 HD
BRANCH   8  10
ATOM     10  C   UNL d   1      -0.068   0.441   3.685  0.00  0.00     0.049 A 
ATOM     11  C   UNL d   1       0.174  -0.146   2.435  0.00  0.00     0.047 A 
ATOM     12  C   UNL d   1       0.629   0.619   1.346  0.00  0.00     0.050 A 
ATOM     13  C   UNL d   1       0.803   2.002   1.510  0.00  0.00     0.032 A 
ATOM     14  C   UNL d   1       0.564   2.612   2.750  0.00  0.00     0.050 A 
ATOM     15  C   UNL d   1       0.155   1.815   3.830  0.00  0.00     0.047 A 
BRANCH  12  16
ATOM     16  C   UNL d   1       0.957  -0.057   0.034  0.00  0.00     0.417 C 
ATOM     17  F   UNL d   1       1.404   0.803  -0.923  0.00  0.00    -0.166 F 
ATOM     18  F   UNL d   1      -0.116  -0.695  -0.506  0.00  0.00    -0.166 F 
ATOM     19  F   UNL d   1       1.928  -1.001   0.169  0.00  0.00    -0.166 F 
ENDBRANCH  12  16
BRANCH  14  20
ATOM     20  C   UNL d   1       0.738   4.097   2.951  0.00  0.00     0.417 C 
ATOM     21  F   UNL d   1       1.190   4.744   1.842  0.00  0.00    -0.166 F 
ATOM     22  F   UNL d   1      -0.427   4.714   3.292  0.00  0.00    -0.166 F 
ATOM     23  F   UNL d   1       1.623   4.390   3.943  0.00  0.00    -0.166 F 
ENDBRANCH  14  20
ENDBRANCH   8  10
ENDBRANCH   2   8
TORSDOF 4
