REMARK  3 active torsions:
REMARK  status: ('A' for Active; 'I' for Inactive)
REMARK    1  A    between atoms: C_3  and  C_1 
REMARK       I    between atoms: N_7  and  C_3 
REMARK    2  A    between atoms: C_10  and  N_7 
REMARK    3  A    between atoms: O_20  and  C_16 
ROOT
ATOM      1  C   UNL d   1      -2.342  -0.189  -0.188  0.00  0.00     0.102 A 
ATOM      2  N   UNL d   1      -1.560   0.940  -0.031  0.00  0.00    -0.351 N 
ATOM      3  C   UNL d   1      -1.467  -1.248  -0.354  0.00  0.00     0.049 A 
ATOM      4  C   UNL d   1      -0.140  -0.753  -0.216  0.00  0.00    -0.004 A 
ATOM      5  C   UNL d   1      -0.225   0.624  -0.037  0.00  0.00     0.043 A 
ATOM      6  C   UNL d   1       1.133  -1.355  -0.228  0.00  0.00     0.050 A 
ATOM      7  C   UNL d   1       0.906   1.437   0.098  0.00  0.00     0.033 A 
ATOM      8  C   UNL d   1       2.281  -0.569  -0.062  0.00  0.00     0.069 A 
ATOM      9  C   UNL d   1       2.163   0.812   0.085  0.00  0.00     0.039 A 
ATOM     10  H   UNL d   1      -1.944   1.869   0.090  0.00  0.00     0.166 HD
ENDROOT
BRANCH   1  11
ATOM     11  C   UNL d   1      -3.788  -0.094  -0.184  0.00  0.00     0.272 C 
ATOM     12  N   UNL d   1      -4.461  -1.302  -0.230  0.00  0.00    -0.322 N 
ATOM     13  H   UNL d   1      -3.904  -2.138  -0.112  0.00  0.00     0.169 HD
ATOM     14  O   UNL d   1      -4.325   1.010  -0.123  0.00  0.00    -0.266 OA
BRANCH  12  15
ATOM     15  C   UNL d   1      -5.845  -1.491  -0.441  0.00  0.00     0.037 A 
ATOM     16  C   UNL d   1      -6.715  -0.455  -0.778  0.00  0.00     0.072 A 
ATOM     17  C   UNL d   1      -8.046  -0.728  -1.079  0.00  0.00     0.124 A 
ATOM     18  F   UNL d   1      -8.849   0.288  -1.432  0.00  0.00    -0.205 F 
ATOM     19  C   UNL d   1      -8.551  -2.027  -1.052  0.00  0.00    -0.023 A 
ATOM     20  C   UNL d   1      -7.697  -3.063  -0.663  0.00  0.00     0.012 A 
ATOM     21  C   UNL d   1      -9.972  -2.277  -1.451  0.00  0.00     0.051 C 
ATOM     22  C   UNL d   1      -6.352  -2.797  -0.368  0.00  0.00     0.030 A 
ENDBRANCH  12  15
ENDBRANCH   1  11
BRANCH   8  23
ATOM     23  O   UNL d   1       3.448  -1.286  -0.064  0.00  0.00    -0.356 OA
ATOM     24  C   UNL d   1       4.657  -0.562   0.113  0.00  0.00     0.210 C 
ENDBRANCH   8  23
TORSDOF 3
