REMARK  4 active torsions:
REMARK  status: ('A' for Active; 'I' for Inactive)
REMARK    1  A    between atoms: C_10  and  N_1 
REMARK    2  A    between atoms: N_7  and  C_9 
REMARK    3  A    between atoms: C_19  and  C_10 
REMARK    4  A    between atoms: C_20  and  C_19 
ROOT
ATOM      1  N   UNL d   1       2.240  -0.123   0.094  0.00  0.00    -0.280 N 
ATOM      2  C   UNL d   1       1.529  -1.316   0.013  0.00  0.00     0.261 C 
ATOM      3  C   UNL d   1       1.664   1.141  -0.001  0.00  0.00     0.261 C 
ATOM      4  C   UNL d   1       0.049  -1.222   0.034  0.00  0.00     0.044 A 
ATOM      5  C   UNL d   1      -0.579   0.034   0.019  0.00  0.00     0.008 A 
ATOM      6  C   UNL d   1       0.183   1.210  -0.012  0.00  0.00     0.044 A 
ATOM      7  C   UNL d   1      -1.999   0.114   0.030  0.00  0.00     0.009 A 
ATOM      8  C   UNL d   1      -2.718  -1.111   0.080  0.00  0.00     0.114 A 
ATOM      9  C   UNL d   1      -0.698  -2.410   0.068  0.00  0.00     0.020 A 
ATOM     10  C   UNL d   1      -2.085  -2.360   0.100  0.00  0.00     0.038 A 
ATOM     11  O   UNL d   1       2.046  -2.424  -0.110  0.00  0.00    -0.267 OA
ATOM     12  O   UNL d   1       2.314   2.180  -0.100  0.00  0.00    -0.267 OA
ATOM     13  C   UNL d   1      -0.433   2.467  -0.047  0.00  0.00     0.018 A 
ATOM     14  C   UNL d   1      -2.591   1.404  -0.002  0.00  0.00     0.015 A 
ATOM     15  C   UNL d   1      -1.817   2.563  -0.046  0.00  0.00     0.002 A 
ENDROOT
BRANCH   1  16
ATOM     16  C   UNL d   1       3.697  -0.199   0.206  0.00  0.00     0.141 C 
BRANCH  16  17
ATOM     17  C   UNL d   1       4.269   0.379   1.510  0.00  0.00     0.077 C 
BRANCH  17  18
ATOM     18  C   UNL d   1       3.816  -0.342   2.757  0.00  0.00     0.010 A 
ATOM     19  N   UNL d   1       2.493  -0.288   3.059  0.00  0.00    -0.369 N 
ATOM     20  C   UNL d   1       2.091  -0.884   4.202  0.00  0.00     0.088 A 
ATOM     21  HN  UNL d   1       1.829   0.185   2.446  1.00  0.00     0.165 HD
ATOM     22  C   UNL d   1       2.945  -1.531   5.078  0.00  0.00     0.017 A 
ATOM     23  C   UNL d   1       4.297  -1.570   4.762  0.00  0.00     0.003 A 
ATOM     24  C   UNL d   1       4.742  -0.968   3.588  0.00  0.00     0.025 A 
ENDBRANCH  17  18
ENDBRANCH  16  17
ENDBRANCH   1  16
BRANCH   8  25
ATOM     25  N   UNL d   1      -4.171  -1.123   0.133  0.00  0.00    -0.115 N 
ATOM     26  O   UNL d   1      -4.781  -0.626  -0.824  0.00  0.00    -0.532 OA
ATOM     27  O   UNL d   1      -4.693  -1.651   1.123  0.00  0.00    -0.532 OA
ENDBRANCH   8  25
TORSDOF 4
