REMARK  8 active torsions:
REMARK  status: ('A' for Active; 'I' for Inactive)
REMARK    1  A    between atoms: C_9  and  C_1 
REMARK    2  A    between atoms: C_10  and  C_1 
REMARK    3  A    between atoms: C_2  and  N_11 
REMARK    4  A    between atoms: N_11  and  C_6 
REMARK    5  A    between atoms: O_18  and  C_9 
REMARK    6  A    between atoms: O_17  and  C_10 
REMARK    7  A    between atoms: C_22  and  O_17 
REMARK    8  A    between atoms: C_21  and  O_18 
ROOT
ATOM      1  N   UNL d   1       0.802   2.376   0.586  0.00  0.00    -0.345 N 
ATOM      2  H   UNL d   1       1.765   2.517   0.267  0.00  0.00     0.167 HD
ENDROOT
BRANCH   1   3
ATOM      3  C   UNL d   1       0.108   3.461   0.994  0.00  0.00     0.149 A 
ATOM      4  N   UNL d   1      -1.027   3.431   1.655  0.00  0.00    -0.335 N 
ATOM      5  C   UNL d   1      -1.436   4.714   1.967  0.00  0.00     0.051 A 
ATOM      6  HN  UNL d   1      -1.534   2.581   1.904  1.00  0.00     0.168 HD
ATOM      7  C   UNL d   1      -2.570   5.054   2.734  0.00  0.00     0.032 A 
ATOM      8  C   UNL d   1      -0.636   5.737   1.461  0.00  0.00     0.036 A 
ATOM      9  C   UNL d   1      -2.882   6.401   2.952  0.00  0.00     0.026 A 
ATOM     10  C   UNL d   1      -2.088   7.401   2.400  0.00  0.00     0.035 A 
ATOM     11  C   UNL d   1      -0.953   7.094   1.645  0.00  0.00     0.045 A 
ATOM     12 CL   UNL d   1      -2.504   9.052   2.659  0.00  0.00    -0.084 Cl
ATOM     13  S   UNL d   1       0.714   5.037   0.659  0.00  0.00    -0.052 SA
ENDBRANCH   1   3
BRANCH   1  14
ATOM     14  C   UNL d   1       0.317   1.097   0.395  0.00  0.00     0.114 C 
ATOM     15  C   UNL d   1       0.990  -0.009   0.020  0.00  0.00     0.129 C 
BRANCH  15  16
ATOM     16  C   UNL d   1       0.258  -1.253  -0.332  0.00  0.00     0.300 C 
ATOM     17  O   UNL d   1       0.724  -2.381  -0.306  0.00  0.00    -0.259 OA
BRANCH  16  18
ATOM     18  O   UNL d   1      -0.954  -0.930  -0.864  0.00  0.00    -0.318 OA
BRANCH  18  19
ATOM     19  C   UNL d   1      -1.548  -1.922  -1.715  0.00  0.00     0.174 C 
ATOM     20  C   UNL d   1      -1.128  -1.622  -3.144  0.00  0.00     0.034 C 
ENDBRANCH  18  19
ENDBRANCH  16  18
ENDBRANCH  15  16
BRANCH  15  21
ATOM     21  C   UNL d   1       2.459   0.088  -0.143  0.00  0.00     0.300 C 
ATOM     22  O   UNL d   1       3.055   1.148  -0.290  0.00  0.00    -0.259 OA
BRANCH  21  23
ATOM     23  O   UNL d   1       3.031  -1.137  -0.165  0.00  0.00    -0.318 OA
BRANCH  23  24
ATOM     24  C   UNL d   1       4.349  -1.214  -0.719  0.00  0.00     0.174 C 
ATOM     25  C   UNL d   1       4.212  -1.392  -2.220  0.00  0.00     0.034 C 
ENDBRANCH  23  24
ENDBRANCH  21  23
ENDBRANCH  15  21
ENDBRANCH   1  14
TORSDOF 8
