REMARK  12 active torsions:
REMARK  status: ('A' for Active; 'I' for Inactive)
REMARK    1  A    between atoms: C_3  and  S_1 
REMARK    2  A    between atoms: N_5  and  S_1 
REMARK    3  A    between atoms: S_2  and  N_6 
REMARK    4  A    between atoms: C_4  and  S_2 
REMARK    5  A    between atoms: O_30  and  C_13 
REMARK    6  A    between atoms: O_29  and  C_14 
REMARK    7  A    between atoms: O_33  and  C_21 
REMARK    8  A    between atoms: O_34  and  C_22 
REMARK    9  A    between atoms: C_31  and  C_36 
REMARK   10  A    between atoms: C_37  and  C_32 
REMARK   11  A    between atoms: C_35  and  C_37 
REMARK   12  A    between atoms: C_36  and  C_35 
ROOT
ATOM      1  C   UNL d   1       2.917  -1.069  -5.227  0.00  0.00     0.001 C 
ENDROOT
BRANCH   1   2
ATOM      2  C   UNL d   1       2.462  -2.021  -4.106  0.00  0.00     0.005 C 
BRANCH   2   3
ATOM      3  C   UNL d   1       2.996  -1.724  -2.687  0.00  0.00    -0.012 C 
ATOM      4  C   UNL d   1       2.715  -0.306  -2.181  0.00  0.00     0.025 C 
ATOM      5  C   UNL d   1       1.226  -0.036  -1.960  0.00  0.00     0.135 C 
ATOM      6  N   UNL d   1       0.595  -1.066  -1.095  0.00  0.00    -0.307 N 
ATOM      7  C   UNL d   1       0.935  -2.493  -1.351  0.00  0.00     0.135 C 
ATOM      8  C   UNL d   1       2.423  -2.701  -1.648  0.00  0.00     0.025 C 
BRANCH   6   9
ATOM      9  S   UNL d   1      -0.974  -0.726  -0.481  0.00  0.00     0.263 S 
ATOM     10  O   UNL d   1      -1.334  -1.826   0.404  0.00  0.00    -0.200 OA
ATOM     11  O   UNL d   1      -0.934   0.632  -0.010  0.00  0.00    -0.200 OA
BRANCH   9  12
ATOM     12  C   UNL d   1      -2.137  -0.766  -1.841  0.00  0.00     0.115 C 
ATOM     13  C   UNL d   1      -1.708  -1.150  -3.118  0.00  0.00     0.065 C 
ATOM     14  C   UNL d   1      -2.565  -1.096  -4.208  0.00  0.00     0.069 C 
ATOM     15  C   UNL d   1      -3.833  -0.548  -4.055  0.00  0.00     0.039 C 
ATOM     16  C   UNL d   1      -4.282  -0.191  -2.787  0.00  0.00     0.041 C 
ATOM     17  C   UNL d   1      -3.469  -0.372  -1.658  0.00  0.00     0.091 C 
BRANCH  14  18
ATOM     18  O   UNL d   1      -2.245  -1.526  -5.468  0.00  0.00    -0.356 OA
ATOM     19  C   UNL d   1      -1.281  -2.571  -5.515  0.00  0.00     0.210 C 
ENDBRANCH  14  18
BRANCH  17  20
ATOM     20  O   UNL d   1      -3.956  -0.197  -0.393  0.00  0.00    -0.354 OA
ATOM     21  C   UNL d   1      -5.316  -0.616  -0.217  0.00  0.00     0.210 C 
ENDBRANCH  17  20
ENDBRANCH   9  12
ENDBRANCH   6   9
ENDBRANCH   2   3
ENDBRANCH   1   2
BRANCH   1  22
ATOM     22  C   UNL d   1       4.431  -1.087  -5.441  0.00  0.00     0.005 C 
BRANCH  22  23
ATOM     23  C   UNL d   1       4.937  -0.214  -6.614  0.00  0.00    -0.012 C 
ATOM     24  C   UNL d   1       6.465  -0.344  -6.742  0.00  0.00     0.025 C 
ATOM     25  C   UNL d   1       7.204   0.343  -5.590  0.00  0.00     0.135 C 
ATOM     26  N   UNL d   1       6.825   1.768  -5.552  0.00  0.00    -0.307 N 
ATOM     27  C   UNL d   1       5.364   2.004  -5.421  0.00  0.00     0.135 C 
ATOM     28  C   UNL d   1       4.589   1.279  -6.516  0.00  0.00     0.025 C 
BRANCH  26  29
ATOM     29  S   UNL d   1       7.838   2.829  -4.674  0.00  0.00     0.263 S 
ATOM     30  O   UNL d   1       9.187   2.312  -4.673  0.00  0.00    -0.200 OA
ATOM     31  O   UNL d   1       7.599   4.153  -5.226  0.00  0.00    -0.200 OA
BRANCH  29  32
ATOM     32  C   UNL d   1       7.142   2.813  -3.027  0.00  0.00     0.115 A 
ATOM     33  C   UNL d   1       6.190   3.846  -2.825  0.00  0.00     0.065 A 
ATOM     34  C   UNL d   1       5.374   3.906  -1.698  0.00  0.00     0.069 A 
ATOM     35  C   UNL d   1       5.585   3.001  -0.678  0.00  0.00     0.039 A 
ATOM     36  C   UNL d   1       6.557   2.005  -0.841  0.00  0.00     0.041 A 
ATOM     37  C   UNL d   1       7.333   1.867  -2.015  0.00  0.00     0.091 A 
BRANCH  34  38
ATOM     38  O   UNL d   1       4.415   4.874  -1.736  0.00  0.00    -0.356 OA
ATOM     39  C   UNL d   1       3.252   4.657  -0.943  0.00  0.00     0.210 C 
ENDBRANCH  34  38
BRANCH  37  40
ATOM     40  O   UNL d   1       8.046   0.709  -1.954  0.00  0.00    -0.354 OA
ATOM     41  C   UNL d   1       9.307   0.570  -2.581  0.00  0.00     0.210 C 
ENDBRANCH  37  40
ENDBRANCH  29  32
ENDBRANCH  26  29
ENDBRANCH  22  23
ENDBRANCH   1  22
TORSDOF 12
