REMARK  7 active torsions:
REMARK  status: ('A' for Active; 'I' for Inactive)
REMARK    1  A    between atoms: N_2  and  S_1 
REMARK    2  A    between atoms: C_7  and  S_1 
REMARK    3  A    between atoms: C_4  and  N_2 
REMARK    4  A    between atoms: C_6  and  N_2 
REMARK    5  A    between atoms: C_5  and  C_3 
REMARK    6  A    between atoms: C_15  and  C_5 
REMARK    7  A    between atoms: C_8  and  C_6 
ROOT
ATOM      1  N   UNL d   1       0.185   1.521   0.499  0.00  0.00    -0.267 N 
ENDROOT
BRANCH   1   2
ATOM      2  S   UNL d   1       0.472   0.031  -0.269  0.00  0.00     0.265 S 
ATOM      3  O   UNL d   1      -0.646  -0.286  -1.131  0.00  0.00    -0.200 OA
ATOM      4  O   UNL d   1       0.936  -0.915   0.723  0.00  0.00    -0.200 OA
BRANCH   2   5
ATOM      5  C   UNL d   1       1.851   0.308  -1.390  0.00  0.00     0.080 A 
ATOM      6  C   UNL d   1       3.088  -0.304  -1.159  0.00  0.00     0.026 A 
ATOM      7  C   UNL d   1       4.077  -0.273  -2.153  0.00  0.00     0.008 A 
ATOM      8  C   UNL d   1       3.837   0.362  -3.380  0.00  0.00    -0.062 A 
ATOM      9  C   UNL d   1       2.600   0.980  -3.595  0.00  0.00     0.008 A 
ATOM     10  C   UNL d   1       4.883   0.347  -4.460  0.00  0.00     0.048 C 
ATOM     11  C   UNL d   1       1.605   0.939  -2.615  0.00  0.00     0.026 A 
ENDBRANCH   2   5
ENDBRANCH   1   2
BRANCH   1  12
ATOM     12  C   UNL d   1      -0.432   2.581  -0.255  0.00  0.00     0.059 A 
ATOM     13  C   UNL d   1      -1.825   2.639  -0.495  0.00  0.00     0.044 A 
ATOM     14  C   UNL d   1      -2.368   3.799  -1.073  0.00  0.00     0.037 A 
ATOM     15  C   UNL d   1      -1.544   4.835  -1.496  0.00  0.00     0.012 A 
ATOM     16  C   UNL d   1      -0.165   4.740  -1.354  0.00  0.00     0.021 A 
ATOM     17 BR   UNL d   1      -2.306   6.390  -2.252  0.00  0.00    -0.051 Br
ATOM     18  C   UNL d   1       0.387   3.618  -0.733  0.00  0.00     0.032 A 
BRANCH  13  19
ATOM     19  C   UNL d   1      -2.778   1.573  -0.057  0.00  0.00     0.194 C 
ATOM     20  O   UNL d   1      -2.636   1.042   1.041  0.00  0.00    -0.287 OA
BRANCH  19  21
ATOM     21  C   UNL d   1      -3.975   1.215  -0.889  0.00  0.00     0.015 A 
ATOM     22  C   UNL d   1      -5.106   0.706  -0.237  0.00  0.00     0.015 A 
ATOM     23  C   UNL d   1      -6.276   0.433  -0.955  0.00  0.00     0.001 A 
ATOM     24  C   UNL d   1      -6.318   0.663  -2.330  0.00  0.00     0.000 A 
ATOM     25  C   UNL d   1      -5.189   1.140  -2.992  0.00  0.00     0.001 A 
ATOM     26  C   UNL d   1      -4.014   1.400  -2.277  0.00  0.00     0.015 A 
ENDBRANCH  19  21
ENDBRANCH  13  19
ENDBRANCH   1  12
BRANCH   1  27
ATOM     27  C   UNL d   1       1.069   1.866   1.650  0.00  0.00     0.182 C 
BRANCH  27  28
ATOM     28  C   UNL d   1       0.616   3.026   2.535  0.00  0.00    -0.018 A 
ATOM     29  C   UNL d   1       1.483   4.046   2.962  0.00  0.00     0.042 A 
ATOM     30 CL   UNL d   1       3.120   4.153   2.419  0.00  0.00    -0.084 Cl
ATOM     31  C   UNL d   1       1.049   5.032   3.860  0.00  0.00     0.024 A 
ATOM     32  C   UNL d   1      -0.261   5.027   4.337  0.00  0.00     0.002 A 
ATOM     33  C   UNL d   1      -1.140   4.038   3.912  0.00  0.00     0.001 A 
ATOM     34  C   UNL d   1      -0.702   3.042   3.034  0.00  0.00     0.010 A 
ENDBRANCH  27  28
ENDBRANCH   1  27
TORSDOF 7
