REMARK  4 active torsions:
REMARK  status: ('A' for Active; 'I' for Inactive)
REMARK    1  A    between atoms: C_15  and  C_7 
REMARK    2  A    between atoms: C_16  and  C_8 
REMARK    3  A    between atoms: O_13  and  C_9 
REMARK    4  A    between atoms: O_14  and  C_10 
ROOT
ATOM      1  C   UNL d   1      -0.019  -0.680  -0.010  0.00  0.00     0.096 A 
ATOM      2  C   UNL d   1      -0.056   0.733  -0.018  0.00  0.00     0.096 A 
ATOM      3  N   UNL d   1       1.175  -1.329  -0.009  0.00  0.00    -0.354 N 
ATOM      4  HN  UNL d   1       1.209  -2.349  -0.008  1.00  0.00     0.166 HD
ATOM      5  N   UNL d   1       1.094   1.448  -0.030  0.00  0.00    -0.354 N 
ATOM      6  HN  UNL d   1       1.069   2.467  -0.048  1.00  0.00     0.166 HD
ATOM      7  C   UNL d   1       2.321  -0.603  -0.009  0.00  0.00     0.032 A 
ATOM      8  C   UNL d   1       2.277   0.788  -0.017  0.00  0.00     0.032 A 
ATOM      9  C   UNL d   1      -1.298   1.392  -0.008  0.00  0.00     0.097 A 
ATOM     10  C   UNL d   1      -1.234  -1.394   0.001  0.00  0.00     0.097 A 
ATOM     11  C   UNL d   1      -2.491   0.669   0.006  0.00  0.00     0.042 A 
ATOM     12  C   UNL d   1      -2.460  -0.721   0.010  0.00  0.00     0.042 A 
ENDROOT
BRANCH   7  13
ATOM     13  C   UNL d   1       3.628  -1.358   0.015  0.00  0.00     0.054 C 
ATOM     14  C   UNL d   1       3.497  -2.877   0.041  0.00  0.00     0.011 C 
ENDBRANCH   7  13
BRANCH   8  15
ATOM     15  C   UNL d   1       3.499   1.667  -0.016  0.00  0.00     0.054 C 
ATOM     16  C   UNL d   1       3.938   2.051  -1.421  0.00  0.00     0.011 C 
ENDBRANCH   8  15
BRANCH  10  17
ATOM     17  O   UNL d   1      -1.127  -2.768   0.008  0.00  0.00    -0.354 OA
ATOM     18  C   UNL d   1      -2.327  -3.529   0.007  0.00  0.00     0.210 C 
ENDBRANCH  10  17
BRANCH   9  19
ATOM     19  O   UNL d   1      -1.244   2.769  -0.008  0.00  0.00    -0.354 OA
ATOM     20  C   UNL d   1      -2.468   3.488   0.015  0.00  0.00     0.210 C 
ENDBRANCH   9  19
TORSDOF 4
