REMARK  3 active torsions:
REMARK  status: ('A' for Active; 'I' for Inactive)
REMARK    1  A    between atoms: C_2  and  C_1 
REMARK    2  A    between atoms: C_13  and  N_3 
REMARK    3  A    between atoms: C_11  and  C_4 
ROOT
ATOM      1  C   UNL d   1      -0.072  -1.269   0.009  0.00  0.00     0.153 C 
ATOM      2  N   UNL d   1       1.045  -0.692   0.593  0.00  0.00    -0.224 N 
ATOM      3  N   UNL d   1       0.781   0.622   0.784  0.00  0.00     0.001 NA
ATOM      4  N   UNL d   1      -0.343   0.860   0.125  0.00  0.00    -0.007 NA
ATOM      5  N   UNL d   1      -0.870  -0.297  -0.386  0.00  0.00    -0.269 N 
ATOM      6  HN  UNL d   1      -1.710  -0.388  -0.957  1.00  0.00     0.185 HD
ENDROOT
BRANCH   1   7
ATOM      7  C   UNL d   1      -0.422  -2.706  -0.070  0.00  0.00     0.065 A 
ATOM      8  C   UNL d   1      -1.191  -3.336  -1.025  0.00  0.00     0.124 A 
ATOM      9  O   UNL d   1      -1.288  -4.659  -0.685  0.00  0.00    -0.236 OA
ATOM     10  N   UNL d   1      -0.584  -4.906   0.480  0.00  0.00    -0.271 N 
ATOM     11  C   UNL d   1      -0.077  -3.728   0.838  0.00  0.00     0.132 A 
ATOM     12  HN  UNL d   1      -0.477  -5.799   0.962  1.00  0.00     0.194 HD
BRANCH   8  13
ATOM     13  C   UNL d   1      -1.806  -2.986  -2.300  0.00  0.00     0.004 A 
ATOM     14  C   UNL d   1      -1.268  -1.977  -3.111  0.00  0.00     0.056 A 
ATOM     15  C   UNL d   1      -1.837  -1.693  -4.348  0.00  0.00     0.117 A 
ATOM     16  F   UNL d   1      -1.299  -0.733  -5.113  0.00  0.00    -0.206 F 
ATOM     17  C   UNL d   1      -2.939  -2.397  -4.812  0.00  0.00     0.042 A 
ATOM     18  C   UNL d   1      -3.487  -3.404  -4.022  0.00  0.00     0.004 A 
ATOM     19  C   UNL d   1      -2.923  -3.695  -2.776  0.00  0.00     0.014 A 
ENDBRANCH   8  13
ENDBRANCH   1   7
BRANCH   2  20
ATOM     20  C   UNL d   1       2.332  -1.229   0.846  0.00  0.00     0.056 A 
ATOM     21  C   UNL d   1       2.795  -2.348   0.136  0.00  0.00     0.033 A 
ATOM     22  C   UNL d   1       4.074  -2.855   0.383  0.00  0.00     0.026 A 
ATOM     23  C   UNL d   1       4.893  -2.243   1.329  0.00  0.00     0.034 A 
ATOM     24  C   UNL d   1       4.451  -1.115   2.018  0.00  0.00     0.026 A 
ATOM     25 CL   UNL d   1       6.462  -2.876   1.633  0.00  0.00    -0.084 Cl
ATOM     26  C   UNL d   1       3.176  -0.597   1.770  0.00  0.00     0.033 A 
ENDBRANCH   2  20
TORSDOF 3
