REMARK  3 active torsions:
REMARK  status: ('A' for Active; 'I' for Inactive)
REMARK    1  A    between atoms: C_2  and  C_1 
REMARK       I    between atoms: N_4  and  C_1 
REMARK       I    between atoms: C_3  and  N_6 
REMARK       I    between atoms: N_7  and  C_3 
REMARK    2  A    between atoms: N_6  and  N_4 
REMARK    3  A    between atoms: C_13  and  N_7 
ROOT
ATOM      1  C   UNL d   1       0.709   0.081  -0.447  0.00  0.00     0.286 C 
ATOM      2  N   UNL d   1       0.097  -1.153  -0.393  0.00  0.00    -0.261 N 
ATOM      3  O   UNL d   1       0.088   1.131  -0.284  0.00  0.00    -0.264 OA
ATOM      4  H   UNL d   1       0.625  -2.021  -0.345  0.00  0.00     0.190 HD
ENDROOT
BRANCH   2   5
ATOM      5  N   UNL d   1      -1.252  -1.236  -0.014  0.00  0.00    -0.249 N 
ATOM      6  C   UNL d   1      -1.785  -2.502   0.125  0.00  0.00     0.335 C 
ATOM      7  N   UNL d   1      -3.139  -2.467   0.336  0.00  0.00    -0.338 N 
ATOM      8  O   UNL d   1      -1.101  -3.518   0.069  0.00  0.00    -0.246 OA
ATOM      9  H   UNL d   1      -3.510  -1.585   0.658  0.00  0.00     0.164 HD
ATOM     10  H   UNL d   1      -1.839  -0.476  -0.345  0.00  0.00     0.192 HD
BRANCH   7  11
ATOM     11  C   UNL d   1      -3.958  -3.650   0.574  0.00  0.00     0.078 C 
ATOM     12  C   UNL d   1      -3.945  -4.618  -0.607  0.00  0.00     0.032 C 
ATOM     13  C   UNL d   1      -3.594  -4.355   1.879  0.00  0.00     0.032 C 
ENDBRANCH   7  11
ENDBRANCH   2   5
BRANCH   1  14
ATOM     14  C   UNL d   1       2.135   0.042  -0.687  0.00  0.00     0.102 A 
ATOM     15  N   UNL d   1       2.941   1.138  -0.462  0.00  0.00    -0.361 N 
ATOM     16  C   UNL d   1       4.245   0.827  -0.736  0.00  0.00     0.088 A 
ATOM     17  H   UNL d   1       2.600   2.028  -0.119  0.00  0.00     0.165 HD
ATOM     18  C   UNL d   1       4.286  -0.470  -1.189  0.00  0.00     0.019 A 
ATOM     19  C   UNL d   1       2.959  -0.965  -1.164  0.00  0.00     0.036 A 
ENDBRANCH   1  14
TORSDOF 3
