REMARK  7 active torsions:
REMARK  status: ('A' for Active; 'I' for Inactive)
REMARK    1  A    between atoms: C_11  and  C_3 
REMARK    2  A    between atoms: C_7  and  C_10 
REMARK    3  A    between atoms: O_21  and  C_9 
REMARK    4  A    between atoms: C_18  and  C_11 
REMARK    5  A    between atoms: N_13  and  C_19 
REMARK    6  A    between atoms: C_26  and  C_18 
REMARK    7  A    between atoms: C_27  and  C_26 
ROOT
ATOM      1  C   UNL d   1      -5.108   7.245  -0.999  0.00  0.00     0.032 A 
ATOM      2  C   UNL d   1      -5.088   5.862  -0.720  0.00  0.00     0.036 A 
ATOM      3  C   UNL d   1      -4.031   5.275  -0.002  0.00  0.00    -0.056 A 
ATOM      4  C   UNL d   1      -3.051   7.483   0.263  0.00  0.00     0.003 A 
ATOM      5  C   UNL d   1      -4.086   8.042  -0.493  0.00  0.00     0.029 A 
ATOM      6  C   UNL d   1      -3.031   6.114   0.511  0.00  0.00     0.007 A 
ENDROOT
BRANCH   3   7
ATOM      7  C   UNL d   1      -3.996   3.766   0.199  0.00  0.00     0.046 C 
BRANCH   7   8
ATOM      8  C   UNL d   1      -2.571   3.190   0.226  0.00  0.00     0.088 C 
BRANCH   8   9
ATOM      9  C   UNL d   1      -2.467   1.691  -0.060  0.00  0.00     0.161 C 
ATOM     10  O   UNL d   1      -3.415   1.041  -0.491  0.00  0.00    -0.292 OA
BRANCH   9  11
ATOM     11  C   UNL d   1      -1.140   1.000   0.180  0.00  0.00     0.023 A 
ATOM     12  C   UNL d   1       0.035   1.434  -0.491  0.00  0.00    -0.041 A 
ATOM     13  C   UNL d   1       0.023   2.585  -1.474  0.00  0.00     0.050 C 
ATOM     14  C   UNL d   1       1.288   0.783  -0.252  0.00  0.00    -0.049 A 
ATOM     15  C   UNL d   1       1.357  -0.307   0.646  0.00  0.00    -0.049 A 
ATOM     16  C   UNL d   1       2.511   1.297  -0.987  0.00  0.00     0.049 C 
ATOM     17  C   UNL d   1       0.172  -0.763   1.290  0.00  0.00    -0.049 A 
ATOM     18  C   UNL d   1       2.650  -1.047   0.933  0.00  0.00     0.049 C 
ATOM     19  C   UNL d   1      -1.083  -0.129   1.042  0.00  0.00    -0.041 A 
ATOM     20  C   UNL d   1       0.283  -1.947   2.237  0.00  0.00     0.049 C 
ATOM     21  C   UNL d   1      -2.312  -0.695   1.720  0.00  0.00     0.050 C 
ENDBRANCH   9  11
ENDBRANCH   8   9
ENDBRANCH   7   8
ENDBRANCH   3   7
BRANCH   1  22
ATOM     22  N   UNL d   1      -6.117   7.885  -1.742  0.00  0.00    -0.365 N 
ATOM     23  C   UNL d   1      -6.532   7.321  -2.833  0.00  0.00     0.102 C 
ATOM     24  HN  UNL d   1      -6.513   8.771  -1.429  1.00  0.00     0.165 HD
BRANCH  23  25
ATOM     25  C   UNL d   1      -7.536   7.966  -3.706  0.00  0.00     0.016 A 
ATOM     26  C   UNL d   1      -8.103   7.245  -4.768  0.00  0.00     0.099 A 
ATOM     27  C   UNL d   1      -9.019   7.876  -5.615  0.00  0.00     0.069 A 
ATOM     28 CL   UNL d   1      -9.727   7.003  -6.925  0.00  0.00    -0.081 Cl
ATOM     29  C   UNL d   1      -9.368   9.211  -5.422  0.00  0.00     0.050 A 
ATOM     30  C   UNL d   1      -8.799   9.918  -4.364  0.00  0.00     0.036 A 
ATOM     31  C   UNL d   1      -7.889   9.303  -3.502  0.00  0.00     0.039 A 
ATOM     32 CL   UNL d   1      -9.215  11.572  -4.132  0.00  0.00    -0.084 Cl
BRANCH  26  33
ATOM     33  O   UNL d   1      -7.757   5.936  -4.957  0.00  0.00    -0.358 OA
ATOM     34  H   UNL d   1      -8.267   5.601  -5.721  0.00  0.00     0.217 HD
ENDBRANCH  26  33
ENDBRANCH  23  25
ENDBRANCH   1  22
TORSDOF 7
