REMARK  8 active torsions:
REMARK  status: ('A' for Active; 'I' for Inactive)
REMARK    1  A    between atoms: N_2  and  C_1 
REMARK    2  A    between atoms: C_3  and  C_7 
REMARK    3  A    between atoms: C_4  and  C_3 
REMARK    4  A    between atoms: S_9  and  C_5 
REMARK    5  A    between atoms: C_10  and  C_8 
REMARK    6  A    between atoms: C_11  and  S_9 
REMARK    7  A    between atoms: O_19  and  C_10 
REMARK    8  A    between atoms: N_20  and  C_18 
ROOT
ATOM      1  C   UNL d   1       1.463  -0.213  -0.004  0.00  0.00     0.120 A 
ATOM      2  C   UNL d   1       0.677  -1.373  -0.021  0.00  0.00     0.038 A 
ATOM      3  C   UNL d   1       0.912   1.064   0.187  0.00  0.00     0.053 A 
ATOM      4  C   UNL d   1      -0.471   1.202   0.323  0.00  0.00     0.017 A 
ATOM      5  C   UNL d   1      -0.713  -1.204   0.070  0.00  0.00     0.022 A 
ATOM      6  C   UNL d   1      -1.286   0.069   0.222  0.00  0.00     0.017 A 
ENDROOT
BRANCH   4   7
ATOM      7  C   UNL d   1      -1.019   2.564   0.565  0.00  0.00     0.193 C 
ATOM      8  O   UNL d   1      -0.382   3.538   0.170  0.00  0.00    -0.287 OA
BRANCH   7   9
ATOM      9  C   UNL d   1      -2.244   2.803   1.366  0.00  0.00     0.032 A 
ATOM     10  C   UNL d   1      -3.148   3.849   1.107  0.00  0.00     0.051 A 
ATOM     11  C   UNL d   1      -4.262   4.000   1.961  0.00  0.00     0.019 A 
ATOM     12  C   UNL d   1      -4.473   3.147   3.046  0.00  0.00     0.001 A 
ATOM     13  C   UNL d   1      -3.568   2.128   3.306  0.00  0.00     0.001 A 
ATOM     14  C   UNL d   1      -2.453   1.969   2.485  0.00  0.00     0.016 A 
BRANCH  10  15
ATOM     15  C   UNL d   1      -3.131   4.803  -0.042  0.00  0.00     0.177 C 
ATOM     16  O   UNL d   1      -4.180   5.209  -0.524  0.00  0.00    -0.646 OA
BRANCH  15  17
ATOM     17  O   UNL d   1      -1.945   5.286  -0.444  0.00  0.00    -0.773 OA
ATOM     18  H   UNL d   1      -1.145   4.823  -0.100  0.00  0.00     0.167 HD
ENDBRANCH  15  17
ENDBRANCH  10  15
ENDBRANCH   7   9
ENDBRANCH   4   7
BRANCH   1  19
ATOM     19  N   UNL d   1       2.890  -0.273  -0.250  0.00  0.00    -0.114 N 
ATOM     20  O   UNL d   1       3.258  -0.677  -1.366  0.00  0.00    -0.532 OA
ATOM     21  O   UNL d   1       3.635   0.170   0.629  0.00  0.00    -0.532 OA
ENDBRANCH   1  19
BRANCH   2  22
ATOM     22  S   UNL d   1       1.304  -3.030  -0.243  0.00  0.00    -0.086 SA
BRANCH  22  23
ATOM     23  C   UNL d   1       1.346  -3.665   1.438  0.00  0.00     0.026 A 
ATOM     24  C   UNL d   1       2.538  -3.657   2.193  0.00  0.00     0.023 A 
ATOM     25  C   UNL d   1       2.530  -4.216   3.479  0.00  0.00     0.024 A 
ATOM     26  C   UNL d   1       1.395  -4.860   3.976  0.00  0.00     0.002 A 
ATOM     27  C   UNL d   1       0.235  -4.906   3.210  0.00  0.00     0.001 A 
ATOM     28  C   UNL d   1       0.207  -4.306   1.948  0.00  0.00     0.021 A 
BRANCH  24  29
ATOM     29  N   UNL d   1       3.667  -2.926   1.784  0.00  0.00    -0.302 NA
ATOM     30  H   UNL d   1       3.736  -2.835   0.773  0.00  0.00     0.124 HD
ATOM     31  H   UNL d   1       4.540  -3.246   2.191  0.00  0.00     0.124 HD
ENDBRANCH  24  29
ENDBRANCH  22  23
ENDBRANCH   2  22
TORSDOF 8
