REMARK  8 active torsions:
REMARK  status: ('A' for Active; 'I' for Inactive)
REMARK    1  A    between atoms: C2_2  and  C1_1 
REMARK       I    between atoms: N_12  and  C1_1 
REMARK    2  A    between atoms: S1_7  and  C3_3 
REMARK    3  A    between atoms: CA_14  and  N_12 
REMARK    4  A    between atoms: C_13  and  CA_14 
REMARK    5  A    between atoms: OXT_16  and  C_13 
REMARK    6  A    between atoms: CB_17  and  CA_14 
REMARK    7  A    between atoms: CG_19  and  CB_17 
REMARK    8  A    between atoms: SD_18  and  CG_19 
ROOT
ATOM      1  C1  <1> d   1       1.004   0.089   0.005  0.00  0.00     0.255 C 
ATOM      2  O1  <1> d   1       0.499  -0.645  -0.832  0.00  0.00    -0.268 OA
ATOM      3  N   MET d   1       0.245   0.747   0.963  0.00  0.00    -0.342 N 
ATOM      4  H   MET d   1       0.674   1.518   1.469  0.00  0.00     0.163 HD
ENDROOT
BRANCH   1   5
ATOM      5  C2  <1> d   1       2.477   0.280   0.100  0.00  0.00     0.065 A 
ATOM      6  C3  <1> d   1       3.326   0.389  -1.008  0.00  0.00     0.085 A 
ATOM      7  N2  <1> d   1       4.678   0.485  -0.860  0.00  0.00    -0.360 N 
ATOM      8  C8  <1> d   1       5.201   0.466   0.382  0.00  0.00     0.089 A 
ATOM      9  H2  <1> d   1       5.284   0.571  -1.676  1.00  0.00     0.166 HD
ATOM     10  C12 <1> d   1       4.435   0.378   1.525  0.00  0.00     0.018 A 
ATOM     11  C7  <1> d   1       3.056   0.281   1.381  0.00  0.00     0.021 A 
BRANCH   6  12
ATOM     12  S1  <1> d   1       2.748   0.502  -2.699  0.00  0.00    -0.116 SA
ATOM     13  C10 <1> d   1       4.325   0.596  -3.601  0.00  0.00     0.097 C 
ENDBRANCH   6  12
ENDBRANCH   1   5
BRANCH   3  14
ATOM     14  CA  MET d   1      -1.234   0.711   0.944  0.00  0.00     0.183 C 
BRANCH  14  15
ATOM     15  C   MET d   1      -1.744   0.638   2.396  0.00  0.00     0.163 C 
ATOM     16  O   MET d   1      -2.857   0.963   2.774  0.00  0.00    -0.648 OA
BRANCH  15  17
ATOM     17  OXT MET d   1      -0.832   0.073   3.231  0.00  0.00    -0.775 OA
ATOM     18  HXT MET d   1      -0.072  -0.244   2.703  0.00  0.00     0.167 HD
ENDBRANCH  15  17
ENDBRANCH  14  15
BRANCH  14  19
ATOM     19  CB  MET d   1      -1.829   1.917   0.213  0.00  0.00     0.046 C 
BRANCH  19  20
ATOM     20  CG  MET d   1      -1.489   1.905  -1.275  0.00  0.00     0.076 C 
BRANCH  20  21
ATOM     21  SD  MET d   1      -2.277   3.310  -2.118  0.00  0.00    -0.173 SA
ATOM     22  CE  MET d   1      -1.591   3.030  -3.768  0.00  0.00     0.089 C 
ENDBRANCH  20  21
ENDBRANCH  19  20
ENDBRANCH  14  19
ENDBRANCH   3  14
TORSDOF 8
