REMARK  9 active torsions:
REMARK  status: ('A' for Active; 'I' for Inactive)
REMARK    1  A    between atoms: N_4  and  C_1 
REMARK    2  A    between atoms: C_2  and  C_6 
REMARK    3  A    between atoms: C_3  and  C_5 
REMARK    4  A    between atoms: N_9  and  N_4 
REMARK    5  A    between atoms: C_17  and  C_11 
REMARK    6  A    between atoms: C_15  and  C_34 
REMARK    7  A    between atoms: C_21  and  C_16 
REMARK    8  A    between atoms: O_33  and  N_22 
REMARK    9  A    between atoms: C_34  and  O_33 
ROOT
ATOM      1  C   UNL d   1       1.565   5.331   0.019  0.00  0.00     0.140 C 
ATOM      2  N   UNL d   1       2.463   4.403  -0.051  0.00  0.00    -0.275 N 
ATOM      3  HN  UNL d   1       2.265   3.405  -0.127  1.00  0.00     0.193 HD
ENDROOT
BRANCH   2   4
ATOM      4  O   UNL d   1       3.759   4.969  -0.008  0.00  0.00    -0.269 OA
BRANCH   4   5
ATOM      5  C   UNL d   1       4.718   3.898  -0.065  0.00  0.00     0.295 C 
BRANCH   5   6
ATOM      6  C   UNL d   1       6.108   4.407  -0.028  0.00  0.00    -0.072 C 
ATOM      7  C   UNL d   1       7.253   4.760  -0.066  0.00  0.00    -0.065 C 
BRANCH   7   8
ATOM      8  C   UNL d   1       8.604   5.218  -0.222  0.00  0.00     0.019 A 
ATOM      9  C   UNL d   1       9.679   4.582   0.423  0.00  0.00     0.036 A 
ATOM     10  C   UNL d   1      10.998   5.038   0.228  0.00  0.00     0.050 A 
ATOM     11  C   UNL d   1      11.221   6.134  -0.623  0.00  0.00     0.032 A 
ATOM     12  C   UNL d   1      10.156   6.774  -1.274  0.00  0.00     0.050 A 
ATOM     13  C   UNL d   1       8.851   6.303  -1.060  0.00  0.00     0.036 A 
BRANCH  10  14
ATOM     14  C   UNL d   1      12.161   4.358   0.918  0.00  0.00     0.417 C 
ATOM     15  F   UNL d   1      13.367   4.920   0.619  0.00  0.00    -0.166 F 
ATOM     16  F   UNL d   1      12.061   4.398   2.274  0.00  0.00    -0.166 F 
ATOM     17  F   UNL d   1      12.273   3.044   0.584  0.00  0.00    -0.166 F 
ENDBRANCH  10  14
BRANCH  12  18
ATOM     18  C   UNL d   1      10.388   7.944  -2.198  0.00  0.00     0.417 C 
ATOM     19  F   UNL d   1      11.699   8.296  -2.309  0.00  0.00    -0.166 F 
ATOM     20  F   UNL d   1       9.959   7.697  -3.466  0.00  0.00    -0.166 F 
ATOM     21  F   UNL d   1       9.733   9.065  -1.790  0.00  0.00    -0.166 F 
ENDBRANCH  12  18
ENDBRANCH   7   8
ENDBRANCH   5   6
ENDBRANCH   4   5
ENDBRANCH   2   4
BRANCH   1  22
ATOM     22  C   UNL d   1       0.087   4.992  -0.004  0.00  0.00     0.039 C 
ATOM     23  N   UNL d   1      -0.284   3.860   0.518  0.00  0.00    -0.303 N 
ATOM     24  HN  UNL d   1       0.403   3.257   0.970  1.00  0.00     0.186 HD
ATOM     25  C   UNL d   1      -0.800   6.029  -0.641  0.00  0.00     0.071 C 
BRANCH  23  26
ATOM     26  N   UNL d   1      -1.588   3.484   0.460  0.00  0.00    -0.297 N 
ATOM     27  H   UNL d   1      -2.319   4.191   0.552  0.00  0.00     0.187 HD
BRANCH  26  28
ATOM     28  C   UNL d   1      -1.953   2.267   1.108  0.00  0.00     0.091 A 
ATOM     29  C   UNL d   1      -3.225   2.175   1.723  0.00  0.00     0.065 A 
ATOM     30  C   UNL d   1      -3.668   1.003   2.345  0.00  0.00     0.050 A 
ATOM     31 CL   UNL d   1      -4.295   3.542   1.744  0.00  0.00    -0.082 Cl
ATOM     32  C   UNL d   1      -2.844  -0.113   2.359  0.00  0.00     0.037 A 
ATOM     33  C   UNL d   1      -1.588  -0.066   1.767  0.00  0.00     0.050 A 
ATOM     34 CL   UNL d   1      -3.386  -1.570   3.096  0.00  0.00    -0.084 Cl
ATOM     35  C   UNL d   1      -1.143   1.109   1.142  0.00  0.00     0.065 A 
ATOM     36 CL   UNL d   1       0.405   0.995   0.370  0.00  0.00    -0.082 Cl
ENDBRANCH  26  28
ENDBRANCH  23  26
ENDBRANCH   1  22
TORSDOF 9
