REMARK  7 active torsions:
REMARK  status: ('A' for Active; 'I' for Inactive)
REMARK    1  A    between atoms: C_6  and  C_1 
REMARK    2  A    between atoms: C_5  and  C_2 
REMARK       I    between atoms: N_11  and  C_5 
REMARK    3  A    between atoms: S_15  and  C_9 
REMARK    4  A    between atoms: C_13  and  N_11 
REMARK    5  A    between atoms: S_19  and  C_14 
REMARK    6  A    between atoms: C_22  and  S_15 
REMARK    7  A    between atoms: C_25  and  S_19 
ROOT
ATOM      1  N   UNL d   1      -3.463  -3.819   0.748  0.00  0.00    -0.343 N 
ATOM      2  HN  UNL d   1      -4.060  -4.324   1.402  1.00  0.00     0.167 HD
ATOM      3  C   UNL d   1      -2.160  -4.188   0.581  0.00  0.00     0.102 A 
ATOM      4  C   UNL d   1      -1.292  -3.489  -0.281  0.00  0.00     0.069 A 
ATOM      5  C   UNL d   1      -3.955  -2.784   0.043  0.00  0.00     0.075 A 
ATOM      6  C   UNL d   1      -1.863  -2.482  -1.070  0.00  0.00     0.035 A 
ATOM      7  C   UNL d   1      -3.208  -2.138  -0.925  0.00  0.00     0.039 A 
ENDROOT
BRANCH   4   8
ATOM      8  N   UNL d   1       0.126  -3.575  -0.330  0.00  0.00    -0.320 N 
ATOM      9  C   UNL d   1       0.885  -4.721  -0.232  0.00  0.00     0.261 C 
ATOM     10  O   UNL d   1       0.454  -5.845  -0.456  0.00  0.00    -0.267 OA
ATOM     11  H   UNL d   1       0.614  -2.779  -0.713  0.00  0.00     0.169 HD
BRANCH   9  12
ATOM     12  C   UNL d   1       2.256  -4.527   0.231  0.00  0.00     0.093 A 
ATOM     13  C   UNL d   1       3.387  -3.686  -0.120  0.00  0.00     0.088 A 
ATOM     14  N   UNL d   1       4.399  -3.978   0.716  0.00  0.00    -0.259 N 
ATOM     15  O   UNL d   1       4.003  -4.964   1.555  0.00  0.00    -0.241 OA
ATOM     16  HN  UNL d   1       5.315  -3.529   0.718  1.00  0.00     0.195 HD
ATOM     17  C   UNL d   1       2.740  -5.319   1.265  0.00  0.00     0.090 A 
ATOM     18  C   UNL d   1       2.207  -6.422   2.089  0.00  0.00     0.080 C 
BRANCH  13  19
ATOM     19  C   UNL d   1       3.664  -2.695  -1.202  0.00  0.00     0.054 A 
ATOM     20  C   UNL d   1       4.845  -1.902  -1.264  0.00  0.00     0.049 A 
ATOM     21 CL   UNL d   1       6.070  -1.811  -0.030  0.00  0.00    -0.083 Cl
ATOM     22  C   UNL d   1       5.124  -1.072  -2.369  0.00  0.00     0.025 A 
ATOM     23  C   UNL d   1       4.234  -0.967  -3.426  0.00  0.00     0.005 A 
ATOM     24  C   UNL d   1       3.057  -1.697  -3.376  0.00  0.00     0.043 A 
ATOM     25  C   UNL d   1       2.794  -2.548  -2.293  0.00  0.00     0.130 A 
ATOM     26  F   UNL d   1       1.647  -3.230  -2.356  0.00  0.00    -0.205 F 
ENDBRANCH  13  19
ENDBRANCH   9  12
ENDBRANCH   4   8
BRANCH   3  27
ATOM     27  S   UNL d   1      -1.683  -5.460   1.737  0.00  0.00    -0.070 SA
BRANCH  27  28
ATOM     28  C   UNL d   1      -2.547  -6.874   1.056  0.00  0.00     0.007 A 
ATOM     29  C   UNL d   1      -1.815  -7.915   0.475  0.00  0.00     0.019 A 
ATOM     30  C   UNL d   1      -2.464  -9.028  -0.064  0.00  0.00     0.001 A 
ATOM     31  C   UNL d   1      -3.856  -9.115  -0.015  0.00  0.00     0.000 A 
ATOM     32  C   UNL d   1      -4.593  -8.094   0.580  0.00  0.00     0.001 A 
ATOM     33  C   UNL d   1      -3.941  -6.981   1.118  0.00  0.00     0.019 A 
ENDBRANCH  27  28
ENDBRANCH   3  27
BRANCH   5  34
ATOM     34  S   UNL d   1      -5.623  -2.249   0.387  0.00  0.00    -0.073 SA
BRANCH  34  35
ATOM     35  C   UNL d   1      -5.594  -1.916   2.147  0.00  0.00     0.007 A 
ATOM     36  C   UNL d   1      -5.937  -0.641   2.618  0.00  0.00     0.019 A 
ATOM     37  C   UNL d   1      -5.986  -0.376   3.992  0.00  0.00     0.001 A 
ATOM     38  C   UNL d   1      -5.691  -1.384   4.911  0.00  0.00     0.000 A 
ATOM     39  C   UNL d   1      -5.359  -2.655   4.454  0.00  0.00     0.001 A 
ATOM     40  C   UNL d   1      -5.318  -2.919   3.084  0.00  0.00     0.019 A 
ENDBRANCH  34  35
ENDBRANCH   5  34
TORSDOF 7
