REMARK  8 active torsions:
REMARK  status: ('A' for Active; 'I' for Inactive)
REMARK    1  A    between atoms: C_12  and  C_1 
REMARK    2  A    between atoms: S_2  and  N_10 
REMARK    3  A    between atoms: C_16  and  S_2 
REMARK    4  A    between atoms: C_14  and  N_5 
REMARK    5  A    between atoms: C_9  and  C_13 
REMARK    6  A    between atoms: N_10  and  N_17 
REMARK    7  A    between atoms: C_11  and  C_18 
REMARK    8  A    between atoms: C_15  and  C_14 
REMARK       I    between atoms: N_17  and  C_15 
ROOT
ATOM      1  C   UNL d   1       3.333   0.595  -0.067  0.00  0.00     0.257 C 
ATOM      2  N   UNL d   1       3.496  -0.754   0.132  0.00  0.00    -0.259 N 
ATOM      3  O   UNL d   1       4.332   1.310  -0.241  0.00  0.00    -0.270 OA
ATOM      4  H   UNL d   1       2.723  -1.400   0.336  0.00  0.00     0.190 HD
ENDROOT
BRANCH   1   5
ATOM      5  C   UNL d   1       1.977   1.235  -0.082  0.00  0.00     0.271 C 
BRANCH   5   6
ATOM      6  N   UNL d   1       0.781   0.440   0.091  0.00  0.00    -0.207 N 
ATOM      7  N   UNL d   1       0.754  -0.852   0.476  0.00  0.00    -0.268 N 
ATOM      8  C   UNL d   1      -0.552  -0.976   0.816  0.00  0.00     0.145 A 
ATOM      9  HN  UNL d   1       1.505  -1.542   0.503  1.00  0.00     0.190 HD
ATOM     10  N   UNL d   1      -1.248   0.187   0.631  0.00  0.00    -0.266 N 
ATOM     11  N   UNL d   1      -0.404   1.072   0.133  0.00  0.00    -0.002 NA
ATOM     12  HN  UNL d   1      -2.235   0.342   0.840  1.00  0.00     0.186 HD
BRANCH   8  13
ATOM     13  C   UNL d   1      -1.105  -2.120   1.535  0.00  0.00     0.025 A 
ATOM     14  C   UNL d   1      -2.454  -2.528   1.512  0.00  0.00     0.061 A 
ATOM     15  C   UNL d   1      -2.850  -3.600   2.353  0.00  0.00     0.017 A 
ATOM     16  C   UNL d   1      -1.948  -4.247   3.197  0.00  0.00     0.001 A 
ATOM     17  C   UNL d   1      -0.621  -3.851   3.205  0.00  0.00     0.001 A 
ATOM     18  C   UNL d   1      -0.204  -2.810   2.381  0.00  0.00     0.016 A 
BRANCH  14  19
ATOM     19  C   UNL d   1      -3.557  -1.952   0.651  0.00  0.00     0.418 C 
ATOM     20  F   UNL d   1      -3.236  -0.924  -0.168  0.00  0.00    -0.166 F 
ATOM     21  F   UNL d   1      -4.092  -2.903  -0.173  0.00  0.00    -0.166 F 
ATOM     22  F   UNL d   1      -4.609  -1.512   1.407  0.00  0.00    -0.166 F 
ENDBRANCH  14  19
ENDBRANCH   8  13
ENDBRANCH   5   6
ENDBRANCH   1   5
BRANCH   2  23
ATOM     23  N   UNL d   1       4.870  -1.232   0.129  0.00  0.00    -0.220 N 
ATOM     24  H   UNL d   1       5.620  -0.540  -0.027  0.00  0.00     0.200 HD
BRANCH  23  25
ATOM     25  S   UNL d   1       5.345  -2.814   0.390  0.00  0.00     0.276 S 
ATOM     26  O   UNL d   1       6.787  -2.867   0.294  0.00  0.00    -0.199 OA
ATOM     27  O   UNL d   1       4.625  -3.291   1.552  0.00  0.00    -0.199 OA
BRANCH  25  28
ATOM     28  C   UNL d   1       4.683  -3.635  -1.036  0.00  0.00     0.081 A 
ATOM     29  C   UNL d   1       3.796  -4.701  -0.861  0.00  0.00     0.041 A 
ATOM     30  C   UNL d   1       3.155  -5.266  -1.971  0.00  0.00     0.049 A 
ATOM     31  C   UNL d   1       3.442  -4.761  -3.247  0.00  0.00     0.016 A 
ATOM     32  C   UNL d   1       4.364  -3.722  -3.422  0.00  0.00     0.002 A 
ATOM     33  C   UNL d   1       4.989  -3.156  -2.312  0.00  0.00     0.025 A 
BRANCH  30  34
ATOM     34  C   UNL d   1       2.133  -6.364  -1.799  0.00  0.00     0.417 C 
ATOM     35  F   UNL d   1       2.006  -6.790  -0.511  0.00  0.00    -0.166 F 
ATOM     36  F   UNL d   1       0.888  -5.970  -2.184  0.00  0.00    -0.166 F 
ATOM     37  F   UNL d   1       2.422  -7.472  -2.533  0.00  0.00    -0.166 F 
ENDBRANCH  30  34
ENDBRANCH  25  28
ENDBRANCH  23  25
ENDBRANCH   2  23
TORSDOF 8
