REMARK  2 active torsions:
REMARK  status: ('A' for Active; 'I' for Inactive)
REMARK    1  A    between atoms: C_8  and  N_1 
REMARK    2  A    between atoms: C_9  and  C_8 
ROOT
ATOM      1  N   UNL d   1       1.881   0.022  -0.045  0.00  0.00    -0.272 N 
ATOM      2  C   UNL d   1       1.099   1.140  -0.162  0.00  0.00     0.262 A 
ATOM      3  C   UNL d   1       1.112  -1.108   0.078  0.00  0.00     0.262 A 
ATOM      4  C   UNL d   1      -0.290   0.699  -0.064  0.00  0.00     0.048 A 
ATOM      5  C   UNL d   1      -0.283  -0.675   0.061  0.00  0.00     0.048 A 
ATOM      6  O   UNL d   1       1.413   2.304  -0.334  0.00  0.00    -0.267 OA
ATOM      7  O   UNL d   1       1.455  -2.270   0.189  0.00  0.00    -0.267 OA
ATOM      8  C   UNL d   1      -1.453  -1.407   0.134  0.00  0.00     0.018 A 
ATOM      9  C   UNL d   1      -1.465   1.426  -0.102  0.00  0.00     0.018 A 
ATOM     10  C   UNL d   1      -2.663   0.709  -0.025  0.00  0.00     0.001 A 
ATOM     11  C   UNL d   1      -2.657  -0.697   0.085  0.00  0.00     0.001 A 
ENDROOT
BRANCH   1  12
ATOM     12  C   UNL d   1       3.333  -0.029  -0.164  0.00  0.00     0.114 C 
ATOM     13  C   UNL d   1       4.056   1.138   0.507  0.00  0.00     0.037 C 
BRANCH  12  14
ATOM     14  C   UNL d   1       3.698  -0.098  -1.628  0.00  0.00    -0.012 C 
ATOM     15  C   UNL d   1       4.378  -1.109  -2.190  0.00  0.00     0.009 C 
ENDBRANCH  12  14
ENDBRANCH   1  12
TORSDOF 2
