REMARK  5 active torsions:
REMARK  status: ('A' for Active; 'I' for Inactive)
REMARK    1  A    between atoms: C_3  and  C_1 
REMARK    2  A    between atoms: C_7  and  C_1 
REMARK    3  A    between atoms: C_9  and  C_2 
REMARK    4  A    between atoms: N_4  and  C_3 
REMARK    5  A    between atoms: O_17  and  C_11 
ROOT
ATOM      1  C   UNL d   1       1.064  -0.077  -0.005  0.00  0.00     0.037 C 
ATOM      2  C   UNL d   1       0.422   1.112   0.006  0.00  0.00     0.033 C 
ENDROOT
BRANCH   1   3
ATOM      3  C   UNL d   1       2.584  -0.077  -0.005  0.00  0.00    -0.036 C 
BRANCH   3   4
ATOM      4  N   UNL d   1       3.845  -0.077  -0.005  0.00  0.00    -0.365 N 
ATOM      5  HN2 UNL d   1       2.825  -0.077  -0.005  1.00  0.00     0.165 HD
ATOM      6  HN1 UNL d   1       4.865  -0.077  -0.005  1.00  0.00     0.165 HD
ENDBRANCH   3   4
ENDBRANCH   1   3
BRANCH   1   7
ATOM      7  C   UNL d   1       0.315  -1.359   0.010  0.00  0.00    -0.015 A 
ATOM      8  C   UNL d   1      -0.940  -1.477  -0.615  0.00  0.00     0.036 A 
ATOM      9  C   UNL d   1      -1.642  -2.684  -0.589  0.00  0.00     0.034 A 
ATOM     10 CL   UNL d   1      -3.187  -2.786  -1.342  0.00  0.00    -0.084 Cl
ATOM     11  C   UNL d   1      -1.105  -3.800   0.040  0.00  0.00     0.024 A 
ATOM     12  C   UNL d   1       0.146  -3.709   0.646  0.00  0.00     0.003 A 
ATOM     13  C   UNL d   1       0.850  -2.499   0.631  0.00  0.00     0.013 A 
ENDBRANCH   1   7
BRANCH   2  14
ATOM     14  C   UNL d   1       1.091   2.418  -0.057  0.00  0.00    -0.035 A 
ATOM     15  C   UNL d   1       1.384   2.994  -1.297  0.00  0.00     0.014 A 
ATOM     16  C   UNL d   1       2.041   4.229  -1.371  0.00  0.00     0.037 A 
ATOM     17  C   UNL d   1       2.411   4.897  -0.204  0.00  0.00     0.068 A 
ATOM     18  C   UNL d   1       2.113   4.320   1.034  0.00  0.00     0.037 A 
ATOM     19  C   UNL d   1       1.457   3.088   1.113  0.00  0.00     0.014 A 
BRANCH  17  20
ATOM     20  O   UNL d   1       3.058   6.099  -0.134  0.00  0.00    -0.356 OA
ATOM     21  C   UNL d   1       3.435   6.701  -1.366  0.00  0.00     0.210 C 
ENDBRANCH  17  20
ENDBRANCH   2  14
TORSDOF 5
