REMARK  5 active torsions:
REMARK  status: ('A' for Active; 'I' for Inactive)
REMARK    1  A    between atoms: N_5  and  C_1 
REMARK    2  A    between atoms: N_9  and  C_1 
REMARK    3  A    between atoms: N_2  and  N_5 
REMARK    4  A    between atoms: C_7  and  N_2 
REMARK    5  A    between atoms: C_6  and  C_7 
ROOT
ATOM      1  N   UNL d   1      -1.123  -2.405   2.585  0.00  0.00    -0.309 N 
ATOM      2  HN  UNL d   1      -1.587  -3.033   3.241  1.00  0.00     0.186 HD
ENDROOT
BRANCH   1   3
ATOM      3  N   UNL d   1       0.234  -2.268   2.560  0.00  0.00    -0.277 N 
ATOM      4  H   UNL d   1       0.684  -1.633   1.908  0.00  0.00     0.189 HD
BRANCH   3   5
ATOM      5  C   UNL d   1       1.014  -2.981   3.433  0.00  0.00     0.184 C 
ATOM      6  S   UNL d   1       2.664  -2.853   3.470  0.00  0.00    -0.040 SA
BRANCH   5   7
ATOM      7  N   UNL d   1       0.334  -3.803   4.270  0.00  0.00    -0.375 N 
ATOM      8  H   UNL d   1       0.800  -4.366   4.966  0.00  0.00     0.158 HD
ATOM      9  H   UNL d   1      -0.676  -3.799   4.189  0.00  0.00     0.158 HD
ENDBRANCH   5   7
ENDBRANCH   3   5
ENDBRANCH   1   3
BRANCH   1  10
ATOM     10  C   UNL d   1      -1.792  -1.696   1.730  0.00  0.00     0.119 C 
BRANCH  10  11
ATOM     11  C   UNL d   1      -3.276  -1.768   1.690  0.00  0.00    -0.013 A 
ATOM     12  C   UNL d   1      -4.059  -1.040   0.777  0.00  0.00    -0.050 A 
ATOM     13  C   UNL d   1      -3.523  -0.113  -0.278  0.00  0.00     0.049 C 
ATOM     14  C   UNL d   1      -5.462  -1.159   0.857  0.00  0.00     0.007 A 
ATOM     15  C   UNL d   1      -6.069  -1.989   1.802  0.00  0.00     0.001 A 
ATOM     16  C   UNL d   1      -5.288  -2.717   2.687  0.00  0.00     0.001 A 
ATOM     17  C   UNL d   1      -3.901  -2.606   2.632  0.00  0.00     0.013 A 
ENDBRANCH  10  11
ENDBRANCH   1  10
TORSDOF 5
