REMARK  4 active torsions:
REMARK  status: ('A' for Active; 'I' for Inactive)
REMARK    1  A    between atoms: C_2  and  S_1 
REMARK    2  A    between atoms: C_9  and  S_1 
REMARK    3  A    between atoms: N_8  and  C_3 
REMARK    4  A    between atoms: C_12  and  N_8 
ROOT
ATOM      1  C   UNL d   1       0.471  -1.274  -1.089  0.00  0.00     0.154 C 
ATOM      2  C   UNL d   1      -0.342  -2.259  -0.664  0.00  0.00     0.123 C 
ATOM      3  C   UNL d   1       0.970  -0.274  -0.219  0.00  0.00     0.113 C 
ATOM      4  N   UNL d   1       1.301   0.527   0.550  0.00  0.00    -0.191 NA
ENDROOT
BRANCH   1   5
ATOM      5  S   UNL d   1       0.950  -1.231  -2.760  0.00  0.00     0.190 S 
ATOM      6  O   UNL d   1       0.902  -2.585  -3.291  0.00  0.00    -0.222 OA
ATOM      7  O   UNL d   1       2.171  -0.460  -2.897  0.00  0.00    -0.222 OA
BRANCH   5   8
ATOM      8  C   UNL d   1      -0.373  -0.312  -3.569  0.00  0.00     0.106 C 
ATOM      9  C   UNL d   1      -0.485   1.119  -3.055  0.00  0.00     0.026 C 
ATOM     10  C   UNL d   1      -0.164  -0.300  -5.086  0.00  0.00     0.026 C 
ENDBRANCH   5   8
ENDBRANCH   1   5
BRANCH   2  11
ATOM     11  N   UNL d   1      -0.833  -2.467   0.609  0.00  0.00    -0.363 N 
ATOM     12  H   UNL d   1      -0.516  -1.819   1.331  0.00  0.00     0.165 HD
BRANCH  11  13
ATOM     13  C   UNL d   1      -1.669  -3.491   1.088  0.00  0.00     0.047 A 
ATOM     14  C   UNL d   1      -2.082  -3.485   2.427  0.00  0.00     0.117 A 
ATOM     15  N   UNL d   1      -2.907  -4.394   3.002  0.00  0.00    -0.373 N 
ATOM     16  C   UNL d   1      -3.358  -5.380   2.203  0.00  0.00     0.088 A 
ATOM     17  HN  UNL d   1      -3.172  -4.334   3.985  1.00  0.00     0.164 HD
ATOM     18  C   UNL d   1      -3.020  -5.492   0.867  0.00  0.00     0.019 A 
ATOM     19  C   UNL d   1      -2.167  -4.536   0.307  0.00  0.00     0.032 A 
ENDBRANCH  11  13
ENDBRANCH   2  11
TORSDOF 4
