REMARK  3 active torsions:
REMARK  status: ('A' for Active; 'I' for Inactive)
REMARK    1  A    between atoms: C_9  and  C_2 
REMARK    2  A    between atoms: C_10  and  C_6 
REMARK    3  A    between atoms: O_23  and  C_17 
ROOT
ATOM      1  C   UNL d   1      -0.472  -0.393   0.029  0.00  0.00     0.123 A 
ATOM      2  C   UNL d   1       0.284  -1.517   0.009  0.00  0.00     0.003 A 
ATOM      3  C   UNL d   1       0.212   0.937   0.060  0.00  0.00     0.267 A 
ATOM      4  N   UNL d   1       1.584   0.922   0.084  0.00  0.00    -0.322 N 
ATOM      5  C   UNL d   1       1.741  -1.414   0.036  0.00  0.00     0.044 A 
ATOM      6  C   UNL d   1       2.341  -0.217   0.073  0.00  0.00     0.046 A 
ATOM      7  C   UNL d   1      -1.894  -0.397   0.014  0.00  0.00     0.106 C 
ATOM      8  N   UNL d   1      -3.056  -0.434   0.002  0.00  0.00    -0.191 NA
ATOM      9  O   UNL d   1      -0.404   1.998   0.057  0.00  0.00    -0.266 OA
ATOM     10  H   UNL d   1       2.037   1.828   0.104  0.00  0.00     0.169 HD
ENDROOT
BRANCH   2  11
ATOM     11  C   UNL d   1      -0.352  -2.849  -0.063  0.00  0.00    -0.024 A 
ATOM     12  C   UNL d   1      -0.657  -3.410  -1.309  0.00  0.00     0.015 A 
ATOM     13  C   UNL d   1      -1.230  -4.682  -1.391  0.00  0.00     0.037 A 
ATOM     14  C   UNL d   1      -1.501  -5.403  -0.229  0.00  0.00     0.068 A 
ATOM     15  C   UNL d   1      -1.174  -4.856   1.014  0.00  0.00     0.037 A 
ATOM     16  C   UNL d   1      -0.610  -3.580   1.101  0.00  0.00     0.015 A 
BRANCH  14  17
ATOM     17  O   UNL d   1      -2.035  -6.662  -0.194  0.00  0.00    -0.356 OA
ATOM     18  C   UNL d   1      -2.927  -6.973  -1.260  0.00  0.00     0.210 C 
ENDBRANCH  14  17
ENDBRANCH   2  11
BRANCH   6  19
ATOM     19  C   UNL d   1       3.797  -0.065   0.098  0.00  0.00    -0.009 A 
ATOM     20  C   UNL d   1       4.515   0.037  -1.102  0.00  0.00     0.017 A 
ATOM     21  C   UNL d   1       5.895   0.246  -1.077  0.00  0.00     0.043 A 
ATOM     22  C   UNL d   1       6.551   0.350   0.144  0.00  0.00     0.116 A 
ATOM     23  C   UNL d   1       5.855   0.238   1.343  0.00  0.00     0.043 A 
ATOM     24  F   UNL d   1       7.872   0.568   0.166  0.00  0.00    -0.206 F 
ATOM     25  C   UNL d   1       4.476   0.028   1.322  0.00  0.00     0.017 A 
ENDBRANCH   6  19
TORSDOF 3
