REMARK  4 active torsions:
REMARK  status: ('A' for Active; 'I' for Inactive)
REMARK    1  A    between atoms: C_10  and  N_1 
REMARK    2  A    between atoms: O_13  and  C_11 
REMARK    3  A    between atoms: C_15  and  O_13 
REMARK    4  A    between atoms: C_18  and  C_15 
ROOT
ATOM      1  N   UNL d   1       0.028  -1.677  -0.066  0.00  0.00    -0.343 N 
ATOM      2  C   UNL d   1      -1.103  -0.893  -0.014  0.00  0.00     0.088 A 
ATOM      3  C   UNL d   1      -0.696   0.431  -0.007  0.00  0.00    -0.015 A 
ATOM      4  C   UNL d   1       0.723   0.456  -0.030  0.00  0.00     0.002 A 
ATOM      5  C   UNL d   1       1.158  -0.873  -0.071  0.00  0.00     0.046 A 
ATOM      6  C   UNL d   1      -2.494  -1.304   0.037  0.00  0.00     0.176 C 
ATOM      7  C   UNL d   1       2.524  -1.191  -0.096  0.00  0.00     0.033 A 
ATOM      8  C   UNL d   1       1.681   1.489  -0.009  0.00  0.00     0.051 A 
ATOM      9  O   UNL d   1      -2.878  -2.469  -0.057  0.00  0.00    -0.291 OA
ATOM     10  C   UNL d   1       3.047   1.187  -0.021  0.00  0.00     0.069 A 
ATOM     11  C   UNL d   1      -1.650   1.578   0.051  0.00  0.00     0.042 C 
ATOM     12  C   UNL d   1       3.457  -0.143  -0.065  0.00  0.00     0.039 A 
ATOM     13  C   UNL d   1      -3.478  -0.171   0.314  0.00  0.00     0.086 C 
ATOM     14  C   UNL d   1      -3.057   1.133  -0.374  0.00  0.00     0.012 C 
ENDROOT
BRANCH  10  15
ATOM     15  O   UNL d   1       3.868   2.283   0.014  0.00  0.00    -0.351 OA
BRANCH  15  16
ATOM     16  C   UNL d   1       5.274   2.040   0.027  0.00  0.00     0.179 C 
BRANCH  16  17
ATOM     17  C   UNL d   1       6.022   3.382   0.064  0.00  0.00     0.002 C 
ATOM     18  C   UNL d   1       5.683   4.185   1.322  0.00  0.00     0.011 C 
ATOM     19  C   UNL d   1       7.529   3.146  -0.024  0.00  0.00     0.011 C 
ENDBRANCH  16  17
ENDBRANCH  15  16
ENDBRANCH  10  15
BRANCH   1  20
ATOM     20  C   UNL d   1       0.047  -3.133  -0.040  0.00  0.00     0.125 C 
ATOM     21  C   UNL d   1      -0.054  -3.748  -1.425  0.00  0.00     0.027 C 
ENDBRANCH   1  20
TORSDOF 4
