REMARK  5 active torsions:
REMARK  status: ('A' for Active; 'I' for Inactive)
REMARK    1  A    between atoms: C_2  and  C_1 
REMARK    2  A    between atoms: O_6  and  C_2 
REMARK    3  A    between atoms: N_3  and  O_6 
REMARK    4  A    between atoms: C_7  and  C_5 
REMARK    5  A    between atoms: N_13  and  C_5 
ROOT
ATOM      1  N   UNL d   1      -2.447   2.481  -0.268  0.00  0.00    -0.246 N 
ATOM      2  HN  UNL d   1      -1.621   3.013  -0.540  1.00  0.00     0.196 HD
ATOM      3  C   UNL d   1      -3.599   3.021  -0.009  0.00  0.00     0.109 C 
ENDROOT
BRANCH   1   4
ATOM      4  O   UNL d   1      -2.464   1.074  -0.131  0.00  0.00    -0.193 OA
BRANCH   4   5
ATOM      5  C   UNL d   1      -1.213   0.581  -0.398  0.00  0.00     0.321 C 
ATOM      6  O   UNL d   1      -0.252   1.228  -0.789  0.00  0.00    -0.257 OA
BRANCH   5   7
ATOM      7  C   UNL d   1      -1.138  -0.883  -0.158  0.00  0.00     0.118 A 
ATOM      8  C   UNL d   1       0.056  -1.553  -0.452  0.00  0.00     0.135 A 
ATOM      9  F   UNL d   1       1.117  -0.909  -0.958  0.00  0.00    -0.205 F 
ATOM     10  C   UNL d   1       0.198  -2.927  -0.237  0.00  0.00     0.043 A 
ATOM     11  C   UNL d   1      -0.860  -3.664   0.285  0.00  0.00     0.006 A 
ATOM     12  C   UNL d   1      -2.057  -3.015   0.585  0.00  0.00     0.043 A 
ATOM     13  C   UNL d   1      -2.191  -1.639   0.362  0.00  0.00     0.135 A 
ATOM     14  F   UNL d   1      -3.370  -1.080   0.671  0.00  0.00    -0.205 F 
ENDBRANCH   5   7
ENDBRANCH   4   5
ENDBRANCH   1   4
BRANCH   3  15
ATOM     15  C   UNL d   1      -3.694   4.518  -0.074  0.00  0.00     0.004 A 
ATOM     16  C   UNL d   1      -2.818   5.243  -0.893  0.00  0.00     0.016 A 
ATOM     17  C   UNL d   1      -2.903   6.639  -0.954  0.00  0.00     0.024 A 
ATOM     18  C   UNL d   1      -3.854   7.308  -0.185  0.00  0.00     0.034 A 
ATOM     19  C   UNL d   1      -4.722   6.597   0.642  0.00  0.00     0.024 A 
ATOM     20 CL   UNL d   1      -3.954   9.025  -0.251  0.00  0.00    -0.084 Cl
ATOM     21  C   UNL d   1      -4.644   5.201   0.698  0.00  0.00     0.016 A 
ENDBRANCH   3  15
BRANCH   3  22
ATOM     22  N   UNL d   1      -4.730   2.304   0.308  0.00  0.00    -0.286 NA
ATOM     23  H   UNL d   1      -4.633   1.318   0.089  0.00  0.00     0.125 HD
ATOM     24  H   UNL d   1      -5.602   2.690  -0.039  0.00  0.00     0.125 HD
ENDBRANCH   3  22
TORSDOF 5
