REMARK  5 active torsions:
REMARK  status: ('A' for Active; 'I' for Inactive)
REMARK       I    between atoms: C_6  and  N_1 
REMARK    1  A    between atoms: C_8  and  C_5 
REMARK    2  A    between atoms: C_10  and  C_6 
REMARK    3  A    between atoms: C_23  and  C_7 
REMARK    4  A    between atoms: C_9  and  C_8 
REMARK    5  A    between atoms: C_27  and  C_23 
ROOT
ATOM      1  N   UNL d   1      -0.072  -0.923   0.171  0.00  0.00    -0.186 N 
ATOM      2  N   UNL d   1      -1.411  -0.586   0.188  0.00  0.00    -0.296 N 
ATOM      3  HN  UNL d   1      -2.193  -1.237   0.263  1.00  0.00     0.187 HD
ATOM      4  C   UNL d   1       0.768   0.205   0.103  0.00  0.00     0.255 C 
ATOM      5  C   UNL d   1      -0.173   1.403   0.181  0.00  0.00     0.131 C 
ATOM      6  C   UNL d   1       0.323  -2.267   0.060  0.00  0.00     0.279 C 
ATOM      7  C   UNL d   1      -1.497   0.699   0.092  0.00  0.00     0.018 C 
ATOM      8  O   UNL d   1       1.982   0.285   0.033  0.00  0.00    -0.270 OA
ATOM      9  O   UNL d   1       1.479  -2.663   0.206  0.00  0.00    -0.265 OA
ENDROOT
BRANCH   6  10
ATOM     10  C   UNL d   1      -0.742  -3.302  -0.181  0.00  0.00     0.034 A 
ATOM     11  C   UNL d   1      -1.874  -3.050  -0.970  0.00  0.00     0.019 A 
ATOM     12  C   UNL d   1      -2.887  -4.003  -1.097  0.00  0.00     0.025 A 
ATOM     13  C   UNL d   1      -2.739  -5.247  -0.495  0.00  0.00     0.034 A 
ATOM     14  C   UNL d   1      -1.583  -5.546   0.226  0.00  0.00     0.025 A 
ATOM     15 CL   UNL d   1      -3.985  -6.421  -0.654  0.00  0.00    -0.084 Cl
ATOM     16  C   UNL d   1      -0.587  -4.574   0.387  0.00  0.00     0.019 A 
ENDBRANCH   6  10
BRANCH   7  17
ATOM     17  C   UNL d   1      -2.802   1.403  -0.161  0.00  0.00     0.054 C 
BRANCH  17  18
ATOM     18  C   UNL d   1      -3.919   0.409  -0.498  0.00  0.00     0.001 C 
ATOM     19  C   UNL d   1      -5.240   1.096  -0.791  0.00  0.00     0.005 C 
ENDBRANCH  17  18
ENDBRANCH   7  17
BRANCH   5  20
ATOM     20  C   UNL d   1       0.056   2.090   1.526  0.00  0.00     0.063 C 
BRANCH  20  21
ATOM     21  C   UNL d   1      -0.767   3.326   1.816  0.00  0.00     0.003 A 
ATOM     22  C   UNL d   1      -0.651   4.442   0.976  0.00  0.00     0.124 A 
ATOM     23  F   UNL d   1       0.106   4.366  -0.127  0.00  0.00    -0.205 F 
ATOM     24  C   UNL d   1      -1.289   5.650   1.255  0.00  0.00     0.043 A 
ATOM     25  C   UNL d   1      -2.066   5.771   2.401  0.00  0.00     0.005 A 
ATOM     26  C   UNL d   1      -2.221   4.673   3.244  0.00  0.00     0.024 A 
ATOM     27  C   UNL d   1      -1.583   3.459   2.953  0.00  0.00     0.043 A 
ATOM     28 CL   UNL d   1      -1.863   2.150   4.046  0.00  0.00    -0.084 Cl
ENDBRANCH  20  21
ENDBRANCH   5  20
TORSDOF 5
