REMARK  8 active torsions:
REMARK  status: ('A' for Active; 'I' for Inactive)
REMARK    1  A    between atoms: N_10  and  C_1 
REMARK    2  A    between atoms: N_6  and  C_2 
REMARK    3  A    between atoms: C_8  and  C_11 
REMARK    4  A    between atoms: C_9  and  C_12 
REMARK       I    between atoms: C_14  and  N_10 
REMARK    5  A    between atoms: C_13  and  C_15 
REMARK    6  A    between atoms: O_21  and  C_14 
REMARK    7  A    between atoms: N_33  and  C_15 
REMARK    8  A    between atoms: N_16  and  O_21 
ROOT
ATOM      1  C   UNL d   1      -0.485   1.977  -0.565  0.00  0.00     0.109 C 
ATOM      2  N   UNL d   1      -0.593   0.774  -0.071  0.00  0.00    -0.244 N 
ATOM      3  HN  UNL d   1      -1.337   0.494   0.568  1.00  0.00     0.196 HD
ENDROOT
BRANCH   2   4
ATOM      4  O   UNL d   1       0.436  -0.109  -0.516  0.00  0.00    -0.179 OA
BRANCH   4   5
ATOM      5  C   UNL d   1       1.537   0.007   0.304  0.00  0.00     0.387 C 
ATOM      6  N   UNL d   1       2.625  -0.749  -0.029  0.00  0.00    -0.296 N 
ATOM      7  H   UNL d   1       3.453  -0.450   0.472  0.00  0.00     0.171 HD
ATOM      8  O   UNL d   1       1.662   0.839   1.208  0.00  0.00    -0.236 OA
BRANCH   6   9
ATOM      9  C   UNL d   1       2.749  -1.891  -0.794  0.00  0.00     0.100 A 
ATOM     10  C   UNL d   1       3.970  -2.442  -1.145  0.00  0.00     0.156 A 
ATOM     11  N   UNL d   1       3.707  -3.652  -1.726  0.00  0.00    -0.279 N 
ATOM     12  C   UNL d   1       4.600  -4.589  -2.372  0.00  0.00     0.179 C 
ATOM     13  N   UNL d   1       2.377  -3.886  -1.837  0.00  0.00    -0.306 N 
ATOM     14  C   UNL d   1       1.803  -2.815  -1.276  0.00  0.00     0.141 A 
ATOM     15  HN  UNL d   1       1.918  -4.696  -2.254  1.00  0.00     0.186 HD
BRANCH  10  16
ATOM     16  N   UNL d   1       5.223  -1.856  -0.981  0.00  0.00    -0.316 N 
ATOM     17  C   UNL d   1       5.488  -0.507  -1.140  0.00  0.00     0.098 A 
ATOM     18  C   UNL d   1       6.790  -0.248  -0.783  0.00  0.00     0.019 A 
ATOM     19  C   UNL d   1       7.362  -1.480  -0.406  0.00  0.00     0.019 A 
ATOM     20  C   UNL d   1       6.394  -2.452  -0.565  0.00  0.00     0.098 A 
ENDBRANCH  10  16
ENDBRANCH   6   9
ENDBRANCH   4   5
ENDBRANCH   2   4
BRANCH   1  21
ATOM     21  C   UNL d   1      -1.428   3.041  -0.061  0.00  0.00     0.005 A 
ATOM     22  C   UNL d   1      -2.035   2.913   1.195  0.00  0.00     0.031 A 
ATOM     23  C   UNL d   1      -2.861   3.933   1.703  0.00  0.00     0.049 A 
ATOM     24  C   UNL d   1      -3.073   5.088   0.929  0.00  0.00     0.032 A 
ATOM     25  C   UNL d   1      -2.479   5.232  -0.334  0.00  0.00     0.049 A 
ATOM     26  C   UNL d   1      -1.662   4.196  -0.822  0.00  0.00     0.031 A 
BRANCH  23  27
ATOM     27  C   UNL d   1      -3.490   3.792   3.071  0.00  0.00     0.417 C 
ATOM     28  F   UNL d   1      -4.274   4.854   3.413  0.00  0.00    -0.166 F 
ATOM     29  F   UNL d   1      -4.287   2.695   3.171  0.00  0.00    -0.166 F 
ATOM     30  F   UNL d   1      -2.563   3.683   4.061  0.00  0.00    -0.166 F 
ENDBRANCH  23  27
BRANCH  25  31
ATOM     31  C   UNL d   1      -2.696   6.475  -1.165  0.00  0.00     0.417 C 
ATOM     32  F   UNL d   1      -3.406   7.442  -0.521  0.00  0.00    -0.166 F 
ATOM     33  F   UNL d   1      -1.523   7.058  -1.536  0.00  0.00    -0.166 F 
ATOM     34  F   UNL d   1      -3.370   6.218  -2.318  0.00  0.00    -0.166 F 
ENDBRANCH  25  31
ENDBRANCH   1  21
BRANCH   1  35
ATOM     35  N   UNL d   1       0.462   2.357  -1.494  0.00  0.00    -0.286 NA
ATOM     36  H   UNL d   1       0.862   3.277  -1.343  0.00  0.00     0.125 HD
ATOM     37  H   UNL d   1       1.182   1.664  -1.649  0.00  0.00     0.125 HD
ENDBRANCH   1  35
TORSDOF 8
