REMARK  8 active torsions:
REMARK  status: ('A' for Active; 'I' for Inactive)
REMARK    1  A    between atoms: N_6  and  C_1 
REMARK    2  A    between atoms: C_11  and  N_2 
REMARK    3  A    between atoms: C_12  and  C_7 
REMARK    4  A    between atoms: N_9  and  C_8 
REMARK       I    between atoms: C_10  and  N_9 
REMARK    5  A    between atoms: C_14  and  C_10 
REMARK    6  A    between atoms: C_33  and  C_30 
REMARK    7  A    between atoms: C_34  and  C_33 
REMARK    8  A    between atoms: C_35  and  C_34 
ROOT
ATOM      1  C   UNL d   1       0.146  -1.865   0.454  0.00  0.00     0.132 C 
ATOM      2  N   UNL d   1       0.003  -0.486   0.480  0.00  0.00    -0.240 N 
ATOM      3  N   UNL d   1       1.204   0.137   0.311  0.00  0.00    -0.291 N 
ATOM      4  HN  UNL d   1       1.370   1.115   0.072  1.00  0.00     0.187 HD
ATOM      5  C   UNL d   1       1.493  -2.087   0.621  0.00  0.00     0.082 C 
ATOM      6  C   UNL d   1       2.119  -0.822   0.531  0.00  0.00     0.062 C 
ENDROOT
BRANCH   1   7
ATOM      7  N   UNL d   1      -0.804  -2.864   0.349  0.00  0.00    -0.318 N 
ATOM      8  C   UNL d   1      -2.105  -2.829   0.032  0.00  0.00     0.180 C 
ATOM      9  S   UNL d   1      -3.092  -3.969   0.773  0.00  0.00    -0.040 SA
ATOM     10  H   UNL d   1      -0.524  -3.752   0.759  0.00  0.00     0.170 HD
BRANCH   8  11
ATOM     11  N   UNL d   1      -2.700  -2.018  -0.894  0.00  0.00    -0.299 N 
ATOM     12  C   UNL d   1      -2.536  -1.127  -1.966  0.00  0.00     0.257 C 
ATOM     13  O   UNL d   1      -3.568  -0.600  -2.397  0.00  0.00    -0.267 OA
ATOM     14  H   UNL d   1      -3.707  -2.129  -0.806  0.00  0.00     0.171 HD
BRANCH  12  15
ATOM     15  C   UNL d   1      -1.256  -0.792  -2.624  0.00  0.00     0.032 C 
ATOM     16  C   UNL d   1      -0.141  -1.622  -2.657  0.00  0.00     0.017 C 
ATOM     17  C   UNL d   1       1.063  -1.147  -3.199  0.00  0.00     0.008 C 
ATOM     18  C   UNL d   1       1.155   0.135  -3.767  0.00  0.00    -0.058 C 
ATOM     19  C   UNL d   1      -0.013   0.894  -3.873  0.00  0.00     0.008 C 
ATOM     20  C   UNL d   1      -1.200   0.439  -3.297  0.00  0.00     0.017 C 
BRANCH  18  21
ATOM     21  C   UNL d   1       2.508   0.640  -4.223  0.00  0.00     0.038 C 
BRANCH  21  22
ATOM     22  C   UNL d   1       2.607   2.147  -4.509  0.00  0.00     0.004 C 
BRANCH  22  23
ATOM     23  C   UNL d   1       4.062   2.611  -4.592  0.00  0.00    -0.004 C 
ATOM     24  C   UNL d   1       4.158   4.093  -4.926  0.00  0.00     0.005 C 
ENDBRANCH  22  23
ENDBRANCH  21  22
ENDBRANCH  18  21
ENDBRANCH  12  15
ENDBRANCH   8  11
ENDBRANCH   1   7
BRANCH   2  25
ATOM     25  C   UNL d   1      -1.120   0.276   0.882  0.00  0.00     0.058 A 
ATOM     26  C   UNL d   1      -1.918  -0.170   1.945  0.00  0.00     0.033 A 
ATOM     27  C   UNL d   1      -3.000   0.601   2.368  0.00  0.00     0.020 A 
ATOM     28  C   UNL d   1      -3.300   1.793   1.708  0.00  0.00     0.006 A 
ATOM     29  C   UNL d   1      -2.505   2.240   0.651  0.00  0.00     0.020 A 
ATOM     30  I   UNL d   1      -4.936   2.919   2.320  0.00  0.00    -0.045 I 
ATOM     31  C   UNL d   1      -1.388   1.498   0.259  0.00  0.00     0.033 A 
ENDBRANCH   2  25
BRANCH   6  32
ATOM     32  C   UNL d   1       3.553  -0.547   0.630  0.00  0.00    -0.008 A 
ATOM     33  C   UNL d   1       4.417  -1.470   1.249  0.00  0.00     0.015 A 
ATOM     34  C   UNL d   1       5.790  -1.222   1.342  0.00  0.00     0.024 A 
ATOM     35  C   UNL d   1       6.314  -0.045   0.818  0.00  0.00     0.034 A 
ATOM     36  C   UNL d   1       5.477   0.890   0.208  0.00  0.00     0.024 A 
ATOM     37 CL   UNL d   1       8.003   0.258   0.927  0.00  0.00    -0.084 Cl
ATOM     38  C   UNL d   1       4.101   0.638   0.118  0.00  0.00     0.015 A 
ENDBRANCH   6  32
TORSDOF 8
