REMARK  8 active torsions:
REMARK  status: ('A' for Active; 'I' for Inactive)
REMARK    1  A    between atoms: N_2  and  C_1 
REMARK    2  A    between atoms: C_3  and  C_1 
REMARK    3  A    between atoms: C_5  and  C_1 
REMARK    4  A    between atoms: N_6  and  C_1 
REMARK       I    between atoms: C_4  and  N_2 
REMARK    5  A    between atoms: C_9  and  C_4 
REMARK    6  A    between atoms: O_16  and  C_5 
REMARK    7  A    between atoms: C_7  and  N_6 
REMARK    8  A    between atoms: C_23  and  O_16 
ROOT
ATOM      1  C   UNL d   1       0.847   0.003  -0.036  0.00  0.00     0.297 C 
ENDROOT
BRANCH   1   2
ATOM      2  N   UNL d   1       0.220  -1.234   0.454  0.00  0.00    -0.315 N 
ATOM      3  C   UNL d   1       0.140  -1.535   1.786  0.00  0.00     0.254 C 
ATOM      4  O   UNL d   1       0.540  -0.790   2.670  0.00  0.00    -0.268 OA
ATOM      5  H   UNL d   1      -0.296  -1.788  -0.219  0.00  0.00     0.166 HD
BRANCH   3   6
ATOM      6  C   UNL d   1      -0.481  -2.839   2.117  0.00  0.00     0.032 A 
ATOM      7  C   UNL d   1      -0.101  -4.000   1.433  0.00  0.00     0.017 A 
ATOM      8  C   UNL d   1      -0.635  -5.233   1.813  0.00  0.00     0.001 A 
ATOM      9  C   UNL d   1      -1.550  -5.305   2.865  0.00  0.00     0.000 A 
ATOM     10  C   UNL d   1      -1.937  -4.145   3.539  0.00  0.00     0.001 A 
ATOM     11  C   UNL d   1      -1.398  -2.911   3.171  0.00  0.00     0.017 A 
ENDBRANCH   3   6
ENDBRANCH   1   2
BRANCH   1  12
ATOM     12  C   UNL d   1       0.383   1.328   0.680  0.00  0.00     0.442 C 
ATOM     13  F   UNL d   1      -0.839   1.202   1.257  0.00  0.00    -0.166 F 
ATOM     14  F   UNL d   1       1.257   1.704   1.650  0.00  0.00    -0.166 F 
ATOM     15  F   UNL d   1       0.289   2.388  -0.164  0.00  0.00    -0.166 F 
ENDBRANCH   1  12
BRANCH   1  16
ATOM     16  C   UNL d   1       0.399   0.241  -1.494  0.00  0.00     0.318 C 
ATOM     17  O   UNL d   1      -0.649  -0.205  -1.964  0.00  0.00    -0.260 OA
BRANCH  16  18
ATOM     18  O   UNL d   1       1.319   0.955  -2.211  0.00  0.00    -0.318 OA
BRANCH  18  19
ATOM     19  C   UNL d   1       1.058   1.143  -3.605  0.00  0.00     0.174 C 
ATOM     20  C   UNL d   1       1.402  -0.110  -4.391  0.00  0.00     0.034 C 
ENDBRANCH  18  19
ENDBRANCH  16  18
ENDBRANCH   1  16
BRANCH   1  21
ATOM     21  N   UNL d   1       2.317  -0.233   0.058  0.00  0.00    -0.348 N 
ATOM     22  H   UNL d   1       2.662  -0.025   0.996  0.00  0.00     0.163 HD
BRANCH  21  23
ATOM     23  C   UNL d   1       3.053  -1.201  -0.611  0.00  0.00     0.033 A 
ATOM     24  C   UNL d   1       2.526  -2.107  -1.536  0.00  0.00     0.071 A 
ATOM     25  C   UNL d   1       3.356  -2.976  -2.244  0.00  0.00     0.118 A 
ATOM     26  F   UNL d   1       2.809  -3.833  -3.117  0.00  0.00    -0.206 F 
ATOM     27  C   UNL d   1       4.730  -2.959  -2.074  0.00  0.00     0.042 A 
ATOM     28  C   UNL d   1       5.283  -2.055  -1.175  0.00  0.00     0.005 A 
ATOM     29  C   UNL d   1       4.449  -1.187  -0.457  0.00  0.00     0.029 A 
ENDBRANCH  21  23
ENDBRANCH   1  21
TORSDOF 8
