REMARK  4 active torsions:
REMARK  status: ('A' for Active; 'I' for Inactive)
REMARK    1  A    between atoms: C_2  and  C_1 
REMARK    2  A    between atoms: O_11  and  C_2 
REMARK    3  A    between atoms: C_9  and  C_3 
REMARK    4  A    between atoms: C_16  and  O_11 
ROOT
ATOM      1  C   UNL d   1       0.993  -0.104   0.084  0.00  0.00     0.120 C 
ATOM      2  C   UNL d   1       0.334   0.854  -0.594  0.00  0.00     0.040 C 
ATOM      3  C   UNL d   1       0.332  -1.122   0.834  0.00  0.00     0.105 C 
ATOM      4  N   UNL d   1      -0.234  -1.942   1.427  0.00  0.00    -0.191 NA
ENDROOT
BRANCH   1   5
ATOM      5  C   UNL d   1       2.476  -0.103  -0.043  0.00  0.00     0.303 C 
ATOM      6  O   UNL d   1       3.104   0.717  -0.701  0.00  0.00    -0.258 OA
BRANCH   5   7
ATOM      7  O   UNL d   1       3.011  -1.178   0.584  0.00  0.00    -0.317 OA
BRANCH   7   8
ATOM      8  C   UNL d   1       4.348  -1.525   0.193  0.00  0.00     0.174 C 
ATOM      9  C   UNL d   1       4.254  -2.452  -1.006  0.00  0.00     0.034 C 
ENDBRANCH   7   8
ENDBRANCH   5   7
ENDBRANCH   1   5
BRANCH   2  10
ATOM     10  C   UNL d   1      -1.125   0.985  -0.639  0.00  0.00    -0.035 A 
ATOM     11  C   UNL d   1      -1.793   1.718   0.347  0.00  0.00     0.013 A 
ATOM     12  C   UNL d   1      -3.183   1.851   0.301  0.00  0.00     0.023 A 
ATOM     13  C   UNL d   1      -3.914   1.253  -0.731  0.00  0.00     0.044 A 
ATOM     14  C   UNL d   1      -5.338   1.415  -0.792  0.00  0.00     0.099 C 
ATOM     15  C   UNL d   1      -3.248   0.509  -1.710  0.00  0.00     0.023 A 
ATOM     16  N   UNL d   1      -6.489   1.557  -0.850  0.00  0.00    -0.191 NA
ATOM     17  C   UNL d   1      -1.856   0.376  -1.664  0.00  0.00     0.013 A 
ENDBRANCH   2  10
TORSDOF 4
