REMARK  6 active torsions:
REMARK  status: ('A' for Active; 'I' for Inactive)
REMARK    1  A    between atoms: C_4  and  C_1 
REMARK    2  A    between atoms: C_9  and  N_5 
REMARK    3  A    between atoms: N_8  and  C_11 
REMARK    4  A    between atoms: C_10  and  C_9 
REMARK    5  A    between atoms: C_11  and  C_10 
REMARK    6  A    between atoms: O_15  and  C_10 
ROOT
ATOM      1  C   UNL d   1      -0.935  -0.189   0.343  0.00  0.00     0.133 A 
ATOM      2  N   UNL d   1       0.393  -0.063   0.141  0.00  0.00    -0.295 N 
ATOM      3  HN  UNL d   1       1.048  -0.788  -0.154  1.00  0.00     0.187 HD
ATOM      4  N   UNL d   1       0.665   1.226   0.414  0.00  0.00    -0.300 N 
ATOM      5  C   UNL d   1      -1.497   1.050   0.753  0.00  0.00     0.054 A 
ATOM      6  C   UNL d   1      -0.445   1.931   0.792  0.00  0.00     0.112 A 
ENDROOT
BRANCH   4   7
ATOM      7  C   UNL d   1       1.970   1.795   0.166  0.00  0.00     0.181 C 
BRANCH   7   8
ATOM      8  C   UNL d   1       3.190   0.867   0.209  0.00  0.00     0.166 C 
BRANCH   8   9
ATOM      9  C   UNL d   1       3.174  -0.246  -0.868  0.00  0.00     0.305 C 
BRANCH   9  10
ATOM     10  N   UNL d   1       4.539  -0.734  -1.206  0.00  0.00     0.090 N 
ATOM     11  C   UNL d   1       4.467  -1.667  -2.351  0.00  0.00     0.272 C 
ATOM     12  C   UNL d   1       4.131  -3.015  -1.742  0.00  0.00     0.032 C 
ATOM     13  C   UNL d   1       4.911  -3.009  -0.442  0.00  0.00     0.032 C 
ATOM     14  C   UNL d   1       5.139  -1.535  -0.118  0.00  0.00     0.272 C 
ENDBRANCH   9  10
ENDBRANCH   8   9
BRANCH   8  15
ATOM     15  O   UNL d   1       4.357   1.692  -0.003  0.00  0.00    -0.392 OA
ATOM     16  H   UNL d   1       4.975   1.119  -0.509  0.00  0.00     0.210 HD
ENDBRANCH   8  15
ENDBRANCH   7   8
ENDBRANCH   4   7
BRANCH   1  17
ATOM     17  C   UNL d   1      -1.689  -1.474   0.116  0.00  0.00     0.433 C 
ATOM     18  F   UNL d   1      -0.894  -2.578   0.119  0.00  0.00    -0.165 F 
ATOM     19  F   UNL d   1      -2.635  -1.676   1.074  0.00  0.00    -0.165 F 
ATOM     20  F   UNL d   1      -2.347  -1.467  -1.075  0.00  0.00    -0.165 F 
ENDBRANCH   1  17
TORSDOF 6
