REMARK  5 active torsions:
REMARK  status: ('A' for Active; 'I' for Inactive)
REMARK    1  A    between atoms: N_2  and  S_1 
REMARK    2  A    between atoms: C_4  and  S_1 
REMARK    3  A    between atoms: C_3  and  C_5 
REMARK    4  A    between atoms: C_17  and  N_6 
REMARK    5  A    between atoms: C_18  and  C_17 
ROOT
ATOM      1  N   UNL d   1       0.123   0.979  -0.128  0.00  0.00    -0.303 N 
ATOM      2  N   UNL d   1      -0.716   1.580   2.659  0.00  0.00     0.095 N 
ATOM      3  C   UNL d   1       0.375   2.329   0.466  0.00  0.00     0.165 C 
ATOM      4  C   UNL d   1      -1.015   0.272   0.511  0.00  0.00     0.165 C 
ATOM      5  C   UNL d   1       0.424   2.272   2.011  0.00  0.00     0.293 C 
ATOM      6  C   UNL d   1      -0.848   0.235   2.042  0.00  0.00     0.293 C 
ENDROOT
BRANCH   1   7
ATOM      7  S   UNL d   1       1.489   0.030  -0.479  0.00  0.00     0.261 S 
ATOM      8  O   UNL d   1       1.076  -1.347  -0.664  0.00  0.00    -0.200 OA
ATOM      9  O   UNL d   1       2.548   0.389   0.435  0.00  0.00    -0.200 OA
BRANCH   7  10
ATOM     10  C   UNL d   1       1.907   0.638  -2.095  0.00  0.00     0.080 A 
ATOM     11  C   UNL d   1       0.973   0.477  -3.129  0.00  0.00     0.041 A 
ATOM     12  C   UNL d   1       1.272   0.933  -4.420  0.00  0.00     0.049 A 
ATOM     13  C   UNL d   1       2.519   1.539  -4.650  0.00  0.00     0.016 A 
ATOM     14  C   UNL d   1       3.447   1.688  -3.613  0.00  0.00     0.002 A 
ATOM     15  C   UNL d   1       3.143   1.237  -2.329  0.00  0.00     0.025 A 
BRANCH  12  16
ATOM     16  C   UNL d   1       0.281   0.783  -5.548  0.00  0.00     0.417 C 
ATOM     17  F   UNL d   1      -0.882   0.179  -5.175  0.00  0.00    -0.166 F 
ATOM     18  F   UNL d   1      -0.081   1.984  -6.080  0.00  0.00    -0.166 F 
ATOM     19  F   UNL d   1       0.770   0.047  -6.582  0.00  0.00    -0.166 F 
ENDBRANCH  12  16
ENDBRANCH   7  10
ENDBRANCH   1   7
BRANCH   2  20
ATOM     20  C   UNL d   1      -1.995   2.304   2.546  0.00  0.00     0.311 C 
BRANCH  20  21
ATOM     21  C   UNL d   1      -2.023   3.683   3.162  0.00  0.00    -0.030 A 
ATOM     22  C   UNL d   1      -2.275   4.803   2.354  0.00  0.00     0.009 A 
ATOM     23  C   UNL d   1      -2.378   6.074   2.916  0.00  0.00     0.001 A 
ATOM     24  C   UNL d   1      -2.232   6.239   4.291  0.00  0.00     0.000 A 
ATOM     25  C   UNL d   1      -1.975   5.135   5.103  0.00  0.00     0.001 A 
ATOM     26  C   UNL d   1      -1.868   3.861   4.542  0.00  0.00     0.009 A 
ENDBRANCH  20  21
ENDBRANCH   2  20
TORSDOF 5
