REMARK  6 active torsions:
REMARK  status: ('A' for Active; 'I' for Inactive)
REMARK    1  A    between atoms: C_8  and  C_1 
REMARK    2  A    between atoms: N_6  and  C_2 
REMARK    3  A    between atoms: C_9  and  C_4 
REMARK       I    between atoms: C_7  and  N_6 
REMARK    4  A    between atoms: C_10  and  C_7 
REMARK    5  A    between atoms: O_21  and  C_8 
REMARK    6  A    between atoms: C_11  and  C_12 
ROOT
ATOM      1  C   UNL d   1       0.143   1.457  -0.420  0.00  0.00     0.107 A 
ATOM      2  C   UNL d   1       1.401   0.912  -0.230  0.00  0.00     0.059 A 
ATOM      3  S   UNL d   1      -1.076   0.224  -0.302  0.00  0.00    -0.081 SA
ATOM      4  C   UNL d   1       0.072  -1.053  -0.172  0.00  0.00     0.018 A 
ATOM      5  C   UNL d   1       1.341  -0.514  -0.147  0.00  0.00     0.051 A 
ENDROOT
BRANCH   2   6
ATOM      6  N   UNL d   1       2.662   1.498  -0.170  0.00  0.00    -0.321 N 
ATOM      7  C   UNL d   1       3.029   2.783   0.168  0.00  0.00     0.256 C 
ATOM      8  O   UNL d   1       2.301   3.679   0.570  0.00  0.00    -0.267 OA
ATOM      9  H   UNL d   1       3.410   0.820  -0.170  0.00  0.00     0.169 HD
BRANCH   7  10
ATOM     10  C   UNL d   1       4.522   2.973   0.138  0.00  0.00     0.032 A 
ATOM     11  C   UNL d   1       5.329   2.256  -0.767  0.00  0.00     0.020 A 
ATOM     12  C   UNL d   1       6.722   2.315  -0.673  0.00  0.00     0.043 A 
ATOM     13  C   UNL d   1       7.307   3.113   0.301  0.00  0.00     0.116 A 
ATOM     14  C   UNL d   1       6.526   3.874   1.166  0.00  0.00     0.043 A 
ATOM     15  F   UNL d   1       8.642   3.143   0.411  0.00  0.00    -0.206 F 
ATOM     16  C   UNL d   1       5.130   3.811   1.082  0.00  0.00     0.020 A 
ENDBRANCH   7  10
ENDBRANCH   2   6
BRANCH   1  17
ATOM     17  C   UNL d   1      -0.249   2.815  -0.786  0.00  0.00     0.302 C 
ATOM     18  O   UNL d   1      -1.276   3.402  -0.480  0.00  0.00    -0.259 OA
BRANCH  17  19
ATOM     19  O   UNL d   1       0.704   3.306  -1.637  0.00  0.00    -0.322 OA
ATOM     20  C   UNL d   1       0.653   4.697  -1.957  0.00  0.00     0.213 C 
ENDBRANCH  17  19
ENDBRANCH   1  17
BRANCH   4  21
ATOM     21  C   UNL d   1      -0.271  -2.497  -0.083  0.00  0.00    -0.019 A 
ATOM     22  C   UNL d   1      -1.404  -3.061  -0.673  0.00  0.00     0.013 A 
ATOM     23  C   UNL d   1      -1.658  -4.449  -0.594  0.00  0.00     0.009 A 
ATOM     24  C   UNL d   1      -0.795  -5.334   0.082  0.00  0.00    -0.051 A 
ATOM     25  C   UNL d   1       0.355  -4.768   0.643  0.00  0.00     0.009 A 
ATOM     26  C   UNL d   1       0.607  -3.386   0.565  0.00  0.00     0.013 A 
BRANCH  24  27
ATOM     27  C   UNL d   1      -1.139  -6.833   0.226  0.00  0.00    -0.024 C 
ATOM     28  C   UNL d   1      -0.102  -7.637   1.048  0.00  0.00     0.019 C 
ATOM     29  C   UNL d   1      -2.495  -6.984   0.951  0.00  0.00     0.019 C 
ATOM     30  C   UNL d   1      -1.241  -7.513  -1.157  0.00  0.00     0.019 C 
ENDBRANCH  24  27
ENDBRANCH   4  21
TORSDOF 6
