REMARK  6 active torsions:
REMARK  status: ('A' for Active; 'I' for Inactive)
REMARK    1  A    between atoms: C_9  and  C_3 
REMARK    2  A    between atoms: C_4  and  C_8 
REMARK    3  A    between atoms: C_17  and  C_5 
REMARK    4  A    between atoms: O_18  and  C_17 
REMARK    5  A    between atoms: C_19  and  O_18 
REMARK    6  A    between atoms: O_25  and  C_20 
ROOT
ATOM      1  N   UNL d   1       1.440  -0.578   0.000  0.00  0.00    -0.351 N 
ATOM      2  HN  UNL d   1       2.335  -1.065  -0.051  1.00  0.00     0.166 HD
ATOM      3  C   UNL d   1       1.286   0.799   0.010  0.00  0.00     0.049 A 
ATOM      4  C   UNL d   1       0.263  -1.170   0.067  0.00  0.00     0.075 A 
ATOM      5  S   UNL d   1      -1.088  -0.108   0.159  0.00  0.00    -0.084 SA
ATOM      6  C   UNL d   1      -0.024   1.232   0.096  0.00  0.00     0.082 A 
ENDROOT
BRANCH   3   7
ATOM      7  C   UNL d   1       2.438   1.691  -0.056  0.00  0.00    -0.009 A 
ATOM      8  C   UNL d   1       2.345   2.971  -0.617  0.00  0.00     0.014 A 
ATOM      9  C   UNL d   1       3.461   3.813  -0.667  0.00  0.00     0.017 A 
ATOM     10  C   UNL d   1       4.697   3.391  -0.159  0.00  0.00     0.048 A 
ATOM     11  C   UNL d   1       4.795   2.106   0.395  0.00  0.00     0.017 A 
ATOM     12  C   UNL d   1       3.678   1.264   0.441  0.00  0.00     0.014 A 
BRANCH  10  13
ATOM     13  C   UNL d   1       5.905   4.294  -0.205  0.00  0.00     0.417 C 
ATOM     14  F   UNL d   1       5.655   5.508  -0.771  0.00  0.00    -0.166 F 
ATOM     15  F   UNL d   1       6.407   4.558   1.033  0.00  0.00    -0.166 F 
ATOM     16  F   UNL d   1       6.933   3.756  -0.918  0.00  0.00    -0.166 F 
ENDBRANCH  10  13
ENDBRANCH   3   7
BRANCH   4  17
ATOM     17  C   UNL d   1       0.046  -2.651   0.009  0.00  0.00     0.240 C 
BRANCH  17  18
ATOM     18  O   UNL d   1       0.045  -3.142   1.350  0.00  0.00    -0.345 OA
BRANCH  18  19
ATOM     19  C   UNL d   1      -0.139  -4.490   1.500  0.00  0.00     0.069 A 
ATOM     20  C   UNL d   1      -0.383  -5.400   0.471  0.00  0.00     0.039 A 
ATOM     21  C   UNL d   1      -0.570  -6.759   0.754  0.00  0.00     0.039 A 
ATOM     22  C   UNL d   1      -0.515  -7.220   2.068  0.00  0.00     0.068 A 
ATOM     23  C   UNL d   1      -0.263  -6.311   3.096  0.00  0.00     0.039 A 
ATOM     24  C   UNL d   1      -0.077  -4.954   2.813  0.00  0.00     0.039 A 
BRANCH  22  25
ATOM     25  O   UNL d   1      -0.694  -8.515   2.471  0.00  0.00    -0.356 OA
ATOM     26  C   UNL d   1      -0.966  -9.469   1.451  0.00  0.00     0.210 C 
ENDBRANCH  22  25
ENDBRANCH  18  19
ENDBRANCH  17  18
ENDBRANCH   4  17
TORSDOF 6
