REMARK  5 active torsions:
REMARK  status: ('A' for Active; 'I' for Inactive)
REMARK    1  A    between atoms: N_3  and  C_1 
REMARK    2  A    between atoms: C_2  and  N_3 
REMARK    3  A    between atoms: N_8  and  C_2 
REMARK    4  A    between atoms: C_6  and  C_16 
REMARK    5  A    between atoms: C_16  and  N_8 
ROOT
ATOM      1  N   UNL d   1       2.674  -0.460  -0.293  0.00  0.00    -0.332 N 
ATOM      2  H   UNL d   1       2.813  -1.290  -0.864  0.00  0.00     0.168 HD
ENDROOT
BRANCH   1   3
ATOM      3  C   UNL d   1       3.825  -0.159   0.389  0.00  0.00     0.172 C 
ATOM      4  S   UNL d   1       3.984   0.269   1.994  0.00  0.00    -0.041 SA
BRANCH   3   5
ATOM      5  N   UNL d   1       4.964  -0.288  -0.374  0.00  0.00    -0.361 N 
ATOM      6  H   UNL d   1       5.821  -0.078   0.123  0.00  0.00     0.162 HD
BRANCH   5   7
ATOM      7  C   UNL d   1       5.003  -0.198  -1.826  0.00  0.00     0.187 C 
BRANCH   7   8
ATOM      8  C   UNL d   1       4.892  -1.533  -2.474  0.00  0.00     0.070 A 
ATOM      9  O   UNL d   1       3.804  -2.302  -2.162  0.00  0.00    -0.325 OA
ATOM     10  C   UNL d   1       3.876  -3.426  -2.920  0.00  0.00     0.142 A 
ATOM     11  C   UNL d   1       4.987  -3.390  -3.728  0.00  0.00     0.027 A 
ATOM     12  C   UNL d   1       5.647  -2.172  -3.438  0.00  0.00     0.036 A 
ENDBRANCH   7   8
ENDBRANCH   5   7
ENDBRANCH   3   5
ENDBRANCH   1   3
BRANCH   1  13
ATOM     13  C   UNL d   1       1.328  -0.190   0.034  0.00  0.00     0.046 A 
ATOM     14  C   UNL d   1       0.849   1.132   0.160  0.00  0.00    -0.034 A 
ATOM     15  C   UNL d   1      -0.545   1.347   0.199  0.00  0.00     0.015 A 
ATOM     16  C   UNL d   1       1.694   2.375   0.109  0.00  0.00     0.050 C 
ATOM     17  C   UNL d   1      -1.458   0.293   0.106  0.00  0.00    -0.061 A 
ATOM     18  C   UNL d   1      -0.970  -1.009   0.032  0.00  0.00     0.015 A 
ATOM     19  C   UNL d   1      -2.928   0.577   0.045  0.00  0.00     0.048 C 
ATOM     20  C   UNL d   1       0.410  -1.267   0.001  0.00  0.00    -0.034 A 
ATOM     21  C   UNL d   1       0.824  -2.718  -0.021  0.00  0.00     0.050 C 
ENDBRANCH   1  13
TORSDOF 5
