REMARK  5 active torsions:
REMARK  status: ('A' for Active; 'I' for Inactive)
REMARK    1  A    between atoms: C_9  and  C_1 
REMARK    2  A    between atoms: O_11  and  C_1 
REMARK    3  A    between atoms: C_2  and  C_3 
REMARK    4  A    between atoms: O_8  and  C_9 
REMARK    5  A    between atoms: C_10  and  O_8 
ROOT
ATOM      1  C   UNL d   1      -3.840   1.527   3.940  0.00  0.00     0.009 A 
ATOM      2  C   UNL d   1      -2.698   2.284   3.662  0.00  0.00     0.018 A 
ATOM      3  C   UNL d   1      -4.073   0.347   3.223  0.00  0.00     0.018 A 
ATOM      4  C   UNL d   1      -2.068   0.710   1.921  0.00  0.00     0.069 A 
ATOM      5  C   UNL d   1      -3.184  -0.068   2.229  0.00  0.00     0.038 A 
ATOM      6  C   UNL d   1      -1.812   1.868   2.660  0.00  0.00     0.038 A 
ENDROOT
BRANCH   4   7
ATOM      7  O   UNL d   1      -1.176   0.434   0.916  0.00  0.00    -0.341 OA
BRANCH   7   8
ATOM      8  C   UNL d   1      -1.704  -0.372  -0.146  0.00  0.00     0.285 C 
BRANCH   8   9
ATOM      9  C   UNL d   1      -0.836  -0.222  -1.382  0.00  0.00     0.164 C 
ATOM     10  O   UNL d   1      -1.084  -0.749  -2.459  0.00  0.00    -0.648 OA
BRANCH   9  11
ATOM     11  O   UNL d   1       0.256   0.554  -1.184  0.00  0.00    -0.775 OA
ATOM     12  H   UNL d   1       0.263   0.880  -0.258  0.00  0.00     0.167 HD
ENDBRANCH   9  11
ENDBRANCH   8   9
ENDBRANCH   7   8
ENDBRANCH   4   7
BRANCH   1  13
ATOM     13  C   UNL d   1      -4.855   1.932   4.950  0.00  0.00     0.155 C 
ATOM     14  O   UNL d   1      -6.023   1.579   4.796  0.00  0.00    -0.293 OA
ATOM     15  C   UNL d   1      -4.442   2.722   6.162  0.00  0.00     0.096 C 
ENDBRANCH   1  13
TORSDOF 5
