REMARK  2 active torsions:
REMARK  status: ('A' for Active; 'I' for Inactive)
REMARK       I    between atoms: N_3  and  C_1 
REMARK    1  A    between atoms: C_4  and  C_1 
REMARK    2  A    between atoms: C_2  and  C_4 
ROOT
ATOM      1  C   UNL d   1      -1.298  -0.465  -0.898  0.00  0.00    -0.031 C 
ATOM      2  C   UNL d   1      -3.439  -1.463   0.046  0.00  0.00    -0.013 C 
ATOM      3  C   UNL d   1      -3.395  -0.685  -2.344  0.00  0.00    -0.013 C 
ATOM      4  C   UNL d   1      -3.336   1.001  -0.481  0.00  0.00    -0.013 C 
ATOM      5  C   UNL d   1      -1.801   0.949  -0.495  0.00  0.00     0.014 C 
ATOM      6  C   UNL d   1      -1.905  -1.544   0.039  0.00  0.00     0.014 C 
ATOM      7  C   UNL d   1      -1.851  -0.747  -2.327  0.00  0.00     0.014 C 
ATOM      8  C   UNL d   1      -3.865  -0.058   0.500  0.00  0.00     0.009 C 
ATOM      9  C   UNL d   1      -3.861   0.708  -1.893  0.00  0.00     0.009 C 
ATOM     10  C   UNL d   1      -3.962  -1.731  -1.372  0.00  0.00     0.009 C 
ENDROOT
BRANCH   1  11
ATOM     11  C   UNL d   1       0.254  -0.532  -0.902  0.00  0.00     0.112 C 
BRANCH  11  12
ATOM     12  C   UNL d   1       0.929  -0.217   0.437  0.00  0.00     0.220 C 
ATOM     13  N   UNL d   1       2.317  -0.130   0.453  0.00  0.00    -0.348 N 
ATOM     14  C   UNL d   1       2.949   0.108   1.755  0.00  0.00     0.152 C 
ATOM     15  C   UNL d   1       3.191  -0.771  -0.532  0.00  0.00     0.152 C 
ATOM     16  C   UNL d   1       4.333   0.735   1.611  0.00  0.00     0.187 C 
ATOM     17  O   UNL d   1       5.163  -0.052   0.744  0.00  0.00    -0.388 OA
ATOM     18  C   UNL d   1       4.582  -0.125  -0.565  0.00  0.00     0.187 C 
ATOM     19  O   UNL d   1       0.286  -0.019   1.469  0.00  0.00    -0.273 OA
ENDBRANCH  11  12
ENDBRANCH   1  11
TORSDOF 2
