REMARK  7 active torsions:
REMARK  status: ('A' for Active; 'I' for Inactive)
REMARK    1  A    between atoms: C_6  and  C_1 
REMARK    2  A    between atoms: N_8  and  C_2 
REMARK    3  A    between atoms: O_20  and  C_6 
REMARK       I    between atoms: C_10  and  N_8 
REMARK    4  A    between atoms: C_18  and  C_10 
REMARK    5  A    between atoms: C_11  and  C_19 
REMARK    6  A    between atoms: O_21  and  C_11 
REMARK    7  A    between atoms: C_19  and  C_18 
ROOT
ATOM      1  C   UNL d   1       0.048   1.337   0.007  0.00  0.00     0.107 A 
ATOM      2  C   UNL d   1       1.358   0.915  -0.169  0.00  0.00     0.059 A 
ATOM      3  S   UNL d   1      -1.024   0.001   0.106  0.00  0.00    -0.081 SA
ATOM      4  C   UNL d   1       0.231  -1.147  -0.067  0.00  0.00     0.025 A 
ATOM      5  C   UNL d   1       1.451  -0.515  -0.217  0.00  0.00     0.051 A 
ATOM      6  C   UNL d   1      -0.048  -2.564  -0.034  0.00  0.00     0.022 A 
ATOM      7  S   UNL d   1       1.061  -3.686   0.647  0.00  0.00    -0.101 SA
ATOM      8  C   UNL d   1      -1.185  -3.211  -0.487  0.00  0.00     0.021 A 
ATOM      9  C   UNL d   1       0.014  -5.008   0.359  0.00  0.00     0.050 A 
ATOM     10  C   UNL d   1      -1.150  -4.618  -0.261  0.00  0.00     0.008 A 
ENDROOT
BRANCH   2  11
ATOM     11  N   UNL d   1       2.438   1.794  -0.265  0.00  0.00    -0.326 N 
ATOM     12  C   UNL d   1       3.536   1.556  -1.064  0.00  0.00     0.222 C 
ATOM     13  O   UNL d   1       3.651   0.642  -1.879  0.00  0.00    -0.273 OA
ATOM     14  H   UNL d   1       2.243   2.760  -0.012  0.00  0.00     0.169 HD
BRANCH  12  15
ATOM     15  C   UNL d   1       4.625   2.602  -0.922  0.00  0.00     0.113 C 
BRANCH  15  16
ATOM     16  C   UNL d   1       5.267   2.885  -2.272  0.00  0.00     0.119 C 
BRANCH  16  17
ATOM     17  C   UNL d   1       4.271   3.557  -3.178  0.00  0.00     0.139 C 
ATOM     18  O   UNL d   1       4.120   4.769  -3.230  0.00  0.00    -0.650 OA
BRANCH  17  19
ATOM     19  O   UNL d   1       3.497   2.695  -3.869  0.00  0.00    -0.776 OA
ATOM     20  H   UNL d   1       3.652   1.747  -3.650  0.00  0.00     0.167 HD
ENDBRANCH  17  19
ENDBRANCH  16  17
ENDBRANCH  15  16
ENDBRANCH  12  15
ENDBRANCH   2  11
BRANCH   1  21
ATOM     21  C   UNL d   1      -0.539   2.667   0.040  0.00  0.00     0.302 C 
ATOM     22  O   UNL d   1      -1.735   2.927   0.079  0.00  0.00    -0.259 OA
BRANCH  21  23
ATOM     23  O   UNL d   1       0.443   3.621  -0.015  0.00  0.00    -0.322 OA
ATOM     24  C   UNL d   1      -0.033   4.967  -0.128  0.00  0.00     0.213 C 
ENDBRANCH  21  23
ENDBRANCH   1  21
TORSDOF 7
