REMARK  4 active torsions:
REMARK  status: ('A' for Active; 'I' for Inactive)
REMARK    1  A    between atoms: C_8  and  N_1 
REMARK    2  A    between atoms: S_11  and  C_2 
REMARK    3  A    between atoms: O_14  and  C_3 
REMARK    4  A    between atoms: C_19  and  S_11 
ROOT
ATOM      1  N   UNL d   1       2.950  -0.177   3.519  0.00  0.00    -0.197 NA
ATOM      2  C   UNL d   1       3.236  -0.223   2.397  0.00  0.00     0.069 C 
ATOM      3  C   UNL d   1       3.607  -0.319   0.975  0.00  0.00     0.206 C 
ENDROOT
BRANCH   3   4
ATOM      4  S   UNL d   1       2.590  -1.525   0.058  0.00  0.00    -0.078 SA
BRANCH   4   5
ATOM      5  C   UNL d   1       1.048  -0.724   0.080  0.00  0.00     0.170 A 
ATOM      6  N   UNL d   1      -0.197  -1.334   0.006  0.00  0.00    -0.255 N 
ATOM      7  C   UNL d   1      -1.062  -0.250  -0.136  0.00  0.00     0.245 A 
ATOM      8  N   UNL d   1      -0.394   0.878  -0.155  0.00  0.00    -0.263 N 
ATOM      9  N   UNL d   1       0.932   0.582  -0.001  0.00  0.00    -0.276 N 
ATOM     10  HN  UNL d   1      -0.793   1.811  -0.265  1.00  0.00     0.190 HD
ATOM     11  HN  UNL d   1       1.696   1.256   0.044  1.00  0.00     0.189 HD
BRANCH   6  12
ATOM     12  C   UNL d   1      -0.568  -2.711   0.097  0.00  0.00     0.045 A 
ATOM     13  C   UNL d   1       0.176  -3.609   0.875  0.00  0.00     0.032 A 
ATOM     14  C   UNL d   1      -0.251  -4.933   1.032  0.00  0.00     0.026 A 
ATOM     15  C   UNL d   1      -1.427  -5.363   0.426  0.00  0.00     0.034 A 
ATOM     16  C   UNL d   1      -2.162  -4.491  -0.371  0.00  0.00     0.026 A 
ATOM     17 CL   UNL d   1      -1.983  -6.971   0.677  0.00  0.00    -0.084 Cl
ATOM     18  C   UNL d   1      -1.728  -3.173  -0.549  0.00  0.00     0.032 A 
ENDBRANCH   6  12
BRANCH   7  19
ATOM     19  O   UNL d   1      -2.390  -0.278  -0.144  0.00  0.00    -0.331 OA
ATOM     20  H   UNL d   1      -2.684  -1.048   0.370  0.00  0.00     0.221 HD
ENDBRANCH   7  19
ENDBRANCH   4   5
ENDBRANCH   3   4
TORSDOF 4
