REMARK  3 active torsions:
REMARK  status: ('A' for Active; 'I' for Inactive)
REMARK    1  A    between atoms: C_8  and  N_3 
REMARK    2  A    between atoms: C_10  and  C_8 
REMARK       I    between atoms: N_12  and  C_10 
REMARK    3  A    between atoms: N_14  and  N_12 
ROOT
ATOM      1  N   UNL d   1      -0.395  -1.132   0.332  0.00  0.00    -0.115 N 
ATOM      2  HN  UNL d   1      -0.603  -2.054   0.716  1.00  0.00     0.207 HD
ATOM      3  N   UNL d   1       0.791  -0.580   0.026  0.00  0.00    -0.189 N 
ATOM      4  C   UNL d   1      -1.227  -0.142  -0.006  0.00  0.00     0.709 A 
ATOM      5  N   UNL d   1      -0.554   0.962  -0.480  0.00  0.00    -0.113 N 
ATOM      6  HN  UNL d   1      -0.972   1.838  -0.794  1.00  0.00     0.203 HD
ATOM      7  N   UNL d   1       0.740   0.674  -0.452  0.00  0.00     0.012 NA
ATOM      8  N   UNL d   1      -2.569  -0.135   0.128  0.00  0.00    -0.211 N 
ATOM      9  O   UNL d   1      -5.353   0.002   0.675  0.00  0.00    -0.388 OA
ATOM     10  C   UNL d   1      -3.296  -1.341   0.528  0.00  0.00     0.167 C 
ATOM     11  C   UNL d   1      -3.400   0.866  -0.545  0.00  0.00     0.167 C 
ATOM     12  C   UNL d   1      -4.613   1.189   0.341  0.00  0.00     0.188 C 
ATOM     13  C   UNL d   1      -4.512  -0.932   1.375  0.00  0.00     0.188 C 
ENDROOT
BRANCH   3  14
ATOM     14  C   UNL d   1       2.053  -1.282   0.131  0.00  0.00     0.214 C 
ATOM     15  C   UNL d   1       1.953  -2.734  -0.329  0.00  0.00     0.046 C 
BRANCH  14  16
ATOM     16  C   UNL d   1       2.600  -1.163   1.542  0.00  0.00     0.257 C 
ATOM     17  O   UNL d   1       2.850  -2.133   2.261  0.00  0.00    -0.270 OA
ATOM     18  N   UNL d   1       2.895   0.140   1.947  0.00  0.00    -0.292 N 
ATOM     19  H   UNL d   1       2.765   0.937   1.321  0.00  0.00     0.183 HD
BRANCH  18  20
ATOM     20  N   UNL d   1       3.579   0.343   3.166  0.00  0.00    -0.247 NA
ATOM     21  H   UNL d   1       3.936  -0.574   3.472  0.00  0.00     0.143 HD
ATOM     22  H   UNL d   1       2.888   0.585   3.882  0.00  0.00     0.143 HD
ENDBRANCH  18  20
ENDBRANCH  14  16
ENDBRANCH   3  14
TORSDOF 3
