REMARK  6 active torsions:
REMARK  status: ('A' for Active; 'I' for Inactive)
REMARK    1  A    between atoms: C_9  and  C_1 
REMARK    2  A    between atoms: O_18  and  C_8 
REMARK    3  A    between atoms: O_14  and  C_10 
REMARK    4  A    between atoms: O_19  and  C_11 
REMARK    5  A    between atoms: O_20  and  C_13 
REMARK    6  A    between atoms: C_21  and  O_14 
ROOT
ATOM      1  C   UNL d   1       1.783  -1.496   0.298  0.00  0.00     0.166 C 
ATOM      2  N   UNL d   1       0.554  -1.866   0.432  0.00  0.00    -0.333 N 
ATOM      3  HN  UNL d   1       0.320  -2.855   0.528  1.00  0.00     0.168 HD
ATOM      4  C   UNL d   1      -0.447  -0.902   0.444  0.00  0.00     0.087 A 
ATOM      5  C   UNL d   1      -0.090   0.441   0.382  0.00  0.00     0.072 A 
ATOM      6  O   UNL d   1       2.234  -0.230   0.282  0.00  0.00    -0.256 OA
ATOM      7  C   UNL d   1       1.342   0.785   0.396  0.00  0.00     0.302 C 
ATOM      8  C   UNL d   1      -1.813  -1.256   0.408  0.00  0.00     0.132 A 
ATOM      9  C   UNL d   1      -2.787  -0.241   0.232  0.00  0.00     0.137 A 
ATOM     10  C   UNL d   1      -1.049   1.451   0.271  0.00  0.00     0.059 A 
ATOM     11  C   UNL d   1      -2.400   1.118   0.183  0.00  0.00     0.105 A 
ATOM     12  O   UNL d   1       1.698   1.959   0.456  0.00  0.00    -0.259 OA
ENDROOT
BRANCH   1  13
ATOM     13  C   UNL d   1       2.830  -2.472  -0.034  0.00  0.00     0.067 A 
ATOM     14  C   UNL d   1       4.174  -2.357   0.272  0.00  0.00     0.162 A 
ATOM     15  N   UNL d   1       5.106  -3.226  -0.202  0.00  0.00    -0.346 N 
ATOM     16  C   UNL d   1       4.684  -4.282  -0.928  0.00  0.00     0.090 A 
ATOM     17  HN  UNL d   1       6.099  -3.084  -0.014  1.00  0.00     0.167 HD
ATOM     18  C   UNL d   1       3.357  -4.521  -1.224  0.00  0.00     0.018 A 
ATOM     19  C   UNL d   1       2.426  -3.594  -0.781  0.00  0.00     0.021 A 
BRANCH  14  20
ATOM     20  O   UNL d   1       4.603  -1.338   1.121  0.00  0.00    -0.293 OA
BRANCH  20  21
ATOM     21  C   UNL d   1       5.744  -1.588   1.855  0.00  0.00     0.077 A 
ATOM     22  C   UNL d   1       6.687  -0.562   1.952  0.00  0.00     0.037 A 
ATOM     23  C   UNL d   1       7.885  -0.785   2.638  0.00  0.00     0.003 A 
ATOM     24  C   UNL d   1       8.134  -2.024   3.232  0.00  0.00     0.000 A 
ATOM     25  C   UNL d   1       7.172  -3.030   3.177  0.00  0.00     0.003 A 
ATOM     26  C   UNL d   1       5.968  -2.802   2.512  0.00  0.00     0.037 A 
ENDBRANCH  20  21
ENDBRANCH  14  20
ENDBRANCH   1  13
BRANCH   8  27
ATOM     27  O   UNL d   1      -2.311  -2.523   0.567  0.00  0.00    -0.351 OA
ATOM     28  C   UNL d   1      -1.467  -3.660   0.520  0.00  0.00     0.210 C 
ENDBRANCH   8  27
BRANCH   9  29
ATOM     29  O   UNL d   1      -4.146  -0.471   0.135  0.00  0.00    -0.351 OA
ATOM     30  C   UNL d   1      -4.554  -1.658  -0.542  0.00  0.00     0.210 C 
ENDBRANCH   9  29
BRANCH  11  31
ATOM     31  O   UNL d   1      -3.404   2.043   0.032  0.00  0.00    -0.353 OA
ATOM     32  C   UNL d   1      -3.029   3.414  -0.049  0.00  0.00     0.210 C 
ENDBRANCH  11  31
TORSDOF 6
