REMARK  6 active torsions:
REMARK  status: ('A' for Active; 'I' for Inactive)
REMARK    1  A    between atoms: C_3  and  C_1 
REMARK    2  A    between atoms: C_2  and  C_3 
REMARK    3  A    between atoms: O_14  and  C_4 
REMARK    4  A    between atoms: O_15  and  C_5 
REMARK    5  A    between atoms: O_16  and  C_8 
REMARK    6  A    between atoms: O_17  and  C_9 
ROOT
ATOM      1  C   UNL d   1      -3.306   0.544  -0.004  0.00  0.00     0.083 C 
ENDROOT
BRANCH   1   2
ATOM      2  C   UNL d   1      -3.642   0.923  -1.432  0.00  0.00    -0.018 A 
ATOM      3  C   UNL d   1      -3.809   2.225  -1.906  0.00  0.00     0.075 A 
ATOM      4  C   UNL d   1      -4.308   2.413  -3.204  0.00  0.00     0.046 A 
ATOM      5  C   UNL d   1      -4.658   1.355  -4.080  0.00  0.00    -0.026 A 
ATOM      6  C   UNL d   1      -4.453   0.051  -3.623  0.00  0.00     0.074 A 
ATOM      7  C   UNL d   1      -5.266   1.807  -5.372  0.00  0.00     0.051 C 
ATOM      8  C   UNL d   1      -3.947  -0.135  -2.319  0.00  0.00     0.047 A 
BRANCH   3   9
ATOM      9  O   UNL d   1      -3.680   3.399  -1.216  0.00  0.00    -0.355 OA
ATOM     10  C   UNL d   1      -2.599   3.546  -0.311  0.00  0.00     0.210 C 
ENDBRANCH   3   9
BRANCH   6  11
ATOM     11  O   UNL d   1      -4.715  -1.156  -4.200  0.00  0.00    -0.355 OA
ATOM     12  C   UNL d   1      -5.079  -1.264  -5.561  0.00  0.00     0.210 C 
ENDBRANCH   6  11
ENDBRANCH   1   2
BRANCH   1  13
ATOM     13  C   UNL d   1      -1.947  -0.048   0.331  0.00  0.00    -0.018 A 
ATOM     14  C   UNL d   1      -1.633  -0.571   1.595  0.00  0.00     0.075 A 
ATOM     15  C   UNL d   1      -0.391  -1.208   1.788  0.00  0.00     0.046 A 
ATOM     16  C   UNL d   1       0.580  -1.333   0.781  0.00  0.00    -0.026 A 
ATOM     17  C   UNL d   1       0.299  -0.760  -0.456  0.00  0.00     0.074 A 
ATOM     18  C   UNL d   1       1.831  -2.072   1.152  0.00  0.00     0.051 C 
ATOM     19  C   UNL d   1      -0.937  -0.120  -0.663  0.00  0.00     0.047 A 
BRANCH  14  20
ATOM     20  O   UNL d   1      -2.344  -0.597   2.760  0.00  0.00    -0.355 OA
ATOM     21  C   UNL d   1      -3.609   0.013   2.909  0.00  0.00     0.210 C 
ENDBRANCH  14  20
BRANCH  17  22
ATOM     22  O   UNL d   1       1.181  -0.656  -1.499  0.00  0.00    -0.355 OA
ATOM     23  C   UNL d   1       1.731  -1.881  -1.975  0.00  0.00     0.210 C 
ENDBRANCH  17  22
ENDBRANCH   1  13
TORSDOF 6
