REMARK  4 active torsions:
REMARK  status: ('A' for Active; 'I' for Inactive)
REMARK    1  A    between atoms: N_7  and  C_1 
REMARK       I    between atoms: C_10  and  N_2 
REMARK    2  A    between atoms: C_12  and  C_6 
REMARK    3  A    between atoms: N_8  and  N_7 
REMARK       I    between atoms: C_11  and  N_7 
REMARK    4  A    between atoms: C_18  and  C_13 
ROOT
ATOM      1  C   UNL d   1       0.189  -1.072   0.220  0.00  0.00     0.186 A 
ATOM      2  N   UNL d   1       1.354   0.763  -0.218  0.00  0.00    -0.240 N 
ATOM      3  S   UNL d   1      -1.030   0.124   0.611  0.00  0.00    -0.058 SA
ATOM      4  N   UNL d   1       1.349  -0.615  -0.142  0.00  0.00    -0.272 N 
ATOM      5  HN  UNL d   1       2.158  -1.202  -0.346  1.00  0.00     0.189 HD
ATOM      6  C   UNL d   1       0.131   1.450   0.179  0.00  0.00     0.213 A 
ATOM      7  C   UNL d   1       2.530   1.461  -0.436  0.00  0.00     0.235 C 
ATOM      8  O   UNL d   1       2.608   2.687  -0.342  0.00  0.00    -0.272 OA
ATOM      9  C   UNL d   1       3.762   0.645  -0.748  0.00  0.00     0.119 C 
ENDROOT
BRANCH   1  10
ATOM     10  N   UNL d   1      -0.085  -2.437   0.384  0.00  0.00    -0.200 N 
ATOM     11  C   UNL d   1      -1.337  -2.990   0.065  0.00  0.00     0.240 C 
ATOM     12  O   UNL d   1      -2.300  -2.355  -0.372  0.00  0.00    -0.272 OA
ATOM     13  C   UNL d   1      -1.504  -4.486   0.239  0.00  0.00     0.119 C 
BRANCH  10  14
ATOM     14  N   UNL d   1       0.956  -3.357   0.587  0.00  0.00    -0.300 N 
ATOM     15  C   UNL d   1       1.988  -2.994   1.286  0.00  0.00     0.119 C 
ATOM     16  HN  UNL d   1       0.902  -4.295   0.192  1.00  0.00     0.186 HD
BRANCH  15  17
ATOM     17  C   UNL d   1       3.109  -3.926   1.548  0.00  0.00    -0.019 A 
ATOM     18  C   UNL d   1       3.053  -5.257   1.119  0.00  0.00     0.014 A 
ATOM     19  C   UNL d   1       4.111  -6.126   1.403  0.00  0.00     0.024 A 
ATOM     20  C   UNL d   1       5.219  -5.663   2.110  0.00  0.00     0.034 A 
ATOM     21  C   UNL d   1       5.281  -4.336   2.538  0.00  0.00     0.024 A 
ATOM     22 CL   UNL d   1       6.519  -6.734   2.460  0.00  0.00    -0.084 Cl
ATOM     23  C   UNL d   1       4.223  -3.464   2.259  0.00  0.00     0.014 A 
ENDBRANCH  15  17
ENDBRANCH  10  14
ENDBRANCH   1  10
BRANCH   6  24
ATOM     24  C   UNL d   1      -0.424   2.389  -0.876  0.00  0.00    -0.023 A 
ATOM     25  C   UNL d   1      -0.612   3.748  -0.559  0.00  0.00     0.012 A 
ATOM     26  C   UNL d   1      -1.047   4.658  -1.525  0.00  0.00     0.024 A 
ATOM     27  C   UNL d   1      -1.309   4.216  -2.819  0.00  0.00     0.034 A 
ATOM     28  C   UNL d   1      -1.157   2.873  -3.149  0.00  0.00     0.024 A 
ATOM     29 CL   UNL d   1      -1.804   5.345  -4.021  0.00  0.00    -0.084 Cl
ATOM     30  C   UNL d   1      -0.717   1.961  -2.183  0.00  0.00     0.012 A 
ENDBRANCH   6  24
TORSDOF 4
