REMARK  7 active torsions:
REMARK  status: ('A' for Active; 'I' for Inactive)
REMARK    1  A    between atoms: C_2  and  C_1 
REMARK    2  A    between atoms: N_3  and  C_1 
REMARK    3  A    between atoms: N_4  and  C_1 
REMARK    4  A    between atoms: C_5  and  C_1 
REMARK    5  A    between atoms: C_6  and  N_3 
REMARK       I    between atoms: C_7  and  N_4 
REMARK    6  A    between atoms: O_16  and  C_5 
REMARK    7  A    between atoms: C_21  and  O_16 
ROOT
ATOM      1  C   UNL d   1       0.995   0.191  -0.114  0.00  0.00     0.280 C 
ENDROOT
BRANCH   1   2
ATOM      2  C   UNL d   1       0.340   0.225  -1.536  0.00  0.00     0.436 C 
ATOM      3  F   UNL d   1      -0.651  -0.684  -1.687  0.00  0.00    -0.166 F 
ATOM      4  F   UNL d   1      -0.207   1.447  -1.792  0.00  0.00    -0.166 F 
ATOM      5  F   UNL d   1       1.226   0.009  -2.540  0.00  0.00    -0.166 F 
ENDBRANCH   1   2
BRANCH   1   6
ATOM      6  N   UNL d   1       0.869  -1.073   0.657  0.00  0.00    -0.250 NA
ATOM      7  H   UNL d   1      -0.101  -1.141   0.977  0.00  0.00     0.131 HD
BRANCH   6   8
ATOM      8  C   UNL d   1       1.301  -2.340   0.259  0.00  0.00     0.017 A 
ATOM      9  C   UNL d   1       1.129  -3.434   1.140  0.00  0.00    -0.040 A 
ATOM     10  C   UNL d   1       1.655  -4.704   0.814  0.00  0.00     0.015 A 
ATOM     11  C   UNL d   1       0.480  -3.294   2.495  0.00  0.00     0.050 C 
ATOM     12  C   UNL d   1       2.333  -4.925  -0.386  0.00  0.00    -0.061 A 
ATOM     13  C   UNL d   1       2.482  -3.861  -1.265  0.00  0.00     0.008 A 
ATOM     14  C   UNL d   1       2.925  -6.267  -0.694  0.00  0.00     0.048 C 
ATOM     15  C   UNL d   1       1.976  -2.595  -0.942  0.00  0.00     0.024 A 
ENDBRANCH   6   8
ENDBRANCH   1   6
BRANCH   1  16
ATOM     16  N   UNL d   1       0.408   1.204   0.807  0.00  0.00    -0.323 N 
ATOM     17  C   UNL d   1      -0.929   1.255   1.084  0.00  0.00     0.215 C 
ATOM     18  O   UNL d   1      -1.702   0.362   0.756  0.00  0.00    -0.274 OA
ATOM     19  C   UNL d   1      -1.376   2.489   1.820  0.00  0.00     0.117 C 
ATOM     20  H   UNL d   1       0.948   2.056   0.907  0.00  0.00     0.165 HD
ENDBRANCH   1  16
BRANCH   1  21
ATOM     21  C   UNL d   1       2.476   0.630  -0.328  0.00  0.00     0.312 C 
ATOM     22  O   UNL d   1       3.429  -0.089  -0.592  0.00  0.00    -0.260 OA
BRANCH  21  23
ATOM     23  O   UNL d   1       2.587   2.004  -0.273  0.00  0.00    -0.319 OA
BRANCH  23  24
ATOM     24  C   UNL d   1       3.912   2.517  -0.499  0.00  0.00     0.174 C 
ATOM     25  C   UNL d   1       4.262   2.514  -1.978  0.00  0.00     0.034 C 
ENDBRANCH  23  24
ENDBRANCH  21  23
ENDBRANCH   1  21
TORSDOF 7
