REMARK  10 active torsions:
REMARK  status: ('A' for Active; 'I' for Inactive)
REMARK    1  A    between atoms: C_6  and  S_1 
REMARK    2  A    between atoms: N_7  and  S_1 
REMARK    3  A    between atoms: C_2  and  C_4 
REMARK    4  A    between atoms: C_3  and  C_11 
REMARK       I    between atoms: N_5  and  C_3 
REMARK    5  A    between atoms: C_8  and  N_5 
REMARK    6  A    between atoms: C_25  and  N_7 
REMARK    7  A    between atoms: C_26  and  N_7 
REMARK    8  A    between atoms: O_24  and  C_16 
REMARK    9  A    between atoms: C_28  and  C_25 
REMARK   10  A    between atoms: C_29  and  C_26 
ROOT
ATOM      1  C   UNL d   1       0.562  -1.394  -1.015  0.00  0.00     0.074 A 
ATOM      2  C   UNL d   1      -0.339  -3.573  -2.545  0.00  0.00     0.032 A 
ATOM      3  C   UNL d   1       1.347  -2.544  -1.109  0.00  0.00     0.026 A 
ATOM      4  C   UNL d   1      -0.690  -1.349  -1.637  0.00  0.00     0.026 A 
ATOM      5  C   UNL d   1      -1.133  -2.427  -2.417  0.00  0.00     0.018 A 
ATOM      6  C   UNL d   1       0.896  -3.624  -1.871  0.00  0.00     0.018 A 
ENDROOT
BRANCH   2   7
ATOM      7  C   UNL d   1      -0.716  -4.770  -3.362  0.00  0.00     0.256 C 
ATOM      8  N   UNL d   1      -1.744  -4.615  -4.290  0.00  0.00    -0.323 N 
ATOM      9  H   UNL d   1      -2.140  -3.696  -4.410  0.00  0.00     0.169 HD
ATOM     10  O   UNL d   1      -0.061  -5.790  -3.191  0.00  0.00    -0.267 OA
BRANCH   8  11
ATOM     11  C   UNL d   1      -2.109  -5.569  -5.275  0.00  0.00     0.038 A 
ATOM     12  C   UNL d   1      -1.648  -6.888  -5.264  0.00  0.00     0.046 A 
ATOM     13  C   UNL d   1      -1.886  -7.746  -6.343  0.00  0.00     0.052 A 
ATOM     14  C   UNL d   1      -2.644  -7.281  -7.421  0.00  0.00     0.053 A 
ATOM     15  C   UNL d   1      -3.163  -5.985  -7.427  0.00  0.00     0.071 A 
ATOM     16  C   UNL d   1      -2.905  -5.137  -6.345  0.00  0.00     0.066 A 
BRANCH  13  17
ATOM     17  C   UNL d   1      -1.283  -9.129  -6.374  0.00  0.00     0.417 C 
ATOM     18  F   UNL d   1      -0.572  -9.449  -5.258  0.00  0.00    -0.166 F 
ATOM     19  F   UNL d   1      -2.223 -10.108  -6.505  0.00  0.00    -0.166 F 
ATOM     20  F   UNL d   1      -0.426  -9.294  -7.419  0.00  0.00    -0.166 F 
ENDBRANCH  13  17
BRANCH  15  21
ATOM     21  O   UNL d   1      -3.862  -5.667  -8.558  0.00  0.00    -0.356 OA
ATOM     22  C   UNL d   1      -4.349  -4.338  -8.680  0.00  0.00     0.210 C 
ENDBRANCH  15  21
ENDBRANCH   8  11
ENDBRANCH   2   7
BRANCH   1  23
ATOM     23  S   UNL d   1       1.105  -0.045   0.014  0.00  0.00     0.243 S 
ATOM     24  O   UNL d   1       2.270  -0.509   0.739  0.00  0.00    -0.206 OA
ATOM     25  O   UNL d   1      -0.053   0.452   0.719  0.00  0.00    -0.206 OA
BRANCH  23  26
ATOM     26  N   UNL d   1       1.590   1.152  -1.161  0.00  0.00    -0.206 NA
BRANCH  26  27
ATOM     27  C   UNL d   1       0.450   2.079  -1.495  0.00  0.00     0.107 C 
BRANCH  27  28
ATOM     28  C   UNL d   1       0.686   3.032  -2.666  0.00  0.00     0.011 C 
ATOM     29  C   UNL d   1       1.009   2.334  -3.974  0.00  0.00     0.006 C 
ENDBRANCH  27  28
ENDBRANCH  26  27
BRANCH  26  30
ATOM     30  C   UNL d   1       2.865   1.871  -0.836  0.00  0.00     0.107 C 
BRANCH  30  31
ATOM     31  C   UNL d   1       4.130   1.027  -1.022  0.00  0.00     0.011 C 
ATOM     32  C   UNL d   1       4.245   0.354  -2.380  0.00  0.00     0.006 C 
ENDBRANCH  30  31
ENDBRANCH  26  30
ENDBRANCH  23  26
ENDBRANCH   1  23
TORSDOF 10
