REMARK  3 active torsions:
REMARK  status: ('A' for Active; 'I' for Inactive)
REMARK    1  A    between atoms: C_8  and  C_7 
REMARK    2  A    between atoms: O_16  and  C_11 
REMARK    3  A    between atoms: O_15  and  C_12 
ROOT
ATOM      1  C   UNL d   1       1.601  -3.129   0.039  0.00  0.00    -0.029 A 
ATOM      2  C   UNL d   1       1.457  -5.910  -0.142  0.00  0.00     0.073 A 
ATOM      3  C   UNL d   1       2.119  -5.324   0.938  0.00  0.00     0.071 A 
ATOM      4  C   UNL d   1       0.876  -5.117  -1.139  0.00  0.00     0.071 A 
ATOM      5  C   UNL d   1       0.947  -3.728  -1.044  0.00  0.00     0.048 A 
ATOM      6  C   UNL d   1       2.182  -3.930   1.027  0.00  0.00     0.048 A 
ENDROOT
BRANCH   1   7
ATOM      7  C   UNL d   1       1.688  -1.671   0.112  0.00  0.00     0.047 C 
ATOM      8  C   UNL d   1       0.764  -0.903   0.702  0.00  0.00     0.111 A 
ATOM      9  N   UNL d   1      -0.374  -1.300   1.351  0.00  0.00    -0.335 N 
ATOM     10  C   UNL d   1       0.875   0.579   0.713  0.00  0.00     0.316 A 
ATOM     11  C   UNL d   1      -0.885  -0.175   1.729  0.00  0.00     0.124 A 
ATOM     12  HN  UNL d   1      -0.729  -2.245   1.498  1.00  0.00     0.168 HD
ATOM     13  C   UNL d   1      -2.138   0.003   2.501  0.00  0.00     0.098 C 
ATOM     14  O   UNL d   1      -0.233   0.962   1.403  0.00  0.00    -0.261 OA
ATOM     15  O   UNL d   1       1.725   1.294   0.222  0.00  0.00    -0.257 OA
ENDBRANCH   1   7
BRANCH   4  16
ATOM     16  O   UNL d   1       0.280  -5.823  -2.150  0.00  0.00    -0.356 OA
ATOM     17  C   UNL d   1      -0.296  -5.067  -3.208  0.00  0.00     0.210 C 
ENDBRANCH   4  16
BRANCH   3  18
ATOM     18  O   UNL d   1       2.748  -5.994   1.953  0.00  0.00    -0.356 OA
ATOM     19  C   UNL d   1       2.745  -7.415   1.883  0.00  0.00     0.210 C 
ENDBRANCH   3  18
TORSDOF 3
