REMARK  5 active torsions:
REMARK  status: ('A' for Active; 'I' for Inactive)
REMARK    1  A    between atoms: N_2  and  S_1 
REMARK    2  A    between atoms: C_9  and  S_1 
REMARK    3  A    between atoms: C_4  and  N_2 
REMARK    4  A    between atoms: S_3  and  N_11 
REMARK    5  A    between atoms: N_11  and  C_18 
ROOT
ATOM      1  C   UNL d   1       0.598   1.194   1.163  0.00  0.00     0.075 A 
ATOM      2  C   UNL d   1       0.253   0.733   2.438  0.00  0.00     0.026 A 
ATOM      3  C   UNL d   1       0.672   2.565   0.900  0.00  0.00     0.026 A 
ATOM      4  C   UNL d   1       0.057   3.020   3.195  0.00  0.00     0.022 A 
ATOM      5  C   UNL d   1      -0.018   1.650   3.456  0.00  0.00     0.026 A 
ATOM      6  C   UNL d   1       0.400   3.478   1.921  0.00  0.00     0.026 A 
ENDROOT
BRANCH   1   7
ATOM      7  S   UNL d   1       1.109   0.029  -0.074  0.00  0.00     0.247 S 
ATOM      8  O   UNL d   1       1.907   0.742  -1.052  0.00  0.00    -0.205 OA
ATOM      9  O   UNL d   1       1.635  -1.149   0.578  0.00  0.00    -0.205 OA
BRANCH   7  10
ATOM     10  N   UNL d   1      -0.329  -0.353  -0.876  0.00  0.00    -0.165 NA
ATOM     11  H   UNL d   1      -0.129  -0.321  -1.873  0.00  0.00     0.147 HD
BRANCH  10  12
ATOM     12  C   UNL d   1      -1.022  -1.468  -0.423  0.00  0.00     0.117 A 
ATOM     13  N   UNL d   1      -1.940  -1.387   0.541  0.00  0.00    -0.249 N 
ATOM     14  O   UNL d   1      -2.412  -2.678   0.713  0.00  0.00    -0.241 OA
ATOM     15  HN  UNL d   1      -2.234  -0.551   1.045  1.00  0.00     0.196 HD
ATOM     16  C   UNL d   1      -1.765  -3.513  -0.145  0.00  0.00     0.075 A 
ATOM     17  C   UNL d   1      -0.891  -2.783  -0.912  0.00  0.00     0.079 A 
ATOM     18  C   UNL d   1      -2.113  -4.941  -0.055  0.00  0.00     0.079 C 
ENDBRANCH  10  12
ENDBRANCH   7  10
ENDBRANCH   1   7
BRANCH   4  19
ATOM     19  N   UNL d   1      -0.104   3.959   4.258  0.00  0.00    -0.186 NA
ATOM     20  H   UNL d   1      -0.817   3.709   4.947  0.00  0.00     0.145 HD
BRANCH  19  21
ATOM     21  S   UNL d   1       1.306   4.407   5.093  0.00  0.00     0.210 S 
ATOM     22  O   UNL d   1       0.872   4.710   6.441  0.00  0.00    -0.211 OA
ATOM     23  O   UNL d   1       2.361   3.453   4.841  0.00  0.00    -0.211 OA
ATOM     24  C   UNL d   1       1.712   5.948   4.301  0.00  0.00     0.180 C 
ENDBRANCH  19  21
ENDBRANCH   4  19
TORSDOF 5
