REMARK  6 active torsions:
REMARK  status: ('A' for Active; 'I' for Inactive)
REMARK    1  A    between atoms: N_3  and  C_1 
REMARK    2  A    between atoms: C_6  and  C_2 
REMARK    3  A    between atoms: S_4  and  N_7 
REMARK       I    between atoms: N_11  and  C_6 
REMARK    4  A    between atoms: N_7  and  N_11 
REMARK    5  A    between atoms: O_20  and  C_14 
REMARK    6  A    between atoms: O_21  and  C_15 
ROOT
ATOM      1  C   UNL d   1       1.311  -0.307   0.073  0.00  0.00     0.058 C 
ATOM      2  C   UNL d   1       0.418  -1.395   0.096  0.00  0.00     0.063 C 
ATOM      3  C   UNL d   1       0.767   0.986  -0.042  0.00  0.00     0.070 C 
ATOM      4  C   UNL d   1      -0.969  -1.159  -0.060  0.00  0.00     0.059 C 
ATOM      5  C   UNL d   1      -0.616   1.216  -0.059  0.00  0.00     0.103 C 
ATOM      6  C   UNL d   1      -1.499   0.133  -0.126  0.00  0.00     0.102 C 
ENDROOT
BRANCH   2   7
ATOM      7  C   UNL d   1       0.758  -2.838   0.329  0.00  0.00     0.273 C 
ATOM      8  N   UNL d   1       1.722  -3.107   1.276  0.00  0.00    -0.256 N 
ATOM      9  H   UNL d   1       2.228  -2.404   1.818  0.00  0.00     0.191 HD
ATOM     10  O   UNL d   1       0.170  -3.715  -0.294  0.00  0.00    -0.266 OA
BRANCH   8  11
ATOM     11  N   UNL d   1       2.163  -4.490   1.403  0.00  0.00    -0.225 N 
ATOM     12  H   UNL d   1       1.545  -5.187   0.970  0.00  0.00     0.200 HD
BRANCH  11  13
ATOM     13  S   UNL d   1       3.089  -4.907   2.742  0.00  0.00     0.240 S 
ATOM     14  O   UNL d   1       4.260  -4.062   2.750  0.00  0.00    -0.205 OA
ATOM     15  O   UNL d   1       2.191  -4.956   3.881  0.00  0.00    -0.205 OA
ATOM     16  C   UNL d   1       3.580  -6.570   2.341  0.00  0.00     0.187 C 
ENDBRANCH  11  13
ENDBRANCH   8  11
ENDBRANCH   2   7
BRANCH   1  17
ATOM     17  N   UNL d   1       2.739  -0.435   0.153  0.00  0.00    -0.319 N 
ATOM     18  C   UNL d   1       3.543  -1.412  -0.451  0.00  0.00     0.013 A 
ATOM     19  C   UNL d   1       4.836  -1.265   0.013  0.00  0.00     0.027 A 
ATOM     20  C   UNL d   1       3.125  -2.421  -1.470  0.00  0.00     0.068 C 
ATOM     21  C   UNL d   1       4.880  -0.119   0.810  0.00  0.00     0.027 A 
ATOM     22  C   UNL d   1       3.601   0.402   0.884  0.00  0.00     0.013 A 
ATOM     23  C   UNL d   1       3.240   1.608   1.691  0.00  0.00     0.068 C 
ENDBRANCH   1  17
BRANCH   6  24
ATOM     24  O   UNL d   1      -2.830   0.411  -0.262  0.00  0.00    -0.353 OA
ATOM     25  C   UNL d   1      -3.727  -0.673  -0.464  0.00  0.00     0.210 C 
ENDBRANCH   6  24
BRANCH   5  26
ATOM     26  O   UNL d   1      -0.961   2.546  -0.058  0.00  0.00    -0.353 OA
ATOM     27  C   UNL d   1      -2.131   2.881   0.688  0.00  0.00     0.210 C 
ENDBRANCH   5  26
TORSDOF 6
