REMARK  4 active torsions:
REMARK  status: ('A' for Active; 'I' for Inactive)
REMARK    1  A    between atoms: C_3  and  C_9 
REMARK    2  A    between atoms: C_10  and  C_4 
REMARK    3  A    between atoms: N_7  and  C_10 
REMARK    4  A    between atoms: C_9  and  N_8 
ROOT
ATOM      1  N   UNL d   1       5.943  -7.633   4.168  0.00  0.00    -0.192 NA
ATOM      2  C   UNL d   1       4.001  -5.932   3.988  0.00  0.00     0.041 C 
ATOM      3  C   UNL d   1       5.078  -6.865   4.068  0.00  0.00     0.096 C 
ATOM      4  C   UNL d   1       3.314  -5.615   5.102  0.00  0.00     0.032 C 
ENDROOT
BRANCH   2   5
ATOM      5  C   UNL d   1       3.629  -5.357   2.640  0.00  0.00     0.321 C 
BRANCH   5   6
ATOM      6  N   UNL d   1       4.670  -4.544   1.982  0.00  0.00     0.096 N 
ATOM      7  C   UNL d   1       4.160  -3.998   0.700  0.00  0.00     0.303 C 
ATOM      8  C   UNL d   1       3.139  -2.837   0.848  0.00  0.00     0.303 C 
ATOM      9  N   UNL d   1       3.557  -1.738   1.746  0.00  0.00     0.096 N 
ATOM     10  C   UNL d   1       4.093  -2.299   3.003  0.00  0.00     0.303 C 
ATOM     11  C   UNL d   1       5.142  -3.414   2.808  0.00  0.00     0.303 C 
BRANCH   9  12
ATOM     12  C   UNL d   1       4.503  -0.832   1.073  0.00  0.00     0.321 C 
BRANCH  12  13
ATOM     13  C   UNL d   1       4.840   0.400   1.884  0.00  0.00     0.041 C 
ATOM     14  C   UNL d   1       3.784   1.302   2.227  0.00  0.00     0.096 C 
ATOM     15  N   UNL d   1       2.947   2.051   2.519  0.00  0.00    -0.192 NA
ATOM     16  C   UNL d   1       6.095   0.663   2.289  0.00  0.00     0.032 C 
ENDBRANCH  12  13
ENDBRANCH   9  12
ENDBRANCH   5   6
ENDBRANCH   2   5
TORSDOF 4
