REMARK  7 active torsions:
REMARK  status: ('A' for Active; 'I' for Inactive)
REMARK    1  A    between atoms: S_8  and  C_1 
REMARK    2  A    between atoms: C_2  and  C_6 
REMARK    3  A    between atoms: C_3  and  N_7 
REMARK    4  A    between atoms: N_11  and  C_3 
REMARK    5  A    between atoms: N_7  and  C_9 
REMARK    6  A    between atoms: C_10  and  S_8 
REMARK    7  A    between atoms: C_15  and  N_11 
ROOT
ATOM      1  C   UNL d   1      -2.305   3.368   1.979  0.00  0.00     0.051 A 
ATOM      2  C   UNL d   1      -1.387   3.431   0.896  0.00  0.00     0.035 A 
ATOM      3  C   UNL d   1      -3.432   4.192   2.013  0.00  0.00     0.031 A 
ATOM      4  C   UNL d   1      -1.653   4.325  -0.154  0.00  0.00     0.021 A 
ATOM      5  C   UNL d   1      -2.804   5.117  -0.130  0.00  0.00     0.002 A 
ATOM      6  C   UNL d   1      -3.692   5.053   0.946  0.00  0.00     0.002 A 
ENDROOT
BRANCH   1   7
ATOM      7  N   UNL d   1      -2.103   2.352   2.946  0.00  0.00    -0.332 N 
ATOM      8  H   UNL d   1      -1.613   1.547   2.565  0.00  0.00     0.168 HD
BRANCH   7   9
ATOM      9  C   UNL d   1      -2.872   2.066   4.051  0.00  0.00     0.176 C 
ATOM     10  S   UNL d   1      -3.658   0.593   4.097  0.00  0.00    -0.041 SA
BRANCH   9  11
ATOM     11  N   UNL d   1      -2.672   2.990   5.066  0.00  0.00    -0.333 N 
ATOM     12  H   UNL d   1      -2.348   3.873   4.690  0.00  0.00     0.168 HD
BRANCH  11  13
ATOM     13  C   UNL d   1      -2.068   2.683   6.322  0.00  0.00     0.034 A 
ATOM     14  C   UNL d   1      -1.159   3.623   6.834  0.00  0.00     0.036 A 
ATOM     15  C   UNL d   1      -0.391   3.344   7.977  0.00  0.00    -0.060 A 
ATOM     16  C   UNL d   1       0.668   4.302   8.438  0.00  0.00     0.048 C 
ATOM     17  C   UNL d   1      -0.557   2.120   8.627  0.00  0.00     0.007 A 
ATOM     18  C   UNL d   1      -1.499   1.206   8.163  0.00  0.00     0.003 A 
ATOM     19  C   UNL d   1      -2.255   1.491   7.023  0.00  0.00     0.029 A 
ENDBRANCH  11  13
ENDBRANCH   9  11
ENDBRANCH   7   9
ENDBRANCH   1   7
BRANCH   2  20
ATOM     20  S   UNL d   1      -0.043   2.247   0.888  0.00  0.00    -0.052 SA
BRANCH  20  21
ATOM     21  C   UNL d   1       1.330   2.907  -0.008  0.00  0.00     0.149 A 
ATOM     22  N   UNL d   1       1.228   2.951  -1.345  0.00  0.00    -0.333 N 
ATOM     23  C   UNL d   1       2.386   2.999  -2.059  0.00  0.00     0.119 A 
ATOM     24  HN  UNL d   1       0.319   2.949  -1.809  1.00  0.00     0.168 HD
ATOM     25  C   UNL d   1       3.626   3.019  -1.443  0.00  0.00     0.051 A 
ATOM     26  C   UNL d   1       3.622   3.013  -0.071  0.00  0.00     0.092 A 
ATOM     27  N   UNL d   1       2.496   2.957   0.661  0.00  0.00    -0.346 N 
ATOM     28  HN  UNL d   1       2.525   2.951   1.681  1.00  0.00     0.167 HD
BRANCH  23  29
ATOM     29  C   UNL d   1       2.326   2.972  -3.576  0.00  0.00     0.432 C 
ATOM     30  F   UNL d   1       1.068   2.862  -4.085  0.00  0.00    -0.165 F 
ATOM     31  F   UNL d   1       2.859   4.099  -4.134  0.00  0.00    -0.165 F 
ATOM     32  F   UNL d   1       3.036   1.933  -4.105  0.00  0.00    -0.165 F 
ENDBRANCH  23  29
ENDBRANCH  20  21
ENDBRANCH   2  20
TORSDOF 7
