REMARK  9 active torsions:
REMARK  status: ('A' for Active; 'I' for Inactive)
REMARK    1  A    between atoms: N_5  and  C_1 
REMARK    2  A    between atoms: N_6  and  C_1 
REMARK    3  A    between atoms: N_2  and  N_5 
REMARK    4  A    between atoms: C_17  and  N_6 
REMARK    5  A    between atoms: C_8  and  C_7 
REMARK    6  A    between atoms: O_14  and  C_9 
REMARK    7  A    between atoms: C_15  and  C_17 
REMARK    8  A    between atoms: C_18  and  C_15 
REMARK    9  A    between atoms: O_16  and  C_18 
ROOT
ATOM      1  N   UNL d   1       1.028   1.273  -1.843  0.00  0.00    -0.309 N 
ATOM      2  HN  UNL d   1       2.045   1.242  -1.767  1.00  0.00     0.186 HD
ATOM      3  C   UNL d   1       0.433   1.809  -2.861  0.00  0.00     0.118 C 
ENDROOT
BRANCH   1   4
ATOM      4  N   UNL d   1       0.218   0.751  -0.877  0.00  0.00    -0.277 N 
ATOM      5  H   UNL d   1      -0.793   0.790  -0.963  0.00  0.00     0.189 HD
BRANCH   4   6
ATOM      6  C   UNL d   1       0.759  -0.021   0.135  0.00  0.00     0.186 C 
ATOM      7  S   UNL d   1      -0.234  -0.812   1.209  0.00  0.00    -0.040 SA
BRANCH   6   8
ATOM      8  N   UNL d   1       2.130  -0.043   0.102  0.00  0.00    -0.366 N 
ATOM      9  H   UNL d   1       2.472   0.544  -0.655  0.00  0.00     0.161 HD
BRANCH   8  10
ATOM     10  C   UNL d   1       3.025  -1.034   0.674  0.00  0.00     0.124 C 
BRANCH  10  11
ATOM     11  C   UNL d   1       3.305  -2.175  -0.302  0.00  0.00     0.046 C 
BRANCH  11  12
ATOM     12  C   UNL d   1       4.055  -1.703  -1.545  0.00  0.00     0.168 C 
BRANCH  12  13
ATOM     13  O   UNL d   1       4.343  -2.832  -2.371  0.00  0.00    -0.396 OA
ATOM     14  C   UNL d   1       5.021  -2.445  -3.560  0.00  0.00     0.201 C 
ENDBRANCH  12  13
ENDBRANCH  11  12
ENDBRANCH  10  11
ENDBRANCH   8  10
ENDBRANCH   6   8
ENDBRANCH   4   6
ENDBRANCH   1   4
BRANCH   3  15
ATOM     15  C   UNL d   1       1.227   2.382  -3.968  0.00  0.00    -0.019 A 
ATOM     16  C   UNL d   1       2.625   2.339  -3.917  0.00  0.00     0.015 A 
ATOM     17  C   UNL d   1       3.377   2.878  -4.957  0.00  0.00     0.037 A 
ATOM     18  C   UNL d   1       2.729   3.455  -6.044  0.00  0.00     0.065 A 
ATOM     19  C   UNL d   1       1.338   3.501  -6.107  0.00  0.00     0.037 A 
ATOM     20  C   UNL d   1       0.579   2.960  -5.064  0.00  0.00     0.015 A 
BRANCH  18  21
ATOM     21  O   UNL d   1       3.508   3.969  -7.035  0.00  0.00    -0.361 OA
ATOM     22  H   UNL d   1       2.937   4.342  -7.725  0.00  0.00     0.217 HD
ENDBRANCH  18  21
ENDBRANCH   3  15
TORSDOF 9
