REMARK  0 active torsions:
REMARK  status: ('A' for Active; 'I' for Inactive)
ROOT
ATOM      1  C   UNL d   1      -0.385   0.681  -0.002  0.00  0.00     0.070 A 
ATOM      2  N   UNL d   1      -1.356  -1.412  -0.002  0.00  0.00    -0.318 N 
ATOM      3  C   UNL d   1      -0.157  -0.697  -0.002  0.00  0.00     0.073 A 
ATOM      4  C   UNL d   1      -2.441  -0.566  -0.001  0.00  0.00     0.297 A 
ATOM      5  C   UNL d   1      -1.842   0.866  -0.002  0.00  0.00     0.253 A 
ATOM      6  C   UNL d   1       0.656   1.587  -0.002  0.00  0.00     0.050 A 
ATOM      7  C   UNL d   1       1.129  -1.209  -0.001  0.00  0.00     0.061 A 
ATOM      8  O   UNL d   1      -3.616  -0.856   0.000  0.00  0.00    -0.264 OA
ATOM      9  O   UNL d   1      -2.466   1.901  -0.003  0.00  0.00    -0.281 OA
ATOM     10  C   UNL d   1       1.961   1.080  -0.001  0.00  0.00     0.026 A 
ATOM     11  C   UNL d   1       2.197  -0.309  -0.001  0.00  0.00     0.028 A 
ATOM     12 CL   UNL d   1       0.418   3.285  -0.004  0.00  0.00    -0.083 Cl
ATOM     13 CL   UNL d   1       1.421  -2.901  -0.001  0.00  0.00    -0.082 Cl
ATOM     14  H   UNL d   1      -1.437  -2.421  -0.001  0.00  0.00     0.169 HD
ENDROOT
TORSDOF 0
