REMARK  4 active torsions:
REMARK  status: ('A' for Active; 'I' for Inactive)
REMARK    1  A    between atoms: C_12  and  C_1 
REMARK    2  A    between atoms: O_14  and  C_3 
REMARK    3  A    between atoms: C_16  and  N_5 
REMARK    4  A    between atoms: C_10  and  C_16 
ROOT
ATOM      1  C   UNL d   1       0.008   2.672   0.025  0.00  0.00     0.015 A 
ATOM      2  C   UNL d   1       1.015   0.550  -0.538  0.00  0.00     0.041 A 
ATOM      3  C   UNL d   1       1.059   1.948  -0.544  0.00  0.00     0.093 A 
ATOM      4  C   UNL d   1      -0.064  -0.123   0.043  0.00  0.00     0.039 A 
ATOM      5  C   UNL d   1      -1.078   2.003   0.605  0.00  0.00     0.033 A 
ATOM      6  C   UNL d   1      -1.104   0.610   0.616  0.00  0.00     0.008 A 
ATOM      7  I   UNL d   1       2.539  -0.587  -1.410  0.00  0.00    -0.042 I 
ATOM      8  I   UNL d   1      -2.710  -0.383   1.486  0.00  0.00    -0.045 I 
ENDROOT
BRANCH   1   9
ATOM      9  C   UNL d   1       0.004   4.150  -0.020  0.00  0.00     0.097 C 
ATOM     10  N   UNL d   1      -1.076   4.816   0.223  0.00  0.00    -0.398 N 
ATOM     11  HN  UNL d   1      -1.951   4.374   0.505  1.00  0.00     0.158 HD
BRANCH  10  12
ATOM     12  C   UNL d   1      -0.931   6.261   0.056  0.00  0.00     0.123 C 
BRANCH  12  13
ATOM     13  C   UNL d   1      -2.317   6.832   0.042  0.00  0.00     0.003 A 
ATOM     14  C   UNL d   1      -3.268   6.527  -1.091  0.00  0.00     0.007 A 
ATOM     15  C   UNL d   1      -2.700   7.909  -0.942  0.00  0.00     0.007 A 
ENDBRANCH  12  13
ENDBRANCH  10  12
ENDBRANCH   1   9
BRANCH   3  16
ATOM     16  O   UNL d   1       2.103   2.627  -1.118  0.00  0.00    -0.358 OA
ATOM     17  H   UNL d   1       2.715   1.969  -1.498  0.00  0.00     0.217 HD
ENDBRANCH   3  16
TORSDOF 4
