REMARK  4 active torsions:
REMARK  status: ('A' for Active; 'I' for Inactive)
REMARK    1  A    between atoms: C_3  and  C_4 
REMARK       I    between atoms: C_4  and  N_9 
REMARK    2  A    between atoms: N_13  and  C_5 
REMARK    3  A    between atoms: N_15  and  C_8 
REMARK    4  A    between atoms: N_9  and  C_10 
ROOT
ATOM      1  N   UNL d   1      -1.348   0.029  -0.024  0.00  0.00    -0.327 N 
ATOM      2  HN  UNL d   1      -2.332   0.064  -0.288  1.00  0.00     0.169 HD
ATOM      3  C   UNL d   1      -0.624   1.179   0.081  0.00  0.00     0.132 A 
ATOM      4  C   UNL d   1      -0.748  -1.166   0.227  0.00  0.00     0.104 A 
ATOM      5  C   UNL d   1       0.751   1.131   0.405  0.00  0.00     0.079 A 
ATOM      6  C   UNL d   1       0.581  -1.233   0.640  0.00  0.00     0.051 A 
ATOM      7  C   UNL d   1       1.343  -0.083   0.712  0.00  0.00     0.037 A 
ENDROOT
BRANCH   5   8
ATOM      8  N   UNL d   1       1.633   2.222   0.281  0.00  0.00    -0.320 N 
ATOM      9  C   UNL d   1       1.766   3.196   1.247  0.00  0.00     0.260 C 
ATOM     10  O   UNL d   1       1.270   3.121   2.362  0.00  0.00    -0.267 OA
ATOM     11  H   UNL d   1       1.833   2.464  -0.671  0.00  0.00     0.169 HD
BRANCH   9  12
ATOM     12  C   UNL d   1       2.592   4.344   0.855  0.00  0.00     0.087 A 
ATOM     13  C   UNL d   1       3.199   4.663  -0.353  0.00  0.00     0.090 A 
ATOM     14  O   UNL d   1       3.880   5.833  -0.220  0.00  0.00    -0.242 OA
ATOM     15  C   UNL d   1       3.277   4.088  -1.713  0.00  0.00     0.080 C 
ATOM     16  N   UNL d   1       3.738   6.318   1.055  0.00  0.00    -0.265 N 
ATOM     17  C   UNL d   1       2.966   5.437   1.697  0.00  0.00     0.047 A 
ATOM     18  HN  UNL d   1       4.139   7.176   1.435  1.00  0.00     0.194 HD
ATOM     19  C   UNL d   1       2.606   5.683   3.115  0.00  0.00     0.071 C 
ENDBRANCH   9  12
ENDBRANCH   5   8
BRANCH   3  20
ATOM     20  N   UNL d   1      -1.266   2.400  -0.043  0.00  0.00    -0.361 N 
ATOM     21  C   UNL d   1      -2.642   2.538   0.446  0.00  0.00     0.150 C 
ATOM     22  C   UNL d   1      -2.797   3.977   0.992  0.00  0.00     0.187 C 
ATOM     23  O   UNL d   1      -2.463   4.968  -0.003  0.00  0.00    -0.388 OA
ATOM     24  C   UNL d   1      -1.115   4.781  -0.468  0.00  0.00     0.187 C 
ATOM     25  C   UNL d   1      -0.931   3.377  -1.075  0.00  0.00     0.150 C 
ENDBRANCH   3  20
BRANCH   4  26
ATOM     26  N   UNL d   1      -1.381  -2.366  -0.045  0.00  0.00    -0.363 N 
ATOM     27  C   UNL d   1      -2.429  -2.449  -1.060  0.00  0.00     0.150 C 
ATOM     28  C   UNL d   1      -2.347  -3.859  -1.689  0.00  0.00     0.187 C 
ATOM     29  O   UNL d   1      -2.466  -4.900  -0.699  0.00  0.00    -0.388 OA
ATOM     30  C   UNL d   1      -1.431  -4.778   0.295  0.00  0.00     0.187 C 
ATOM     31  C   UNL d   1      -1.475  -3.405   0.987  0.00  0.00     0.150 C 
ENDBRANCH   4  26
TORSDOF 4
