REMARK  5 active torsions:
REMARK  status: ('A' for Active; 'I' for Inactive)
REMARK    1  A    between atoms: C_2  and  C_1 
REMARK       I    between atoms: N_6  and  C_2 
REMARK    2  A    between atoms: N_3  and  C_4 
REMARK    3  A    between atoms: C_7  and  C_5 
REMARK    4  A    between atoms: C_12  and  N_6 
REMARK    5  A    between atoms: O_13  and  C_7 
ROOT
ATOM      1  C   UNL d   1       1.443  -0.293  -0.182  0.00  0.00     0.082 A 
ATOM      2  C   UNL d   1       0.579  -1.369   0.089  0.00  0.00     0.119 A 
ATOM      3  C   UNL d   1       0.849   0.936  -0.537  0.00  0.00     0.056 A 
ATOM      4  C   UNL d   1      -0.814  -1.221   0.165  0.00  0.00     0.037 A 
ATOM      5  C   UNL d   1      -0.553   1.086  -0.472  0.00  0.00     0.019 A 
ATOM      6  C   UNL d   1      -1.374   0.028  -0.073  0.00  0.00     0.004 A 
ENDROOT
BRANCH   1   7
ATOM      7  C   UNL d   1       2.857  -0.435   0.286  0.00  0.00     0.259 C 
ATOM      8  N   UNL d   1       3.863   0.255  -0.356  0.00  0.00    -0.323 N 
ATOM      9  H   UNL d   1       3.624   0.786  -1.194  0.00  0.00     0.169 HD
ATOM     10  O   UNL d   1       2.997  -1.112   1.300  0.00  0.00    -0.267 OA
BRANCH   8  11
ATOM     11  C   UNL d   1       5.194   0.416   0.096  0.00  0.00     0.035 A 
ATOM     12  C   UNL d   1       5.757  -0.297   1.160  0.00  0.00     0.032 A 
ATOM     13  C   UNL d   1       7.066  -0.036   1.578  0.00  0.00     0.044 A 
ATOM     14  C   UNL d   1       7.812   0.941   0.933  0.00  0.00     0.116 A 
ATOM     15  C   UNL d   1       7.278   1.652  -0.133  0.00  0.00     0.044 A 
ATOM     16  F   UNL d   1       9.058   1.203   1.346  0.00  0.00    -0.206 F 
ATOM     17  C   UNL d   1       5.974   1.383  -0.558  0.00  0.00     0.032 A 
ENDBRANCH   8  11
ENDBRANCH   1   7
BRANCH   2  18
ATOM     18  N   UNL d   1       1.109  -2.725   0.150  0.00  0.00    -0.115 N 
ATOM     19  O   UNL d   1       1.829  -3.078  -0.793  0.00  0.00    -0.532 OA
ATOM     20  O   UNL d   1       0.702  -3.455   1.065  0.00  0.00    -0.532 OA
ENDBRANCH   2  18
BRANCH   3  21
ATOM     21  C   UNL d   1       1.632   2.028  -1.159  0.00  0.00     0.177 C 
ATOM     22  O   UNL d   1       2.534   1.795  -1.944  0.00  0.00    -0.646 OA
BRANCH  21  23
ATOM     23  O   UNL d   1       1.244   3.274  -0.838  0.00  0.00    -0.773 OA
ATOM     24  H   UNL d   1       0.580   3.367  -0.131  0.00  0.00     0.167 HD
ENDBRANCH  21  23
ENDBRANCH   3  21
TORSDOF 5
