REMARK  4 active torsions:
REMARK  status: ('A' for Active; 'I' for Inactive)
REMARK    1  A    between atoms: C_12  and  C_3 
REMARK    2  A    between atoms: N_9  and  C_4 
REMARK    3  A    between atoms: C_16  and  N_9 
REMARK    4  A    between atoms: C_14  and  C_15 
ROOT
ATOM      1  C   UNL d   1      -0.020  -0.507  -0.054  0.00  0.00     0.076 A 
ATOM      2  S   UNL d   1       1.669  -0.809  -0.098  0.00  0.00    -0.084 SA
ATOM      3  C   UNL d   1       2.068   0.863  -0.068  0.00  0.00     0.018 A 
ATOM      4  C   UNL d   1      -1.092  -1.404   0.027  0.00  0.00     0.126 A 
ATOM      5  C   UNL d   1       0.919   1.631  -0.091  0.00  0.00     0.050 A 
ATOM      6  C   UNL d   1      -0.276   0.859  -0.081  0.00  0.00     0.055 A 
ATOM      7  N   UNL d   1      -2.340  -0.876   0.043  0.00  0.00    -0.337 N 
ATOM      8  HN  UNL d   1      -3.156  -1.485   0.100  1.00  0.00     0.168 HD
ATOM      9  N   UNL d   1      -1.529   1.373  -0.074  0.00  0.00    -0.351 N 
ATOM     10  HN  UNL d   1      -1.718   2.375  -0.109  1.00  0.00     0.166 HD
ATOM     11  C   UNL d   1      -2.492   0.453  -0.018  0.00  0.00     0.182 A 
ENDROOT
BRANCH   3  12
ATOM     12  C   UNL d   1       3.472   1.308  -0.049  0.00  0.00    -0.019 A 
ATOM     13  C   UNL d   1       3.845   2.508  -0.665  0.00  0.00     0.013 A 
ATOM     14  C   UNL d   1       5.180   2.937  -0.666  0.00  0.00     0.009 A 
ATOM     15  C   UNL d   1       6.197   2.180  -0.057  0.00  0.00    -0.051 A 
ATOM     16  C   UNL d   1       5.809   0.995   0.583  0.00  0.00     0.009 A 
ATOM     17  C   UNL d   1       4.474   0.569   0.590  0.00  0.00     0.013 A 
BRANCH  15  18
ATOM     18  C   UNL d   1       7.662   2.643  -0.124  0.00  0.00    -0.024 C 
ATOM     19  C   UNL d   1       8.648   1.677   0.569  0.00  0.00     0.019 C 
ATOM     20  C   UNL d   1       8.098   2.755  -1.602  0.00  0.00     0.019 C 
ATOM     21  C   UNL d   1       7.816   4.020   0.554  0.00  0.00     0.019 C 
ENDBRANCH  15  18
ENDBRANCH   3  12
BRANCH   4  22
ATOM     22  N   UNL d   1      -0.912  -2.794   0.075  0.00  0.00    -0.341 N 
ATOM     23  H   UNL d   1       0.042  -3.094  -0.085  0.00  0.00     0.167 HD
BRANCH  22  24
ATOM     24  C   UNL d   1      -1.712  -3.748   0.737  0.00  0.00     0.035 A 
ATOM     25  C   UNL d   1      -2.608  -3.398   1.755  0.00  0.00     0.053 A 
ATOM     26  C   UNL d   1      -3.407  -4.365   2.364  0.00  0.00     0.036 A 
ATOM     27 CL   UNL d   1      -4.470  -3.913   3.641  0.00  0.00    -0.084 Cl
ATOM     28  C   UNL d   1      -3.341  -5.694   1.957  0.00  0.00     0.024 A 
ATOM     29  C   UNL d   1      -2.468  -6.056   0.934  0.00  0.00     0.004 A 
ATOM     30  C   UNL d   1      -1.656  -5.088   0.331  0.00  0.00     0.029 A 
ENDBRANCH  22  24
ENDBRANCH   4  22
TORSDOF 4
