REMARK  3 active torsions:
REMARK  status: ('A' for Active; 'I' for Inactive)
REMARK    1  A    between atoms: C_2  and  C_1 
REMARK       I    between atoms: N_4  and  C_1 
REMARK    2  A    between atoms: C_14  and  N_4 
REMARK    3  A    between atoms: C_6  and  C_14 
ROOT
ATOM      1  C   UNL d   1       0.976  -0.041  -0.045  0.00  0.00     0.258 C 
ATOM      2  N   UNL d   1       0.318   0.842   0.779  0.00  0.00    -0.352 N 
ATOM      3  O   UNL d   1       0.358  -0.869  -0.711  0.00  0.00    -0.267 OA
ATOM      4  H   UNL d   1       0.864   1.450   1.375  0.00  0.00     0.163 HD
ENDROOT
BRANCH   2   5
ATOM      5  C   UNL d   1      -1.118   0.824   0.903  0.00  0.00     0.169 C 
BRANCH   5   6
ATOM      6  C   UNL d   1      -1.527   1.909   1.846  0.00  0.00     0.000 A 
ATOM      7  S   UNL d   1      -1.704   1.577   3.519  0.00  0.00    -0.105 SA
ATOM      8  C   UNL d   1      -2.129   3.197   3.861  0.00  0.00     0.050 A 
ATOM      9  C   UNL d   1      -2.139   3.979   2.728  0.00  0.00     0.008 A 
ATOM     10  C   UNL d   1      -1.794   3.235   1.563  0.00  0.00     0.017 A 
ENDBRANCH   5   6
ENDBRANCH   2   5
BRANCH   1  11
ATOM     11  C   UNL d   1       2.430   0.067  -0.072  0.00  0.00     0.072 A 
ATOM     12  S   UNL d   1       3.277   1.320   0.738  0.00  0.00    -0.097 SA
ATOM     13  C   UNL d   1       4.791   0.752   0.184  0.00  0.00     0.050 A 
ATOM     14  C   UNL d   1       4.667  -0.378  -0.592  0.00  0.00     0.009 A 
ATOM     15  C   UNL d   1       3.306  -0.771  -0.739  0.00  0.00     0.025 A 
ENDBRANCH   1  11
TORSDOF 3
