REMARK  4 active torsions:
REMARK  status: ('A' for Active; 'I' for Inactive)
REMARK    1  A    between atoms: C_5  and  C_1 
REMARK    2  A    between atoms: C_10  and  N_4 
REMARK       I    between atoms: C_7  and  N_11 
REMARK       I    between atoms: N_9  and  C_7 
REMARK    3  A    between atoms: C_13  and  N_9 
REMARK    4  A    between atoms: N_11  and  C_20 
ROOT
ATOM      1  C   UNL d   1       2.128   1.396   0.487  0.00  0.00     0.056 A 
ATOM      2  C   UNL d   1       3.344   0.931  -0.035  0.00  0.00     0.034 A 
ATOM      3  C   UNL d   1       2.066   2.689   1.007  0.00  0.00     0.034 A 
ATOM      4  C   UNL d   1       4.352   3.124   0.292  0.00  0.00     0.036 A 
ATOM      5  C   UNL d   1       4.447   1.794  -0.132  0.00  0.00     0.032 A 
ATOM      6  C   UNL d   1       3.171   3.536   0.914  0.00  0.00     0.032 A 
ENDROOT
BRANCH   4   7
ATOM      7  N   UNL d   1       5.423   4.002  -0.001  0.00  0.00    -0.309 N 
ATOM      8  C   UNL d   1       5.404   5.381   0.154  0.00  0.00     0.325 C 
ATOM      9  N   UNL d   1       6.464   5.995  -0.490  0.00  0.00    -0.309 N 
ATOM     10  O   UNL d   1       4.523   5.994   0.748  0.00  0.00    -0.247 OA
ATOM     11  H   UNL d   1       7.143   5.395  -0.939  0.00  0.00     0.170 HD
ATOM     12  H   UNL d   1       6.211   3.599  -0.484  0.00  0.00     0.170 HD
BRANCH   9  13
ATOM     13  C   UNL d   1       6.639   7.390  -0.673  0.00  0.00     0.037 A 
ATOM     14  C   UNL d   1       5.782   8.362  -0.143  0.00  0.00     0.053 A 
ATOM     15  C   UNL d   1       5.989   9.716  -0.413  0.00  0.00     0.036 A 
ATOM     16 CL   UNL d   1       4.911  10.892   0.234  0.00  0.00    -0.084 Cl
ATOM     17  C   UNL d   1       7.054  10.122  -1.210  0.00  0.00     0.024 A 
ATOM     18  C   UNL d   1       7.924   9.167  -1.730  0.00  0.00     0.004 A 
ATOM     19  C   UNL d   1       7.720   7.810  -1.462  0.00  0.00     0.029 A 
ENDBRANCH   9  13
ENDBRANCH   4   7
BRANCH   1  20
ATOM     20  N   UNL d   1       0.960   0.587   0.425  0.00  0.00    -0.267 N 
ATOM     21  N   UNL d   1       1.005  -0.681  -0.059  0.00  0.00    -0.290 N 
ATOM     22  C   UNL d   1      -0.275  -1.103  -0.077  0.00  0.00     0.134 A 
ATOM     23  HN  UNL d   1       1.833  -1.203  -0.348  1.00  0.00     0.187 HD
ATOM     24  C   UNL d   1      -1.145  -0.101   0.413  0.00  0.00     0.055 A 
ATOM     25  C   UNL d   1      -0.331   0.954   0.740  0.00  0.00     0.119 A 
BRANCH  22  26
ATOM     26  C   UNL d   1      -0.696  -2.460  -0.572  0.00  0.00     0.434 C 
ATOM     27  F   UNL d   1       0.337  -3.237  -0.993  0.00  0.00    -0.165 F 
ATOM     28  F   UNL d   1      -1.345  -3.163   0.397  0.00  0.00    -0.165 F 
ATOM     29  F   UNL d   1      -1.562  -2.362  -1.616  0.00  0.00    -0.165 F 
ENDBRANCH  22  26
ENDBRANCH   1  20
TORSDOF 4
