REMARK  2 active torsions:
REMARK  status: ('A' for Active; 'I' for Inactive)
REMARK    1  A    between atoms: C_11  and  C_3 
REMARK    2  A    between atoms: N_5  and  C_9 
ROOT
ATOM      1  C   UNL d   1       2.438  -0.754  -0.020  0.00  0.00     0.299 A 
ATOM      2  O   UNL d   1       1.205  -1.390  -0.014  0.00  0.00    -0.273 OA
ATOM      3  C   UNL d   1       2.425   0.736  -0.003  0.00  0.00     0.051 A 
ATOM      4  C   UNL d   1       1.267   1.418  -0.003  0.00  0.00     0.032 A 
ATOM      5  C   UNL d   1      -0.008   0.711  -0.007  0.00  0.00     0.002 A 
ATOM      6  C   UNL d   1      -0.013  -0.683  -0.008  0.00  0.00     0.107 A 
ATOM      7  C   UNL d   1      -1.210  -1.405  -0.004  0.00  0.00     0.047 A 
ATOM      8  C   UNL d   1      -2.426  -0.724  -0.003  0.00  0.00     0.041 A 
ATOM      9  C   UNL d   1      -1.229   1.392  -0.006  0.00  0.00     0.033 A 
ATOM     10  O   UNL d   1       3.483  -1.395  -0.039  0.00  0.00    -0.259 OA
ATOM     11  C   UNL d   1      -2.428   0.671  -0.004  0.00  0.00     0.013 A 
ATOM     12 BR   UNL d   1      -1.226  -3.299  -0.001  0.00  0.00    -0.048 Br
ATOM     13 BR   UNL d   1      -4.076   1.599  -0.004  0.00  0.00    -0.051 Br
ENDROOT
BRANCH   3  14
ATOM     14  C   UNL d   1       3.707   1.464   0.008  0.00  0.00    -0.020 A 
ATOM     15  C   UNL d   1       4.320   1.803   1.224  0.00  0.00     0.015 A 
ATOM     16  C   UNL d   1       5.580   2.413   1.236  0.00  0.00     0.037 A 
ATOM     17  C   UNL d   1       6.219   2.706   0.025  0.00  0.00     0.102 A 
ATOM     18  C   UNL d   1       5.608   2.389  -1.196  0.00  0.00     0.037 A 
ATOM     19  C   UNL d   1       4.356   1.766  -1.198  0.00  0.00     0.015 A 
BRANCH  17  20
ATOM     20  N   UNL d   1       7.541   3.347   0.033  0.00  0.00    -0.116 N 
ATOM     21  O   UNL d   1       8.048   3.607   1.133  0.00  0.00    -0.532 OA
ATOM     22  O   UNL d   1       8.066   3.600  -1.060  0.00  0.00    -0.532 OA
ENDBRANCH  17  20
ENDBRANCH   3  14
TORSDOF 2
