REMARK  2 active torsions:
REMARK  status: ('A' for Active; 'I' for Inactive)
REMARK    1  A    between atoms: C_7  and  N_1 
REMARK    2  A    between atoms: S_8  and  C_2 
ROOT
ATOM      1  N   UNL d   1      -0.041  -1.358  -0.086  0.00  0.00    -0.219 N 
ATOM      2  C   UNL d   1       1.038  -0.621   0.376  0.00  0.00     0.174 A 
ATOM      3  N   UNL d   1       0.796   0.658   0.197  0.00  0.00    -0.264 N 
ATOM      4  HN  UNL d   1       1.385   1.440   0.484  1.00  0.00     0.186 HD
ATOM      5  N   UNL d   1      -0.405   0.728  -0.452  0.00  0.00    -0.006 NA
ATOM      6  N   UNL d   1      -0.893  -0.482  -0.682  0.00  0.00     0.001 NA
ENDROOT
BRANCH   1   7
ATOM      7  C   UNL d   1      -0.359  -2.740  -0.021  0.00  0.00     0.056 A 
ATOM      8  C   UNL d   1       0.190  -3.582   0.955  0.00  0.00     0.031 A 
ATOM      9  C   UNL d   1      -0.148  -4.938   0.982  0.00  0.00     0.002 A 
ATOM     10  C   UNL d   1      -1.035  -5.461   0.044  0.00  0.00     0.000 A 
ATOM     11  C   UNL d   1      -1.607  -4.626  -0.912  0.00  0.00     0.002 A 
ATOM     12  C   UNL d   1      -1.282  -3.267  -0.940  0.00  0.00     0.031 A 
ENDBRANCH   1   7
BRANCH   2  13
ATOM     13  S   UNL d   1       2.575  -1.237   0.889  0.00  0.00    -0.104 SA
ATOM     14  H   UNL d   1       2.583  -2.378   0.183  0.00  0.00     0.110 HD
ENDBRANCH   2  13
TORSDOF 2
