REMARK  7 active torsions:
REMARK  status: ('A' for Active; 'I' for Inactive)
REMARK    1  A    between atoms: C_3  and  S_1 
REMARK    2  A    between atoms: O_5  and  S_1 
REMARK    3  A    between atoms: S_2  and  O_6 
REMARK    4  A    between atoms: C_4  and  S_2 
REMARK    5  A    between atoms: C_27  and  O_5 
REMARK    6  A    between atoms: O_6  and  C_28 
REMARK    7  A    between atoms: C_18  and  C_17 
ROOT
ATOM      1  C   UNL d   1       1.458  -5.285  -0.863  0.00  0.00    -0.026 A 
ATOM      2  C   UNL d   1       0.167  -4.758  -1.034  0.00  0.00     0.015 A 
ATOM      3  C   UNL d   1       2.392  -4.457  -0.208  0.00  0.00     0.015 A 
ATOM      4  C   UNL d   1       0.773  -2.676   0.059  0.00  0.00     0.089 A 
ATOM      5  C   UNL d   1      -0.168  -3.470  -0.594  0.00  0.00     0.039 A 
ATOM      6  C   UNL d   1       2.058  -3.173   0.253  0.00  0.00     0.039 A 
ENDROOT
BRANCH   1   7
ATOM      7  C   UNL d   1       1.830  -6.634  -1.370  0.00  0.00    -0.026 A 
ATOM      8  C   UNL d   1       2.792  -7.426  -0.719  0.00  0.00     0.015 A 
ATOM      9  C   UNL d   1       3.190  -8.674  -1.223  0.00  0.00     0.039 A 
ATOM     10  C   UNL d   1       2.634  -9.168  -2.400  0.00  0.00     0.089 A 
ATOM     11  C   UNL d   1       1.638  -8.431  -3.035  0.00  0.00     0.039 A 
ATOM     12  C   UNL d   1       1.252  -7.178  -2.533  0.00  0.00     0.015 A 
BRANCH  10  13
ATOM     13  O   UNL d   1       2.988 -10.362  -2.983  0.00  0.00    -0.229 OA
BRANCH  13  14
ATOM     14  S   UNL d   1       4.524 -10.911  -2.868  0.00  0.00     0.303 S 
ATOM     15  O   UNL d   1       5.424  -9.912  -3.410  0.00  0.00    -0.193 OA
ATOM     16  O   UNL d   1       4.723 -11.471  -1.544  0.00  0.00    -0.193 OA
BRANCH  14  17
ATOM     17  C   UNL d   1       4.642 -12.298  -3.980  0.00  0.00     0.088 A 
ATOM     18  C   UNL d   1       3.561 -12.713  -4.758  0.00  0.00     0.051 A 
ATOM     19  C   UNL d   1       3.730 -13.790  -5.639  0.00  0.00     0.057 A 
ATOM     20 CL   UNL d   1       2.372 -14.252  -6.605  0.00  0.00    -0.083 Cl
ATOM     21  C   UNL d   1       4.966 -14.449  -5.729  0.00  0.00     0.055 A 
ATOM     22  C   UNL d   1       6.036 -14.031  -4.933  0.00  0.00     0.027 A 
ATOM     23 CL   UNL d   1       5.237 -15.776  -6.801  0.00  0.00    -0.083 Cl
ATOM     24  C   UNL d   1       5.878 -12.955  -4.060  0.00  0.00     0.027 A 
ENDBRANCH  14  17
ENDBRANCH  13  14
ENDBRANCH  10  13
ENDBRANCH   1   7
BRANCH   4  25
ATOM     25  O   UNL d   1       0.361  -1.413   0.397  0.00  0.00    -0.229 OA
BRANCH  25  26
ATOM     26  S   UNL d   1       0.924  -0.646   1.724  0.00  0.00     0.303 S 
ATOM     27  O   UNL d   1       0.488  -1.370   2.903  0.00  0.00    -0.193 OA
ATOM     28  O   UNL d   1       2.315  -0.285   1.530  0.00  0.00    -0.193 OA
BRANCH  26  29
ATOM     29  C   UNL d   1       0.028   0.900   1.700  0.00  0.00     0.088 A 
ATOM     30  C   UNL d   1      -0.770   1.274   2.788  0.00  0.00     0.051 A 
ATOM     31  C   UNL d   1      -1.436   2.504   2.762  0.00  0.00     0.057 A 
ATOM     32 CL   UNL d   1      -2.403   2.920   4.133  0.00  0.00    -0.083 Cl
ATOM     33  C   UNL d   1      -1.302   3.354   1.656  0.00  0.00     0.055 A 
ATOM     34  C   UNL d   1      -0.498   2.971   0.576  0.00  0.00     0.027 A 
ATOM     35 CL   UNL d   1      -2.095   4.886   1.562  0.00  0.00    -0.083 Cl
ATOM     36  C   UNL d   1       0.170   1.745   0.595  0.00  0.00     0.027 A 
ENDBRANCH  26  29
ENDBRANCH  25  26
ENDBRANCH   4  25
TORSDOF 7
