REMARK  7 active torsions:
REMARK  status: ('A' for Active; 'I' for Inactive)
REMARK    1  A    between atoms: C_9  and  C_1 
REMARK    2  A    between atoms: C_3  and  C_2 
REMARK    3  A    between atoms: C_6  and  C_8 
REMARK    4  A    between atoms: N_14  and  C_7 
REMARK       I    between atoms: C_8  and  N_13 
REMARK    5  A    between atoms: O_21  and  C_9 
REMARK    6  A    between atoms: N_13  and  N_14 
REMARK    7  A    between atoms: C_25  and  O_21 
ROOT
ATOM      1  C   UNL d   1      -0.046  -1.443   0.033  0.00  0.00     0.086 A 
ATOM      2  C   UNL d   1       1.153  -0.760   0.066  0.00  0.00     0.136 A 
ATOM      3  N   UNL d   1       1.180   0.605   0.219  0.00  0.00    -0.327 N 
ATOM      4  HN  UNL d   1       2.071   1.100   0.267  1.00  0.00     0.168 HD
ATOM      5  C   UNL d   1       0.026   1.280   0.305  0.00  0.00     0.176 A 
ATOM      6  N   UNL d   1      -1.174   0.685   0.224  0.00  0.00    -0.340 N 
ATOM      7  HN  UNL d   1      -2.039   1.223   0.263  1.00  0.00     0.167 HD
ATOM      8  C   UNL d   1      -1.182  -0.658   0.089  0.00  0.00     0.110 A 
ENDROOT
BRANCH   5   9
ATOM      9  N   UNL d   1       0.107   2.662   0.513  0.00  0.00    -0.172 NA
ATOM     10  H   UNL d   1       1.027   2.994   0.218  0.00  0.00     0.156 HD
BRANCH   9  11
ATOM     11  N   UNL d   1      -0.956   3.383  -0.052  0.00  0.00    -0.280 N 
ATOM     12  C   UNL d   1      -0.694   4.662  -0.498  0.00  0.00     0.267 C 
ATOM     13  O   UNL d   1       0.455   5.115  -0.539  0.00  0.00    -0.266 OA
ATOM     14  H   UNL d   1      -1.883   2.981   0.055  0.00  0.00     0.184 HD
BRANCH  12  15
ATOM     15  C   UNL d   1      -1.838   5.475  -1.007  0.00  0.00     0.050 A 
ATOM     16  C   UNL d   1      -3.184   5.341  -0.633  0.00  0.00     0.026 A 
ATOM     17 BR   UNL d   1      -3.820   4.156   0.712  0.00  0.00    -0.050 Br
ATOM     18  C   UNL d   1      -4.162   6.154  -1.229  0.00  0.00     0.020 A 
ATOM     19  C   UNL d   1      -3.811   7.115  -2.178  0.00  0.00     0.001 A 
ATOM     20  C   UNL d   1      -2.478   7.281  -2.531  0.00  0.00     0.001 A 
ATOM     21  C   UNL d   1      -1.501   6.468  -1.949  0.00  0.00     0.018 A 
ENDBRANCH  12  15
ENDBRANCH   9  11
ENDBRANCH   5   9
BRANCH   2  22
ATOM     22  C   UNL d   1       2.507  -1.421  -0.103  0.00  0.00     0.433 C 
ATOM     23  F   UNL d   1       2.492  -2.719  -0.509  0.00  0.00    -0.165 F 
ATOM     24  F   UNL d   1       3.267  -0.786  -1.047  0.00  0.00    -0.165 F 
ATOM     25  F   UNL d   1       3.248  -1.393   1.041  0.00  0.00    -0.165 F 
ENDBRANCH   2  22
BRANCH   1  26
ATOM     26  C   UNL d   1      -0.256  -2.890  -0.089  0.00  0.00     0.296 C 
ATOM     27  O   UNL d   1      -1.160  -3.362  -0.758  0.00  0.00    -0.259 OA
BRANCH  26  28
ATOM     28  O   UNL d   1       0.591  -3.565   0.718  0.00  0.00    -0.318 OA
BRANCH  28  29
ATOM     29  C   UNL d   1       0.443  -4.998   0.711  0.00  0.00     0.174 C 
ATOM     30  C   UNL d   1       0.997  -5.617  -0.563  0.00  0.00     0.034 C 
ENDBRANCH  28  29
ENDBRANCH  26  28
ENDBRANCH   1  26
TORSDOF 7
