REMARK  7 active torsions:
REMARK  status: ('A' for Active; 'I' for Inactive)
REMARK    1  A    between atoms: N_10  and  S_1 
REMARK    2  A    between atoms: C_12  and  S_1 
REMARK    3  A    between atoms: C_18  and  C_4 
REMARK    4  A    between atoms: C_7  and  C_13 
REMARK    5  A    between atoms: C_8  and  C_14 
REMARK    6  A    between atoms: C_9  and  C_19 
REMARK    7  A    between atoms: C_13  and  N_10 
ROOT
ATOM      1  N   UNL d   1       1.230   3.388  -3.722  0.00  0.00    -0.321 N 
ATOM      2  HN  UNL d   1       2.156   3.795  -3.589  1.00  0.00     0.169 HD
ATOM      3  C   UNL d   1       0.352   3.576  -4.767  0.00  0.00     0.137 A 
ATOM      4  N   UNL d   1      -0.798   2.892  -4.636  0.00  0.00    -0.242 N 
ATOM      5  HN  UNL d   1      -1.593   2.870  -5.275  1.00  0.00     0.196 HD
ATOM      6  C   UNL d   1       0.582   2.556  -2.941  0.00  0.00     0.167 A 
ATOM      7  O   UNL d   1      -0.650   2.220  -3.421  0.00  0.00    -0.221 OA
ENDROOT
BRANCH   6   8
ATOM      8  C   UNL d   1       0.971   2.056  -1.594  0.00  0.00     0.218 C 
BRANCH   8   9
ATOM      9  N   UNL d   1       0.486   0.696  -1.340  0.00  0.00    -0.308 N 
ATOM     10  H   UNL d   1      -0.485   0.484  -1.568  0.00  0.00     0.172 HD
BRANCH   9  11
ATOM     11  S   UNL d   1       1.038  -0.062   0.048  0.00  0.00     0.259 S 
ATOM     12  O   UNL d   1       2.462   0.170   0.158  0.00  0.00    -0.201 OA
ATOM     13  O   UNL d   1       0.474  -1.390   0.050  0.00  0.00    -0.201 OA
BRANCH  11  14
ATOM     14  C   UNL d   1       0.236   0.859   1.347  0.00  0.00     0.080 A 
ATOM     15  C   UNL d   1      -1.001   0.419   1.833  0.00  0.00     0.041 A 
ATOM     16  C   UNL d   1      -1.614   1.087   2.904  0.00  0.00     0.049 A 
ATOM     17  C   UNL d   1      -0.971   2.203   3.466  0.00  0.00     0.016 A 
ATOM     18  C   UNL d   1       0.267   2.634   2.980  0.00  0.00     0.002 A 
ATOM     19  C   UNL d   1       0.880   1.954   1.928  0.00  0.00     0.025 A 
BRANCH  16  20
ATOM     20  C   UNL d   1      -2.929   0.608   3.476  0.00  0.00     0.417 C 
ATOM     21  F   UNL d   1      -3.447  -0.466   2.819  0.00  0.00    -0.166 F 
ATOM     22  F   UNL d   1      -2.823   0.236   4.781  0.00  0.00    -0.166 F 
ATOM     23  F   UNL d   1      -3.892   1.570   3.436  0.00  0.00    -0.166 F 
ENDBRANCH  16  20
ENDBRANCH  11  14
ENDBRANCH   9  11
ENDBRANCH   8   9
ENDBRANCH   6   8
BRANCH   3  24
ATOM     24  C   UNL d   1       0.669   4.470  -5.877  0.00  0.00     0.010 A 
ATOM     25  C   UNL d   1       1.888   5.165  -5.886  0.00  0.00     0.016 A 
ATOM     26  C   UNL d   1       2.217   6.027  -6.936  0.00  0.00     0.017 A 
ATOM     27  C   UNL d   1       1.331   6.214  -8.005  0.00  0.00     0.048 A 
ATOM     28  C   UNL d   1       0.109   5.523  -7.997  0.00  0.00     0.017 A 
ATOM     29  C   UNL d   1      -0.219   4.661  -6.944  0.00  0.00     0.016 A 
BRANCH  27  30
ATOM     30  C   UNL d   1       1.676   7.133  -9.152  0.00  0.00     0.417 C 
ATOM     31  F   UNL d   1       2.874   7.765  -9.004  0.00  0.00    -0.166 F 
ATOM     32  F   UNL d   1       1.746   6.474 -10.342  0.00  0.00    -0.166 F 
ATOM     33  F   UNL d   1       0.753   8.120  -9.324  0.00  0.00    -0.166 F 
ENDBRANCH  27  30
ENDBRANCH   3  24
TORSDOF 7
