REMARK  2 active torsions:
REMARK  status: ('A' for Active; 'I' for Inactive)
REMARK    1  A    between atoms: N_10  and  C_4 
REMARK    2  A    between atoms: C_14  and  N_10 
ROOT
ATOM      1  C   UNL d   1      -1.290  -0.113   0.043  0.00  0.00     0.071 C 
ATOM      2  C   UNL d   1      -0.667   1.240   0.114  0.00  0.00     0.165 C 
ATOM      3  C   UNL d   1      -0.475  -1.349   0.210  0.00  0.00     0.165 C 
ATOM      4  C   UNL d   1      -2.615  -0.190  -0.167  0.00  0.00     0.107 C 
ATOM      5  C   UNL d   1       1.607   0.086  -0.046  0.00  0.00    -0.034 C 
ATOM      6  C   UNL d   1       0.815   1.321   0.412  0.00  0.00     0.093 C 
ATOM      7  C   UNL d   1       0.984  -1.181   0.560  0.00  0.00     0.093 C 
ATOM      8  O   UNL d   1      -0.975  -2.473   0.129  0.00  0.00    -0.292 OA
ATOM      9  O   UNL d   1      -1.333   2.267  -0.005  0.00  0.00    -0.292 OA
ATOM     10  C   UNL d   1       3.055   0.212   0.463  0.00  0.00     0.015 C 
ATOM     11  C   UNL d   1       1.646  -0.000  -1.585  0.00  0.00     0.015 C 
ENDROOT
BRANCH   4  12
ATOM     12  N   UNL d   1      -3.405  -1.314  -0.230  0.00  0.00    -0.365 N 
ATOM     13  H   UNL d   1      -2.920  -2.201  -0.067  0.00  0.00     0.165 HD
BRANCH  12  14
ATOM     14  C   UNL d   1      -4.784  -1.378  -0.470  0.00  0.00     0.033 A 
ATOM     15  C   UNL d   1      -5.524  -2.429   0.094  0.00  0.00     0.056 A 
ATOM     16  C   UNL d   1      -6.914  -2.469  -0.037  0.00  0.00     0.074 A 
ATOM     17 CL   UNL d   1      -7.799  -3.750   0.699  0.00  0.00    -0.081 Cl
ATOM     18  C   UNL d   1      -7.574  -1.466  -0.742  0.00  0.00     0.138 A 
ATOM     19  C   UNL d   1      -6.862  -0.419  -1.310  0.00  0.00     0.046 A 
ATOM     20  F   UNL d   1      -8.910  -1.488  -0.879  0.00  0.00    -0.204 F 
ATOM     21  C   UNL d   1      -5.474  -0.371  -1.162  0.00  0.00     0.032 A 
ENDBRANCH  12  14
ENDBRANCH   4  12
TORSDOF 2
