REMARK  5 active torsions:
REMARK  status: ('A' for Active; 'I' for Inactive)
REMARK    1  A    between atoms: C_4  and  N_1 
REMARK    2  A    between atoms: C_2  and  C_4 
REMARK    3  A    between atoms: C_9  and  C_2 
REMARK    4  A    between atoms: C_8  and  N_3 
REMARK    5  A    between atoms: C_7  and  C_10 
ROOT
ATOM      1  N   UNL d   1       6.908  -1.227  -4.294  0.00  0.00    -0.191 NA
ATOM      2  C   UNL d   1       5.998  -1.059  -3.589  0.00  0.00     0.099 C 
ATOM      3  C   UNL d   1       2.633  -0.475  -1.035  0.00  0.00     0.030 A 
ATOM      4  C   UNL d   1       3.474  -1.593  -0.900  0.00  0.00     0.031 A 
ATOM      5  C   UNL d   1       2.962   0.454  -2.032  0.00  0.00     0.031 A 
ATOM      6  C   UNL d   1       4.876  -0.858  -2.724  0.00  0.00     0.044 A 
ATOM      7  C   UNL d   1       4.067   0.268  -2.872  0.00  0.00     0.025 A 
ATOM      8  C   UNL d   1       4.582  -1.788  -1.731  0.00  0.00     0.025 A 
ENDROOT
BRANCH   3   9
ATOM      9  N   UNL d   1       1.533  -0.322  -0.216  0.00  0.00    -0.378 N 
ATOM     10  C   UNL d   1       1.007   0.995   0.183  0.00  0.00     0.153 C 
ATOM     11  C   UNL d   1      -0.478   1.153  -0.222  0.00  0.00     0.293 C 
ATOM     12  N   UNL d   1      -1.371   0.030   0.195  0.00  0.00     0.103 N 
ATOM     13  C   UNL d   1      -0.777  -1.206  -0.372  0.00  0.00     0.293 C 
ATOM     14  C   UNL d   1       0.677  -1.484   0.074  0.00  0.00     0.153 C 
BRANCH  12  15
ATOM     15  C   UNL d   1      -1.522  -0.032   1.678  0.00  0.00     0.293 C 
ATOM     16  C   UNL d   1      -2.300  -1.244   2.210  0.00  0.00     0.051 C 
BRANCH  15  17
ATOM     17  C   UNL d   1      -2.150   1.263   2.230  0.00  0.00     0.192 C 
ATOM     18  O   UNL d   1      -1.529   1.946   3.050  0.00  0.00    -0.290 OA
BRANCH  17  19
ATOM     19  C   UNL d   1      -3.506   1.726   1.793  0.00  0.00     0.012 A 
ATOM     20  C   UNL d   1      -4.240   1.094   0.791  0.00  0.00     0.016 A 
ATOM     21  C   UNL d   1      -5.493   1.584   0.408  0.00  0.00     0.013 A 
ATOM     22  C   UNL d   1      -6.063   2.718   1.011  0.00  0.00    -0.023 A 
ATOM     23  C   UNL d   1      -5.312   3.343   2.021  0.00  0.00     0.013 A 
ATOM     24  C   UNL d   1      -4.052   2.861   2.403  0.00  0.00     0.016 A 
BRANCH  22  25
ATOM     25  C   UNL d   1      -7.389   3.220   0.581  0.00  0.00     0.013 A 
ATOM     26  C   UNL d   1      -7.705   4.589   0.544  0.00  0.00     0.127 A 
ATOM     27  F   UNL d   1      -6.798   5.511   0.902  0.00  0.00    -0.205 F 
ATOM     28  C   UNL d   1      -8.952   5.050   0.119  0.00  0.00     0.043 A 
ATOM     29  C   UNL d   1      -9.924   4.146  -0.298  0.00  0.00     0.003 A 
ATOM     30  C   UNL d   1      -9.646   2.784  -0.279  0.00  0.00     0.001 A 
ATOM     31  C   UNL d   1      -8.399   2.329   0.163  0.00  0.00     0.015 A 
ENDBRANCH  22  25
ENDBRANCH  17  19
ENDBRANCH  15  17
ENDBRANCH  12  15
ENDBRANCH   3   9
TORSDOF 5
