REMARK  2 active torsions:
REMARK  status: ('A' for Active; 'I' for Inactive)
REMARK    1  A    between atoms: C_3  and  C_1 
REMARK    2  A    between atoms: C_9  and  C_2 
ROOT
ATOM      1  C   UNL d   1       2.469   0.024   0.007  0.00  0.00     0.040 A 
ATOM      2  S   UNL d   1       1.607   1.503   0.052  0.00  0.00    -0.087 SA
ATOM      3  C   UNL d   1       1.615  -1.072  -0.032  0.00  0.00    -0.031 A 
ATOM      4  C   UNL d   1       0.216  -0.652  -0.025  0.00  0.00    -0.010 A 
ATOM      5  C   UNL d   1       0.084   0.735   0.012  0.00  0.00     0.016 A 
ATOM      6  C   UNL d   1      -0.978  -1.422  -0.046  0.00  0.00     0.037 A 
ATOM      7  C   UNL d   1      -1.173   1.370   0.022  0.00  0.00     0.021 A 
ATOM      8  C   UNL d   1      -2.227  -0.794  -0.029  0.00  0.00     0.035 A 
ATOM      9  C   UNL d   1       1.988  -2.525  -0.059  0.00  0.00     0.050 C 
ATOM     10  C   UNL d   1      -2.327   0.587   0.001  0.00  0.00     0.025 A 
ATOM     11 CL   UNL d   1      -3.659  -1.750  -0.039  0.00  0.00    -0.084 Cl
ENDROOT
BRANCH   1  12
ATOM     12  C   UNL d   1       3.980   0.022   0.015  0.00  0.00     0.068 A 
ATOM     13  C   UNL d   1       4.800   1.170   0.165  0.00  0.00     0.068 A 
ATOM     14  C   UNL d   1       6.095   0.707   0.125  0.00  0.00     0.134 A 
ATOM     15  N   UNL d   1       5.997  -0.637  -0.061  0.00  0.00    -0.296 N 
ATOM     16  N   UNL d   1       4.732  -1.078  -0.120  0.00  0.00    -0.299 N 
ATOM     17  H   UNL d   1       6.747  -1.318  -0.152  0.00  0.00     0.187 HD
ATOM     18  HN  UNL d   1       4.413  -2.039  -0.242  1.00  0.00     0.187 HD
BRANCH  14  19
ATOM     19  C   UNL d   1       7.398   1.368   0.242  0.00  0.00     0.434 C 
ATOM     20  F   UNL d   1       7.282   2.706   0.418  0.00  0.00    -0.165 F 
ATOM     21  F   UNL d   1       8.105   0.884   1.292  0.00  0.00    -0.165 F 
ATOM     22  F   UNL d   1       8.155   1.171  -0.865  0.00  0.00    -0.165 F 
ENDBRANCH  14  19
ENDBRANCH   1  12
TORSDOF 2
