REMARK  5 active torsions:
REMARK  status: ('A' for Active; 'I' for Inactive)
REMARK    1  A    between atoms: N_4  and  C_1 
REMARK    2  A    between atoms: N_5  and  C_2 
REMARK    3  A    between atoms: O_10  and  C_3 
REMARK    4  A    between atoms: C_6  and  C_7 
REMARK    5  A    between atoms: C_18  and  O_10 
ROOT
ATOM      1  C   UNL d   1       1.395  -0.035   0.028  0.00  0.00     0.140 A 
ATOM      2  C   UNL d   1      -0.746  -1.074  -0.038  0.00  0.00     0.140 A 
ATOM      3  C   UNL d   1       0.650  -1.216  -0.088  0.00  0.00     0.142 A 
ATOM      4  C   UNL d   1      -0.620   1.346   0.157  0.00  0.00     0.052 A 
ATOM      5  C   UNL d   1      -1.385   0.174   0.084  0.00  0.00     0.055 A 
ATOM      6  C   UNL d   1       0.778   1.232   0.120  0.00  0.00     0.055 A 
ENDROOT
BRANCH   3   7
ATOM      7  O   UNL d   1       1.140  -2.498  -0.110  0.00  0.00    -0.306 OA
BRANCH   7   8
ATOM      8  C   UNL d   1       2.239  -2.831  -0.863  0.00  0.00     0.076 A 
ATOM      9  C   UNL d   1       3.043  -3.840  -0.322  0.00  0.00     0.039 A 
ATOM     10  C   UNL d   1       4.227  -4.214  -0.957  0.00  0.00     0.026 A 
ATOM     11  C   UNL d   1       4.601  -3.582  -2.140  0.00  0.00     0.034 A 
ATOM     12  C   UNL d   1       3.773  -2.617  -2.716  0.00  0.00     0.026 A 
ATOM     13 CL   UNL d   1       6.092  -3.993  -2.892  0.00  0.00    -0.084 Cl
ATOM     14  C   UNL d   1       2.574  -2.258  -2.091  0.00  0.00     0.039 A 
ENDBRANCH   7   8
ENDBRANCH   3   7
BRANCH   2  15
ATOM     15  N   UNL d   1      -1.595  -2.252  -0.086  0.00  0.00    -0.113 N 
ATOM     16  O   UNL d   1      -1.537  -2.946  -1.109  0.00  0.00    -0.532 OA
ATOM     17  O   UNL d   1      -2.349  -2.437   0.877  0.00  0.00    -0.532 OA
ENDBRANCH   2  15
BRANCH   1  18
ATOM     18  N   UNL d   1       2.841  -0.042   0.146  0.00  0.00    -0.113 N 
ATOM     19  O   UNL d   1       3.325  -0.633   1.116  0.00  0.00    -0.532 OA
ATOM     20  O   UNL d   1       3.468   0.604  -0.706  0.00  0.00    -0.532 OA
ENDBRANCH   1  18
BRANCH   4  21
ATOM     21  C   UNL d   1      -1.265   2.706   0.305  0.00  0.00     0.417 C 
ATOM     22  F   UNL d   1      -2.620   2.653   0.389  0.00  0.00    -0.166 F 
ATOM     23  F   UNL d   1      -0.839   3.353   1.421  0.00  0.00    -0.166 F 
ATOM     24  F   UNL d   1      -0.979   3.523  -0.743  0.00  0.00    -0.166 F 
ENDBRANCH   4  21
TORSDOF 5
