REMARK  4 active torsions:
REMARK  status: ('A' for Active; 'I' for Inactive)
REMARK    1  A    between atoms: C_3  and  C_1 
REMARK    2  A    between atoms: C_12  and  C_2 
REMARK    3  A    between atoms: C_14  and  C_6 
REMARK    4  A    between atoms: C_15  and  C_9 
ROOT
ATOM      1  C   UNL d   1       1.178   0.671  -0.054  0.00  0.00     0.059 A 
ATOM      2  C   UNL d   1      -0.138   1.083  -0.007  0.00  0.00     0.174 A 
ATOM      3  C   UNL d   1      -0.144  -1.141  -0.044  0.00  0.00     0.089 A 
ATOM      4  O   UNL d   1      -0.946  -0.033   0.001  0.00  0.00    -0.304 OA
ATOM      5  C   UNL d   1       1.172  -0.742  -0.131  0.00  0.00     0.056 A 
ENDROOT
BRANCH   1   6
ATOM      6  C   UNL d   1       2.395   1.515  -0.014  0.00  0.00     0.185 A 
ATOM      7  N   UNL d   1       2.399   2.812   0.177  0.00  0.00    -0.318 N 
ATOM      8  C   UNL d   1       3.740   3.126   0.183  0.00  0.00     0.138 A 
ATOM      9  HN  UNL d   1       1.602   3.437   0.294  1.00  0.00     0.169 HD
ATOM     10  N   UNL d   1       4.544   2.068  -0.009  0.00  0.00    -0.242 N 
ATOM     11  O   UNL d   1       3.660   1.003  -0.129  0.00  0.00    -0.217 OA
ATOM     12  HN  UNL d   1       5.563   2.051  -0.055  1.00  0.00     0.196 HD
BRANCH   8  13
ATOM     13  C   UNL d   1       4.216   4.489   0.399  0.00  0.00     0.010 A 
ATOM     14  C   UNL d   1       3.302   5.521   0.648  0.00  0.00     0.016 A 
ATOM     15  C   UNL d   1       3.747   6.826   0.871  0.00  0.00     0.007 A 
ATOM     16  C   UNL d   1       5.115   7.124   0.846  0.00  0.00    -0.062 A 
ATOM     17  C   UNL d   1       6.030   6.096   0.597  0.00  0.00     0.007 A 
ATOM     18  C   UNL d   1       5.580   8.527   1.096  0.00  0.00     0.048 C 
ATOM     19  C   UNL d   1       5.585   4.789   0.376  0.00  0.00     0.016 A 
ENDBRANCH   8  13
ENDBRANCH   1   6
BRANCH   2  20
ATOM     20  C   UNL d   1      -0.840   2.391   0.035  0.00  0.00     0.440 C 
ATOM     21  F   UNL d   1      -0.045   3.464  -0.193  0.00  0.00    -0.164 F 
ATOM     22  F   UNL d   1      -1.824   2.453  -0.903  0.00  0.00    -0.164 F 
ATOM     23  F   UNL d   1      -1.441   2.600   1.236  0.00  0.00    -0.164 F 
ENDBRANCH   2  20
BRANCH   3  24
ATOM     24  C   UNL d   1      -0.821  -2.437  -0.003  0.00  0.00     0.019 A 
ATOM     25  C   UNL d   1      -0.265  -3.578   0.610  0.00  0.00     0.047 A 
ATOM     26 CL   UNL d   1       1.223  -3.548   1.498  0.00  0.00    -0.083 Cl
ATOM     27  C   UNL d   1      -0.927  -4.811   0.561  0.00  0.00     0.025 A 
ATOM     28  C   UNL d   1      -2.157  -4.926  -0.081  0.00  0.00     0.002 A 
ATOM     29  C   UNL d   1      -2.736  -3.804  -0.665  0.00  0.00     0.001 A 
ATOM     30  C   UNL d   1      -2.076  -2.572  -0.625  0.00  0.00     0.016 A 
ENDBRANCH   3  24
TORSDOF 4
