REMARK  5 active torsions:
REMARK  status: ('A' for Active; 'I' for Inactive)
REMARK    1  A    between atoms: C_2  and  S_1 
REMARK    2  A    between atoms: N_8  and  S_1 
REMARK    3  A    between atoms: C_3  and  C_7 
REMARK    4  A    between atoms: C_9  and  N_14 
REMARK    5  A    between atoms: C_10  and  C_11 
ROOT
ATOM      1  N   UNL d   1       0.493  -0.818  -1.405  0.00  0.00    -0.204 NA
ATOM      2  N   UNL d   1       1.040  -1.665  -4.244  0.00  0.00    -0.365 N 
ATOM      3  C   UNL d   1       0.724   0.134  -2.565  0.00  0.00     0.127 C 
ATOM      4  C   UNL d   1       0.321  -0.418  -3.948  0.00  0.00     0.140 C 
ATOM      5  C   UNL d   1       0.459  -3.140  -2.358  0.00  0.00     0.035 C 
ATOM      6  C   UNL d   1       1.251  -2.106  -1.561  0.00  0.00     0.109 C 
ATOM      7  C   UNL d   1       0.342  -2.883  -3.858  0.00  0.00     0.125 C 
ENDROOT
BRANCH   1   8
ATOM      8  S   UNL d   1       0.885  -0.079   0.112  0.00  0.00     0.250 S 
ATOM      9  O   UNL d   1       0.656  -1.040   1.171  0.00  0.00    -0.205 OA
ATOM     10  O   UNL d   1       2.162   0.587  -0.039  0.00  0.00    -0.205 OA
BRANCH   8  11
ATOM     11  C   UNL d   1      -0.270   1.233   0.434  0.00  0.00     0.116 A 
ATOM     12  S   UNL d   1      -1.906   0.768   0.601  0.00  0.00    -0.075 SA
ATOM     13  C   UNL d   1      -2.399   2.369   0.928  0.00  0.00     0.033 A 
ATOM     14  C   UNL d   1      -1.337   3.249   0.893  0.00  0.00     0.023 A 
ATOM     15  C   UNL d   1      -0.105   2.593   0.612  0.00  0.00     0.034 A 
BRANCH  13  16
ATOM     16  C   UNL d   1      -3.807   2.797   1.207  0.00  0.00     0.056 A 
ATOM     17  N   UNL d   1      -4.124   4.140   1.339  0.00  0.00    -0.353 N 
ATOM     18  C   UNL d   1      -5.417   4.279   1.536  0.00  0.00     0.047 A 
ATOM     19  HN  UNL d   1      -3.453   4.907   1.290  1.00  0.00     0.166 HD
ATOM     20  C   UNL d   1      -6.109   5.588   1.672  0.00  0.00     0.076 C 
ATOM     21  S   UNL d   1      -6.314   2.817   1.624  0.00  0.00    -0.087 SA
ATOM     22  C   UNL d   1      -4.874   1.931   1.342  0.00  0.00     0.082 A 
ENDBRANCH  13  16
ENDBRANCH   8  11
ENDBRANCH   1   8
BRANCH   2  23
ATOM     23  C   UNL d   1       2.026  -1.693  -5.217  0.00  0.00     0.125 A 
ATOM     24  N   UNL d   1       1.938  -0.773  -6.211  0.00  0.00    -0.350 N 
ATOM     25  C   UNL d   1       2.874  -0.760  -7.194  0.00  0.00     0.106 A 
ATOM     26  HN  UNL d   1       1.174  -0.097  -6.220  1.00  0.00     0.166 HD
ATOM     27  C   UNL d   1       3.955  -1.619  -7.250  0.00  0.00     0.065 A 
ATOM     28  C   UNL d   1       4.070  -2.551  -6.223  0.00  0.00     0.045 A 
ATOM     29  C   UNL d   1       3.111  -2.594  -5.205  0.00  0.00     0.078 A 
ATOM     30 CL   UNL d   1       3.430  -3.731  -3.938  0.00  0.00    -0.080 Cl
BRANCH  27  31
ATOM     31  C   UNL d   1       4.946  -1.527  -8.366  0.00  0.00     0.418 C 
ATOM     32  F   UNL d   1       5.980  -2.402  -8.248  0.00  0.00    -0.166 F 
ATOM     33  F   UNL d   1       4.385  -1.776  -9.581  0.00  0.00    -0.166 F 
ATOM     34  F   UNL d   1       5.513  -0.294  -8.461  0.00  0.00    -0.166 F 
ENDBRANCH  27  31
ENDBRANCH   2  23
TORSDOF 5
