REMARK  2 active torsions:
REMARK  status: ('A' for Active; 'I' for Inactive)
REMARK    1  A    between atoms: C_10  and  N_3 
REMARK    2  A    between atoms: C_19  and  C_10 
ROOT
ATOM      1  C   UNL d   1      -1.074   1.271  -0.044  0.00  0.00     0.054 A 
ATOM      2  C   UNL d   1      -0.838  -0.025   0.222  0.00  0.00     0.064 A 
ATOM      3  N   UNL d   1      -1.877  -0.875   0.582  0.00  0.00    -0.308 N 
ATOM      4  C   UNL d   1      -3.151  -0.355   0.919  0.00  0.00     0.259 C 
ATOM      5  C   UNL d   1       0.204   1.988  -0.198  0.00  0.00     0.196 A 
ATOM      6  C   UNL d   1      -2.413   1.805  -0.064  0.00  0.00    -0.004 C 
ATOM      7  C   UNL d   1       0.614  -0.262   0.125  0.00  0.00     0.006 A 
ATOM      8  C   UNL d   1      -3.404   1.083   0.604  0.00  0.00     0.043 C 
ATOM      9  C   UNL d   1       1.237   0.976  -0.059  0.00  0.00     0.027 A 
ATOM     10  O   UNL d   1      -4.071  -1.034   1.369  0.00  0.00    -0.267 OA
ATOM     11  O   UNL d   1       0.380   3.170  -0.382  0.00  0.00    -0.286 OA
ATOM     12  C   UNL d   1      -2.749   2.977  -0.741  0.00  0.00     0.013 C 
ATOM     13  C   UNL d   1       1.421  -1.380   0.200  0.00  0.00     0.014 A 
ATOM     14  C   UNL d   1      -4.661   1.659   0.816  0.00  0.00     0.018 C 
ATOM     15  C   UNL d   1       2.606   1.173  -0.116  0.00  0.00     0.016 A 
ATOM     16  C   UNL d   1       2.820  -1.223   0.113  0.00  0.00     0.001 A 
ATOM     17  C   UNL d   1      -4.048   3.475  -0.656  0.00  0.00     0.001 C 
ATOM     18  C   UNL d   1       3.407   0.037  -0.025  0.00  0.00     0.001 A 
ATOM     19  C   UNL d   1      -4.969   2.875   0.202  0.00  0.00     0.001 C 
ENDROOT
BRANCH   3  20
ATOM     20  C   UNL d   1      -1.765  -2.326   0.549  0.00  0.00     0.171 C 
BRANCH  20  21
ATOM     21  C   UNL d   1      -1.225  -3.004   1.786  0.00  0.00    -0.037 A 
ATOM     22  C   UNL d   1      -0.919  -4.375   1.687  0.00  0.00     0.048 A 
ATOM     23  C   UNL d   1      -0.371  -5.003   2.780  0.00  0.00     0.105 A 
ATOM     24  O   UNL d   1       0.034  -6.300   2.828  0.00  0.00    -0.323 OA
ATOM     25  C   UNL d   1      -0.149  -4.338   3.962  0.00  0.00     0.105 A 
ATOM     26  C   UNL d   1       0.701  -6.312   4.106  0.00  0.00     0.352 C 
ATOM     27  O   UNL d   1       0.431  -5.136   4.898  0.00  0.00    -0.323 OA
ATOM     28  C   UNL d   1      -0.482  -3.011   4.118  0.00  0.00     0.040 A 
ATOM     29  C   UNL d   1      -1.023  -2.339   3.016  0.00  0.00     0.012 A 
ENDBRANCH  20  21
ENDBRANCH   3  20
TORSDOF 2
