REMARK  4 active torsions:
REMARK  status: ('A' for Active; 'I' for Inactive)
REMARK    1  A    between atoms: C_3  and  C_1 
REMARK       I    between atoms: N_8  and  C_3 
REMARK    2  A    between atoms: C_9  and  C_5 
REMARK    3  A    between atoms: C_7  and  C_10 
REMARK    4  A    between atoms: C_19  and  N_8 
ROOT
ATOM      1  C   UNL d   1       0.226  -2.622   0.147  0.00  0.00     0.258 C 
ATOM      2  N   UNL d   1      -0.792  -3.550   0.304  0.00  0.00    -0.323 N 
ATOM      3  O   UNL d   1       1.412  -2.909   0.016  0.00  0.00    -0.267 OA
ATOM      4  H   UNL d   1      -1.742  -3.208   0.271  0.00  0.00     0.169 HD
ENDROOT
BRANCH   1   5
ATOM      5  C   UNL d   1      -0.205  -1.225   0.142  0.00  0.00     0.064 A 
ATOM      6  C   UNL d   1      -1.504  -0.650   0.320  0.00  0.00     0.057 A 
ATOM      7  C   UNL d   1      -1.371   0.722   0.224  0.00  0.00     0.087 A 
ATOM      8  O   UNL d   1      -0.060   1.028   0.023  0.00  0.00    -0.314 OA
ATOM      9  C   UNL d   1       0.644  -0.136  -0.013  0.00  0.00     0.065 A 
ATOM     10  C   UNL d   1       2.105   0.034  -0.188  0.00  0.00     0.077 C 
BRANCH   7  11
ATOM     11  C   UNL d   1      -2.295   1.852   0.302  0.00  0.00    -0.002 A 
ATOM     12  C   UNL d   1      -3.651   1.644   0.599  0.00  0.00     0.016 A 
ATOM     13  C   UNL d   1      -4.542   2.720   0.678  0.00  0.00     0.024 A 
ATOM     14  C   UNL d   1      -4.086   4.017   0.458  0.00  0.00     0.034 A 
ATOM     15  C   UNL d   1      -2.747   4.246   0.156  0.00  0.00     0.024 A 
ATOM     16 CL   UNL d   1      -5.181   5.338   0.561  0.00  0.00    -0.084 Cl
ATOM     17  C   UNL d   1      -1.858   3.168   0.080  0.00  0.00     0.016 A 
ENDBRANCH   7  11
ENDBRANCH   1   5
BRANCH   2  18
ATOM     18  C   UNL d   1      -0.640  -4.937   0.528  0.00  0.00     0.035 A 
ATOM     19  C   UNL d   1       0.598  -5.558   0.715  0.00  0.00     0.030 A 
ATOM     20  C   UNL d   1       0.681  -6.920   1.016  0.00  0.00     0.018 A 
ATOM     21  C   UNL d   1      -0.476  -7.697   1.137  0.00  0.00     0.048 A 
ATOM     22  C   UNL d   1      -1.718  -7.085   0.915  0.00  0.00     0.018 A 
ATOM     23  C   UNL d   1      -1.798  -5.718   0.616  0.00  0.00     0.030 A 
BRANCH  21  24
ATOM     24  C   UNL d   1      -0.392  -9.153   1.523  0.00  0.00     0.417 C 
ATOM     25  F   UNL d   1       0.881  -9.588   1.737  0.00  0.00    -0.166 F 
ATOM     26  F   UNL d   1      -1.073  -9.421   2.672  0.00  0.00    -0.166 F 
ATOM     27  F   UNL d   1      -0.915  -9.978   0.576  0.00  0.00    -0.166 F 
ENDBRANCH  21  24
ENDBRANCH   2  18
TORSDOF 4
