REMARK  5 active torsions:
REMARK  status: ('A' for Active; 'I' for Inactive)
REMARK    1  A    between atoms: C_3  and  N_1 
REMARK       I    between atoms: C_2  and  N_4 
REMARK    2  A    between atoms: C_10  and  C_2 
REMARK    3  A    between atoms: N_4  and  C_13 
REMARK    4  A    between atoms: N_5  and  C_12 
REMARK    5  A    between atoms: C_12  and  C_11 
ROOT
ATOM      1  N   UNL d   1       1.651  -0.451   4.854  0.00  0.00     0.092 N 
ATOM      2  C   UNL d   1       3.994   0.837   3.545  0.00  0.00     0.088 C 
ATOM      3  C   UNL d   1       4.074  -0.553   4.179  0.00  0.00     0.055 C 
ATOM      4  C   UNL d   1       2.951   1.644   4.320  0.00  0.00     0.055 C 
ATOM      5  C   UNL d   1       1.595   0.940   4.369  0.00  0.00     0.275 C 
ATOM      6  C   UNL d   1       2.711  -1.244   4.213  0.00  0.00     0.275 C 
ENDROOT
BRANCH   1   7
ATOM      7  C   UNL d   1       0.348  -1.131   4.653  0.00  0.00     0.311 C 
BRANCH   7   8
ATOM      8  C   UNL d   1      -0.788  -0.558   5.476  0.00  0.00    -0.028 A 
ATOM      9  C   UNL d   1      -1.946  -0.069   4.853  0.00  0.00     0.045 A 
ATOM     10  C   UNL d   1      -2.982   0.482   5.622  0.00  0.00     0.103 A 
ATOM     11  C   UNL d   1      -2.890   0.521   7.021  0.00  0.00     0.036 A 
ATOM     12  C   UNL d   1      -1.751   0.010   7.643  0.00  0.00     0.003 A 
ATOM     13  C   UNL d   1      -0.709  -0.521   6.878  0.00  0.00     0.009 A 
BRANCH  10  14
ATOM     14  N   UNL d   1      -4.166   1.040   4.957  0.00  0.00    -0.116 N 
ATOM     15  O   UNL d   1      -4.200   0.996   3.715  0.00  0.00    -0.532 OA
ATOM     16  O   UNL d   1      -5.057   1.522   5.665  0.00  0.00    -0.532 OA
ENDBRANCH  10  14
ENDBRANCH   7   8
ENDBRANCH   1   7
BRANCH   2  17
ATOM     17  N   UNL d   1       3.732   0.786   2.102  0.00  0.00    -0.352 N 
ATOM     18  C   UNL d   1       3.789   1.935   1.329  0.00  0.00     0.252 C 
ATOM     19  O   UNL d   1       3.971   3.052   1.796  0.00  0.00    -0.268 OA
ATOM     20  H   UNL d   1       3.839  -0.102   1.632  0.00  0.00     0.163 HD
BRANCH  18  21
ATOM     21  C   UNL d   1       3.657   1.778  -0.150  0.00  0.00     0.032 A 
ATOM     22  C   UNL d   1       2.995   0.696  -0.743  0.00  0.00     0.017 A 
ATOM     23  C   UNL d   1       2.893   0.616  -2.136  0.00  0.00     0.001 A 
ATOM     24  C   UNL d   1       3.442   1.617  -2.940  0.00  0.00     0.000 A 
ATOM     25  C   UNL d   1       4.088   2.705  -2.357  0.00  0.00     0.001 A 
ATOM     26  C   UNL d   1       4.192   2.786  -0.967  0.00  0.00     0.017 A 
ENDBRANCH  18  21
ENDBRANCH   2  17
TORSDOF 5
