REMARK  4 active torsions:
REMARK  status: ('A' for Active; 'I' for Inactive)
REMARK    1  A    between atoms: N_4  and  C_1 
REMARK    2  A    between atoms: S_3  and  C_2 
REMARK    3  A    between atoms: C_9  and  S_3 
REMARK    4  A    between atoms: N_5  and  C_8 
ROOT
ATOM      1  C   UNL d   1      -1.107   1.198   0.166  0.00  0.00     0.127 C 
ATOM      2  C   UNL d   1       0.292   1.261  -0.006  0.00  0.00     0.103 C 
ATOM      3  C   UNL d   1      -1.811  -0.020   0.154  0.00  0.00     0.073 C 
ATOM      4  C   UNL d   1       1.013   0.041  -0.044  0.00  0.00    -0.035 C 
ATOM      5  C   UNL d   1      -1.101  -1.208  -0.000  0.00  0.00     0.105 C 
ATOM      6  C   UNL d   1       0.295  -1.179  -0.082  0.00  0.00     0.044 C 
ATOM      7  C   UNL d   1       2.513  -0.123  -0.023  0.00  0.00     0.050 C 
ENDROOT
BRANCH   2   8
ATOM      8  S   UNL d   1       1.099   2.862  -0.066  0.00  0.00     0.209 S 
ATOM      9  O   UNL d   1       0.680   3.530   1.156  0.00  0.00    -0.217 OA
ATOM     10  O   UNL d   1       2.506   2.669  -0.351  0.00  0.00    -0.217 OA
BRANCH   8  11
ATOM     11  C   UNL d   1       0.546   3.851  -1.440  0.00  0.00     0.064 A 
ATOM     12  C   UNL d   1       0.576   5.244  -1.304  0.00  0.00     0.025 A 
ATOM     13  C   UNL d   1       0.138   6.051  -2.353  0.00  0.00     0.025 A 
ATOM     14  C   UNL d   1      -0.340   5.461  -3.524  0.00  0.00     0.034 A 
ATOM     15  C   UNL d   1      -0.361   4.072  -3.662  0.00  0.00     0.025 A 
ATOM     16 CL   UNL d   1      -0.904   6.456  -4.809  0.00  0.00    -0.084 Cl
ATOM     17  C   UNL d   1       0.098   3.255  -2.622  0.00  0.00     0.025 A 
ENDBRANCH   8  11
ENDBRANCH   2   8
BRANCH   1  18
ATOM     18  N   UNL d   1      -1.916   2.368   0.455  0.00  0.00    -0.114 N 
ATOM     19  O   UNL d   1      -2.080   3.174  -0.464  0.00  0.00    -0.532 OA
ATOM     20  O   UNL d   1      -2.459   2.406   1.564  0.00  0.00    -0.532 OA
ENDBRANCH   1  18
BRANCH   5  21
ATOM     21  N   UNL d   1      -1.811  -2.493  -0.035  0.00  0.00    -0.116 N 
ATOM     22  O   UNL d   1      -3.050  -2.459   0.004  0.00  0.00    -0.532 OA
ATOM     23  O   UNL d   1      -1.136  -3.522  -0.115  0.00  0.00    -0.532 OA
ENDBRANCH   5  21
TORSDOF 4
