REMARK  7 active torsions:
REMARK  status: ('A' for Active; 'I' for Inactive)
REMARK    1  A    between atoms: C_8  and  C_1 
REMARK    2  A    between atoms: C_2  and  C_9 
REMARK    3  A    between atoms: N_19  and  C_7 
REMARK    4  A    between atoms: C_12  and  N_20 
REMARK    5  A    between atoms: C_26  and  N_19 
REMARK    6  A    between atoms: N_20  and  C_27 
REMARK    7  A    between atoms: C_27  and  C_26 
ROOT
ATOM      1  C   UNL d   1      -0.457   3.162   5.052  0.00  0.00     0.152 C 
ENDROOT
BRANCH   1   2
ATOM      2  N   UNL d   1       0.081   2.795   3.756  0.00  0.00    -0.225 N 
ATOM      3  H   UNL d   1      -0.339   3.181   2.921  0.00  0.00     0.177 HD
BRANCH   2   4
ATOM      4  C   UNL d   1       1.431   2.605   3.595  0.00  0.00     0.678 A 
ATOM      5  N   UNL d   1       1.849   2.429   2.336  0.00  0.00    -0.187 N 
ATOM      6  C   UNL d   1       3.160   2.133   2.134  0.00  0.00     0.133 A 
ATOM      7  HN  UNL d   1       1.203   2.515   1.552  1.00  0.00     0.184 HD
ATOM      8  C   UNL d   1       4.059   2.064   3.181  0.00  0.00     0.052 A 
ATOM      9  C   UNL d   1       3.543   2.297   4.430  0.00  0.00     0.108 A 
ATOM     10  N   UNL d   1       2.244   2.557   4.657  0.00  0.00    -0.202 N 
ATOM     11  HN  UNL d   1       1.891   2.712   5.602  1.00  0.00     0.183 HD
BRANCH   6  12
ATOM     12  C   UNL d   1       3.654   1.830   0.730  0.00  0.00     0.433 C 
ATOM     13  F   UNL d   1       2.704   1.934  -0.241  0.00  0.00    -0.165 F 
ATOM     14  F   UNL d   1       4.159   0.565   0.622  0.00  0.00    -0.165 F 
ATOM     15  F   UNL d   1       4.671   2.657   0.346  0.00  0.00    -0.165 F 
ENDBRANCH   6  12
ENDBRANCH   2   4
ENDBRANCH   1   2
BRANCH   1  16
ATOM     16  C   UNL d   1      -0.323   4.660   5.370  0.00  0.00     0.114 C 
BRANCH  16  17
ATOM     17  N   UNL d   1      -0.875   4.939   6.705  0.00  0.00    -0.277 NA
ATOM     18  H   UNL d   1      -0.406   4.391   7.423  0.00  0.00     0.129 HD
BRANCH  17  19
ATOM     19  C   UNL d   1      -0.826   6.292   7.080  0.00  0.00     0.080 A 
ATOM     20  N   UNL d   1      -0.381   7.217   6.210  0.00  0.00    -0.343 N 
ATOM     21  C   UNL d   1      -0.353   8.527   6.588  0.00  0.00     0.117 A 
ATOM     22  HN  UNL d   1      -0.069   6.942   5.278  1.00  0.00     0.167 HD
ATOM     23  C   UNL d   1      -0.781   8.938   7.849  0.00  0.00     0.034 A 
ATOM     24  C   UNL d   1      -1.256   7.983   8.735  0.00  0.00     0.005 A 
ATOM     25  C   UNL d   1      -1.281   6.646   8.345  0.00  0.00     0.042 A 
BRANCH  21  26
ATOM     26  C   UNL d   1       0.169   9.566   5.608  0.00  0.00     0.432 C 
ATOM     27  F   UNL d   1       0.545   9.063   4.399  0.00  0.00    -0.165 F 
ATOM     28  F   UNL d   1      -0.751  10.538   5.337  0.00  0.00    -0.165 F 
ATOM     29  F   UNL d   1       1.263  10.228   6.090  0.00  0.00    -0.165 F 
ENDBRANCH  21  26
ENDBRANCH  17  19
ENDBRANCH  16  17
ENDBRANCH   1  16
TORSDOF 7
