REMARK  5 active torsions:
REMARK  status: ('A' for Active; 'I' for Inactive)
REMARK    1  A    between atoms: N_8  and  C_1 
REMARK    2  A    between atoms: C_10  and  N_8 
REMARK    3  A    between atoms: C_9  and  C_10 
REMARK    4  A    between atoms: O_14  and  C_9 
REMARK    5  A    between atoms: C_16  and  O_14 
ROOT
ATOM      1  C   UNL d   1      -0.742   2.269  -1.134  0.00  0.00     0.186 A 
ATOM      2  N   UNL d   1       1.373   1.705  -2.246  0.00  0.00    -0.296 N 
ATOM      3  C   UNL d   1       0.649   1.615  -1.094  0.00  0.00     0.292 A 
ATOM      4  N   UNL d   1      -1.198   2.774  -2.248  0.00  0.00    -0.279 N 
ATOM      5  HN  UNL d   1      -2.130   3.186  -2.294  1.00  0.00     0.189 HD
ATOM      6  C   UNL d   1       0.877   2.242  -3.388  0.00  0.00     0.193 A 
ATOM      7  N   UNL d   1      -0.394   2.735  -3.348  0.00  0.00    -0.274 N 
ATOM      8  S   UNL d   1       1.782   2.291  -4.782  0.00  0.00    -0.039 SA
ATOM      9  O   UNL d   1       1.028   1.044  -0.081  0.00  0.00    -0.264 OA
ATOM     10  H   UNL d   1       2.294   1.294  -2.254  0.00  0.00     0.171 HD
ATOM     11  H   UNL d   1      -0.781   3.151  -4.193  0.00  0.00     0.189 HD
ENDROOT
BRANCH   1  12
ATOM     12  N   UNL d   1      -1.462   2.285   0.041  0.00  0.00    -0.357 N 
ATOM     13  H   UNL d   1      -1.084   1.704   0.796  0.00  0.00     0.162 HD
BRANCH  12  14
ATOM     14  C   UNL d   1      -2.916   2.468   0.084  0.00  0.00     0.179 C 
ATOM     15  C   UNL d   1      -3.250   3.953   0.092  0.00  0.00     0.043 C 
BRANCH  14  16
ATOM     16  C   UNL d   1      -3.482   1.778   1.333  0.00  0.00     0.281 C 
ATOM     17  O   UNL d   1      -2.793   1.231   2.187  0.00  0.00    -0.263 OA
BRANCH  16  18
ATOM     18  O   UNL d   1      -4.846   1.799   1.317  0.00  0.00    -0.320 OA
BRANCH  18  19
ATOM     19  C   UNL d   1      -5.514   1.040   2.338  0.00  0.00     0.174 C 
ATOM     20  C   UNL d   1      -6.062   1.971   3.401  0.00  0.00     0.034 C 
ENDBRANCH  18  19
ENDBRANCH  16  18
ENDBRANCH  14  16
ENDBRANCH  12  14
ENDBRANCH   1  12
TORSDOF 5
