REMARK  0 active torsions:
REMARK  status: ('A' for Active; 'I' for Inactive)
ROOT
ATOM      1  N   UNL d   1      -0.568   1.417   0.023  0.00  0.00    -0.356 N 
ATOM      2  HN  UNL d   1      -0.564   2.437   0.026  1.00  0.00     0.166 HD
ATOM      3  N   UNL d   1      -0.585  -1.391   0.006  0.00  0.00    -0.356 N 
ATOM      4  HN  UNL d   1      -0.592  -2.410  -0.004  1.00  0.00     0.166 HD
ATOM      5  C   UNL d   1      -1.732   0.718   0.017  0.00  0.00     0.028 A 
ATOM      6  C   UNL d   1      -1.741  -0.678   0.022  0.00  0.00     0.028 A 
ATOM      7  C   UNL d   1       0.578   0.713   0.024  0.00  0.00     0.059 A 
ATOM      8  C   UNL d   1       0.570  -0.699   0.005  0.00  0.00     0.059 A 
ATOM      9  C   UNL d   1      -2.987   1.535   0.008  0.00  0.00     0.070 C 
ATOM     10  C   UNL d   1      -2.994  -1.497   0.065  0.00  0.00     0.070 C 
ATOM     11  C   UNL d   1       1.797   1.381   0.046  0.00  0.00     0.032 A 
ATOM     12  C   UNL d   1       1.781  -1.381  -0.009  0.00  0.00     0.032 A 
ATOM     13  C   UNL d   1       3.007   0.687   0.044  0.00  0.00     0.002 A 
ATOM     14  C   UNL d   1       3.000  -0.701   0.011  0.00  0.00     0.002 A 
ENDROOT
TORSDOF 0
