REMARK  6 active torsions:
REMARK  status: ('A' for Active; 'I' for Inactive)
REMARK    1  A    between atoms: C_3  and  C_1 
REMARK    2  A    between atoms: N_4  and  C_2 
REMARK    3  A    between atoms: O_12  and  C_3 
REMARK       I    between atoms: C_5  and  N_4 
REMARK    4  A    between atoms: C_6  and  C_5 
REMARK    5  A    between atoms: N_11  and  N_7 
REMARK    6  A    between atoms: C_13  and  N_11 
ROOT
ATOM      1  N   UNL d   1       1.341  -2.449  -0.497  0.00  0.00    -0.321 N 
ATOM      2  C   UNL d   1       2.653  -2.541  -0.914  0.00  0.00     0.262 C 
ATOM      3  O   UNL d   1       3.224  -3.548  -1.329  0.00  0.00    -0.267 OA
ATOM      4  H   UNL d   1       1.092  -1.663   0.093  0.00  0.00     0.169 HD
ENDROOT
BRANCH   2   5
ATOM      5  C   UNL d   1       3.487  -1.294  -0.797  0.00  0.00     0.176 C 
ATOM      6  N   UNL d   1       4.542  -1.308  -0.044  0.00  0.00    -0.323 N 
ATOM      7  HN  UNL d   1       4.743  -2.071   0.603  1.00  0.00     0.180 HD
BRANCH   6   8
ATOM      8  N   UNL d   1       5.365  -0.226  -0.182  0.00  0.00    -0.206 NA
ATOM      9  H   UNL d   1       5.540   0.075  -1.143  0.00  0.00     0.153 HD
BRANCH   8  10
ATOM     10  C   UNL d   1       6.604  -0.306   0.515  0.00  0.00     0.027 A 
ATOM     11  C   UNL d   1       7.740   0.341   0.005  0.00  0.00     0.025 A 
ATOM     12  C   UNL d   1       8.960   0.303   0.691  0.00  0.00     0.002 A 
ATOM     13  C   UNL d   1       9.053  -0.357   1.914  0.00  0.00     0.000 A 
ATOM     14  C   UNL d   1       7.926  -0.975   2.453  0.00  0.00     0.002 A 
ATOM     15  C   UNL d   1       6.712  -0.946   1.760  0.00  0.00     0.025 A 
ENDBRANCH   8  10
ENDBRANCH   6   8
ENDBRANCH   2   5
BRANCH   1  16
ATOM     16  C   UNL d   1       0.511  -3.607  -0.450  0.00  0.00     0.052 C 
ATOM     17  C   UNL d   1       0.653  -4.697  -1.331  0.00  0.00     0.064 C 
ATOM     18  C   UNL d   1       0.147  -5.954  -0.980  0.00  0.00     0.020 C 
ATOM     19  C   UNL d   1      -0.622  -6.091   0.175  0.00  0.00     0.001 C 
ATOM     20  C   UNL d   1      -0.951  -4.961   0.923  0.00  0.00     0.002 C 
ATOM     21  C   UNL d   1      -0.387  -3.718   0.614  0.00  0.00     0.030 C 
BRANCH  17  22
ATOM     22  C   UNL d   1       1.064  -4.452  -2.744  0.00  0.00     0.178 C 
ATOM     23  O   UNL d   1       0.712  -3.468  -3.374  0.00  0.00    -0.646 OA
BRANCH  22  24
ATOM     24  O   UNL d   1       1.773  -5.462  -3.287  0.00  0.00    -0.773 OA
ATOM     25  H   UNL d   1       2.253  -5.977  -2.616  0.00  0.00     0.167 HD
ENDBRANCH  22  24
ENDBRANCH  17  22
ENDBRANCH   1  16
TORSDOF 6
