REMARK  6 active torsions:
REMARK  status: ('A' for Active; 'I' for Inactive)
REMARK       I    between atoms: N_6  and  C_1 
REMARK    1  A    between atoms: C_7  and  C_1 
REMARK    2  A    between atoms: O_11  and  C_2 
REMARK    3  A    between atoms: O_12  and  C_3 
REMARK    4  A    between atoms: C_13  and  N_6 
REMARK    5  A    between atoms: C_9  and  C_14 
REMARK    6  A    between atoms: C_14  and  C_13 
ROOT
ATOM      1  C   UNL d   1      -1.095   1.025   0.521  0.00  0.00     0.127 C 
ENDROOT
BRANCH   1   2
ATOM      2  N   UNL d   1       0.355   1.030   0.404  0.00  0.00    -0.360 N 
ATOM      3  C   UNL d   1       0.966   1.543  -0.719  0.00  0.00     0.221 C 
ATOM      4  O   UNL d   1       0.317   1.998  -1.653  0.00  0.00    -0.273 OA
ATOM      5  H   UNL d   1       0.910   0.637   1.152  0.00  0.00     0.162 HD
BRANCH   3   6
ATOM      6  C   UNL d   1       2.500   1.462  -0.723  0.00  0.00     0.078 C 
ATOM      7  C   UNL d   1       3.148   2.245   0.426  0.00  0.00     0.014 C 
ATOM      8  C   UNL d   1       3.025   3.757   0.243  0.00  0.00     0.001 C 
ATOM      9  C   UNL d   1       3.577   4.215  -1.103  0.00  0.00     0.000 C 
ATOM     10  C   UNL d   1       2.968   3.443  -2.268  0.00  0.00     0.001 C 
ATOM     11  C   UNL d   1       3.074   1.929  -2.071  0.00  0.00     0.014 C 
ENDBRANCH   3   6
ENDBRANCH   1   2
BRANCH   1  12
ATOM     12  C   UNL d   1      -1.633   2.338   1.099  0.00  0.00     0.058 C 
BRANCH  12  13
ATOM     13  C   UNL d   1      -3.140   2.348   1.196  0.00  0.00    -0.054 A 
ATOM     14  C   UNL d   1      -3.783   1.856   2.344  0.00  0.00     0.046 A 
ATOM     15  C   UNL d   1      -5.184   1.837   2.452  0.00  0.00     0.102 A 
ATOM     16  C   UNL d   1      -5.952   2.346   1.391  0.00  0.00     0.101 A 
ATOM     17  C   UNL d   1      -5.311   2.813   0.236  0.00  0.00     0.040 A 
ATOM     18  C   UNL d   1      -3.918   2.817   0.136  0.00  0.00     0.010 A 
BRANCH  15  19
ATOM     19  O   UNL d   1      -5.846   1.312   3.530  0.00  0.00    -0.353 OA
ATOM     20  C   UNL d   1      -5.072   0.762   4.587  0.00  0.00     0.210 C 
ENDBRANCH  15  19
BRANCH  16  21
ATOM     21  O   UNL d   1      -7.321   2.396   1.305  0.00  0.00    -0.353 OA
ATOM     22  C   UNL d   1      -8.035   2.600   2.519  0.00  0.00     0.210 C 
ENDBRANCH  16  21
ENDBRANCH  12  13
ENDBRANCH   1  12
TORSDOF 6
