REMARK  5 active torsions:
REMARK  status: ('A' for Active; 'I' for Inactive)
REMARK    1  A    between atoms: N_3  and  C_1 
REMARK    2  A    between atoms: C_6  and  C_2 
REMARK       I    between atoms: N_14  and  C_6 
REMARK    3  A    between atoms: O_16  and  C_11 
REMARK    4  A    between atoms: O_17  and  C_12 
REMARK    5  A    between atoms: N_15  and  N_14 
ROOT
ATOM      1  C   UNL d   1       1.326  -0.283   0.020  0.00  0.00     0.058 A 
ATOM      2  C   UNL d   1       0.469  -1.394   0.111  0.00  0.00     0.063 A 
ATOM      3  C   UNL d   1       0.738   0.994  -0.071  0.00  0.00     0.070 A 
ATOM      4  C   UNL d   1      -0.934  -1.197   0.123  0.00  0.00     0.059 A 
ATOM      5  C   UNL d   1      -0.651   1.183  -0.028  0.00  0.00     0.103 A 
ATOM      6  C   UNL d   1      -1.503   0.076   0.025  0.00  0.00     0.102 A 
ENDROOT
BRANCH   1   7
ATOM      7  N   UNL d   1       2.763  -0.348  -0.012  0.00  0.00    -0.319 N 
ATOM      8  C   UNL d   1       3.634   0.553   0.627  0.00  0.00     0.013 A 
ATOM      9  C   UNL d   1       4.931   0.245   0.269  0.00  0.00     0.027 A 
ATOM     10  C   UNL d   1       3.252   1.627   1.595  0.00  0.00     0.068 C 
ATOM     11  C   UNL d   1       4.889  -0.862  -0.582  0.00  0.00     0.027 A 
ATOM     12  C   UNL d   1       3.564  -1.204  -0.779  0.00  0.00     0.013 A 
ATOM     13  C   UNL d   1       3.102  -2.262  -1.718  0.00  0.00     0.068 C 
ENDBRANCH   1   7
BRANCH   2  14
ATOM     14  C   UNL d   1       0.928  -2.804   0.285  0.00  0.00     0.268 C 
ATOM     15  O   UNL d   1       1.841  -3.087   1.058  0.00  0.00    -0.266 OA
ATOM     16  N   UNL d   1       0.249  -3.733  -0.506  0.00  0.00    -0.290 N 
ATOM     17  H   UNL d   1      -0.515  -3.450  -1.115  0.00  0.00     0.183 HD
BRANCH  16  18
ATOM     18  N   UNL d   1       0.589  -5.097  -0.442  0.00  0.00    -0.247 NA
ATOM     19  H   UNL d   1       1.543  -5.153  -0.060  0.00  0.00     0.143 HD
ATOM     20  H   UNL d   1       0.653  -5.475  -1.389  0.00  0.00     0.143 HD
ENDBRANCH  16  18
ENDBRANCH   2  14
BRANCH   5  21
ATOM     21  O   UNL d   1      -1.030   2.500  -0.096  0.00  0.00    -0.353 OA
ATOM     22  C   UNL d   1      -2.180   2.854   0.670  0.00  0.00     0.210 C 
ENDBRANCH   5  21
BRANCH   6  23
ATOM     23  O   UNL d   1      -2.850   0.304  -0.032  0.00  0.00    -0.353 OA
ATOM     24  C   UNL d   1      -3.717  -0.809  -0.204  0.00  0.00     0.210 C 
ENDBRANCH   6  23
TORSDOF 5
