REMARK  5 active torsions:
REMARK  status: ('A' for Active; 'I' for Inactive)
REMARK    1  A    between atoms: C_6  and  C_1 
REMARK    2  A    between atoms: C_4  and  C_10 
REMARK    3  A    between atoms: C_5  and  C_9 
REMARK       I    between atoms: N_15  and  C_6 
REMARK       I    between atoms: C_12  and  N_17 
REMARK       I    between atoms: N_16  and  C_12 
REMARK    4  A    between atoms: C_14  and  N_16 
REMARK    5  A    between atoms: N_17  and  N_15 
ROOT
ATOM      1  C   UNL d   1      -3.679   3.391   0.090  0.00  0.00     0.339 C 
ATOM      2  N   UNL d   1      -3.676   4.763  -0.076  0.00  0.00    -0.308 N 
ATOM      3  N   UNL d   1      -2.450   2.812  -0.165  0.00  0.00    -0.248 N 
ATOM      4  O   UNL d   1      -4.629   2.687   0.422  0.00  0.00    -0.245 OA
ATOM      5  H   UNL d   1      -2.821   5.177  -0.419  0.00  0.00     0.170 HD
ATOM      6  H   UNL d   1      -1.780   3.253  -0.791  0.00  0.00     0.192 HD
ENDROOT
BRANCH   3   7
ATOM      7  N   UNL d   1      -2.420   1.391  -0.171  0.00  0.00    -0.262 N 
ATOM      8  C   UNL d   1      -1.258   0.764  -0.560  0.00  0.00     0.274 C 
ATOM      9  O   UNL d   1      -0.303   1.436  -0.967  0.00  0.00    -0.266 OA
ATOM     10  H   UNL d   1      -3.244   0.939   0.205  0.00  0.00     0.190 HD
BRANCH   8  11
ATOM     11  C   UNL d   1      -1.200  -0.682  -0.462  0.00  0.00     0.089 A 
ATOM     12  C   UNL d   1      -0.025  -1.396  -0.620  0.00  0.00     0.090 A 
ATOM     13  O   UNL d   1      -0.262  -2.723  -0.484  0.00  0.00    -0.242 OA
ATOM     14  C   UNL d   1       1.378  -1.018  -0.891  0.00  0.00     0.080 C 
ATOM     15  N   UNL d   1      -1.598  -2.924  -0.237  0.00  0.00    -0.265 N 
ATOM     16  C   UNL d   1      -2.165  -1.711  -0.225  0.00  0.00     0.047 A 
ATOM     17  HN  UNL d   1      -2.065  -3.819  -0.091  1.00  0.00     0.194 HD
ATOM     18  C   UNL d   1      -3.631  -1.647  -0.010  0.00  0.00     0.071 C 
ENDBRANCH   8  11
ENDBRANCH   3   7
BRANCH   2  19
ATOM     19  C   UNL d   1      -4.817   5.596  -0.018  0.00  0.00     0.037 A 
ATOM     20  C   UNL d   1      -6.039   5.164   0.500  0.00  0.00     0.045 A 
ATOM     21  C   UNL d   1      -7.205   5.931   0.369  0.00  0.00     0.050 A 
ATOM     22  C   UNL d   1      -7.123   7.188  -0.242  0.00  0.00     0.032 A 
ATOM     23  C   UNL d   1      -5.894   7.674  -0.719  0.00  0.00     0.050 A 
ATOM     24  C   UNL d   1      -4.740   6.878  -0.578  0.00  0.00     0.045 A 
BRANCH  21  25
ATOM     25  C   UNL d   1      -8.518   5.349   0.833  0.00  0.00     0.417 C 
ATOM     26  F   UNL d   1      -9.594   6.110   0.493  0.00  0.00    -0.166 F 
ATOM     27  F   UNL d   1      -8.752   4.117   0.301  0.00  0.00    -0.166 F 
ATOM     28  F   UNL d   1      -8.576   5.195   2.183  0.00  0.00    -0.166 F 
ENDBRANCH  21  25
BRANCH  23  29
ATOM     29  C   UNL d   1      -5.819   9.001  -1.439  0.00  0.00     0.417 C 
ATOM     30  F   UNL d   1      -7.037   9.568  -1.661  0.00  0.00    -0.166 F 
ATOM     31  F   UNL d   1      -5.090   9.927  -0.758  0.00  0.00    -0.166 F 
ATOM     32  F   UNL d   1      -5.234   8.889  -2.663  0.00  0.00    -0.166 F 
ENDBRANCH  23  29
ENDBRANCH   2  19
TORSDOF 5
