REMARK  5 active torsions:
REMARK  status: ('A' for Active; 'I' for Inactive)
REMARK    1  A    between atoms: C_13  and  C_1 
REMARK    2  A    between atoms: C_7  and  N_2 
REMARK    3  A    between atoms: N_12  and  C_14 
REMARK    4  A    between atoms: O_21  and  C_13 
REMARK    5  A    between atoms: C_25  and  O_21 
ROOT
ATOM      1  C   UNL d   1      -0.703  -2.458  -0.065  0.00  0.00     0.141 A 
ATOM      2  N   UNL d   1      -0.226  -3.263   0.909  0.00  0.00    -0.283 N 
ATOM      3  HN  UNL d   1       0.461  -2.911   1.575  1.00  0.00     0.188 HD
ATOM      4  N   UNL d   1      -0.676  -4.563   0.994  0.00  0.00    -0.288 N 
ATOM      5  HN  UNL d   1      -0.335  -5.162   1.746  1.00  0.00     0.188 HD
ATOM      6  C   UNL d   1      -1.564  -5.060   0.101  0.00  0.00     0.097 A 
ATOM      7  C   UNL d   1      -1.559  -2.938  -1.041  0.00  0.00     0.055 A 
ATOM      8  C   UNL d   1      -1.980  -4.263  -0.959  0.00  0.00     0.047 A 
ENDROOT
BRANCH   1   9
ATOM      9  N   UNL d   1      -0.362  -1.081  -0.041  0.00  0.00    -0.247 N 
ATOM     10  C   UNL d   1       0.503  -0.461   0.831  0.00  0.00     0.140 A 
ATOM     11  C   UNL d   1       0.519   0.881   0.498  0.00  0.00     0.101 A 
ATOM     12  C   UNL d   1      -0.397   0.980  -0.572  0.00  0.00     0.132 A 
ATOM     13  N   UNL d   1      -0.923  -0.193  -0.905  0.00  0.00    -0.277 N 
ATOM     14  N   UNL d   1      -0.704   2.113  -1.210  0.00  0.00    -0.384 N 
ATOM     15  HN  UNL d   1      -1.598  -0.385  -1.645  1.00  0.00     0.189 HD
ATOM     16  H   UNL d   1      -1.490   2.129  -1.848  0.00  0.00     0.157 HD
ATOM     17  H   UNL d   1      -0.409   3.021  -0.856  0.00  0.00     0.157 HD
BRANCH  11  18
ATOM     18  C   UNL d   1       1.329   1.935   1.073  0.00  0.00     0.298 C 
ATOM     19  O   UNL d   1       1.266   3.103   0.710  0.00  0.00    -0.259 OA
BRANCH  18  20
ATOM     20  O   UNL d   1       2.229   1.456   1.981  0.00  0.00    -0.318 OA
BRANCH  20  21
ATOM     21  C   UNL d   1       3.373   2.291   2.199  0.00  0.00     0.174 C 
ATOM     22  C   UNL d   1       4.433   1.893   1.187  0.00  0.00     0.034 C 
ENDBRANCH  20  21
ENDBRANCH  18  20
ENDBRANCH  11  18
ENDBRANCH   1   9
BRANCH   6  23
ATOM     23  N   UNL d   1      -2.209  -6.285   0.310  0.00  0.00    -0.268 NA
ATOM     24  C   UNL d   1      -2.188  -6.744   1.699  0.00  0.00     0.097 C 
ATOM     25  C   UNL d   1      -3.333  -7.739   1.872  0.00  0.00     0.019 C 
ATOM     26  C   UNL d   1      -3.214  -8.909   0.883  0.00  0.00    -0.016 C 
ATOM     27  C   UNL d   1      -3.025  -8.403  -0.559  0.00  0.00     0.019 C 
ATOM     28  C   UNL d   1      -4.446  -9.808   0.985  0.00  0.00     0.010 C 
ATOM     29  C   UNL d   1      -1.927  -7.338  -0.668  0.00  0.00     0.097 C 
ENDBRANCH   6  23
TORSDOF 5
