REMARK  2 active torsions:
REMARK  status: ('A' for Active; 'I' for Inactive)
REMARK    1  A    between atoms: C_2  and  N_1 
REMARK    2  A    between atoms: C_9  and  N_3 
ROOT
ATOM      1  C   UNL d   1       1.736  -3.773  -3.049  0.00  0.00     0.140 C 
ATOM      2  C   UNL d   1       1.667  -2.755  -2.169  0.00  0.00     0.143 C 
ATOM      3  C   UNL d   1       2.547  -4.913  -2.822  0.00  0.00     0.112 C 
ATOM      4  C   UNL d   1       0.988  -3.715  -4.257  0.00  0.00     0.112 C 
ATOM      5  N   UNL d   1       3.240  -5.822  -2.609  0.00  0.00    -0.191 NA
ATOM      6  N   UNL d   1       0.398  -3.662  -5.255  0.00  0.00    -0.191 NA
ENDROOT
BRANCH   2   7
ATOM      7  N   UNL d   1       2.309  -2.510  -0.956  0.00  0.00    -0.188 N 
ATOM      8  C   UNL d   1       2.109  -1.433  -0.085  0.00  0.00     0.701 C 
ATOM      9  N   UNL d   1       3.074  -1.173   0.768  0.00  0.00    -0.223 N 
ATOM     10  C   UNL d   1       4.104  -2.206   0.505  0.00  0.00     0.159 C 
ATOM     11  HN  UNL d   1       3.107  -0.424   1.460  1.00  0.00     0.177 HD
ATOM     12  C   UNL d   1       3.518  -3.189  -0.507  0.00  0.00     0.167 C 
BRANCH   8  13
ATOM     13  N   UNL d   1       0.922  -0.653  -0.063  0.00  0.00    -0.091 N 
ATOM     14  N   UNL d   1      -0.265  -1.240  -0.406  0.00  0.00    -0.284 N 
ATOM     15  C   UNL d   1      -1.196  -0.322  -0.129  0.00  0.00     0.025 A 
ATOM     16  HN  UNL d   1      -0.408  -2.175  -0.788  1.00  0.00     0.188 HD
ATOM     17  C   UNL d   1      -2.637  -0.625  -0.304  0.00  0.00     0.070 C 
ATOM     18  C   UNL d   1      -0.621   0.893   0.285  0.00  0.00     0.053 A 
ATOM     19  C   UNL d   1       0.741   0.674   0.297  0.00  0.00     0.050 A 
ATOM     20  C   UNL d   1       1.840   1.637   0.553  0.00  0.00     0.071 C 
ENDBRANCH   8  13
ENDBRANCH   2   7
TORSDOF 2
