REMARK  4 active torsions:
REMARK  status: ('A' for Active; 'I' for Inactive)
REMARK    1  A    between atoms: N_4  and  C_1 
REMARK    2  A    between atoms: N_5  and  C_1 
REMARK    3  A    between atoms: N_2  and  N_4 
REMARK    4  A    between atoms: C_7  and  N_5 
ROOT
ATOM      1  C   UNL d   1       0.852   0.459   0.068  0.00  0.00     0.191 C 
ATOM      2  S   UNL d   1       1.946   1.595   0.618  0.00  0.00    -0.039 SA
ENDROOT
BRANCH   1   3
ATOM      3  N   UNL d   1       0.300   0.414  -1.197  0.00  0.00    -0.276 N 
ATOM      4  H   UNL d   1      -0.535  -0.143  -1.331  0.00  0.00     0.189 HD
BRANCH   3   5
ATOM      5  N   UNL d   1       0.903   0.971  -2.277  0.00  0.00    -0.307 N 
ATOM      6  C   UNL d   1       0.182   1.292  -3.313  0.00  0.00     0.004 C 
ATOM      7  C   UNL d   1       0.934   1.762  -4.547  0.00  0.00     0.054 C 
ATOM      8  C   UNL d   1      -1.335   1.302  -3.375  0.00  0.00     0.054 C 
ATOM      9  C   UNL d   1       0.874   0.700  -5.638  0.00  0.00     0.006 C 
ATOM     10  C   UNL d   1      -0.352   0.795  -6.549  0.00  0.00     0.000 C 
ATOM     11  C   UNL d   1      -1.691   1.108  -5.883  0.00  0.00     0.000 C 
ATOM     12  C   UNL d   1      -1.902   0.460  -4.515  0.00  0.00     0.006 C 
ATOM     13  HN  UNL d   1       1.909   1.136  -2.278  1.00  0.00     0.186 HD
ENDBRANCH   3   5
ENDBRANCH   1   3
BRANCH   1  14
ATOM     14  N   UNL d   1       0.335  -0.455   0.962  0.00  0.00    -0.332 N 
ATOM     15  H   UNL d   1       0.437  -0.198   1.937  0.00  0.00     0.168 HD
BRANCH  14  16
ATOM     16  C   UNL d   1      -0.091  -1.770   0.690  0.00  0.00     0.035 A 
ATOM     17  C   UNL d   1       0.366  -2.490  -0.419  0.00  0.00     0.053 A 
ATOM     18  C   UNL d   1      -0.075  -3.795  -0.632  0.00  0.00     0.036 A 
ATOM     19 CL   UNL d   1       0.511  -4.685  -1.984  0.00  0.00    -0.084 Cl
ATOM     20  C   UNL d   1      -0.980  -4.388   0.245  0.00  0.00     0.024 A 
ATOM     21  C   UNL d   1      -1.416  -3.683   1.367  0.00  0.00     0.004 A 
ATOM     22  C   UNL d   1      -0.953  -2.386   1.602  0.00  0.00     0.029 A 
ENDBRANCH  14  16
ENDBRANCH   1  14
TORSDOF 4
