REMARK  3 active torsions:
REMARK  status: ('A' for Active; 'I' for Inactive)
REMARK    1  A    between atoms: N_10  and  C_3 
REMARK    2  A    between atoms: N_11  and  C_6 
REMARK    3  A    between atoms: C_12  and  N_10 
ROOT
ATOM      1  N   UNL d   1      -0.090  -1.239   0.063  0.00  0.00    -0.166 N 
ATOM      2  HN  UNL d   1      -0.529  -2.159   0.094  1.00  0.00     0.187 HD
ATOM      3  C   UNL d   1      -0.810  -0.125  -0.021  0.00  0.00     0.685 A 
ATOM      4  N   UNL d   1      -0.277   1.090  -0.093  0.00  0.00    -0.188 N 
ATOM      5  HN  UNL d   1      -0.840   1.936  -0.177  1.00  0.00     0.185 HD
ATOM      6  C   UNL d   1       1.222  -1.095   0.103  0.00  0.00     0.170 A 
ATOM      7  N   UNL d   1       1.857   0.060   0.039  0.00  0.00    -0.328 N 
ATOM      8  HN  UNL d   1       2.874   0.137   0.053  1.00  0.00     0.169 HD
ATOM      9  C   UNL d   1       1.053   1.114  -0.046  0.00  0.00     0.200 A 
ENDROOT
BRANCH   3  10
ATOM     10  N   UNL d   1      -2.203  -0.195  -0.090  0.00  0.00    -0.192 N 
ATOM     11  H   UNL d   1      -2.602   0.715  -0.267  0.00  0.00     0.184 HD
BRANCH  10  12
ATOM     12  C   UNL d   1      -3.083  -1.266   0.110  0.00  0.00     0.049 A 
ATOM     13  C   UNL d   1      -2.708  -2.448   0.763  0.00  0.00     0.031 A 
ATOM     14  C   UNL d   1      -3.579  -3.537   0.864  0.00  0.00     0.020 A 
ATOM     15  C   UNL d   1      -4.846  -3.458   0.299  0.00  0.00     0.006 A 
ATOM     16  C   UNL d   1      -5.248  -2.296  -0.354  0.00  0.00     0.020 A 
ATOM     17  I   UNL d   1      -6.130  -5.085   0.422  0.00  0.00    -0.045 I 
ATOM     18  C   UNL d   1      -4.369  -1.209  -0.448  0.00  0.00     0.031 A 
ENDBRANCH  10  12
ENDBRANCH   3  10
BRANCH   6  19
ATOM     19  N   UNL d   1       1.973  -2.251   0.174  0.00  0.00    -0.273 NA
ATOM     20  H   UNL d   1       1.430  -3.028  -0.181  0.00  0.00     0.127 HD
ATOM     21  H   UNL d   1       2.885  -2.104  -0.234  0.00  0.00     0.127 HD
ENDBRANCH   6  19
TORSDOF 3
