REMARK  8 active torsions:
REMARK  status: ('A' for Active; 'I' for Inactive)
REMARK    1  A    between atoms: N_6  and  C_1 
REMARK    2  A    between atoms: C_7  and  C_2 
REMARK       I    between atoms: C_8  and  N_6 
REMARK    3  A    between atoms: O_15  and  C_7 
REMARK    4  A    between atoms: C_13  and  C_8 
REMARK    5  A    between atoms: C_9  and  C_14 
REMARK    6  A    between atoms: O_16  and  C_9 
REMARK    7  A    between atoms: C_14  and  C_13 
REMARK    8  A    between atoms: C_19  and  O_15 
ROOT
ATOM      1  C   UNL d   1      -2.158  -0.786  -0.018  0.00  0.00     0.094 A 
ATOM      2  C   UNL d   1      -1.067  -1.655  -0.049  0.00  0.00     0.080 A 
ATOM      3  S   UNL d   1      -1.685   0.845  -0.038  0.00  0.00    -0.075 SA
ATOM      4  C   UNL d   1       0.179  -0.912  -0.049  0.00  0.00    -0.026 A 
ATOM      5  C   UNL d   1      -0.044   0.453  -0.051  0.00  0.00    -0.008 A 
ATOM      6  C   UNL d   1       1.586  -1.455  -0.042  0.00  0.00     0.041 C 
ATOM      7  C   UNL d   1       1.005   1.518  -0.006  0.00  0.00     0.047 C 
ATOM      8  C   UNL d   1       2.613  -0.400   0.395  0.00  0.00     0.005 C 
ATOM      9  C   UNL d   1       2.389   0.937  -0.319  0.00  0.00     0.005 C 
ENDROOT
BRANCH   1  10
ATOM     10  N   UNL d   1      -3.504  -1.133   0.054  0.00  0.00    -0.320 N 
ATOM     11  C   UNL d   1      -4.579  -0.267   0.010  0.00  0.00     0.223 C 
ATOM     12  O   UNL d   1      -4.559   0.952  -0.146  0.00  0.00    -0.273 OA
ATOM     13  H   UNL d   1      -3.684  -2.137   0.076  0.00  0.00     0.169 HD
BRANCH  11  14
ATOM     14  C   UNL d   1      -5.926  -0.960   0.069  0.00  0.00     0.113 C 
BRANCH  14  15
ATOM     15  C   UNL d   1      -6.795  -0.440  -1.069  0.00  0.00     0.119 C 
BRANCH  15  16
ATOM     16  C   UNL d   1      -6.166  -0.777  -2.397  0.00  0.00     0.139 C 
ATOM     17  O   UNL d   1      -6.354  -1.833  -2.980  0.00  0.00    -0.650 OA
BRANCH  16  18
ATOM     18  O   UNL d   1      -5.315   0.168  -2.852  0.00  0.00    -0.776 OA
ATOM     19  H   UNL d   1      -5.159   0.912  -2.226  0.00  0.00     0.167 HD
ENDBRANCH  16  18
ENDBRANCH  15  16
ENDBRANCH  14  15
ENDBRANCH  11  14
ENDBRANCH   1  10
BRANCH   2  20
ATOM     20  C   UNL d   1      -1.237  -3.110  -0.028  0.00  0.00     0.296 C 
ATOM     21  O   UNL d   1      -2.326  -3.655   0.113  0.00  0.00    -0.259 OA
BRANCH  20  22
ATOM     22  O   UNL d   1      -0.047  -3.777  -0.085  0.00  0.00    -0.318 OA
BRANCH  22  23
ATOM     23  C   UNL d   1      -0.042  -5.118   0.423  0.00  0.00     0.174 C 
ATOM     24  C   UNL d   1       0.145  -5.054   1.929  0.00  0.00     0.034 C 
ENDBRANCH  22  23
ENDBRANCH  20  22
ENDBRANCH   2  20
TORSDOF 8
