REMARK  6 active torsions:
REMARK  status: ('A' for Active; 'I' for Inactive)
REMARK    1  A    between atoms: C_4  and  C_1 
REMARK    2  A    between atoms: C_5  and  C_2 
REMARK    3  A    between atoms: N_17  and  C_3 
REMARK    4  A    between atoms: C_6  and  C_12 
REMARK    5  A    between atoms: C_7  and  C_11 
REMARK    6  A    between atoms: C_13  and  C_10 
ROOT
ATOM      1  C   UNL d   1       0.353  -1.219  -0.012  0.00  0.00     0.075 A 
ATOM      2  C   UNL d   1       0.341   1.198   0.002  0.00  0.00     0.075 A 
ATOM      3  C   UNL d   1       1.070  -0.008  -0.014  0.00  0.00     0.056 A 
ATOM      4  C   UNL d   1      -1.078   1.172  -0.011  0.00  0.00     0.030 A 
ATOM      5  C   UNL d   1      -1.062  -1.204  -0.056  0.00  0.00     0.030 A 
ATOM      6  C   UNL d   1      -1.811  -0.020  -0.047  0.00  0.00    -0.024 A 
ENDROOT
BRANCH   6   7
ATOM      7  C   UNL d   1      -3.295  -0.037  -0.085  0.00  0.00    -0.024 A 
ATOM      8  C   UNL d   1      -4.029   0.981  -0.722  0.00  0.00     0.028 A 
ATOM      9  C   UNL d   1      -5.435   0.958  -0.800  0.00  0.00     0.049 A 
ATOM     10  C   UNL d   1      -6.130  -0.117  -0.231  0.00  0.00     0.032 A 
ATOM     11  C   UNL d   1      -5.439  -1.156   0.404  0.00  0.00     0.049 A 
ATOM     12  C   UNL d   1      -4.035  -1.091   0.486  0.00  0.00     0.028 A 
BRANCH   9  13
ATOM     13  C   UNL d   1      -6.164   2.071  -1.517  0.00  0.00     0.417 C 
ATOM     14  F   UNL d   1      -7.511   1.887  -1.579  0.00  0.00    -0.166 F 
ATOM     15  F   UNL d   1      -5.976   3.281  -0.923  0.00  0.00    -0.166 F 
ATOM     16  F   UNL d   1      -5.746   2.215  -2.804  0.00  0.00    -0.166 F 
ENDBRANCH   9  13
BRANCH  11  17
ATOM     17  C   UNL d   1      -6.166  -2.356   0.966  0.00  0.00     0.417 C 
ATOM     18  F   UNL d   1      -7.517  -2.292   0.818  0.00  0.00    -0.166 F 
ATOM     19  F   UNL d   1      -5.779  -3.515   0.364  0.00  0.00    -0.166 F 
ATOM     20  F   UNL d   1      -5.939  -2.530   2.296  0.00  0.00    -0.166 F 
ENDBRANCH  11  17
ENDBRANCH   6   7
BRANCH   2  21
ATOM     21  C   UNL d   1       0.992   2.564  -0.002  0.00  0.00     0.419 C 
ATOM     22  F   UNL d   1       2.355   2.553  -0.064  0.00  0.00    -0.166 F 
ATOM     23  F   UNL d   1       0.592   3.312  -1.073  0.00  0.00    -0.166 F 
ATOM     24  F   UNL d   1       0.672   3.301   1.098  0.00  0.00    -0.166 F 
ENDBRANCH   2  21
BRANCH   1  25
ATOM     25  C   UNL d   1       1.011  -2.580   0.023  0.00  0.00     0.419 C 
ATOM     26  F   UNL d   1       2.373  -2.565  -0.053  0.00  0.00    -0.166 F 
ATOM     27  F   UNL d   1       0.706  -3.276   1.154  0.00  0.00    -0.166 F 
ATOM     28  F   UNL d   1       0.603  -3.370  -1.013  0.00  0.00    -0.166 F 
ENDBRANCH   1  25
BRANCH   3  29
ATOM     29  N   UNL d   1       2.451  -0.003   0.201  0.00  0.00    -0.398 N 
ATOM     30  H   UNL d   1       2.957   0.844  -0.063  0.00  0.00     0.156 HD
ATOM     31  H   UNL d   1       2.965  -0.844  -0.070  0.00  0.00     0.156 HD
ENDBRANCH   3  29
TORSDOF 6
