REMARK  2 active torsions:
REMARK  status: ('A' for Active; 'I' for Inactive)
REMARK    1  A    between atoms: C_3  and  C_1 
REMARK    2  A    between atoms: N_8  and  C_2 
REMARK       I    between atoms: C_13  and  N_8 
ROOT
ATOM      1  C   UNL d   1      -3.904  -2.344   0.892  0.00  0.00     0.090 A 
ATOM      2  C   UNL d   1      -3.368  -1.447  -0.026  0.00  0.00     0.038 A 
ATOM      3  S   UNL d   1      -5.494  -2.784   0.486  0.00  0.00    -0.083 SA
ATOM      4  C   UNL d   1      -4.303  -1.127  -1.084  0.00  0.00    -0.040 A 
ATOM      5  C   UNL d   1      -5.500  -1.793  -0.894  0.00  0.00     0.059 A 
ATOM      6  C   UNL d   1      -4.063  -0.254  -2.276  0.00  0.00     0.049 C 
ENDROOT
BRANCH   2   7
ATOM      7  C   UNL d   1      -1.978  -0.853   0.100  0.00  0.00     0.089 A 
ATOM      8  N   UNL d   1      -1.702   0.360  -0.332  0.00  0.00    -0.349 N 
ATOM      9  C   UNL d   1      -0.404   0.709   0.009  0.00  0.00     0.050 A 
ATOM     10  HN  UNL d   1      -2.351   0.958  -0.844  1.00  0.00     0.166 HD
ATOM     11  C   UNL d   1       0.200   1.965  -0.197  0.00  0.00     0.031 A 
ATOM     12  C   UNL d   1       0.341  -0.298   0.622  0.00  0.00     0.033 A 
ATOM     13  C   UNL d   1       1.526   2.172   0.200  0.00  0.00     0.002 A 
ATOM     14  C   UNL d   1       2.258   1.141   0.780  0.00  0.00     0.002 A 
ATOM     15  C   UNL d   1       1.681  -0.112   0.997  0.00  0.00     0.021 A 
ATOM     16  S   UNL d   1      -0.653  -1.681   0.825  0.00  0.00    -0.069 SA
ENDBRANCH   2   7
BRANCH   1  17
ATOM     17  N   UNL d   1      -3.310  -2.825   2.052  0.00  0.00    -0.321 N 
ATOM     18  C   UNL d   1      -3.849  -3.688   2.989  0.00  0.00     0.218 C 
ATOM     19  O   UNL d   1      -4.957  -4.209   2.987  0.00  0.00    -0.274 OA
ATOM     20  C   UNL d   1      -2.893  -3.970   4.123  0.00  0.00     0.117 C 
ATOM     21  H   UNL d   1      -2.373  -2.485   2.227  0.00  0.00     0.169 HD
ENDBRANCH   1  17
TORSDOF 2
