REMARK  4 active torsions:
REMARK  status: ('A' for Active; 'I' for Inactive)
REMARK    1  A    between atoms: C_2  and  S_1 
REMARK    2  A    between atoms: C_6  and  S_1 
REMARK    3  A    between atoms: N_5  and  C_3 
REMARK       I    between atoms: C_4  and  N_5 
REMARK       I    between atoms: N_12  and  C_4 
REMARK    4  A    between atoms: C_17  and  N_12 
ROOT
ATOM      1  C   UNL d   1       2.288  -0.950  -0.834  0.00  0.00     0.098 A 
ATOM      2  C   UNL d   1       2.466  -2.329  -0.434  0.00  0.00     0.065 A 
ATOM      3  S   UNL d   1       1.286  -2.378  -2.736  0.00  0.00    -0.110 SA
ATOM      4  C   UNL d   1       1.723  -0.854  -2.095  0.00  0.00     0.075 A 
ATOM      5  C   UNL d   1       1.890  -3.182  -1.360  0.00  0.00     0.080 A 
ENDROOT
BRANCH   2   6
ATOM      6  N   UNL d   1       3.103  -2.808   0.729  0.00  0.00    -0.307 N 
ATOM      7  C   UNL d   1       3.979  -3.867   0.617  0.00  0.00     0.325 C 
ATOM      8  N   UNL d   1       4.886  -4.037   1.614  0.00  0.00    -0.309 N 
ATOM      9  O   UNL d   1       4.150  -4.537  -0.403  0.00  0.00    -0.247 OA
ATOM     10  H   UNL d   1       5.706  -4.515   1.256  0.00  0.00     0.170 HD
ATOM     11  H   UNL d   1       3.330  -2.117   1.440  0.00  0.00     0.170 HD
BRANCH   8  12
ATOM     12  C   UNL d   1       4.825  -3.957   3.010  0.00  0.00     0.036 A 
ATOM     13  C   UNL d   1       3.647  -4.025   3.749  0.00  0.00     0.029 A 
ATOM     14  C   UNL d   1       3.720  -4.122   5.148  0.00  0.00     0.002 A 
ATOM     15  C   UNL d   1       4.956  -4.110   5.802  0.00  0.00     0.000 A 
ATOM     16  C   UNL d   1       6.129  -4.018   5.063  0.00  0.00     0.002 A 
ATOM     17  C   UNL d   1       6.061  -3.960   3.671  0.00  0.00     0.029 A 
ENDBRANCH   8  12
ENDBRANCH   2   6
BRANCH   1  18
ATOM     18  S   UNL d   1       2.544   0.451   0.162  0.00  0.00     0.209 S 
ATOM     19  O   UNL d   1       2.853  -0.117   1.468  0.00  0.00    -0.217 OA
ATOM     20  O   UNL d   1       1.348   1.234  -0.044  0.00  0.00    -0.217 OA
BRANCH  18  21
ATOM     21  C   UNL d   1       3.933   1.481  -0.299  0.00  0.00     0.064 A 
ATOM     22  C   UNL d   1       3.716   2.610  -1.107  0.00  0.00     0.025 A 
ATOM     23  C   UNL d   1       4.634   3.671  -1.110  0.00  0.00     0.025 A 
ATOM     24  C   UNL d   1       5.771   3.616  -0.304  0.00  0.00     0.034 A 
ATOM     25  C   UNL d   1       6.013   2.488   0.476  0.00  0.00     0.025 A 
ATOM     26 CL   UNL d   1       6.823   4.973  -0.202  0.00  0.00    -0.084 Cl
ATOM     27  C   UNL d   1       5.104   1.420   0.478  0.00  0.00     0.025 A 
ENDBRANCH  18  21
ENDBRANCH   1  18
TORSDOF 4
