REMARK  6 active torsions:
REMARK  status: ('A' for Active; 'I' for Inactive)
REMARK    1  A    between atoms: C_9  and  C_1 
REMARK    2  A    between atoms: C_12  and  N_4 
REMARK    3  A    between atoms: C_8  and  C_11 
REMARK    4  A    between atoms: C_10  and  C_18 
REMARK    5  A    between atoms: C_13  and  C_12 
REMARK       I    between atoms: N_19  and  C_13 
REMARK    6  A    between atoms: N_14  and  N_19 
ROOT
ATOM      1  C   UNL d   1      -0.357  -1.151   1.638  0.00  0.00     0.145 A 
ATOM      2  N   UNL d   1       0.658  -0.297   1.882  0.00  0.00    -0.268 N 
ATOM      3  HN  UNL d   1       1.140  -0.085   2.756  1.00  0.00     0.190 HD
ATOM      4  N   UNL d   1       0.855   0.197   0.639  0.00  0.00    -0.207 N 
ATOM      5  N   UNL d   1      -0.699  -1.192   0.309  0.00  0.00    -0.266 N 
ATOM      6  HN  UNL d   1      -1.411  -1.786  -0.116  1.00  0.00     0.186 HD
ATOM      7  N   UNL d   1       0.070  -0.315  -0.318  0.00  0.00    -0.002 NA
ENDROOT
BRANCH   4   8
ATOM      8  C   UNL d   1       1.838   1.213   0.366  0.00  0.00     0.271 C 
BRANCH   8   9
ATOM      9  C   UNL d   1       3.153   0.572   0.027  0.00  0.00     0.257 C 
ATOM     10  N   UNL d   1       3.751  -0.088   1.099  0.00  0.00    -0.269 N 
ATOM     11  H   UNL d   1       3.249  -0.187   1.979  0.00  0.00     0.190 HD
ATOM     12  O   UNL d   1       3.632   0.661  -1.103  0.00  0.00    -0.270 OA
BRANCH  10  13
ATOM     13  N   UNL d   1       4.731  -0.986   0.811  0.00  0.00    -0.308 N 
ATOM     14  C   UNL d   1       5.169  -1.697   1.797  0.00  0.00     0.122 C 
ATOM     15  HN  UNL d   1       5.101  -1.092  -0.134  1.00  0.00     0.186 HD
BRANCH  14  16
ATOM     16  C   UNL d   1       6.048  -2.849   1.529  0.00  0.00     0.024 A 
ATOM     17  C   UNL d   1       7.111  -2.780   0.616  0.00  0.00     0.047 A 
ATOM     18 CL   UNL d   1       7.704  -1.291  -0.029  0.00  0.00    -0.083 Cl
ATOM     19  C   UNL d   1       7.779  -3.949   0.234  0.00  0.00     0.025 A 
ATOM     20  C   UNL d   1       7.405  -5.182   0.767  0.00  0.00     0.003 A 
ATOM     21  C   UNL d   1       6.383  -5.247   1.711  0.00  0.00     0.025 A 
ATOM     22  C   UNL d   1       5.708  -4.085   2.098  0.00  0.00     0.047 A 
ATOM     23 CL   UNL d   1       4.423  -4.262   3.247  0.00  0.00    -0.083 Cl
ENDBRANCH  14  16
ENDBRANCH  10  13
ENDBRANCH   8   9
ENDBRANCH   4   8
BRANCH   1  24
ATOM     24  C   UNL d   1      -0.997  -1.990   2.646  0.00  0.00     0.025 A 
ATOM     25  C   UNL d   1      -2.339  -2.422   2.546  0.00  0.00     0.061 A 
ATOM     26  C   UNL d   1      -2.848  -3.307   3.521  0.00  0.00     0.017 A 
ATOM     27  C   UNL d   1      -2.063  -3.732   4.591  0.00  0.00     0.001 A 
ATOM     28  C   UNL d   1      -0.761  -3.271   4.715  0.00  0.00     0.001 A 
ATOM     29  C   UNL d   1      -0.230  -2.412   3.751  0.00  0.00     0.016 A 
BRANCH  25  30
ATOM     30  C   UNL d   1      -3.268  -1.965   1.443  0.00  0.00     0.418 C 
ATOM     31  F   UNL d   1      -3.169  -0.639   1.155  0.00  0.00    -0.166 F 
ATOM     32  F   UNL d   1      -3.084  -2.644   0.280  0.00  0.00    -0.166 F 
ATOM     33  F   UNL d   1      -4.585  -2.151   1.763  0.00  0.00    -0.166 F 
ENDBRANCH  25  30
ENDBRANCH   1  24
TORSDOF 6
