REMARK  2 active torsions:
REMARK  status: ('A' for Active; 'I' for Inactive)
REMARK    1  A    between atoms: N_2  and  C_1 
REMARK       I    between atoms: C_3  and  N_2 
REMARK       I    between atoms: N_8  and  C_3 
REMARK    2  A    between atoms: C_11  and  N_8 
ROOT
ATOM      1  N   UNL d   1      -0.369  -2.802   0.328  0.00  0.00    -0.293 N 
ATOM      2  C   UNL d   1      -1.477  -3.562   0.656  0.00  0.00     0.326 C 
ATOM      3  N   UNL d   1      -2.619  -2.974   0.127  0.00  0.00    -0.309 N 
ATOM      4  O   UNL d   1      -1.448  -4.605   1.297  0.00  0.00    -0.247 OA
ATOM      5  H   UNL d   1      -0.538  -1.806   0.258  0.00  0.00     0.172 HD
ATOM      6  H   UNL d   1      -2.447  -2.319  -0.622  0.00  0.00     0.170 HD
ENDROOT
BRANCH   1   7
ATOM      7  C   UNL d   1       0.957  -3.183   0.432  0.00  0.00     0.126 A 
ATOM      8  N   UNL d   1       1.518  -4.443   0.498  0.00  0.00    -0.281 N 
ATOM      9  N   UNL d   1       2.874  -4.410   0.543  0.00  0.00    -0.308 N 
ATOM     10  C   UNL d   1       0.906  -5.748   0.413  0.00  0.00     0.179 C 
ATOM     11  C   UNL d   1       3.173  -3.115   0.495  0.00  0.00     0.111 A 
ATOM     12  HN  UNL d   1       3.517  -5.199   0.600  1.00  0.00     0.186 HD
ATOM     13  C   UNL d   1       2.029  -2.311   0.419  0.00  0.00     0.068 A 
ENDBRANCH   1   7
BRANCH   3  14
ATOM     14  C   UNL d   1      -3.946  -3.429   0.265  0.00  0.00     0.037 A 
ATOM     15  C   UNL d   1      -4.890  -2.955  -0.655  0.00  0.00     0.048 A 
ATOM     16  C   UNL d   1      -6.210  -3.407  -0.598  0.00  0.00     0.013 A 
ATOM     17 BR   UNL d   1      -7.461  -2.807  -1.884  0.00  0.00    -0.051 Br
ATOM     18  C   UNL d   1      -6.610  -4.306   0.385  0.00  0.00     0.019 A 
ATOM     19  C   UNL d   1      -5.682  -4.750   1.325  0.00  0.00     0.004 A 
ATOM     20  C   UNL d   1      -4.355  -4.313   1.265  0.00  0.00     0.029 A 
ENDBRANCH   3  14
TORSDOF 2
