REMARK  5 active torsions:
REMARK  status: ('A' for Active; 'I' for Inactive)
REMARK    1  A    between atoms: C_2  and  S_1 
REMARK    2  A    between atoms: N_9  and  S_1 
REMARK    3  A    between atoms: C_10  and  C_3 
REMARK    4  A    between atoms: C_5  and  C_11 
REMARK    5  A    between atoms: O_25  and  C_24 
ROOT
ATOM      1  C   UNL d   1       0.593   0.636  -1.693  0.00  0.00     0.121 A 
ATOM      2  S   UNL d   1      -0.884   1.492  -1.735  0.00  0.00    -0.074 SA
ATOM      3  C   UNL d   1      -0.817   1.665  -3.432  0.00  0.00     0.035 A 
ATOM      4  C   UNL d   1       1.156   0.534  -2.951  0.00  0.00     0.034 A 
ATOM      5  C   UNL d   1       0.340   1.129  -3.957  0.00  0.00     0.023 A 
ENDROOT
BRANCH   1   6
ATOM      6  S   UNL d   1       1.114  -0.014  -0.114  0.00  0.00     0.267 S 
ATOM      7  O   UNL d   1       0.558   0.855   0.901  0.00  0.00    -0.200 OA
ATOM      8  O   UNL d   1       2.541  -0.190  -0.263  0.00  0.00    -0.200 OA
BRANCH   6   9
ATOM      9  N   UNL d   1       0.404  -1.561   0.033  0.00  0.00    -0.306 N 
ATOM     10  C   UNL d   1      -1.054  -1.597   0.287  0.00  0.00     0.138 C 
ATOM     11  C   UNL d   1      -1.421  -2.964   0.855  0.00  0.00     0.052 C 
ATOM     12  C   UNL d   1      -0.961  -4.105  -0.052  0.00  0.00     0.121 C 
ATOM     13  C   UNL d   1       0.502  -3.961  -0.470  0.00  0.00     0.052 C 
ATOM     14  C   UNL d   1       0.826  -2.560  -0.979  0.00  0.00     0.138 C 
BRANCH  12  15
ATOM     15  O   UNL d   1      -1.804  -4.204  -1.199  0.00  0.00    -0.395 OA
ATOM     16  H   UNL d   1      -1.743  -3.393  -1.727  0.00  0.00     0.210 HD
ENDBRANCH  12  15
ENDBRANCH   6   9
ENDBRANCH   1   6
BRANCH   3  17
ATOM     17  C   UNL d   1      -1.900   2.293  -4.252  0.00  0.00     0.074 A 
ATOM     18  C   UNL d   1      -3.093   2.874  -3.768  0.00  0.00     0.077 A 
ATOM     19  C   UNL d   1      -3.780   3.240  -4.902  0.00  0.00     0.184 A 
ATOM     20  O   UNL d   1      -3.037   2.922  -5.995  0.00  0.00    -0.233 OA
ATOM     21  N   UNL d   1      -1.852   2.333  -5.590  0.00  0.00    -0.260 N 
ATOM     22  HN  UNL d   1      -1.097   1.996  -6.188  1.00  0.00     0.195 HD
BRANCH  19  23
ATOM     23  C   UNL d   1      -5.092   3.857  -5.152  0.00  0.00     0.441 C 
ATOM     24  F   UNL d   1      -5.737   4.143  -3.990  0.00  0.00    -0.164 F 
ATOM     25  F   UNL d   1      -4.992   5.023  -5.840  0.00  0.00    -0.164 F 
ATOM     26  F   UNL d   1      -5.914   3.043  -5.861  0.00  0.00    -0.164 F 
ENDBRANCH  19  23
ENDBRANCH   3  17
TORSDOF 5
