REMARK  6 active torsions:
REMARK  status: ('A' for Active; 'I' for Inactive)
REMARK    1  A    between atoms: C_6  and  C_1 
REMARK    2  A    between atoms: N_4  and  C_16 
REMARK    3  A    between atoms: C_14  and  N_5 
REMARK       I    between atoms: C_13  and  N_17 
REMARK    4  A    between atoms: C_15  and  C_13 
REMARK    5  A    between atoms: C_16  and  C_15 
REMARK    6  A    between atoms: N_17  and  C_24 
ROOT
ATOM      1  C   UNL d   1       6.529   1.073  -3.348  0.00  0.00     0.056 A 
ATOM      2  C   UNL d   1       5.302   0.820  -2.712  0.00  0.00     0.034 A 
ATOM      3  C   UNL d   1       7.476   1.874  -2.710  0.00  0.00     0.034 A 
ATOM      4  C   UNL d   1       5.950   2.253  -0.860  0.00  0.00     0.034 A 
ATOM      5  C   UNL d   1       5.020   1.397  -1.474  0.00  0.00     0.032 A 
ATOM      6  C   UNL d   1       7.180   2.455  -1.479  0.00  0.00     0.032 A 
ENDROOT
BRANCH   4   7
ATOM      7  N   UNL d   1       5.582   2.855   0.357  0.00  0.00    -0.327 N 
ATOM      8  C   UNL d   1       6.278   3.842   1.026  0.00  0.00     0.223 C 
ATOM      9  O   UNL d   1       7.345   4.342   0.668  0.00  0.00    -0.273 OA
ATOM     10  H   UNL d   1       4.680   2.593   0.739  0.00  0.00     0.169 HD
BRANCH   8  11
ATOM     11  C   UNL d   1       5.646   4.309   2.298  0.00  0.00     0.123 C 
BRANCH  11  12
ATOM     12  C   UNL d   1       5.390   5.816   2.210  0.00  0.00     0.138 C 
BRANCH  12  13
ATOM     13  N   UNL d   1       4.039   6.247   1.809  0.00  0.00    -0.355 N 
ATOM     14  C   UNL d   1       3.698   7.584   1.942  0.00  0.00     0.099 C 
ATOM     15  C   UNL d   1       2.700   7.632   2.908  0.00  0.00    -0.034 C 
ATOM     16  C   UNL d   1       1.998   8.844   3.393  0.00  0.00     0.050 C 
ATOM     17  C   UNL d   1       2.412   6.276   3.252  0.00  0.00    -0.002 C 
ATOM     18  C   UNL d   1       2.912   5.535   2.188  0.00  0.00     0.045 C 
ATOM     19  C   UNL d   1       1.687   5.598   4.244  0.00  0.00     0.014 C 
ATOM     20  C   UNL d   1       2.400   4.291   1.822  0.00  0.00     0.030 C 
ATOM     21  C   UNL d   1       1.580   3.669   2.764  0.00  0.00     0.002 C 
ATOM     22  C   UNL d   1       1.322   4.268   4.000  0.00  0.00     0.001 C 
ENDBRANCH  12  13
ENDBRANCH  11  12
ENDBRANCH   8  11
ENDBRANCH   4   7
BRANCH   1  23
ATOM     23  N   UNL d   1       6.766   0.561  -4.652  0.00  0.00    -0.267 N 
ATOM     24  N   UNL d   1       5.775  -0.054  -5.343  0.00  0.00    -0.290 N 
ATOM     25  C   UNL d   1       6.266  -0.244  -6.582  0.00  0.00     0.134 A 
ATOM     26  HN  UNL d   1       4.852  -0.316  -4.997  1.00  0.00     0.187 HD
ATOM     27  C   UNL d   1       7.621   0.163  -6.652  0.00  0.00     0.055 A 
ATOM     28  C   UNL d   1       7.915   0.654  -5.403  0.00  0.00     0.119 A 
BRANCH  25  29
ATOM     29  C   UNL d   1       5.444  -0.795  -7.713  0.00  0.00     0.434 C 
ATOM     30  F   UNL d   1       4.256  -1.323  -7.318  0.00  0.00    -0.165 F 
ATOM     31  F   UNL d   1       5.160   0.166  -8.633  0.00  0.00    -0.165 F 
ATOM     32  F   UNL d   1       6.106  -1.780  -8.380  0.00  0.00    -0.165 F 
ENDBRANCH  25  29
ENDBRANCH   1  23
TORSDOF 6
