REMARK  1 active torsions:
REMARK  status: ('A' for Active; 'I' for Inactive)
REMARK       I    between atoms: N_2  and  C_1 
REMARK    1  A    between atoms: C_5  and  C_1 
REMARK       I    between atoms: C_3  and  N_2 
REMARK       I    between atoms: N_4  and  C_3 
ROOT
ATOM      1  C   UNL d   1       1.118  -0.269  -0.061  0.00  0.00     0.265 C 
ATOM      2  N   UNL d   1       0.692   0.360   1.099  0.00  0.00    -0.275 N 
ATOM      3  C   UNL d   1       1.232   0.149   2.350  0.00  0.00     0.325 C 
ATOM      4  N   UNL d   1       0.739   0.963   3.360  0.00  0.00    -0.324 N 
ATOM      5  C   UNL d   1      -0.430   1.809   3.292  0.00  0.00     0.201 C 
ATOM      6  O   UNL d   1       1.855  -1.246  -0.113  0.00  0.00    -0.267 OA
ATOM      7  O   UNL d   1       2.093  -0.690   2.594  0.00  0.00    -0.247 OA
ATOM      8  S   UNL d   1      -0.544   2.710   4.852  0.00  0.00    -0.147 SA
ATOM      9  C   UNL d   1       1.164   0.692   4.727  0.00  0.00     0.138 C 
ATOM     10  C   UNL d   1       0.916   1.925   5.577  0.00  0.00     0.095 C 
ATOM     11  H   UNL d   1       0.033   1.110   0.997  0.00  0.00     0.173 HD
ENDROOT
BRANCH   1  12
ATOM     12  C   UNL d   1       0.579   0.271  -1.333  0.00  0.00     0.109 A 
ATOM     13  C   UNL d   1       1.333   0.172  -2.504  0.00  0.00     0.135 A 
ATOM     14  F   UNL d   1       2.574  -0.335  -2.493  0.00  0.00    -0.205 F 
ATOM     15  C   UNL d   1       0.835   0.635  -3.723  0.00  0.00     0.043 A 
ATOM     16  C   UNL d   1      -0.436   1.203  -3.788  0.00  0.00     0.006 A 
ATOM     17  C   UNL d   1      -1.198   1.317  -2.625  0.00  0.00     0.043 A 
ATOM     18  C   UNL d   1      -0.685   0.856  -1.411  0.00  0.00     0.135 A 
ATOM     19  F   UNL d   1      -1.441   0.999  -0.310  0.00  0.00    -0.205 F 
ENDBRANCH   1  12
TORSDOF 1
