REMARK  3 active torsions:
REMARK  status: ('A' for Active; 'I' for Inactive)
REMARK    1  A    between atoms: C_7  and  N_1 
REMARK    2  A    between atoms: S_6  and  C_4 
REMARK    3  A    between atoms: C_8  and  S_6 
ROOT
ATOM      1  N   UNL d   1       0.008   0.841  -0.068  0.00  0.00    -0.251 N 
ATOM      2  C   UNL d   1      -1.125   0.077   0.084  0.00  0.00     0.232 A 
ATOM      3  C   UNL d   1       1.135   0.050  -0.165  0.00  0.00     0.246 A 
ATOM      4  C   UNL d   1       0.721  -1.400  -0.226  0.00  0.00     0.157 A 
ATOM      5  C   UNL d   1      -0.769  -1.375   0.030  0.00  0.00     0.129 A 
ATOM      6  O   UNL d   1      -2.287   0.437   0.228  0.00  0.00    -0.273 OA
ATOM      7  O   UNL d   1       2.309   0.398  -0.164  0.00  0.00    -0.271 OA
ENDROOT
BRANCH   1   8
ATOM      8  C   UNL d   1       0.024   2.270  -0.104  0.00  0.00     0.045 A 
ATOM      9  C   UNL d   1      -1.045   3.033   0.397  0.00  0.00     0.032 A 
ATOM     10  C   UNL d   1      -1.034   4.433   0.345  0.00  0.00     0.026 A 
ATOM     11  C   UNL d   1       0.046   5.098  -0.221  0.00  0.00     0.034 A 
ATOM     12  C   UNL d   1       1.115   4.372  -0.731  0.00  0.00     0.026 A 
ATOM     13 CL   UNL d   1       0.058   6.815  -0.294  0.00  0.00    -0.084 Cl
ATOM     14  C   UNL d   1       1.104   2.972  -0.668  0.00  0.00     0.032 A 
ENDBRANCH   1   8
BRANCH   4  15
ATOM     15  S   UNL d   1       1.154  -2.065  -1.870  0.00  0.00    -0.078 SA
BRANCH  15  16
ATOM     16  C   UNL d   1       0.727  -3.752  -1.617  0.00  0.00     0.182 C 
ATOM     17  O   UNL d   1       0.251  -4.143  -0.559  0.00  0.00    -0.286 OA
ATOM     18  C   UNL d   1       0.931  -4.644  -2.807  0.00  0.00     0.104 C 
ENDBRANCH  15  16
ENDBRANCH   4  15
TORSDOF 3
