REMARK  6 active torsions:
REMARK  status: ('A' for Active; 'I' for Inactive)
REMARK    1  A    between atoms: C_18  and  C_3 
REMARK    2  A    between atoms: C_6  and  C_13 
REMARK    3  A    between atoms: C_22  and  C_9 
REMARK    4  A    between atoms: C_10  and  C_14 
REMARK    5  A    between atoms: C_11  and  C_19 
REMARK       I    between atoms: C_13  and  N_17 
REMARK    6  A    between atoms: N_17  and  C_22 
ROOT
ATOM      1  N   UNL d   1       0.314  -0.150  -0.871  0.00  0.00    -0.321 N 
ATOM      2  HN  UNL d   1       0.356  -0.319  -1.875  1.00  0.00     0.169 HD
ATOM      3  C   UNL d   1      -0.093   0.986  -0.201  0.00  0.00     0.137 A 
ATOM      4  N   UNL d   1      -0.001   0.890   1.136  0.00  0.00    -0.242 N 
ATOM      5  HN  UNL d   1      -0.230   1.598   1.835  1.00  0.00     0.196 HD
ATOM      6  C   UNL d   1       0.632  -0.958   0.115  0.00  0.00     0.166 A 
ATOM      7  O   UNL d   1       0.480  -0.398   1.347  0.00  0.00    -0.221 OA
ENDROOT
BRANCH   6   8
ATOM      8  C   UNL d   1       1.151  -2.346   0.072  0.00  0.00     0.209 C 
BRANCH   8   9
ATOM      9  N   UNL d   1       2.589  -2.318  -0.128  0.00  0.00    -0.349 N 
ATOM     10  C   UNL d   1       3.453  -2.919   0.760  0.00  0.00     0.253 C 
ATOM     11  O   UNL d   1       3.066  -3.496   1.768  0.00  0.00    -0.268 OA
ATOM     12  H   UNL d   1       2.938  -1.748  -0.888  0.00  0.00     0.163 HD
BRANCH  10  13
ATOM     13  C   UNL d   1       4.906  -2.846   0.428  0.00  0.00     0.054 A 
ATOM     14  C   UNL d   1       5.893  -2.826   1.419  0.00  0.00     0.021 A 
ATOM     15  N   UNL d   1       7.224  -2.800   1.117  0.00  0.00    -0.355 N 
ATOM     16  C   UNL d   1       5.582  -2.794   2.887  0.00  0.00     0.069 C 
ATOM     17  C   UNL d   1       7.614  -2.806  -0.188  0.00  0.00     0.117 A 
ATOM     18  HN  UNL d   1       7.920  -2.778   1.862  1.00  0.00     0.166 HD
ATOM     19  C   UNL d   1       6.681  -2.828  -1.222  0.00  0.00     0.035 A 
ATOM     20  C   UNL d   1       5.322  -2.850  -0.910  0.00  0.00     0.021 A 
BRANCH  17  21
ATOM     21  C   UNL d   1       9.099  -2.791  -0.534  0.00  0.00     0.432 C 
ATOM     22  F   UNL d   1       9.932  -2.758   0.544  0.00  0.00    -0.165 F 
ATOM     23  F   UNL d   1       9.474  -3.884  -1.262  0.00  0.00    -0.165 F 
ATOM     24  F   UNL d   1       9.439  -1.713  -1.300  0.00  0.00    -0.165 F 
ENDBRANCH  17  21
ENDBRANCH  10  13
ENDBRANCH   8   9
ENDBRANCH   6   8
BRANCH   3  25
ATOM     25  C   UNL d   1      -0.578   2.174  -0.898  0.00  0.00     0.010 A 
ATOM     26  C   UNL d   1      -0.684   2.186  -2.295  0.00  0.00     0.016 A 
ATOM     27  C   UNL d   1      -1.144   3.324  -2.968  0.00  0.00     0.017 A 
ATOM     28  C   UNL d   1      -1.506   4.476  -2.254  0.00  0.00     0.048 A 
ATOM     29  C   UNL d   1      -1.408   4.462  -0.855  0.00  0.00     0.017 A 
ATOM     30  C   UNL d   1      -0.949   3.323  -0.185  0.00  0.00     0.016 A 
BRANCH  28  31
ATOM     31  C   UNL d   1      -1.988   5.720  -2.960  0.00  0.00     0.417 C 
ATOM     32  F   UNL d   1      -2.007   5.604  -4.317  0.00  0.00    -0.166 F 
ATOM     33  F   UNL d   1      -3.253   6.068  -2.597  0.00  0.00    -0.166 F 
ATOM     34  F   UNL d   1      -1.209   6.804  -2.690  0.00  0.00    -0.166 F 
ENDBRANCH  28  31
ENDBRANCH   3  25
TORSDOF 6
