REMARK  7 active torsions:
REMARK  status: ('A' for Active; 'I' for Inactive)
REMARK    1  A    between atoms: C_4  and  C_1 
REMARK    2  A    between atoms: N_3  and  C_2 
REMARK       I    between atoms: C_5  and  N_3 
REMARK    3  A    between atoms: O_15  and  C_4 
REMARK    4  A    between atoms: O_14  and  C_5 
REMARK    5  A    between atoms: C_6  and  C_7 
REMARK    6  A    between atoms: O_16  and  C_6 
REMARK    7  A    between atoms: C_17  and  O_14 
ROOT
ATOM      1  C   UNL d   1       1.470  -0.167   0.033  0.00  0.00     0.066 A 
ATOM      2  C   UNL d   1       0.629  -1.303   0.035  0.00  0.00     0.054 A 
ATOM      3  C   UNL d   1      -1.336   0.146  -0.001  0.00  0.00     0.041 A 
ATOM      4  C   UNL d   1      -0.769  -1.136   0.026  0.00  0.00     0.048 A 
ATOM      5  C   UNL d   1       0.887   1.111   0.026  0.00  0.00     0.021 A 
ATOM      6  C   UNL d   1      -0.499   1.267   0.006  0.00  0.00     0.019 A 
ENDROOT
BRANCH   2   7
ATOM      7  N   UNL d   1       1.180  -2.598  -0.005  0.00  0.00    -0.302 N 
ATOM      8  C   UNL d   1       0.720  -3.696   0.661  0.00  0.00     0.365 C 
ATOM      9  O   UNL d   1      -0.273  -3.770   1.367  0.00  0.00    -0.238 OA
ATOM     10  H   UNL d   1       2.170  -2.678  -0.218  0.00  0.00     0.171 HD
BRANCH   8  11
ATOM     11  O   UNL d   1       1.649  -4.672   0.508  0.00  0.00    -0.304 OA
BRANCH  11  12
ATOM     12  C   UNL d   1       1.640  -5.743   1.460  0.00  0.00     0.176 C 
ATOM     13  C   UNL d   1       2.881  -5.574   2.318  0.00  0.00     0.034 C 
ENDBRANCH  11  12
ENDBRANCH   8  11
ENDBRANCH   2   7
BRANCH   1  14
ATOM     14  C   UNL d   1       2.966  -0.187   0.135  0.00  0.00     0.295 C 
ATOM     15  O   UNL d   1       3.641   0.829   0.161  0.00  0.00    -0.259 OA
BRANCH  14  16
ATOM     16  O   UNL d   1       3.456  -1.447   0.249  0.00  0.00    -0.322 OA
ATOM     17  C   UNL d   1       4.859  -1.518   0.528  0.00  0.00     0.213 C 
ENDBRANCH  14  16
ENDBRANCH   1  14
BRANCH   3  18
ATOM     18  C   UNL d   1      -2.802   0.389  -0.060  0.00  0.00     0.293 C 
ATOM     19  O   UNL d   1      -3.290   1.508  -0.012  0.00  0.00    -0.259 OA
BRANCH  18  20
ATOM     20  O   UNL d   1      -3.491  -0.767  -0.215  0.00  0.00    -0.323 OA
ATOM     21  C   UNL d   1      -4.902  -0.574  -0.335  0.00  0.00     0.213 C 
ENDBRANCH  18  20
ENDBRANCH   3  18
TORSDOF 7
