REMARK  5 active torsions:
REMARK  status: ('A' for Active; 'I' for Inactive)
REMARK    1  A    between atoms: C_3  and  C_1 
REMARK    2  A    between atoms: C_5  and  C_1 
REMARK    3  A    between atoms: C_11  and  C_2 
REMARK    4  A    between atoms: C_4  and  C_3 
REMARK    5  A    between atoms: N_6  and  C_5 
ROOT
ATOM      1  C   UNL d   1       1.036  -0.083  -0.042  0.00  0.00     0.073 C 
ATOM      2  C   UNL d   1       0.329   1.044   0.160  0.00  0.00     0.038 C 
ENDROOT
BRANCH   1   3
ATOM      3  C   UNL d   1       0.320  -1.366  -0.287  0.00  0.00     0.172 C 
ATOM      4  O   UNL d   1      -0.846  -1.400  -0.661  0.00  0.00    -0.291 OA
BRANCH   3   5
ATOM      5  C   UNL d   1       1.098  -2.623  -0.067  0.00  0.00     0.061 A 
ATOM      6  C   UNL d   1       1.357  -3.564  -1.220  0.00  0.00     0.013 A 
ATOM      7  C   UNL d   1       0.412  -3.969  -0.127  0.00  0.00     0.013 A 
ENDBRANCH   3   5
ENDBRANCH   1   3
BRANCH   1   8
ATOM      8  C   UNL d   1       2.556  -0.083  -0.042  0.00  0.00    -0.033 C 
BRANCH   8   9
ATOM      9  N   UNL d   1       3.817  -0.083  -0.042  0.00  0.00    -0.365 N 
ATOM     10  HN2 UNL d   1       2.797  -0.083  -0.042  1.00  0.00     0.165 HD
ATOM     11  HN1 UNL d   1       4.837  -0.083  -0.042  1.00  0.00     0.165 HD
ENDBRANCH   8   9
ENDBRANCH   1   8
BRANCH   2  12
ATOM     12  C   UNL d   1       0.931   2.358   0.440  0.00  0.00    -0.013 A 
ATOM     13  C   UNL d   1       1.231   2.794   1.743  0.00  0.00     0.044 A 
ATOM     14 CL   UNL d   1       0.931   1.796   3.124  0.00  0.00    -0.083 Cl
ATOM     15  C   UNL d   1       1.791   4.057   1.958  0.00  0.00     0.024 A 
ATOM     16  C   UNL d   1       2.064   4.893   0.876  0.00  0.00     0.002 A 
ATOM     17  C   UNL d   1       1.786   4.465  -0.420  0.00  0.00     0.001 A 
ATOM     18  C   UNL d   1       1.222   3.205  -0.639  0.00  0.00     0.013 A 
ENDBRANCH   2  12
TORSDOF 5
