REMARK  7 active torsions:
REMARK  status: ('A' for Active; 'I' for Inactive)
REMARK    1  A    between atoms: N_4  and  S_1 
REMARK    2  A    between atoms: C_8  and  S_1 
REMARK    3  A    between atoms: C_6  and  C_2 
REMARK    4  A    between atoms: C_3  and  N_4 
REMARK    5  A    between atoms: O_16  and  C_6 
REMARK    6  A    between atoms: O_18  and  C_9 
REMARK    7  A    between atoms: O_19  and  C_10 
ROOT
ATOM      1  C   UNL d   1       2.144  -1.597  -2.480  0.00  0.00     0.062 A 
ATOM      2  C   UNL d   1       0.866  -1.773  -1.930  0.00  0.00     0.042 A 
ATOM      3  C   UNL d   1       2.342  -1.874  -3.837  0.00  0.00     0.059 A 
ATOM      4  C   UNL d   1      -0.197  -2.191  -2.748  0.00  0.00     0.065 A 
ATOM      5  C   UNL d   1       1.295  -2.327  -4.649  0.00  0.00     0.102 A 
ATOM      6  C   UNL d   1       0.012  -2.502  -4.102  0.00  0.00     0.103 A 
ENDROOT
BRANCH   2   7
ATOM      7  N   UNL d   1       0.601  -1.499  -0.526  0.00  0.00    -0.180 NA
ATOM      8  H   UNL d   1      -0.197  -2.060  -0.204  0.00  0.00     0.146 HD
BRANCH   7   9
ATOM      9  S   UNL d   1       0.110   0.133  -0.237  0.00  0.00     0.245 S 
ATOM     10  O   UNL d   1      -1.335   0.113  -0.300  0.00  0.00    -0.206 OA
ATOM     11  O   UNL d   1       0.910   1.022  -1.044  0.00  0.00    -0.206 OA
BRANCH   9  12
ATOM     12  C   UNL d   1       0.594   0.327   1.464  0.00  0.00     0.074 A 
ATOM     13  C   UNL d   1       1.883   0.779   1.772  0.00  0.00     0.026 A 
ATOM     14  C   UNL d   1       2.249   0.960   3.109  0.00  0.00     0.025 A 
ATOM     15  C   UNL d   1       1.329   0.697   4.125  0.00  0.00     0.034 A 
ATOM     16  C   UNL d   1       0.042   0.255   3.817  0.00  0.00     0.025 A 
ATOM     17 CL   UNL d   1       1.781   0.924   5.770  0.00  0.00    -0.084 Cl
ATOM     18  C   UNL d   1      -0.333   0.074   2.482  0.00  0.00     0.026 A 
ENDBRANCH   9  12
ENDBRANCH   7   9
ENDBRANCH   2   7
BRANCH   1  19
ATOM     19  C   UNL d   1       3.339  -1.175  -1.700  0.00  0.00     0.178 C 
ATOM     20  O   UNL d   1       4.322  -0.667  -2.212  0.00  0.00    -0.646 OA
BRANCH  19  21
ATOM     21  O   UNL d   1       3.285  -1.488  -0.387  0.00  0.00    -0.773 OA
ATOM     22  H   UNL d   1       2.425  -1.875  -0.124  0.00  0.00     0.167 HD
ENDBRANCH  19  21
ENDBRANCH   1  19
BRANCH   6  23
ATOM     23  O   UNL d   1      -0.964  -3.001  -4.921  0.00  0.00    -0.353 OA
ATOM     24  C   UNL d   1      -2.230  -3.326  -4.363  0.00  0.00     0.210 C 
ENDBRANCH   6  23
BRANCH   5  25
ATOM     25  O   UNL d   1       1.706  -2.618  -5.924  0.00  0.00    -0.353 OA
ATOM     26  C   UNL d   1       0.747  -2.522  -6.968  0.00  0.00     0.210 C 
ENDBRANCH   5  25
TORSDOF 7
