REMARK  6 active torsions:
REMARK  status: ('A' for Active; 'I' for Inactive)
REMARK    1  A    between atoms: C_6  and  C_1 
REMARK    2  A    between atoms: C_9  and  C_2 
REMARK    3  A    between atoms: S_5  and  C_11 
REMARK    4  A    between atoms: C_10  and  S_5 
REMARK       I    between atoms: N_17  and  C_9 
REMARK    5  A    between atoms: C_11  and  C_20 
REMARK    6  A    between atoms: C_20  and  N_17 
ROOT
ATOM      1  C   UNL d   1       0.405  -2.690  -0.498  0.00  0.00     0.256 C 
ATOM      2  O   UNL d   1      -0.420  -3.490  -0.904  0.00  0.00    -0.267 OA
ATOM      3  N   UNL d   1       1.730  -3.034  -0.261  0.00  0.00    -0.356 N 
ATOM      4  H   UNL d   1       2.253  -2.394   0.326  0.00  0.00     0.162 HD
ENDROOT
BRANCH   1   5
ATOM      5  C   UNL d   1       0.046  -1.335  -0.121  0.00  0.00     0.092 A 
ATOM      6  C   UNL d   1      -1.131  -0.866   0.564  0.00  0.00     0.086 A 
ATOM      7  N   UNL d   1      -1.050   0.465   0.731  0.00  0.00    -0.259 N 
ATOM      8  O   UNL d   1       0.101   0.881   0.120  0.00  0.00    -0.241 OA
ATOM      9  HN  UNL d   1      -1.722   1.055   1.222  1.00  0.00     0.195 HD
ATOM     10  C   UNL d   1       0.773  -0.188  -0.373  0.00  0.00     0.090 A 
ATOM     11  C   UNL d   1       2.044   0.147  -1.047  0.00  0.00     0.080 C 
BRANCH   6  12
ATOM     12  C   UNL d   1      -2.284  -1.597   1.125  0.00  0.00     0.037 A 
ATOM     13  C   UNL d   1      -2.122  -2.748   1.925  0.00  0.00     0.048 A 
ATOM     14 CL   UNL d   1      -0.577  -3.341   2.448  0.00  0.00    -0.083 Cl
ATOM     15  C   UNL d   1      -3.229  -3.435   2.449  0.00  0.00     0.025 A 
ATOM     16  C   UNL d   1      -4.518  -2.949   2.265  0.00  0.00     0.003 A 
ATOM     17  C   UNL d   1      -4.703  -1.783   1.534  0.00  0.00     0.025 A 
ATOM     18  C   UNL d   1      -3.608  -1.126   0.946  0.00  0.00     0.048 A 
ATOM     19 CL   UNL d   1      -4.014   0.271  -0.002  0.00  0.00    -0.083 Cl
ENDBRANCH   6  12
ENDBRANCH   1   5
BRANCH   3  20
ATOM     20  C   UNL d   1       2.121  -4.439  -0.253  0.00  0.00     0.138 C 
BRANCH  20  21
ATOM     21  C   UNL d   1       3.621  -4.617  -0.140  0.00  0.00     0.165 C 
BRANCH  21  22
ATOM     22  S   UNL d   1       4.109  -6.325  -0.114  0.00  0.00     0.177 S 
ATOM     23  O   UNL d   1       5.560  -6.362  -0.030  0.00  0.00    -0.223 OA
ATOM     24  O   UNL d   1       3.304  -7.018   0.872  0.00  0.00    -0.223 OA
BRANCH  22  25
ATOM     25  C   UNL d   1       3.672  -6.961  -1.716  0.00  0.00     0.059 A 
ATOM     26  C   UNL d   1       4.577  -6.842  -2.776  0.00  0.00     0.025 A 
ATOM     27  C   UNL d   1       4.249  -7.378  -4.023  0.00  0.00     0.025 A 
ATOM     28  C   UNL d   1       3.029  -8.033  -4.200  0.00  0.00     0.034 A 
ATOM     29  C   UNL d   1       2.136  -8.166  -3.136  0.00  0.00     0.025 A 
ATOM     30 CL   UNL d   1       2.631  -8.696  -5.736  0.00  0.00    -0.084 Cl
ATOM     31  C   UNL d   1       2.460  -7.638  -1.884  0.00  0.00     0.025 A 
ENDBRANCH  22  25
ENDBRANCH  21  22
ENDBRANCH  20  21
ENDBRANCH   3  20
TORSDOF 6
