REMARK  2 active torsions:
REMARK  status: ('A' for Active; 'I' for Inactive)
REMARK    1  A    between atoms: N_6  and  C_2 
REMARK    2  A    between atoms: O_12  and  N_6 
ROOT
ATOM      1  C   UNL d   1       0.030   0.691   0.036  0.00  0.00     0.008 A 
ATOM      2  C   UNL d   1      -1.266   1.440   0.065  0.00  0.00     0.044 C 
ATOM      3  C   UNL d   1       0.075  -0.712  -0.055  0.00  0.00     0.013 A 
ATOM      4  S   UNL d   1      -1.360  -1.773  -0.125  0.00  0.00    -0.129 SA
ATOM      5  C   UNL d   1       1.227   1.422   0.100  0.00  0.00     0.057 A 
ATOM      6  C   UNL d   1       1.322  -1.358  -0.093  0.00  0.00     0.022 A 
ATOM      7  C   UNL d   1       2.447   0.759   0.063  0.00  0.00     0.117 A 
ATOM      8  C   UNL d   1      -2.513   0.685  -0.363  0.00  0.00     0.070 C 
ATOM      9  C   UNL d   1      -2.630  -0.604   0.421  0.00  0.00     0.085 C 
ATOM     10  C   UNL d   1       2.507  -0.624  -0.033  0.00  0.00     0.043 A 
ATOM     11  F   UNL d   1       3.585   1.464   0.116  0.00  0.00    -0.206 F 
ENDROOT
BRANCH   2  12
ATOM     12  N   UNL d   1      -1.261   2.689   0.432  0.00  0.00    -0.273 N 
ATOM     13  HN  UNL d   1      -0.420   3.196   0.709  1.00  0.00     0.194 HD
BRANCH  12  14
ATOM     14  O   UNL d   1      -2.537   3.258   0.406  0.00  0.00    -0.290 OA
ATOM     15  H   UNL d   1      -2.372   4.166   0.721  0.00  0.00     0.244 HD
ENDBRANCH  12  14
ENDBRANCH   2  12
TORSDOF 2
