REMARK  5 active torsions:
REMARK  status: ('A' for Active; 'I' for Inactive)
REMARK    1  A    between atoms: C_2  and  S_1 
REMARK    2  A    between atoms: C_3  and  S_1 
REMARK    3  A    between atoms: C_9  and  C_3 
REMARK    4  A    between atoms: S_8  and  C_9 
REMARK    5  A    between atoms: C_10  and  S_8 
ROOT
ATOM      1  S   UNL d   1       1.007  -0.018  -0.101  0.00  0.00     0.176 S 
ATOM      2  O   UNL d   1       2.438  -0.208  -0.243  0.00  0.00    -0.223 OA
ATOM      3  O   UNL d   1       0.479   1.018   0.763  0.00  0.00    -0.223 OA
ENDROOT
BRANCH   1   4
ATOM      4  C   UNL d   1       0.313  -1.567   0.438  0.00  0.00     0.059 A 
ATOM      5  C   UNL d   1       1.020  -2.752   0.227  0.00  0.00     0.024 A 
ATOM      6  C   UNL d   1       0.477  -3.963   0.663  0.00  0.00     0.008 A 
ATOM      7  C   UNL d   1      -0.765  -3.995   1.312  0.00  0.00    -0.062 A 
ATOM      8  C   UNL d   1      -1.450  -2.794   1.541  0.00  0.00     0.008 A 
ATOM      9  C   UNL d   1      -1.332  -5.308   1.772  0.00  0.00     0.048 C 
ATOM     10  C   UNL d   1      -0.912  -1.579   1.110  0.00  0.00     0.024 A 
ENDBRANCH   1   4
BRANCH   1  11
ATOM     11  C   UNL d   1       0.314   0.202  -1.727  0.00  0.00     0.156 C 
BRANCH  11  12
ATOM     12  C   UNL d   1       0.824   1.496  -2.339  0.00  0.00     0.095 C 
BRANCH  12  13
ATOM     13  S   UNL d   1       0.105   1.707  -4.010  0.00  0.00    -0.129 SA
BRANCH  13  14
ATOM     14  C   UNL d   1       0.828   3.276  -4.455  0.00  0.00     0.000 A 
ATOM     15  C   UNL d   1       2.213   3.418  -4.600  0.00  0.00     0.020 A 
ATOM     16  C   UNL d   1       2.764   4.660  -4.928  0.00  0.00     0.025 A 
ATOM     17  C   UNL d   1       1.930   5.759  -5.122  0.00  0.00     0.034 A 
ATOM     18  C   UNL d   1       0.548   5.622  -5.010  0.00  0.00     0.025 A 
ATOM     19 CL   UNL d   1       2.611   7.293  -5.499  0.00  0.00    -0.084 Cl
ATOM     20  C   UNL d   1      -0.002   4.378  -4.683  0.00  0.00     0.020 A 
ENDBRANCH  13  14
ENDBRANCH  12  13
ENDBRANCH  11  12
ENDBRANCH   1  11
TORSDOF 5
