REMARK  5 active torsions:
REMARK  status: ('A' for Active; 'I' for Inactive)
REMARK    1  A    between atoms: N_3  and  C_1 
REMARK    2  A    between atoms: O_5  and  C_2 
REMARK    3  A    between atoms: C_4  and  O_5 
REMARK    4  A    between atoms: C_6  and  C_4 
REMARK    5  A    between atoms: C_7  and  C_9 
ROOT
ATOM      1  C   UNL d   1       2.421  -1.237  -0.067  0.00  0.00     0.139 A 
ATOM      2  C   UNL d   1       1.099  -1.197   0.385  0.00  0.00     0.130 A 
ATOM      3  C   UNL d   1       3.169  -0.062  -0.264  0.00  0.00     0.055 A 
ATOM      4  C   UNL d   1       2.591   1.187   0.004  0.00  0.00     0.051 A 
ATOM      5  C   UNL d   1       0.550   0.045   0.721  0.00  0.00     0.048 A 
ATOM      6  C   UNL d   1       1.274   1.227   0.497  0.00  0.00     0.038 A 
ATOM      7 BR   UNL d   1      -1.113   0.186   1.624  0.00  0.00    -0.048 Br
ENDROOT
BRANCH   2   8
ATOM      8  O   UNL d   1       0.364  -2.366   0.662  0.00  0.00    -0.271 OA
BRANCH   8   9
ATOM      9  C   UNL d   1       0.116  -3.273  -0.367  0.00  0.00     0.303 C 
ATOM     10  O   UNL d   1       0.347  -3.093  -1.553  0.00  0.00    -0.259 OA
BRANCH   9  11
ATOM     11  C   UNL d   1      -0.349  -4.526   0.265  0.00  0.00     0.100 A 
ATOM     12  C   UNL d   1      -1.331  -4.444   1.257  0.00  0.00     0.134 A 
ATOM     13  F   UNL d   1      -1.944  -3.280   1.515  0.00  0.00    -0.205 F 
ATOM     14  C   UNL d   1      -1.703  -5.559   2.005  0.00  0.00     0.043 A 
ATOM     15  C   UNL d   1      -1.104  -6.788   1.754  0.00  0.00     0.005 A 
ATOM     16  C   UNL d   1      -0.166  -6.902   0.725  0.00  0.00     0.025 A 
ATOM     17  C   UNL d   1       0.208  -5.776  -0.026  0.00  0.00     0.053 A 
ATOM     18 CL   UNL d   1       1.385  -6.019  -1.264  0.00  0.00    -0.083 Cl
ENDBRANCH   9  11
ENDBRANCH   8   9
ENDBRANCH   2   8
BRANCH   1  19
ATOM     19  N   UNL d   1       3.120  -2.504  -0.176  0.00  0.00    -0.113 N 
ATOM     20  O   UNL d   1       3.048  -3.270   0.796  0.00  0.00    -0.532 OA
ATOM     21  O   UNL d   1       3.780  -2.703  -1.203  0.00  0.00    -0.532 OA
ENDBRANCH   1  19
BRANCH   4  22
ATOM     22  C   UNL d   1       3.373   2.471  -0.171  0.00  0.00     0.417 C 
ATOM     23  F   UNL d   1       4.697   2.265  -0.409  0.00  0.00    -0.166 F 
ATOM     24  F   UNL d   1       2.913   3.224  -1.204  0.00  0.00    -0.166 F 
ATOM     25  F   UNL d   1       3.313   3.265   0.933  0.00  0.00    -0.166 F 
ENDBRANCH   4  22
TORSDOF 5
