REMARK  8 active torsions:
REMARK  status: ('A' for Active; 'I' for Inactive)
REMARK    1  A    between atoms: C_5  and  S_1 
REMARK    2  A    between atoms: C_10  and  S_1 
REMARK    3  A    between atoms: C_2  and  O_8 
REMARK       I    between atoms: C_3  and  N_13 
REMARK    4  A    between atoms: C_4  and  C_3 
REMARK    5  A    between atoms: C_17  and  C_5 
REMARK    6  A    between atoms: O_8  and  C_12 
REMARK    7  A    between atoms: C_18  and  C_10 
REMARK    8  A    between atoms: N_13  and  C_17 
ROOT
ATOM      1  C   UNL d   1      -0.644  -2.501  -3.859  0.00  0.00     0.251 C 
ATOM      2  O   UNL d   1      -1.534  -1.660  -3.876  0.00  0.00    -0.268 OA
ATOM      3  N   UNL d   1       0.506  -2.378  -3.111  0.00  0.00    -0.356 N 
ATOM      4  H   UNL d   1       1.040  -3.224  -2.929  0.00  0.00     0.162 HD
ENDROOT
BRANCH   3   5
ATOM      5  C   UNL d   1       0.776  -1.235  -2.260  0.00  0.00     0.138 C 
BRANCH   5   6
ATOM      6  C   UNL d   1       0.267  -1.398  -0.835  0.00  0.00     0.160 C 
BRANCH   6   7
ATOM      7  S   UNL d   1       1.119  -2.721   0.007  0.00  0.00     0.150 S 
ATOM      8  O   UNL d   1       2.525  -2.353   0.063  0.00  0.00    -0.228 OA
ATOM      9  O   UNL d   1       0.708  -3.967  -0.613  0.00  0.00    -0.228 OA
BRANCH   7  10
ATOM     10  C   UNL d   1       0.443  -2.637   1.660  0.00  0.00     0.178 C 
BRANCH  10  11
ATOM     11  C   UNL d   1       1.033  -3.728   2.520  0.00  0.00    -0.044 A 
ATOM     12  C   UNL d   1       2.236  -3.521   3.215  0.00  0.00     0.011 A 
ATOM     13  C   UNL d   1       2.750  -4.513   4.054  0.00  0.00     0.043 A 
ATOM     14  C   UNL d   1       2.068  -5.714   4.195  0.00  0.00     0.116 A 
ATOM     15  C   UNL d   1       0.891  -5.952   3.496  0.00  0.00     0.043 A 
ATOM     16  F   UNL d   1       2.550  -6.655   5.016  0.00  0.00    -0.206 F 
ATOM     17  C   UNL d   1       0.376  -4.963   2.655  0.00  0.00     0.011 A 
ENDBRANCH  10  11
ENDBRANCH   7  10
ENDBRANCH   6   7
ENDBRANCH   5   6
ENDBRANCH   3   5
BRANCH   1  18
ATOM     18  C   UNL d   1      -0.776  -3.773  -4.624  0.00  0.00     0.034 A 
ATOM     19  C   UNL d   1      -2.057  -4.304  -4.831  0.00  0.00     0.054 A 
ATOM     20  C   UNL d   1      -2.206  -5.537  -5.464  0.00  0.00     0.079 A 
ATOM     21  C   UNL d   1      -1.077  -6.185  -5.981  0.00  0.00     0.037 A 
ATOM     22  C   UNL d   1       0.195  -5.637  -5.822  0.00  0.00     0.004 A 
ATOM     23  C   UNL d   1       0.350  -4.436  -5.133  0.00  0.00     0.017 A 
BRANCH  20  24
ATOM     24  O   UNL d   1      -3.384  -6.180  -5.694  0.00  0.00    -0.255 OA
BRANCH  24  25
ATOM     25  C   UNL d   1      -4.442  -6.064  -4.752  0.00  0.00     0.530 C 
ATOM     26  F   UNL d   1      -4.122  -5.386  -3.631  0.00  0.00    -0.144 F 
ATOM     27  F   UNL d   1      -5.495  -5.459  -5.342  0.00  0.00    -0.144 F 
ATOM     28  F   UNL d   1      -4.825  -7.308  -4.383  0.00  0.00    -0.144 F 
ENDBRANCH  24  25
ENDBRANCH  20  24
ENDBRANCH   1  18
TORSDOF 8
