REMARK  2 active torsions:
REMARK  status: ('A' for Active; 'I' for Inactive)
REMARK    1  A    between atoms: C_3  and  S_5 
REMARK    2  A    between atoms: S_5  and  C_11 
ROOT
ATOM      1  N   UNL d   1       1.095  -0.147  -0.362  0.00  0.00    -0.197 NA
ATOM      2  C   UNL d   1       2.249  -0.205  -0.243  0.00  0.00     0.069 C 
ATOM      3  C   UNL d   1       3.715  -0.256  -0.118  0.00  0.00     0.203 C 
ENDROOT
BRANCH   3   4
ATOM      4  S   UNL d   1       4.239  -1.192   1.362  0.00  0.00    -0.116 SA
BRANCH   4   5
ATOM      5  C   UNL d   1       6.015  -1.117   1.204  0.00  0.00     0.001 A 
ATOM      6  C   UNL d   1       6.706   0.101   1.182  0.00  0.00     0.021 A 
ATOM      7  C   UNL d   1       8.104   0.116   1.143  0.00  0.00     0.043 A 
ATOM      8  C   UNL d   1       8.805  -1.085   1.136  0.00  0.00     0.116 A 
ATOM      9  C   UNL d   1       8.135  -2.301   1.157  0.00  0.00     0.043 A 
ATOM     10  F   UNL d   1      10.144  -1.068   1.121  0.00  0.00    -0.206 F 
ATOM     11  C   UNL d   1       6.739  -2.317   1.195  0.00  0.00     0.021 A 
ENDBRANCH   4   5
ENDBRANCH   3   4
TORSDOF 2
