REMARK  3 active torsions:
REMARK  status: ('A' for Active; 'I' for Inactive)
REMARK    1  A    between atoms: C_3  and  C_1 
REMARK       I    between atoms: N_4  and  C_3 
REMARK    2  A    between atoms: C_5  and  N_4 
REMARK    3  A    between atoms: O_21  and  C_17 
ROOT
ATOM      1  C   UNL d   1      -3.808  -0.093  -0.243  0.00  0.00     0.273 C 
ATOM      2  N   UNL d   1      -4.469  -1.301  -0.202  0.00  0.00    -0.306 N 
ATOM      3  O   UNL d   1      -4.330   1.016  -0.253  0.00  0.00    -0.266 OA
ATOM      4  H   UNL d   1      -3.930  -2.135  -0.030  0.00  0.00     0.170 HD
ENDROOT
BRANCH   1   5
ATOM      5  C   UNL d   1      -2.361  -0.202  -0.209  0.00  0.00     0.102 A 
ATOM      6  N   UNL d   1      -1.579   0.926  -0.063  0.00  0.00    -0.351 N 
ATOM      7  C   UNL d   1      -0.244   0.608  -0.048  0.00  0.00     0.043 A 
ATOM      8  H   UNL d   1      -1.965   1.857   0.027  0.00  0.00     0.166 HD
ATOM      9  C   UNL d   1       0.884   1.426   0.080  0.00  0.00     0.033 A 
ATOM     10  C   UNL d   1      -0.158  -0.773  -0.196  0.00  0.00    -0.004 A 
ATOM     11  C   UNL d   1       2.141   0.806   0.062  0.00  0.00     0.039 A 
ATOM     12  C   UNL d   1       2.263  -0.577  -0.075  0.00  0.00     0.069 A 
ATOM     13  C   UNL d   1       1.115  -1.371  -0.209  0.00  0.00     0.050 A 
ATOM     14  C   UNL d   1      -1.487  -1.272  -0.305  0.00  0.00     0.049 A 
BRANCH  12  15
ATOM     15  O   UNL d   1       3.437  -1.282  -0.096  0.00  0.00    -0.356 OA
ATOM     16  C   UNL d   1       4.641  -0.542   0.052  0.00  0.00     0.210 C 
ENDBRANCH  12  15
ENDBRANCH   1   5
BRANCH   2  17
ATOM     17  C   UNL d   1      -5.866  -1.456  -0.205  0.00  0.00     0.125 A 
ATOM     18  N   UNL d   1      -6.648  -0.404  -0.510  0.00  0.00    -0.351 N 
ATOM     19  C   UNL d   1      -7.987  -0.554  -0.431  0.00  0.00     0.096 A 
ATOM     20  HN  UNL d   1      -6.239   0.486  -0.794  1.00  0.00     0.166 HD
ATOM     21  C   UNL d   1      -8.616  -1.731  -0.053  0.00  0.00    -0.045 A 
ATOM     22  C   UNL d   1      -7.803  -2.832   0.214  0.00  0.00     0.031 A 
ATOM     23  C   UNL d   1     -10.102  -1.777   0.104  0.00  0.00     0.049 C 
ATOM     24  C   UNL d   1      -6.414  -2.700   0.126  0.00  0.00     0.055 A 
ATOM     25 BR   UNL d   1      -5.337  -4.213   0.521  0.00  0.00    -0.047 Br
ENDBRANCH   2  17
TORSDOF 3
