REMARK  2 active torsions:
REMARK  status: ('A' for Active; 'I' for Inactive)
REMARK    1  A    between atoms: N_2  and  C_1 
REMARK       I    between atoms: C_3  and  N_2 
REMARK    2  A    between atoms: C_6  and  C_3 
ROOT
ATOM      1  N   UNL d   1      -0.038   2.396  -0.206  0.00  0.00    -0.319 N 
ATOM      2  C   UNL d   1      -0.464   3.653   0.185  0.00  0.00     0.256 C 
ATOM      3  O   UNL d   1       0.237   4.631   0.396  0.00  0.00    -0.267 OA
ATOM      4  H   UNL d   1      -0.703   1.846  -0.739  0.00  0.00     0.169 HD
ENDROOT
BRANCH   1   5
ATOM      5  C   UNL d   1       1.322   2.057  -0.398  0.00  0.00     0.091 A 
ATOM      6  C   UNL d   1       1.671   1.248  -1.492  0.00  0.00     0.043 A 
ATOM      7  C   UNL d   1       3.006   0.932  -1.748  0.00  0.00     0.064 A 
ATOM      8 BR   UNL d   1       0.356   0.611  -2.710  0.00  0.00    -0.049 Br
ATOM      9  C   UNL d   1       3.991   1.394  -0.884  0.00  0.00     0.120 A 
ATOM     10  C   UNL d   1       3.670   2.151   0.234  0.00  0.00     0.087 A 
ATOM     11  F   UNL d   1       5.272   1.090  -1.128  0.00  0.00    -0.206 F 
ATOM     12  C   UNL d   1       2.338   2.478   0.470  0.00  0.00     0.147 A 
ATOM     13  F   UNL d   1       2.047   3.130   1.606  0.00  0.00    -0.204 F 
ENDBRANCH   1   5
BRANCH   2  14
ATOM     14  C   UNL d   1      -1.941   3.809   0.171  0.00  0.00     0.034 A 
ATOM     15  C   UNL d   1      -2.767   2.834   0.735  0.00  0.00     0.042 A 
ATOM     16  C   UNL d   1      -4.156   2.973   0.657  0.00  0.00     0.056 A 
ATOM     17 CL   UNL d   1      -5.124   1.730   1.363  0.00  0.00    -0.083 Cl
ATOM     18  C   UNL d   1      -4.715   4.087   0.012  0.00  0.00     0.055 A 
ATOM     19  C   UNL d   1      -3.881   5.068  -0.533  0.00  0.00     0.026 A 
ATOM     20 CL   UNL d   1      -6.421   4.300  -0.149  0.00  0.00    -0.083 Cl
ATOM     21  C   UNL d   1      -2.494   4.936  -0.447  0.00  0.00     0.019 A 
ENDBRANCH   2  14
TORSDOF 2
