REMARK  4 active torsions:
REMARK  status: ('A' for Active; 'I' for Inactive)
REMARK    1  A    between atoms: C_7  and  C_3 
REMARK    2  A    between atoms: C_16  and  C_4 
REMARK    3  A    between atoms: O_11  and  C_16 
REMARK    4  A    between atoms: C_12  and  O_11 
ROOT
ATOM      1  N   UNL d   1       1.432  -0.556   0.082  0.00  0.00    -0.351 N 
ATOM      2  HN  UNL d   1       2.330  -1.040   0.088  1.00  0.00     0.166 HD
ATOM      3  C   UNL d   1       1.278   0.818   0.051  0.00  0.00     0.049 A 
ATOM      4  C   UNL d   1       0.255  -1.154   0.103  0.00  0.00     0.075 A 
ATOM      5  S   UNL d   1      -1.099  -0.097   0.141  0.00  0.00    -0.084 SA
ATOM      6  C   UNL d   1      -0.034   1.250   0.084  0.00  0.00     0.082 A 
ENDROOT
BRANCH   4   7
ATOM      7  C   UNL d   1       0.077  -2.643   0.010  0.00  0.00     0.240 C 
BRANCH   7   8
ATOM      8  O   UNL d   1       0.081  -3.167   1.335  0.00  0.00    -0.343 OA
BRANCH   8   9
ATOM      9  C   UNL d   1      -0.134  -4.509   1.511  0.00  0.00     0.090 A 
ATOM     10  C   UNL d   1       0.150  -5.588   0.657  0.00  0.00     0.067 A 
ATOM     11 CL   UNL d   1       0.871  -5.468  -0.908  0.00  0.00    -0.081 Cl
ATOM     12  C   UNL d   1      -0.109  -6.903   1.077  0.00  0.00     0.026 A 
ATOM     13  C   UNL d   1      -0.647  -7.164   2.333  0.00  0.00     0.002 A 
ATOM     14  C   UNL d   1      -0.926  -6.106   3.189  0.00  0.00     0.003 A 
ATOM     15  C   UNL d   1      -0.668  -4.794   2.781  0.00  0.00     0.038 A 
ENDBRANCH   8   9
ENDBRANCH   7   8
ENDBRANCH   4   7
BRANCH   3  16
ATOM     16  C   UNL d   1       2.441   1.695  -0.003  0.00  0.00    -0.006 A 
ATOM     17  C   UNL d   1       2.385   2.960  -0.604  0.00  0.00     0.059 A 
ATOM     18  C   UNL d   1       3.521   3.766  -0.634  0.00  0.00     0.155 A 
ATOM     19  F   UNL d   1       3.450   4.973  -1.212  0.00  0.00    -0.203 F 
ATOM     20  C   UNL d   1       4.717   3.330  -0.076  0.00  0.00     0.154 A 
ATOM     21  C   UNL d   1       4.797   2.074   0.512  0.00  0.00     0.046 A 
ATOM     22  F   UNL d   1       5.801   4.116  -0.103  0.00  0.00    -0.203 F 
ATOM     23  C   UNL d   1       3.662   1.257   0.543  0.00  0.00     0.017 A 
ENDBRANCH   3  16
TORSDOF 4
