REMARK  8 active torsions:
REMARK  status: ('A' for Active; 'I' for Inactive)
REMARK    1  A    between atoms: C_8  and  C_3 
REMARK    2  A    between atoms: C_15  and  C_6 
REMARK    3  A    between atoms: S_10  and  C_9 
REMARK    4  A    between atoms: C_17  and  C_15 
REMARK    5  A    between atoms: C_20  and  C_17 
REMARK    6  A    between atoms: C_18  and  C_19 
REMARK    7  A    between atoms: C_19  and  C_21 
REMARK    8  A    between atoms: C_21  and  C_20 
ROOT
ATOM      1  C   UNL d   1       0.243  -0.843   0.026  0.00  0.00    -0.011 C 
ATOM      2  C   UNL d   1      -1.172  -1.306   0.100  0.00  0.00     0.159 C 
ATOM      3  C   UNL d   1       1.260  -1.711  -0.033  0.00  0.00     0.022 C 
ATOM      4  C   UNL d   1       0.233   0.651   0.090  0.00  0.00     0.043 C 
ATOM      5  O   UNL d   1      -1.518  -2.473   0.023  0.00  0.00    -0.292 OA
ATOM      6  C   UNL d   1      -2.094  -0.119   0.238  0.00  0.00     0.060 C 
ATOM      7  C   UNL d   1      -1.124   0.973   0.714  0.00  0.00     0.017 C 
ENDROOT
BRANCH   3   8
ATOM      8  C   UNL d   1       2.665  -1.312  -0.035  0.00  0.00    -0.035 A 
ATOM      9  C   UNL d   1       3.355  -1.205   1.175  0.00  0.00     0.012 A 
ATOM     10  C   UNL d   1       4.708  -0.847   1.189  0.00  0.00     0.019 A 
ATOM     11  C   UNL d   1       5.386  -0.583  -0.004  0.00  0.00    -0.000 A 
ATOM     12  C   UNL d   1       4.690  -0.703  -1.214  0.00  0.00     0.019 A 
ATOM     13  C   UNL d   1       3.336  -1.060  -1.232  0.00  0.00     0.012 A 
BRANCH  11  14
ATOM     14  S   UNL d   1       7.121  -0.161  -0.081  0.00  0.00    -0.134 SA
ATOM     15  C   UNL d   1       7.363   0.763   1.460  0.00  0.00     0.095 C 
ENDBRANCH  11  14
ENDBRANCH   3   8
BRANCH   6  16
ATOM     16  C   UNL d   1      -3.238  -0.374   1.217  0.00  0.00     0.012 C 
BRANCH  16  17
ATOM     17  C   UNL d   1      -4.167   0.835   1.313  0.00  0.00     0.001 C 
BRANCH  17  18
ATOM     18  C   UNL d   1      -5.301   0.601   2.308  0.00  0.00     0.000 C 
BRANCH  18  19
ATOM     19  C   UNL d   1      -6.203   1.832   2.383  0.00  0.00     0.000 C 
BRANCH  19  20
ATOM     20  C   UNL d   1      -7.343   1.623   3.376  0.00  0.00    -0.000 C 
BRANCH  20  21
ATOM     21  C   UNL d   1      -8.244   2.855   3.443  0.00  0.00    -0.005 C 
ATOM     22  C   UNL d   1      -9.382   2.650   4.428  0.00  0.00     0.005 C 
ENDBRANCH  20  21
ENDBRANCH  19  20
ENDBRANCH  18  19
ENDBRANCH  17  18
ENDBRANCH  16  17
ENDBRANCH   6  16
TORSDOF 8
