REMARK  4 active torsions:
REMARK  status: ('A' for Active; 'I' for Inactive)
REMARK    1  A    between atoms: C_9  and  C_1 
REMARK    2  A    between atoms: C_3  and  C_2 
REMARK       I    between atoms: N_10  and  C_3 
REMARK    3  A    between atoms: C_7  and  N_10 
REMARK    4  A    between atoms: C_17  and  C_8 
ROOT
ATOM      1  C   UNL d   1      -1.549  -0.708  -0.220  0.00  0.00     0.088 A 
ATOM      2  C   UNL d   1      -0.258  -1.351  -0.125  0.00  0.00     0.093 A 
ATOM      3  N   UNL d   1      -1.373   0.626  -0.194  0.00  0.00    -0.259 N 
ATOM      4  HN  UNL d   1      -2.110   1.328  -0.259  1.00  0.00     0.195 HD
ATOM      5  O   UNL d   1      -0.045   0.877  -0.068  0.00  0.00    -0.241 OA
ATOM      6  C   UNL d   1       0.632  -0.288  -0.049  0.00  0.00     0.090 A 
ATOM      7  C   UNL d   1       2.099  -0.141   0.041  0.00  0.00     0.080 C 
ENDROOT
BRANCH   2   8
ATOM      8  C   UNL d   1       0.232  -2.723  -0.148  0.00  0.00     0.262 C 
ATOM      9  N   UNL d   1      -0.375  -3.589   0.738  0.00  0.00    -0.302 N 
ATOM     10  H   UNL d   1      -1.233  -3.355   1.206  0.00  0.00     0.171 HD
ATOM     11  O   UNL d   1       1.194  -3.010  -0.854  0.00  0.00    -0.267 OA
BRANCH   9  12
ATOM     12  C   UNL d   1       0.326  -4.678   1.207  0.00  0.00     0.168 A 
ATOM     13  S   UNL d   1      -0.457  -5.605   2.413  0.00  0.00    -0.037 SA
ATOM     14  C   UNL d   1       1.034  -6.432   2.636  0.00  0.00     0.074 A 
ATOM     15  N   UNL d   1       1.969  -6.079   1.781  0.00  0.00    -0.296 N 
ATOM     16  N   UNL d   1       1.551  -5.063   0.941  0.00  0.00    -0.279 N 
ATOM     17  HN  UNL d   1       2.896  -6.504   1.742  1.00  0.00     0.187 HD
ATOM     18  HN  UNL d   1       2.128  -4.661   0.202  1.00  0.00     0.189 HD
BRANCH  14  19
ATOM     19  C   UNL d   1       1.360  -7.452   3.732  0.00  0.00     0.044 A 
ATOM     20  C   UNL d   1       0.354  -8.492   4.184  0.00  0.00     0.012 A 
ATOM     21  C   UNL d   1       0.666  -7.340   5.080  0.00  0.00     0.012 A 
ENDBRANCH  14  19
ENDBRANCH   9  12
ENDBRANCH   2   8
BRANCH   1  22
ATOM     22  C   UNL d   1      -2.923  -1.194  -0.465  0.00  0.00     0.054 A 
ATOM     23  C   UNL d   1      -3.142  -2.367  -1.198  0.00  0.00     0.130 A 
ATOM     24  F   UNL d   1      -2.125  -3.172  -1.524  0.00  0.00    -0.205 F 
ATOM     25  C   UNL d   1      -4.416  -2.743  -1.641  0.00  0.00     0.043 A 
ATOM     26  C   UNL d   1      -5.516  -1.938  -1.378  0.00  0.00     0.005 A 
ATOM     27  C   UNL d   1      -5.347  -0.788  -0.615  0.00  0.00     0.025 A 
ATOM     28  C   UNL d   1      -4.074  -0.433  -0.135  0.00  0.00     0.049 A 
ATOM     29 CL   UNL d   1      -4.064   0.955   0.911  0.00  0.00    -0.083 Cl
ENDBRANCH   1  22
TORSDOF 4
