REMARK  3 active torsions:
REMARK  status: ('A' for Active; 'I' for Inactive)
REMARK       I    between atoms: C_3  and  N_1 
REMARK    1  A    between atoms: C_5  and  C_3 
REMARK    2  A    between atoms: N_6  and  C_4 
REMARK    3  A    between atoms: S_11  and  C_4 
ROOT
ATOM      1  N   UNL d   1       1.303  -0.041   0.205  0.00  0.00    -0.303 N 
ATOM      2  HN  UNL d   1       0.894   0.763   0.682  1.00  0.00     0.171 HD
ATOM      3  C   UNL d   1       0.543  -1.181   0.097  0.00  0.00     0.261 C 
ATOM      4  C   UNL d   1       2.514   0.078  -0.265  0.00  0.00     0.144 C 
ATOM      5  O   UNL d   1       0.570  -1.990  -0.824  0.00  0.00    -0.267 OA
ENDROOT
BRANCH   3   6
ATOM      6  C   UNL d   1      -0.482  -1.375   1.161  0.00  0.00     0.075 A 
ATOM      7  C   UNL d   1      -0.163  -1.221   2.523  0.00  0.00     0.051 A 
ATOM      8 CL   UNL d   1       1.434  -0.896   3.106  0.00  0.00    -0.083 Cl
ATOM      9  C   UNL d   1      -1.150  -1.390   3.507  0.00  0.00     0.025 A 
ATOM     10  C   UNL d   1      -2.452  -1.736   3.156  0.00  0.00     0.003 A 
ATOM     11  C   UNL d   1      -2.772  -1.922   1.816  0.00  0.00     0.025 A 
ATOM     12  C   UNL d   1      -1.798  -1.742   0.821  0.00  0.00     0.051 A 
ATOM     13 CL   UNL d   1      -2.353  -1.959  -0.807  0.00  0.00    -0.083 Cl
ENDBRANCH   3   6
BRANCH   4  14
ATOM     14  N   UNL d   1       3.244   1.258  -0.063  0.00  0.00    -0.361 N 
ATOM     15  C   UNL d   1       4.541   1.571  -0.690  0.00  0.00     0.129 C 
ATOM     16  C   UNL d   1       5.485   2.272   0.303  0.00  0.00    -0.001 C 
ATOM     17  C   UNL d   1       6.782   2.697  -0.389  0.00  0.00     0.011 C 
ATOM     18  C   UNL d   1       4.812   3.482   0.957  0.00  0.00     0.007 C 
ATOM     19  C   UNL d   1       3.470   3.084   1.558  0.00  0.00     0.020 C 
ATOM     20  C   UNL d   1       2.576   2.438   0.505  0.00  0.00     0.125 C 
ENDBRANCH   4  14
BRANCH   4  21
ATOM     21  S   UNL d   1       3.346  -1.218  -1.134  0.00  0.00    -0.098 SA
ATOM     22  C   UNL d   1       2.721  -0.840  -2.791  0.00  0.00     0.099 C 
ENDBRANCH   4  21
TORSDOF 3
