REMARK  10 active torsions:
REMARK  status: ('A' for Active; 'I' for Inactive)
REMARK    1  A    between atoms: C_2  and  C_1 
REMARK    2  A    between atoms: C_3  and  C_1 
REMARK    3  A    between atoms: O_12  and  C_2 
REMARK    4  A    between atoms: O_13  and  C_3 
REMARK    5  A    between atoms: N_9  and  C_6 
REMARK    6  A    between atoms: N_10  and  N_9 
REMARK    7  A    between atoms: C_14  and  N_10 
REMARK    8  A    between atoms: C_11  and  C_14 
REMARK    9  A    between atoms: C_16  and  O_12 
REMARK   10  A    between atoms: C_15  and  O_13 
ROOT
ATOM      1  N   UNL d   1       6.368  -4.480  -0.319  0.00  0.00    -0.197 NA
ATOM      2  C   UNL d   1       5.740  -3.912   0.477  0.00  0.00     0.060 C 
ATOM      3  C   UNL d   1       4.934  -3.182   1.461  0.00  0.00     0.139 C 
ENDROOT
BRANCH   3   4
ATOM      4  C   UNL d   1       4.381  -1.906   0.828  0.00  0.00     0.119 C 
BRANCH   4   5
ATOM      5  N   UNL d   1       3.547  -1.154   1.770  0.00  0.00    -0.257 NA
ATOM      6  H   UNL d   1       2.732  -1.700   2.067  0.00  0.00     0.141 HD
BRANCH   5   7
ATOM      7  N   UNL d   1       3.155   0.094   1.203  0.00  0.00    -0.236 NA
ATOM      8  H   UNL d   1       2.801   0.710   1.950  0.00  0.00     0.146 HD
BRANCH   7   9
ATOM      9  C   UNL d   1       2.225   0.046   0.167  0.00  0.00     0.098 C 
ATOM     10  C   UNL d   1       0.877   0.041   0.160  0.00  0.00     0.126 C 
BRANCH  10  11
ATOM     11  C   UNL d   1       0.055   0.004   1.388  0.00  0.00     0.300 C 
ATOM     12  O   UNL d   1      -1.110  -0.356   1.433  0.00  0.00    -0.259 OA
BRANCH  11  13
ATOM     13  O   UNL d   1       0.757   0.496   2.445  0.00  0.00    -0.318 OA
BRANCH  13  14
ATOM     14  C   UNL d   1      -0.030   0.970   3.545  0.00  0.00     0.174 C 
ATOM     15  C   UNL d   1      -0.333   2.430   3.267  0.00  0.00     0.034 C 
ENDBRANCH  13  14
ENDBRANCH  11  13
ENDBRANCH  10  11
BRANCH  10  16
ATOM     16  C   UNL d   1       0.245   0.058  -1.184  0.00  0.00     0.300 C 
ATOM     17  O   UNL d   1       0.827  -0.258  -2.212  0.00  0.00    -0.259 OA
BRANCH  16  18
ATOM     18  O   UNL d   1      -1.014   0.561  -1.128  0.00  0.00    -0.318 OA
BRANCH  18  19
ATOM     19  C   UNL d   1      -1.712   0.655  -2.381  0.00  0.00     0.174 C 
ATOM     20  C   UNL d   1      -1.379   1.967  -3.068  0.00  0.00     0.034 C 
ENDBRANCH  18  19
ENDBRANCH  16  18
ENDBRANCH  10  16
ENDBRANCH   7   9
ENDBRANCH   5   7
ENDBRANCH   4   5
ENDBRANCH   3   4
TORSDOF 10
