REMARK  9 active torsions:
REMARK  status: ('A' for Active; 'I' for Inactive)
REMARK    1  A    between atoms: C_3  and  C_1 
REMARK    2  A    between atoms: C_2  and  C_4 
REMARK    3  A    between atoms: C_5  and  N_8 
REMARK    4  A    between atoms: N_14  and  C_5 
REMARK    5  A    between atoms: N_8  and  C_7 
REMARK    6  A    between atoms: N_9  and  N_14 
REMARK    7  A    between atoms: C_22  and  C_21 
REMARK    8  A    between atoms: O_28  and  C_23 
REMARK    9  A    between atoms: C_29  and  O_28 
ROOT
ATOM      1  C   UNL d   1      -0.941   3.957  -4.618  0.00  0.00     0.191 C 
ATOM      2  S   UNL d   1      -0.032   3.404  -3.336  0.00  0.00    -0.039 SA
ENDROOT
BRANCH   1   3
ATOM      3  N   UNL d   1      -1.617   3.256  -5.599  0.00  0.00    -0.332 N 
ATOM      4  H   UNL d   1      -2.258   3.885  -6.074  0.00  0.00     0.168 HD
BRANCH   3   5
ATOM      5  C   UNL d   1      -1.583   1.920  -6.027  0.00  0.00     0.035 A 
ATOM      6  C   UNL d   1      -0.544   1.041  -5.733  0.00  0.00     0.045 A 
ATOM      7  C   UNL d   1      -0.549  -0.279  -6.215  0.00  0.00     0.050 A 
ATOM      8  C   UNL d   1      -1.625  -0.717  -7.000  0.00  0.00     0.032 A 
ATOM      9  C   UNL d   1      -2.677   0.153  -7.321  0.00  0.00     0.050 A 
ATOM     10  C   UNL d   1      -2.629   1.478  -6.848  0.00  0.00     0.045 A 
BRANCH   7  11
ATOM     11  C   UNL d   1       0.612  -1.184  -5.884  0.00  0.00     0.417 C 
ATOM     12  F   UNL d   1       0.477  -2.443  -6.387  0.00  0.00    -0.166 F 
ATOM     13  F   UNL d   1       0.792  -1.335  -4.544  0.00  0.00    -0.166 F 
ATOM     14  F   UNL d   1       1.792  -0.713  -6.373  0.00  0.00    -0.166 F 
ENDBRANCH   7  11
BRANCH   9  15
ATOM     15  C   UNL d   1      -3.847  -0.313  -8.154  0.00  0.00     0.417 C 
ATOM     16  F   UNL d   1      -3.827  -1.649  -8.418  0.00  0.00    -0.166 F 
ATOM     17  F   UNL d   1      -5.044  -0.071  -7.552  0.00  0.00    -0.166 F 
ATOM     18  F   UNL d   1      -3.905   0.307  -9.364  0.00  0.00    -0.166 F 
ENDBRANCH   9  15
ENDBRANCH   3   5
ENDBRANCH   1   3
BRANCH   1  19
ATOM     19  N   UNL d   1      -1.113   5.329  -4.766  0.00  0.00    -0.276 N 
ATOM     20  H   UNL d   1      -0.634   5.958  -4.130  0.00  0.00     0.189 HD
BRANCH  19  21
ATOM     21  N   UNL d   1      -1.815   5.792  -5.831  0.00  0.00    -0.309 N 
ATOM     22  C   UNL d   1      -1.816   7.069  -6.033  0.00  0.00     0.118 C 
ATOM     23  HN  UNL d   1      -2.322   5.158  -6.448  1.00  0.00     0.186 HD
BRANCH  22  24
ATOM     24  C   UNL d   1      -2.528   7.601  -7.212  0.00  0.00    -0.019 A 
ATOM     25  C   UNL d   1      -3.183   6.714  -8.072  0.00  0.00     0.015 A 
ATOM     26  C   UNL d   1      -3.834   7.183  -9.208  0.00  0.00     0.037 A 
ATOM     27  C   UNL d   1      -3.835   8.546  -9.497  0.00  0.00     0.068 A 
ATOM     28  C   UNL d   1      -3.183   9.433  -8.631  0.00  0.00     0.037 A 
ATOM     29  C   UNL d   1      -2.525   8.970  -7.486  0.00  0.00     0.015 A 
BRANCH  27  30
ATOM     30  O   UNL d   1      -4.427   9.122 -10.588  0.00  0.00    -0.352 OA
BRANCH  30  31
ATOM     31  C   UNL d   1      -5.074   8.232 -11.500  0.00  0.00     0.171 C 
ATOM     32  C   UNL d   1      -5.640   9.048 -12.645  0.00  0.00     0.034 C 
ENDBRANCH  30  31
ENDBRANCH  27  30
ENDBRANCH  22  24
ENDBRANCH  19  21
ENDBRANCH   1  19
TORSDOF 9
