REMARK  10 active torsions:
REMARK  status: ('A' for Active; 'I' for Inactive)
REMARK    1  A    between atoms: C_12  and  N_1 
REMARK    2  A    between atoms: N_2  and  C_11 
REMARK    3  A    between atoms: C_11  and  C_24 
REMARK    4  A    between atoms: C_23  and  C_12 
REMARK    5  A    between atoms: N_13  and  C_26 
REMARK    6  A    between atoms: C_25  and  N_14 
REMARK    7  A    between atoms: C_26  and  C_23 
REMARK    8  A    between atoms: O_44  and  C_23 
REMARK    9  A    between atoms: C_24  and  C_25 
REMARK   10  A    between atoms: O_43  and  C_24 
ROOT
ATOM      1  N   UNL d   1       1.929  -2.243   2.409  0.00  0.00     0.094 N 
ATOM      2  N   UNL d   1       1.503   0.765   2.062  0.00  0.00     0.094 N 
ATOM      3  C   UNL d   1       1.401   0.114   3.398  0.00  0.00     0.302 C 
ATOM      4  C   UNL d   1       1.602  -1.564   1.145  0.00  0.00     0.302 C 
ATOM      5  C   UNL d   1       1.306  -1.466   3.508  0.00  0.00     0.302 C 
ATOM      6  C   UNL d   1       2.184  -0.150   1.155  0.00  0.00     0.302 C 
ENDROOT
BRANCH   1   7
ATOM      7  C   UNL d   1       1.500  -3.655   2.329  0.00  0.00     0.305 C 
BRANCH   7   8
ATOM      8  C   UNL d   1       2.412  -4.740   2.998  0.00  0.00     0.164 C 
BRANCH   8   9
ATOM      9  C   UNL d   1       2.181  -6.059   2.201  0.00  0.00     0.163 C 
BRANCH   9  10
ATOM     10  N   UNL d   1       2.726  -7.329   2.668  0.00  0.00    -0.343 N 
ATOM     11  C   UNL d   1       2.065  -8.152   3.575  0.00  0.00     0.046 A 
ATOM     12  C   UNL d   1       2.673  -9.406   3.531  0.00  0.00     0.005 A 
ATOM     13  C   UNL d   1       0.945  -7.916   4.395  0.00  0.00     0.032 A 
ATOM     14  C   UNL d   1       2.195 -10.441   4.359  0.00  0.00     0.038 A 
ATOM     15  C   UNL d   1       3.667  -9.368   2.509  0.00  0.00     0.005 A 
ATOM     16  C   UNL d   1       1.089 -10.200   5.188  0.00  0.00     0.035 A 
ATOM     17  C   UNL d   1       0.470  -8.961   5.194  0.00  0.00     0.026 A 
ATOM     18 CL   UNL d   1       0.486 -11.467   6.180  0.00  0.00    -0.084 Cl
ATOM     19  C   UNL d   1       3.697  -8.065   1.991  0.00  0.00     0.046 A 
ATOM     20  C   UNL d   1       4.491 -10.365   1.944  0.00  0.00     0.038 A 
ATOM     21  C   UNL d   1       4.559  -7.734   0.929  0.00  0.00     0.032 A 
ATOM     22  C   UNL d   1       5.348  -8.749   0.363  0.00  0.00     0.026 A 
ATOM     23  C   UNL d   1       5.305 -10.045   0.860  0.00  0.00     0.035 A 
ATOM     24 CL   UNL d   1       6.228 -11.289   0.102  0.00  0.00    -0.084 Cl
ENDBRANCH   9  10
ENDBRANCH   8   9
BRANCH   8  25
ATOM     25  O   UNL d   1       2.085  -4.873   4.382  0.00  0.00    -0.392 OA
ATOM     26  H   UNL d   1       1.125  -4.790   4.494  0.00  0.00     0.210 HD
ENDBRANCH   8  25
ENDBRANCH   7   8
ENDBRANCH   1   7
BRANCH   2  27
ATOM     27  C   UNL d   1       0.249   1.323   1.533  0.00  0.00     0.305 C 
BRANCH  27  28
ATOM     28  C   UNL d   1       0.318   2.409   0.385  0.00  0.00     0.164 C 
BRANCH  28  29
ATOM     29  C   UNL d   1       0.574   1.948  -1.078  0.00  0.00     0.163 C 
BRANCH  29  30
ATOM     30  N   UNL d   1       1.943   1.987  -1.577  0.00  0.00    -0.343 N 
ATOM     31  C   UNL d   1       2.791   3.077  -1.517  0.00  0.00     0.046 A 
ATOM     32  C   UNL d   1       4.084   2.583  -1.706  0.00  0.00     0.005 A 
ATOM     33  C   UNL d   1       2.542   4.436  -1.263  0.00  0.00     0.032 A 
ATOM     34  C   UNL d   1       5.180   3.456  -1.542  0.00  0.00     0.038 A 
ATOM     35  C   UNL d   1       3.968   1.210  -2.083  0.00  0.00     0.005 A 
ATOM     36  C   UNL d   1       4.939   4.800  -1.250  0.00  0.00     0.035 A 
ATOM     37  C   UNL d   1       3.642   5.290  -1.137  0.00  0.00     0.026 A 
ATOM     38 CL   UNL d   1       6.274   5.868  -1.034  0.00  0.00    -0.084 Cl
ATOM     39  C   UNL d   1       2.606   0.910  -2.148  0.00  0.00     0.046 A 
ATOM     40  C   UNL d   1       4.905   0.205  -2.404  0.00  0.00     0.038 A 
ATOM     41  C   UNL d   1       2.138  -0.330  -2.619  0.00  0.00     0.032 A 
ATOM     42  C   UNL d   1       3.083  -1.304  -2.952  0.00  0.00     0.026 A 
ATOM     43  C   UNL d   1       4.444  -1.047  -2.818  0.00  0.00     0.035 A 
ATOM     44 CL   UNL d   1       5.579  -2.295  -3.166  0.00  0.00    -0.084 Cl
ENDBRANCH  29  30
ENDBRANCH  28  29
BRANCH  28  45
ATOM     45  O   UNL d   1      -0.969   3.080   0.318  0.00  0.00    -0.392 OA
ATOM     46  H   UNL d   1      -1.433   2.984   1.166  0.00  0.00     0.210 HD
ENDBRANCH  28  45
ENDBRANCH  27  28
ENDBRANCH   2  27
TORSDOF 10
