REMARK  7 active torsions:
REMARK  status: ('A' for Active; 'I' for Inactive)
REMARK    1  A    between atoms: C_2  and  C_1 
REMARK    2  A    between atoms: N_3  and  C_1 
REMARK    3  A    between atoms: N_4  and  C_1 
REMARK    4  A    between atoms: C_5  and  C_1 
REMARK    5  A    between atoms: C_6  and  N_3 
REMARK       I    between atoms: C_9  and  N_4 
REMARK    6  A    between atoms: O_16  and  C_5 
REMARK    7  A    between atoms: C_21  and  O_16 
ROOT
ATOM      1  C   UNL d   1       1.019   0.001  -0.022  0.00  0.00     0.281 C 
ENDROOT
BRANCH   1   2
ATOM      2  C   UNL d   1       0.537   0.215   1.455  0.00  0.00     0.436 C 
ATOM      3  F   UNL d   1      -0.447   1.145   1.560  0.00  0.00    -0.166 F 
ATOM      4  F   UNL d   1       0.020  -0.939   1.967  0.00  0.00    -0.166 F 
ATOM      5  F   UNL d   1       1.525   0.579   2.312  0.00  0.00    -0.166 F 
ENDBRANCH   1   2
BRANCH   1   6
ATOM      6  N   UNL d   1       0.677   1.066  -0.997  0.00  0.00    -0.236 NA
ATOM      7  H   UNL d   1      -0.339   1.125  -1.080  0.00  0.00     0.132 HD
BRANCH   6   8
ATOM      8  C   UNL d   1       1.182   2.336  -0.710  0.00  0.00     0.082 A 
ATOM      9  N   UNL d   1       1.890   2.531   0.416  0.00  0.00    -0.351 N 
ATOM     10  C   UNL d   1       2.419   3.757   0.644  0.00  0.00     0.006 A 
ATOM     11  HN  UNL d   1       2.025   1.772   1.084  1.00  0.00     0.167 HD
ATOM     12  C   UNL d   1       3.208   3.936   1.906  0.00  0.00     0.068 C 
ATOM     13  C   UNL d   1       2.258   4.819  -0.236  0.00  0.00     0.024 A 
ATOM     14  C   UNL d   1       1.516   4.612  -1.391  0.00  0.00     0.005 A 
ATOM     15  C   UNL d   1       0.967   3.357  -1.628  0.00  0.00     0.042 A 
ENDBRANCH   6   8
ENDBRANCH   1   6
BRANCH   1  16
ATOM     16  N   UNL d   1       0.459  -1.213  -0.673  0.00  0.00    -0.323 N 
ATOM     17  C   UNL d   1      -0.884  -1.409  -0.831  0.00  0.00     0.215 C 
ATOM     18  O   UNL d   1      -1.714  -0.547  -0.558  0.00  0.00    -0.274 OA
ATOM     19  C   UNL d   1      -1.256  -2.753  -1.390  0.00  0.00     0.117 C 
ATOM     20  H   UNL d   1       1.064  -2.025  -0.699  0.00  0.00     0.165 HD
ENDBRANCH   1  16
BRANCH   1  21
ATOM     21  C   UNL d   1       2.544  -0.304   0.011  0.00  0.00     0.312 C 
ATOM     22  O   UNL d   1       3.411   0.202  -0.696  0.00  0.00    -0.260 OA
BRANCH  21  23
ATOM     23  O   UNL d   1       2.772  -1.439   0.762  0.00  0.00    -0.319 OA
BRANCH  23  24
ATOM     24  C   UNL d   1       4.060  -2.045   0.564  0.00  0.00     0.174 C 
ATOM     25  C   UNL d   1       3.995  -2.949  -0.656  0.00  0.00     0.034 C 
ENDBRANCH  23  24
ENDBRANCH  21  23
ENDBRANCH   1  21
TORSDOF 7
