REMARK  7 active torsions:
REMARK  status: ('A' for Active; 'I' for Inactive)
REMARK    1  A    between atoms: C_14  and  N_1 
REMARK    2  A    between atoms: C_8  and  C_2 
REMARK    3  A    between atoms: S_13  and  C_3 
REMARK    4  A    between atoms: C_12  and  C_8 
REMARK    5  A    between atoms: O_19  and  C_9 
REMARK    6  A    between atoms: O_20  and  C_10 
REMARK    7  A    between atoms: C_15  and  C_14 
ROOT
ATOM      1  N   UNL d   1       3.018   0.908  -1.275  0.00  0.00    -0.311 N 
ATOM      2  C   UNL d   1       3.002  -0.476  -1.180  0.00  0.00     0.104 A 
ATOM      3  C   UNL d   1       3.743   1.187  -2.404  0.00  0.00     0.160 A 
ATOM      4  N   UNL d   1       3.661  -0.970  -2.212  0.00  0.00    -0.286 N 
ATOM      5  HN  UNL d   1       3.801  -1.960  -2.410  1.00  0.00     0.188 HD
ATOM      6  N   UNL d   1       4.124   0.071  -2.974  0.00  0.00    -0.279 N 
ATOM      7  HN  UNL d   1       4.668  -0.009  -3.833  1.00  0.00     0.189 HD
ENDROOT
BRANCH   2   8
ATOM      8  C   UNL d   1       2.357  -1.259  -0.079  0.00  0.00     0.116 C 
BRANCH   8   9
ATOM      9  C   UNL d   1       2.359  -2.769  -0.252  0.00  0.00    -0.048 A 
ATOM     10  C   UNL d   1       1.709  -3.374  -1.342  0.00  0.00     0.047 A 
ATOM     11  C   UNL d   1       1.609  -4.774  -1.466  0.00  0.00     0.102 A 
ATOM     12  C   UNL d   1       2.205  -5.592  -0.494  0.00  0.00     0.101 A 
ATOM     13  C   UNL d   1       2.886  -4.989   0.573  0.00  0.00     0.040 A 
ATOM     14  C   UNL d   1       2.956  -3.599   0.702  0.00  0.00     0.010 A 
BRANCH  11  15
ATOM     15  O   UNL d   1       0.982  -5.363  -2.533  0.00  0.00    -0.353 OA
ATOM     16  C   UNL d   1      -0.080  -4.623  -3.125  0.00  0.00     0.210 C 
ENDBRANCH  11  15
BRANCH  12  17
ATOM     17  O   UNL d   1       2.218  -6.961  -0.415  0.00  0.00    -0.353 OA
ATOM     18  C   UNL d   1       1.404  -7.707  -1.308  0.00  0.00     0.210 C 
ENDBRANCH  12  17
ENDBRANCH   8   9
ENDBRANCH   2   8
BRANCH   1  19
ATOM     19  C   UNL d   1       2.462   1.857  -0.324  0.00  0.00     0.159 C 
BRANCH  19  20
ATOM     20  C   UNL d   1       1.148   2.431  -0.780  0.00  0.00    -0.017 C 
ATOM     21  C   UNL d   1       0.915   3.730  -1.013  0.00  0.00     0.008 C 
ENDBRANCH  19  20
ENDBRANCH   1  19
BRANCH   3  22
ATOM     22  S   UNL d   1       4.143   2.761  -2.998  0.00  0.00    -0.105 SA
ATOM     23  H   UNL d   1       3.203   3.488  -2.389  0.00  0.00     0.110 HD
ENDBRANCH   3  22
TORSDOF 7
