REMARK  4 active torsions:
REMARK  status: ('A' for Active; 'I' for Inactive)
REMARK    1  A    between atoms: C_2  and  N_1 
REMARK       I    between atoms: C_3  and  N_1 
REMARK    2  A    between atoms: N_4  and  C_2 
REMARK    3  A    between atoms: C_7  and  C_3 
REMARK    4  A    between atoms: C_8  and  N_4 
ROOT
ATOM      1  N   UNL d   1       1.195   0.608  -0.009  0.00  0.00    -0.299 N 
ATOM      2  C   UNL d   1       1.021   0.168   1.298  0.00  0.00     0.257 C 
ATOM      3  O   UNL d   1      -0.032   0.080   1.912  0.00  0.00    -0.267 OA
ATOM      4  H   UNL d   1       2.128   0.878  -0.232  0.00  0.00     0.171 HD
ENDROOT
BRANCH   1   5
ATOM      5  C   UNL d   1       0.437   0.298  -1.108  0.00  0.00     0.179 C 
ATOM      6  S   UNL d   1      -1.123  -0.309  -1.097  0.00  0.00    -0.040 SA
BRANCH   5   7
ATOM      7  N   UNL d   1       0.963   0.562  -2.349  0.00  0.00    -0.333 N 
ATOM      8  H   UNL d   1       0.243   0.462  -3.061  0.00  0.00     0.168 HD
BRANCH   7   9
ATOM      9  C   UNL d   1       2.191   1.074  -2.815  0.00  0.00     0.034 C 
ATOM     10  C   UNL d   1       3.413   1.036  -2.137  0.00  0.00     0.029 C 
ATOM     11  C   UNL d   1       4.522   1.736  -2.627  0.00  0.00     0.002 C 
ATOM     12  C   UNL d   1       4.443   2.415  -3.839  0.00  0.00     0.000 C 
ATOM     13  C   UNL d   1       3.271   2.349  -4.585  0.00  0.00     0.002 C 
ATOM     14  C   UNL d   1       2.159   1.674  -4.082  0.00  0.00     0.029 C 
ENDBRANCH   7   9
ENDBRANCH   5   7
ENDBRANCH   1   5
BRANCH   2  15
ATOM     15  C   UNL d   1       2.291  -0.213   1.970  0.00  0.00     0.032 A 
ATOM     16  C   UNL d   1       3.447   0.572   1.887  0.00  0.00     0.017 A 
ATOM     17  C   UNL d   1       4.650   0.087   2.401  0.00  0.00     0.001 A 
ATOM     18  C   UNL d   1       4.695  -1.172   3.002  0.00  0.00     0.000 A 
ATOM     19  C   UNL d   1       3.533  -1.937   3.118  0.00  0.00     0.001 A 
ATOM     20  C   UNL d   1       2.329  -1.456   2.608  0.00  0.00     0.017 A 
ENDBRANCH   2  15
TORSDOF 4
