REMARK  3 active torsions:
REMARK  status: ('A' for Active; 'I' for Inactive)
REMARK    1  A    between atoms: N_2  and  C_1 
REMARK    2  A    between atoms: C_7  and  C_4 
REMARK    3  A    between atoms: O_11  and  C_7 
ROOT
ATOM      1  C   UNL d   1      -0.154   1.060  -0.011  0.00  0.00     0.215 A 
ATOM      2  O   UNL d   1      -1.048   0.039  -0.018  0.00  0.00    -0.282 OA
ATOM      3  C   UNL d   1      -0.317  -1.125  -0.011  0.00  0.00     0.153 A 
ATOM      4  C   UNL d   1       1.141   0.601   0.001  0.00  0.00     0.066 A 
ATOM      5  C   UNL d   1       1.035  -0.815   0.001  0.00  0.00     0.048 A 
ENDROOT
BRANCH   3   6
ATOM      6  C   UNL d   1      -0.995  -2.402  -0.018  0.00  0.00     0.317 C 
ATOM      7  O   UNL d   1      -0.441  -3.495  -0.013  0.00  0.00    -0.257 OA
BRANCH   6   8
ATOM      8  O   UNL d   1      -2.345  -2.213  -0.030  0.00  0.00    -0.321 OA
ATOM      9  C   UNL d   1      -3.114  -3.414  -0.038  0.00  0.00     0.213 C 
ENDBRANCH   6   8
ENDBRANCH   3   6
BRANCH   1  10
ATOM     10  N   UNL d   1      -0.697   2.382  -0.017  0.00  0.00    -0.090 N 
ATOM     11  O   UNL d   1       0.123   3.309  -0.011  0.00  0.00    -0.530 OA
ATOM     12  O   UNL d   1      -1.929   2.503  -0.027  0.00  0.00    -0.530 OA
ENDBRANCH   1  10
TORSDOF 3
