REMARK  9 active torsions:
REMARK  status: ('A' for Active; 'I' for Inactive)
REMARK    1  A    between atoms: C_5  and  C_1 
REMARK    2  A    between atoms: O_7  and  C_2 
REMARK    3  A    between atoms: C_3  and  C_10 
REMARK    4  A    between atoms: C_4  and  N_8 
REMARK    5  A    between atoms: N_15  and  C_4 
REMARK    6  A    between atoms: O_24  and  C_5 
REMARK    7  A    between atoms: N_8  and  C_6 
REMARK    8  A    between atoms: C_11  and  O_7 
REMARK    9  A    between atoms: C_23  and  N_15 
ROOT
ATOM      1  C   UNL d   1       1.974   3.565   0.813  0.00  0.00     0.069 C 
ATOM      2  C   UNL d   1       2.328   5.842  -0.036  0.00  0.00     0.050 C 
ATOM      3  C   UNL d   1       1.961   3.115  -0.523  0.00  0.00     0.102 C 
ATOM      4  C   UNL d   1       2.086   4.944   1.019  0.00  0.00     0.048 C 
ATOM      5  C   UNL d   1       2.537   5.335  -1.317  0.00  0.00     0.019 C 
ATOM      6  C   UNL d   1       2.352   3.981  -1.558  0.00  0.00     0.040 C 
ENDROOT
BRANCH   1   7
ATOM      7  N   UNL d   1       1.950   2.611   1.871  0.00  0.00    -0.331 N 
ATOM      8  H   UNL d   1       1.721   1.676   1.565  0.00  0.00     0.168 HD
BRANCH   7   9
ATOM      9  C   UNL d   1       2.352   2.712   3.186  0.00  0.00     0.176 C 
ATOM     10  S   UNL d   1       2.490   4.066   4.165  0.00  0.00    -0.041 SA
BRANCH   9  11
ATOM     11  N   UNL d   1       2.680   1.554   3.842  0.00  0.00    -0.333 N 
ATOM     12  H   UNL d   1       2.794   1.728   4.837  0.00  0.00     0.168 HD
BRANCH  11  13
ATOM     13  C   UNL d   1       2.961   0.238   3.437  0.00  0.00     0.034 A 
ATOM     14  C   UNL d   1       3.204  -0.156   2.123  0.00  0.00     0.031 A 
ATOM     15  C   UNL d   1       3.369  -1.510   1.810  0.00  0.00     0.026 A 
ATOM     16  C   UNL d   1       3.344  -2.466   2.820  0.00  0.00     0.034 A 
ATOM     17  C   UNL d   1       3.207  -2.077   4.148  0.00  0.00     0.026 A 
ATOM     18 CL   UNL d   1       3.485  -4.133   2.425  0.00  0.00    -0.084 Cl
ATOM     19  C   UNL d   1       3.025  -0.726   4.455  0.00  0.00     0.031 A 
ENDBRANCH  11  13
ENDBRANCH   9  11
ENDBRANCH   7   9
ENDBRANCH   1   7
BRANCH   3  20
ATOM     20  O   UNL d   1       1.594   1.814  -0.839  0.00  0.00    -0.307 OA
BRANCH  20  21
ATOM     21  C   UNL d   1       0.819   1.594  -1.951  0.00  0.00     0.099 A 
ATOM     22  C   UNL d   1       0.938   0.450  -2.724  0.00  0.00     0.114 A 
ATOM     23  S   UNL d   1      -0.090   0.535  -4.109  0.00  0.00    -0.093 SA
ATOM     24  C   UNL d   1      -0.710   2.054  -3.662  0.00  0.00     0.053 A 
ATOM     25  C   UNL d   1      -0.181   2.488  -2.469  0.00  0.00     0.046 A 
BRANCH  22  26
ATOM     26  C   UNL d   1       1.812  -0.695  -2.519  0.00  0.00     0.302 C 
ATOM     27  O   UNL d   1       2.612  -0.814  -1.603  0.00  0.00    -0.259 OA
BRANCH  26  28
ATOM     28  O   UNL d   1       1.630  -1.631  -3.497  0.00  0.00    -0.322 OA
ATOM     29  C   UNL d   1       2.437  -2.807  -3.422  0.00  0.00     0.213 C 
ENDBRANCH  26  28
ENDBRANCH  22  26
ENDBRANCH  20  21
ENDBRANCH   3  20
BRANCH   2  30
ATOM     30  C   UNL d   1       2.371   7.330   0.209  0.00  0.00     0.417 C 
ATOM     31  F   UNL d   1       1.939   7.697   1.445  0.00  0.00    -0.166 F 
ATOM     32  F   UNL d   1       3.622   7.847   0.074  0.00  0.00    -0.166 F 
ATOM     33  F   UNL d   1       1.587   8.012  -0.673  0.00  0.00    -0.166 F 
ENDBRANCH   2  30
TORSDOF 9
