REMARK  3 active torsions:
REMARK  status: ('A' for Active; 'I' for Inactive)
REMARK    1  A    between atoms: N_9  and  C_3 
REMARK    2  A    between atoms: C_10  and  N_4 
REMARK    3  A    between atoms: C_8  and  C_12 
ROOT
ATOM      1  C   UNL d   1      -0.643   1.314  -0.005  0.00  0.00     0.131 A 
ATOM      2  C   UNL d   1      -1.470   0.071  -0.025  0.00  0.00     0.291 A 
ATOM      3  C   UNL d   1       0.698   1.291   0.003  0.00  0.00     0.075 A 
ATOM      4  N   UNL d   1      -0.757  -1.137  -0.036  0.00  0.00    -0.220 N 
ATOM      5  N   UNL d   1       0.618  -1.200   0.034  0.00  0.00    -0.300 N 
ATOM      6  HN  UNL d   1       1.107  -2.094   0.081  1.00  0.00     0.186 HD
ATOM      7  C   UNL d   1       1.264  -0.079   0.037  0.00  0.00     0.139 A 
ATOM      8  O   UNL d   1      -2.697   0.175  -0.001  0.00  0.00    -0.264 OA
ATOM      9 CL   UNL d   1      -1.523   2.810  -0.070  0.00  0.00    -0.076 Cl
ENDROOT
BRANCH   4  10
ATOM     10  C   UNL d   1      -1.405  -2.418  -0.015  0.00  0.00     0.060 A 
ATOM     11  C   UNL d   1      -2.718  -2.589  -0.475  0.00  0.00     0.032 A 
ATOM     12  C   UNL d   1      -3.394  -3.804  -0.322  0.00  0.00     0.018 A 
ATOM     13  C   UNL d   1      -2.769  -4.892   0.296  0.00  0.00     0.048 A 
ATOM     14  C   UNL d   1      -1.429  -4.762   0.682  0.00  0.00     0.018 A 
ATOM     15  C   UNL d   1      -0.753  -3.545   0.514  0.00  0.00     0.032 A 
BRANCH  13  16
ATOM     16  C   UNL d   1      -3.558  -6.149   0.561  0.00  0.00     0.417 C 
ATOM     17  F   UNL d   1      -2.842  -7.122   1.191  0.00  0.00    -0.166 F 
ATOM     18  F   UNL d   1      -4.644  -5.918   1.353  0.00  0.00    -0.166 F 
ATOM     19  F   UNL d   1      -4.042  -6.716  -0.578  0.00  0.00    -0.166 F 
ENDBRANCH  13  16
ENDBRANCH   4  10
BRANCH   3  20
ATOM     20  N   UNL d   1       1.602   2.351  -0.006  0.00  0.00    -0.374 N 
ATOM     21  C   UNL d   1       2.555   2.562  -1.110  0.00  0.00     0.149 C 
ATOM     22  C   UNL d   1       2.352   3.963  -1.707  0.00  0.00     0.187 C 
ATOM     23  O   UNL d   1       2.504   4.978  -0.701  0.00  0.00    -0.388 OA
ATOM     24  C   UNL d   1       1.512   4.812   0.327  0.00  0.00     0.187 C 
ATOM     25  C   UNL d   1       1.617   3.433   0.998  0.00  0.00     0.149 C 
ENDBRANCH   3  20
TORSDOF 3
