REMARK  2 active torsions:
REMARK  status: ('A' for Active; 'I' for Inactive)
REMARK    1  A    between atoms: N_8  and  C_1 
REMARK    2  A    between atoms: O_12  and  C_10 
ROOT
ATOM      1  C   UNL d   1      -1.814   0.427   0.077  0.00  0.00     0.143 A 
ATOM      2  N   UNL d   1      -0.884   1.345   0.037  0.00  0.00    -0.336 N 
ATOM      3  HN  UNL d   1      -1.055   2.351   0.026  1.00  0.00     0.168 HD
ATOM      4  S   UNL d   1      -1.264  -1.195   0.033  0.00  0.00    -0.052 SA
ATOM      5  C   UNL d   1       0.366  -0.642   0.008  0.00  0.00     0.037 A 
ATOM      6  C   UNL d   1       0.367   0.752   0.011  0.00  0.00     0.051 A 
ATOM      7  C   UNL d   1       1.555  -1.396  -0.009  0.00  0.00     0.058 A 
ATOM      8  C   UNL d   1       1.604   1.425  -0.007  0.00  0.00     0.034 A 
ATOM      9  C   UNL d   1       2.774  -0.710  -0.015  0.00  0.00     0.069 A 
ATOM     10  C   UNL d   1       2.793   0.685  -0.017  0.00  0.00     0.039 A 
ENDROOT
BRANCH   1  11
ATOM     11  N   UNL d   1      -3.125   0.713   0.136  0.00  0.00    -0.380 N 
ATOM     12  H   UNL d   1      -3.386   1.663  -0.102  0.00  0.00     0.158 HD
ATOM     13  H   UNL d   1      -3.789   0.005  -0.144  0.00  0.00     0.158 HD
ENDBRANCH   1  11
BRANCH   9  14
ATOM     14  O   UNL d   1       4.013  -1.294  -0.018  0.00  0.00    -0.356 OA
ATOM     15  C   UNL d   1       4.054  -2.716  -0.002  0.00  0.00     0.210 C 
ENDBRANCH   9  14
TORSDOF 2
