REMARK  5 active torsions:
REMARK  status: ('A' for Active; 'I' for Inactive)
REMARK    1  A    between atoms: N_9  and  C_1 
REMARK    2  A    between atoms: C_11  and  N_6 
REMARK    3  A    between atoms: C_8  and  C_10 
REMARK       I    between atoms: C_10  and  N_14 
REMARK    4  A    between atoms: C_13  and  C_11 
REMARK       I    between atoms: N_17  and  C_13 
REMARK    5  A    between atoms: N_14  and  N_17 
ROOT
ATOM      1  C   UNL d   1       3.067   0.750  -0.090  0.00  0.00     0.257 C 
ATOM      2  N   UNL d   1       3.380  -0.385   0.628  0.00  0.00    -0.266 N 
ATOM      3  O   UNL d   1       3.910   1.304  -0.806  0.00  0.00    -0.270 OA
ATOM      4  H   UNL d   1       2.646  -1.027   0.938  0.00  0.00     0.190 HD
ENDROOT
BRANCH   1   5
ATOM      5  C   UNL d   1       1.728   1.385   0.158  0.00  0.00     0.272 C 
BRANCH   5   6
ATOM      6  N   UNL d   1       0.570   0.530   0.039  0.00  0.00    -0.194 N 
ATOM      7  N   UNL d   1       0.594  -0.814   0.047  0.00  0.00    -0.115 N 
ATOM      8  C   UNL d   1      -0.692  -1.077  -0.244  0.00  0.00     0.709 A 
ATOM      9  HN  UNL d   1       1.369  -1.453   0.225  1.00  0.00     0.207 HD
ATOM     10  N   UNL d   1      -1.452   0.065  -0.323  0.00  0.00    -0.113 N 
ATOM     11  N   UNL d   1      -0.643   1.086  -0.103  0.00  0.00     0.011 NA
ATOM     12  HN  UNL d   1      -2.452   0.115  -0.515  1.00  0.00     0.203 HD
BRANCH   8  13
ATOM     13  N   UNL d   1      -1.255  -2.278  -0.465  0.00  0.00    -0.215 N 
ATOM     14  C   UNL d   1      -2.618  -2.440  -0.931  0.00  0.00     0.141 C 
ATOM     15  C   UNL d   1      -2.968  -3.868  -0.527  0.00  0.00     0.022 C 
ATOM     16  C   UNL d   1      -1.629  -4.588  -0.583  0.00  0.00     0.022 C 
ATOM     17  C   UNL d   1      -0.629  -3.534  -0.104  0.00  0.00     0.141 C 
ENDBRANCH   8  13
ENDBRANCH   5   6
ENDBRANCH   1   5
BRANCH   2  18
ATOM     18  N   UNL d   1       4.649  -0.947   0.391  0.00  0.00    -0.263 N 
ATOM     19  C   UNL d   1       5.195  -1.798   1.327  0.00  0.00     0.271 C 
ATOM     20  O   UNL d   1       4.562  -2.219   2.297  0.00  0.00    -0.266 OA
ATOM     21  H   UNL d   1       5.223  -0.453  -0.295  0.00  0.00     0.190 HD
BRANCH  19  22
ATOM     22  C   UNL d   1       6.594  -2.284   1.080  0.00  0.00     0.055 A 
ATOM     23  C   UNL d   1       7.572  -1.630   0.313  0.00  0.00     0.051 A 
ATOM     24  C   UNL d   1       8.814  -2.241   0.075  0.00  0.00     0.048 A 
ATOM     25 CL   UNL d   1       7.369  -0.049  -0.355  0.00  0.00    -0.083 Cl
ATOM     26  C   UNL d   1       9.095  -3.490   0.621  0.00  0.00     0.035 A 
ATOM     27  C   UNL d   1       8.159  -4.131   1.424  0.00  0.00     0.025 A 
ATOM     28 CL   UNL d   1      10.604  -4.246   0.298  0.00  0.00    -0.084 Cl
ATOM     29  C   UNL d   1       6.918  -3.530   1.655  0.00  0.00     0.020 A 
ENDBRANCH  19  22
ENDBRANCH   2  18
TORSDOF 5
