REMARK  4 active torsions:
REMARK  status: ('A' for Active; 'I' for Inactive)
REMARK    1  A    between atoms: C_10  and  C_2 
REMARK    2  A    between atoms: N_15  and  C_5 
REMARK    3  A    between atoms: O_17  and  C_10 
REMARK    4  A    between atoms: C_21  and  O_17 
ROOT
ATOM      1  C   UNL d   1      -0.710   0.640  -0.047  0.00  0.00     0.146 A 
ATOM      2  C   UNL d   1      -1.537   0.380  -1.298  0.00  0.00     0.074 C 
ATOM      3  C   UNL d   1      -1.474   0.350   1.236  0.00  0.00     0.095 C 
ATOM      4  C   UNL d   1      -0.213   2.125  -0.009  0.00  0.00     0.246 A 
ATOM      5  C   UNL d   1      -2.591  -0.403   1.208  0.00  0.00     0.139 C 
ATOM      6  C   UNL d   1      -2.669  -0.355  -1.211  0.00  0.00     0.065 C 
ATOM      7  N   UNL d   1       1.180   2.095   0.060  0.00  0.00    -0.325 N 
ATOM      8  O   UNL d   1      -3.119  -0.850   0.008  0.00  0.00    -0.302 OA
ATOM      9  C   UNL d   1       0.613  -0.115  -0.032  0.00  0.00    -0.003 A 
ATOM     10  C   UNL d   1       1.669   0.797   0.034  0.00  0.00     0.043 A 
ATOM     11  C   UNL d   1      -0.952   0.817   2.480  0.00  0.00     0.101 C 
ATOM     12  N   UNL d   1      -0.541   1.206   3.491  0.00  0.00    -0.191 NA
ATOM     13  O   UNL d   1      -0.901   3.134  -0.018  0.00  0.00    -0.271 OA
ATOM     14  C   UNL d   1      -3.583  -0.807  -2.318  0.00  0.00     0.077 C 
ATOM     15  C   UNL d   1       0.853  -1.480  -0.050  0.00  0.00     0.011 A 
ATOM     16  C   UNL d   1       2.986   0.393   0.047  0.00  0.00     0.030 A 
ATOM     17  C   UNL d   1       2.180  -1.910  -0.025  0.00  0.00     0.001 A 
ATOM     18  C   UNL d   1       3.237  -0.982   0.014  0.00  0.00     0.002 A 
ATOM     19  H   UNL d   1       1.744   2.934   0.099  0.00  0.00     0.169 HD
ENDROOT
BRANCH   5  20
ATOM     20  N   UNL d   1      -3.304  -0.836   2.297  0.00  0.00    -0.282 NA
ATOM     21  H   UNL d   1      -3.213  -0.282   3.147  0.00  0.00     0.126 HD
ATOM     22  H   UNL d   1      -4.266  -1.075   2.067  0.00  0.00     0.126 HD
ENDBRANCH   5  20
BRANCH   2  23
ATOM     23  C   UNL d   1      -1.085   0.912  -2.618  0.00  0.00     0.293 C 
ATOM     24  O   UNL d   1      -1.812   1.113  -3.576  0.00  0.00    -0.259 OA
BRANCH  23  25
ATOM     25  O   UNL d   1       0.261   1.034  -2.641  0.00  0.00    -0.318 OA
BRANCH  25  26
ATOM     26  C   UNL d   1       0.875   1.015  -3.938  0.00  0.00     0.174 C 
ATOM     27  C   UNL d   1       1.250  -0.427  -4.224  0.00  0.00     0.034 C 
ENDBRANCH  25  26
ENDBRANCH  23  25
ENDBRANCH   2  23
TORSDOF 4
