REMARK  7 active torsions:
REMARK  status: ('A' for Active; 'I' for Inactive)
REMARK    1  A    between atoms: O_10  and  S_1 
REMARK    2  A    between atoms: N_11  and  S_1 
REMARK    3  A    between atoms: C_4  and  C_14 
REMARK    4  A    between atoms: C_15  and  C_5 
REMARK    5  A    between atoms: C_9  and  O_16 
REMARK    6  A    between atoms: C_24  and  O_10 
REMARK    7  A    between atoms: O_16  and  C_25 
ROOT
ATOM      1  N   UNL d   1       2.750   6.189   3.799  0.00  0.00    -0.319 N 
ATOM      2  HN  UNL d   1       3.636   5.740   3.569  1.00  0.00     0.169 HD
ATOM      3  C   UNL d   1       1.482   5.860   3.374  0.00  0.00     0.138 A 
ATOM      4  C   UNL d   1       2.531   7.228   4.574  0.00  0.00     0.182 A 
ATOM      5  N   UNL d   1       0.519   6.658   3.864  0.00  0.00    -0.242 N 
ATOM      6  HN  UNL d   1      -0.486   6.610   3.693  1.00  0.00     0.196 HD
ATOM      7  O   UNL d   1       1.212   7.564   4.659  0.00  0.00    -0.217 OA
ENDROOT
BRANCH   3   8
ATOM      8  C   UNL d   1       1.232   4.750   2.464  0.00  0.00     0.010 A 
ATOM      9  C   UNL d   1       2.282   3.939   2.010  0.00  0.00     0.018 A 
ATOM     10  C   UNL d   1       2.037   2.894   1.110  0.00  0.00     0.039 A 
ATOM     11  C   UNL d   1       0.741   2.657   0.646  0.00  0.00     0.090 A 
ATOM     12  C   UNL d   1      -0.313   3.433   1.125  0.00  0.00     0.039 A 
ATOM     13  C   UNL d   1      -0.069   4.479   2.017  0.00  0.00     0.018 A 
BRANCH  11  14
ATOM     14  O   UNL d   1       0.588   1.644  -0.268  0.00  0.00    -0.221 OA
BRANCH  14  15
ATOM     15  S   UNL d   1      -0.618   1.689  -1.375  0.00  0.00     0.344 S 
ATOM     16  O   UNL d   1      -0.677   3.020  -1.947  0.00  0.00    -0.180 OA
ATOM     17  O   UNL d   1      -1.791   1.078  -0.791  0.00  0.00    -0.180 OA
BRANCH  15  18
ATOM     18  N   UNL d   1      -0.059   0.659  -2.612  0.00  0.00    -0.196 NA
ATOM     19  C   UNL d   1       1.205   1.087  -3.233  0.00  0.00     0.131 C 
ATOM     20  C   UNL d   1      -0.111  -0.780  -2.314  0.00  0.00     0.131 C 
ENDBRANCH  15  18
ENDBRANCH  14  15
ENDBRANCH  11  14
ENDBRANCH   3   8
BRANCH   4  21
ATOM     21  C   UNL d   1       3.479   8.059   5.301  0.00  0.00     0.017 A 
ATOM     22  C   UNL d   1       4.851   7.809   5.168  0.00  0.00     0.018 A 
ATOM     23  C   UNL d   1       5.800   8.615   5.814  0.00  0.00     0.038 A 
ATOM     24  C   UNL d   1       5.383   9.703   6.577  0.00  0.00     0.078 A 
ATOM     25  C   UNL d   1       4.015   9.923   6.759  0.00  0.00     0.038 A 
ATOM     26  C   UNL d   1       3.069   9.114   6.124  0.00  0.00     0.018 A 
BRANCH  24  27
ATOM     27  O   UNL d   1       6.184  10.601   7.211  0.00  0.00    -0.255 OA
BRANCH  27  28
ATOM     28  C   UNL d   1       7.497  10.834   6.722  0.00  0.00     0.530 C 
ATOM     29  F   UNL d   1       7.681  10.446   5.443  0.00  0.00    -0.144 F 
ATOM     30  F   UNL d   1       7.743  12.163   6.785  0.00  0.00    -0.144 F 
ATOM     31  F   UNL d   1       8.393  10.202   7.509  0.00  0.00    -0.144 F 
ENDBRANCH  27  28
ENDBRANCH  24  27
ENDBRANCH   4  21
TORSDOF 7
