REMARK  5 active torsions:
REMARK  status: ('A' for Active; 'I' for Inactive)
REMARK    1  A    between atoms: C_7  and  C_1 
REMARK    2  A    between atoms: O_17  and  C_8 
REMARK    3  A    between atoms: C_12  and  C_9 
REMARK    4  A    between atoms: O_18  and  C_10 
REMARK    5  A    between atoms: O_19  and  C_11 
ROOT
ATOM      1  C   UNL d   1       3.327  -2.201  -1.122  0.00  0.00     0.164 A 
ATOM      2  N   UNL d   1       2.451  -1.515  -0.469  0.00  0.00    -0.331 N 
ATOM      3  HN  UNL d   1       2.566  -0.615  -0.003  1.00  0.00     0.168 HD
ATOM      4  O   UNL d   1       2.926  -3.370  -1.676  0.00  0.00    -0.255 OA
ATOM      5  C   UNL d   1       1.328  -2.293  -0.556  0.00  0.00     0.111 A 
ATOM      6  C   UNL d   1       1.610  -3.514  -1.365  0.00  0.00     0.316 A 
ATOM      7  C   UNL d   1       0.174  -1.978   0.049  0.00  0.00     0.047 C 
ATOM      8  O   UNL d   1       0.888  -4.440  -1.693  0.00  0.00    -0.257 OA
ENDROOT
BRANCH   7   9
ATOM      9  C   UNL d   1      -1.028  -2.799   0.003  0.00  0.00    -0.028 A 
ATOM     10  C   UNL d   1      -1.247  -3.774   0.971  0.00  0.00     0.051 A 
ATOM     11  C   UNL d   1      -2.385  -4.594   0.923  0.00  0.00     0.105 A 
ATOM     12  C   UNL d   1      -3.327  -4.444  -0.128  0.00  0.00     0.135 A 
ATOM     13  C   UNL d   1      -3.071  -3.479  -1.129  0.00  0.00     0.105 A 
ATOM     14  C   UNL d   1      -1.935  -2.661  -1.039  0.00  0.00     0.051 A 
BRANCH  11  15
ATOM     15  O   UNL d   1      -2.538  -5.607   1.844  0.00  0.00    -0.353 OA
ATOM     16  C   UNL d   1      -2.064  -5.323   3.161  0.00  0.00     0.210 C 
ENDBRANCH  11  15
BRANCH  12  17
ATOM     17  O   UNL d   1      -4.484  -5.162  -0.272  0.00  0.00    -0.351 OA
ATOM     18  C   UNL d   1      -4.986  -5.957   0.791  0.00  0.00     0.210 C 
ENDBRANCH  12  17
BRANCH  13  19
ATOM     19  O   UNL d   1      -3.770  -3.180  -2.269  0.00  0.00    -0.353 OA
ATOM     20  C   UNL d   1      -4.985  -3.829  -2.590  0.00  0.00     0.210 C 
ENDBRANCH  13  19
ENDBRANCH   7   9
BRANCH   1  21
ATOM     21  C   UNL d   1       4.740  -1.876  -1.358  0.00  0.00     0.032 A 
ATOM     22  C   UNL d   1       5.554  -1.221  -0.421  0.00  0.00     0.021 A 
ATOM     23  I   UNL d   1       4.961  -0.708   1.529  0.00  0.00    -0.044 I 
ATOM     24  C   UNL d   1       6.884  -0.917  -0.749  0.00  0.00     0.019 A 
ATOM     25  C   UNL d   1       7.404  -1.267  -1.996  0.00  0.00     0.001 A 
ATOM     26  C   UNL d   1       6.605  -1.925  -2.924  0.00  0.00     0.001 A 
ATOM     27  C   UNL d   1       5.280  -2.228  -2.610  0.00  0.00     0.017 A 
ENDBRANCH   1  21
TORSDOF 5
