REMARK  0 active torsions:
REMARK  status: ('A' for Active; 'I' for Inactive)
ROOT
ATOM      1  C   UNL d   1      -3.123   0.184   0.132  0.00  0.00     0.148 A 
ATOM      2  N   UNL d   1      -2.417   0.807  -0.788  0.00  0.00    -0.336 N 
ATOM      3  HN  UNL d   1      -2.823   1.331  -1.563  1.00  0.00     0.168 HD
ATOM      4  S   UNL d   1      -2.148  -0.613   1.322  0.00  0.00    -0.052 SA
ATOM      5  C   UNL d   1      -0.714  -0.096   0.541  0.00  0.00     0.036 A 
ATOM      6  N   UNL d   1      -4.483   0.146   0.128  0.00  0.00    -0.357 N 
ATOM      7  C   UNL d   1      -1.059   0.663  -0.574  0.00  0.00     0.051 A 
ATOM      8  C   UNL d   1       0.624  -0.345   0.891  0.00  0.00     0.045 A 
ATOM      9  C   UNL d   1      -0.031   1.203  -1.372  0.00  0.00     0.032 A 
ATOM     10  O   UNL d   1      -7.155  -0.651  -0.427  0.00  0.00    -0.388 OA
ATOM     11  C   UNL d   1       1.622   0.202   0.084  0.00  0.00     0.035 A 
ATOM     12  C   UNL d   1       1.308   0.968  -1.035  0.00  0.00     0.026 A 
ATOM     13 CL   UNL d   1       3.274  -0.079   0.482  0.00  0.00    -0.084 Cl
ATOM     14  C   UNL d   1      -5.312  -0.433   1.185  0.00  0.00     0.151 C 
ATOM     15  C   UNL d   1      -5.245   0.826  -0.924  0.00  0.00     0.151 C 
ATOM     16  C   UNL d   1      -6.366  -1.353   0.548  0.00  0.00     0.187 C 
ATOM     17  C   UNL d   1      -6.314  -0.133  -1.474  0.00  0.00     0.187 C 
ENDROOT
TORSDOF 0
