REMARK  4 active torsions:
REMARK  status: ('A' for Active; 'I' for Inactive)
REMARK    1  A    between atoms: C_4  and  C_1 
REMARK    2  A    between atoms: O_5  and  C_2 
REMARK    3  A    between atoms: O_6  and  C_3 
REMARK    4  A    between atoms: O_7  and  C_4 
ROOT
ATOM      1  C   UNL d   1       1.635  -0.263   0.464  0.00  0.00     0.032 A 
ATOM      2  C   UNL d   1       0.754  -1.344   0.282  0.00  0.00     0.079 A 
ATOM      3  C   UNL d   1       1.145   1.034   0.220  0.00  0.00     0.079 A 
ATOM      4  C   UNL d   1      -1.050   0.163  -0.305  0.00  0.00     0.005 A 
ATOM      5  C   UNL d   1      -0.188   1.244  -0.145  0.00  0.00     0.037 A 
ATOM      6  C   UNL d   1      -0.578  -1.130  -0.085  0.00  0.00     0.037 A 
ENDROOT
BRANCH   1   7
ATOM      7  C   UNL d   1       3.045  -0.479   0.937  0.00  0.00     0.208 C 
BRANCH   7   8
ATOM      8  O   UNL d   1       3.934  -0.651  -0.169  0.00  0.00    -0.396 OA
ATOM      9  H   UNL d   1       3.413  -0.570  -0.985  0.00  0.00     0.209 HD
ENDBRANCH   7   8
ENDBRANCH   1   7
BRANCH   2  10
ATOM     10  O   UNL d   1       1.074  -2.643   0.585  0.00  0.00    -0.355 OA
ATOM     11  C   UNL d   1       2.058  -3.213  -0.276  0.00  0.00     0.210 C 
ENDBRANCH   2  10
BRANCH   3  12
ATOM     12  O   UNL d   1       1.876   2.170   0.459  0.00  0.00    -0.355 OA
ATOM     13  C   UNL d   1       2.942   2.363  -0.470  0.00  0.00     0.210 C 
ENDBRANCH   3  12
TORSDOF 4
