REMARK  6 active torsions:
REMARK  status: ('A' for Active; 'I' for Inactive)
REMARK    1  A    between atoms: N_3  and  S_1 
REMARK    2  A    between atoms: C_4  and  S_1 
REMARK    3  A    between atoms: C_2  and  O_7 
REMARK    4  A    between atoms: C_12  and  N_3 
REMARK    5  A    between atoms: O_7  and  C_13 
REMARK    6  A    between atoms: N_14  and  C_8 
ROOT
ATOM      1  C   UNL d   1       0.570   1.524   0.142  0.00  0.00     0.080 A 
ATOM      2  C   UNL d   1      -0.748   1.744   0.552  0.00  0.00     0.028 A 
ATOM      3  C   UNL d   1       1.449   2.595  -0.044  0.00  0.00     0.028 A 
ATOM      4  C   UNL d   1      -0.364   4.132   0.399  0.00  0.00     0.076 A 
ATOM      5  C   UNL d   1      -1.212   3.055   0.680  0.00  0.00     0.039 A 
ATOM      6  C   UNL d   1       0.984   3.901   0.108  0.00  0.00     0.039 A 
ENDROOT
BRANCH   1   7
ATOM      7  S   UNL d   1       1.135  -0.128  -0.177  0.00  0.00     0.263 S 
ATOM      8  O   UNL d   1       2.578  -0.120  -0.266  0.00  0.00    -0.200 OA
ATOM      9  O   UNL d   1       0.446  -1.011   0.741  0.00  0.00    -0.200 OA
BRANCH   7  10
ATOM     10  N   UNL d   1       0.495  -0.440  -1.698  0.00  0.00    -0.281 N 
ATOM     11  H   UNL d   1       0.071  -1.360  -1.806  0.00  0.00     0.179 HD
BRANCH  10  12
ATOM     12  C   UNL d   1       0.967   0.256  -2.835  0.00  0.00     0.042 A 
ATOM     13  C   UNL d   1       2.189  -0.063  -3.428  0.00  0.00     0.033 A 
ATOM     14  C   UNL d   1       2.595   0.613  -4.580  0.00  0.00     0.044 A 
ATOM     15  C   UNL d   1       1.773   1.594  -5.131  0.00  0.00     0.116 A 
ATOM     16  C   UNL d   1       0.547   1.904  -4.552  0.00  0.00     0.044 A 
ATOM     17  F   UNL d   1       2.163   2.240  -6.235  0.00  0.00    -0.206 F 
ATOM     18  C   UNL d   1       0.139   1.227  -3.403  0.00  0.00     0.033 A 
ENDBRANCH  10  12
ENDBRANCH   7  10
ENDBRANCH   1   7
BRANCH   4  19
ATOM     19  O   UNL d   1      -0.958   5.376   0.398  0.00  0.00    -0.307 OA
BRANCH  19  20
ATOM     20  C   UNL d   1      -0.438   6.372  -0.412  0.00  0.00     0.118 C 
ATOM     21  C   UNL d   1      -0.195   6.202  -1.794  0.00  0.00     0.042 C 
ATOM     22  C   UNL d   1       0.439   7.239  -2.493  0.00  0.00     0.026 C 
ATOM     23  C   UNL d   1       0.675   8.475  -1.892  0.00  0.00     0.004 C 
ATOM     24  C   UNL d   1       0.306   8.683  -0.567  0.00  0.00     0.027 C 
ATOM     25  C   UNL d   1      -0.242   7.633   0.174  0.00  0.00     0.069 C 
ATOM     26 CL   UNL d   1      -0.663   7.939   1.823  0.00  0.00    -0.081 Cl
BRANCH  21  27
ATOM     27  N   UNL d   1      -0.366   4.973  -2.457  0.00  0.00    -0.300 NA
ATOM     28  H   UNL d   1      -1.080   4.390  -2.028  0.00  0.00     0.124 HD
ATOM     29  H   UNL d   1      -0.473   5.051  -3.462  0.00  0.00     0.124 HD
ENDBRANCH  21  27
ENDBRANCH  19  20
ENDBRANCH   4  19
TORSDOF 6
