REMARK  2 active torsions:
REMARK  status: ('A' for Active; 'I' for Inactive)
REMARK    1  A    between atoms: C_5  and  C_1 
REMARK    2  A    between atoms: C_8  and  C_7 
ROOT
ATOM      1  C   UNL d   1      -0.075  -1.050   0.400  0.00  0.00     0.134 A 
ATOM      2  C   UNL d   1      -0.959  -0.018   0.613  0.00  0.00     0.067 A 
ATOM      3  N   UNL d   1       0.821   0.806  -0.526  0.00  0.00    -0.300 N 
ATOM      4  HN  UNL d   1       1.458   1.420  -1.033  1.00  0.00     0.187 HD
ATOM      5  N   UNL d   1       0.975  -0.503  -0.269  0.00  0.00    -0.296 N 
ATOM      6  C   UNL d   1      -0.357   1.129   0.033  0.00  0.00     0.060 A 
ATOM      7  H   UNL d   1       1.829  -0.955  -0.587  0.00  0.00     0.187 HD
ENDROOT
BRANCH   6   8
ATOM      8  C   UNL d   1      -0.886   2.492   0.011  0.00  0.00    -0.007 A 
ATOM      9  C   UNL d   1      -1.735   2.941   1.034  0.00  0.00     0.026 A 
ATOM     10  C   UNL d   1      -2.257   4.245   1.029  0.00  0.00    -0.025 A 
ATOM     11  C   UNL d   1      -3.100   4.700   2.057  0.00  0.00     0.012 A 
ATOM     12  C   UNL d   1      -1.925   5.118  -0.031  0.00  0.00    -0.026 A 
ATOM     13  C   UNL d   1      -3.617   5.995   2.033  0.00  0.00     0.001 A 
ATOM     14  C   UNL d   1      -3.297   6.852   0.984  0.00  0.00     0.001 A 
ATOM     15  C   UNL d   1      -2.454   6.418  -0.040  0.00  0.00     0.012 A 
ATOM     16  C   UNL d   1      -1.072   4.667  -1.051  0.00  0.00     0.013 A 
ATOM     17  C   UNL d   1      -0.557   3.369  -1.028  0.00  0.00     0.014 A 
ENDBRANCH   6   8
BRANCH   1  18
ATOM     18  C   UNL d   1      -0.103  -2.474   0.751  0.00  0.00     0.434 C 
ATOM     19  F   UNL d   1      -1.239  -2.817   1.404  0.00  0.00    -0.165 F 
ATOM     20  F   UNL d   1      -0.018  -3.260  -0.350  0.00  0.00    -0.165 F 
ATOM     21  F   UNL d   1       0.937  -2.808   1.554  0.00  0.00    -0.165 F 
ENDBRANCH   1  18
TORSDOF 2
