REMARK  6 active torsions:
REMARK  status: ('A' for Active; 'I' for Inactive)
REMARK       I    between atoms: N_2  and  C_1 
REMARK    1  A    between atoms: C_3  and  C_1 
REMARK       I    between atoms: C_4  and  N_2 
REMARK       I    between atoms: N_7  and  C_4 
REMARK    2  A    between atoms: C_5  and  C_8 
REMARK    3  A    between atoms: C_6  and  N_7 
REMARK    4  A    between atoms: O_10  and  C_9 
REMARK    5  A    between atoms: C_12  and  O_10 
REMARK    6  A    between atoms: O_25  and  C_19 
ROOT
ATOM      1  C   UNL d   1       2.987  -1.120  -0.093  0.00  0.00     0.071 C 
ATOM      2  C   UNL d   1       5.242  -0.217  -0.413  0.00  0.00     0.050 C 
ATOM      3  C   UNL d   1       2.812  -0.326   1.053  0.00  0.00     0.103 C 
ATOM      4  C   UNL d   1       4.211  -1.091  -0.787  0.00  0.00     0.048 C 
ATOM      5  C   UNL d   1       5.073   0.550   0.740  0.00  0.00     0.019 C 
ATOM      6  C   UNL d   1       3.904   0.441   1.498  0.00  0.00     0.040 C 
ENDROOT
BRANCH   1   7
ATOM      7  N   UNL d   1       2.095  -2.122  -0.494  0.00  0.00    -0.306 N 
ATOM      8  C   UNL d   1       0.825  -2.089  -0.991  0.00  0.00     0.327 C 
ATOM      9  N   UNL d   1       0.210  -0.885  -1.188  0.00  0.00    -0.275 N 
ATOM     10  O   UNL d   1       0.381  -3.185  -1.330  0.00  0.00    -0.247 OA
ATOM     11  C   UNL d   1      -1.001  -0.771  -1.867  0.00  0.00     0.263 C 
ATOM     12  H   UNL d   1       0.676  -0.060  -0.844  0.00  0.00     0.173 HD
ATOM     13  O   UNL d   1      -1.670  -1.757  -2.190  0.00  0.00    -0.267 OA
ATOM     14  H   UNL d   1       2.511  -3.000  -0.788  0.00  0.00     0.171 HD
BRANCH  11  15
ATOM     15  C   UNL d   1      -1.627   0.561  -2.140  0.00  0.00     0.075 C 
ATOM     16  C   UNL d   1      -2.606   0.685  -3.147  0.00  0.00     0.051 C 
ATOM     17 CL   UNL d   1      -2.694  -0.379  -4.514  0.00  0.00    -0.083 Cl
ATOM     18  C   UNL d   1      -3.495   1.771  -3.167  0.00  0.00     0.025 C 
ATOM     19  C   UNL d   1      -3.429   2.757  -2.188  0.00  0.00     0.003 C 
ATOM     20  C   UNL d   1      -2.382   2.725  -1.281  0.00  0.00     0.025 C 
ATOM     21  C   UNL d   1      -1.455   1.674  -1.312  0.00  0.00     0.051 C 
ATOM     22 CL   UNL d   1       0.004   1.957  -0.476  0.00  0.00    -0.083 Cl
ENDBRANCH  11  15
ENDBRANCH   1   7
BRANCH   3  23
ATOM     23  O   UNL d   1       1.648  -0.440   1.790  0.00  0.00    -0.306 OA
BRANCH  23  24
ATOM     24  C   UNL d   1       1.105   0.644   2.470  0.00  0.00     0.109 A 
ATOM     25  C   UNL d   1       0.065   0.439   3.390  0.00  0.00     0.102 A 
ATOM     26  C   UNL d   1      -0.601   1.553   3.937  0.00  0.00     0.039 A 
ATOM     27  C   UNL d   1      -0.247   2.859   3.605  0.00  0.00     0.003 A 
ATOM     28  C   UNL d   1       0.798   3.072   2.729  0.00  0.00     0.003 A 
ATOM     29  C   UNL d   1       1.461   1.978   2.170  0.00  0.00     0.040 A 
BRANCH  25  30
ATOM     30  O   UNL d   1      -0.478  -0.728   3.853  0.00  0.00    -0.353 OA
ATOM     31  C   UNL d   1       0.175  -1.961   3.613  0.00  0.00     0.210 C 
ENDBRANCH  25  30
ENDBRANCH  23  24
ENDBRANCH   3  23
BRANCH   2  32
ATOM     32  C   UNL d   1       6.508  -0.096  -1.227  0.00  0.00     0.417 C 
ATOM     33  F   UNL d   1       6.687  -1.117  -2.108  0.00  0.00    -0.166 F 
ATOM     34  F   UNL d   1       6.532   1.048  -1.966  0.00  0.00    -0.166 F 
ATOM     35  F   UNL d   1       7.628  -0.066  -0.454  0.00  0.00    -0.166 F 
ENDBRANCH   2  32
TORSDOF 6
