REMARK  2 active torsions:
REMARK  status: ('A' for Active; 'I' for Inactive)
REMARK    1  A    between atoms: C_2  and  C_1 
REMARK       I    between atoms: N_5  and  C_2 
REMARK    2  A    between atoms: C_10  and  N_5 
ROOT
ATOM      1  C   UNL d   1      -2.804  -0.489   0.294  0.00  0.00     0.267 C 
ATOM      2  N   UNL d   1      -3.680   0.257  -0.471  0.00  0.00    -0.322 N 
ATOM      3  O   UNL d   1      -3.115  -1.266   1.192  0.00  0.00    -0.267 OA
ATOM      4  H   UNL d   1      -3.280   0.853  -1.189  0.00  0.00     0.169 HD
ENDROOT
BRANCH   1   5
ATOM      5  C   UNL d   1      -1.352  -0.250   0.001  0.00  0.00     0.128 C 
ATOM      6  S   UNL d   1      -0.843   1.443  -0.212  0.00  0.00     0.059 S 
ATOM      7  O   UNL d   1      -0.713   1.641  -1.694  0.00  0.00    -0.252 OA
ATOM      8  C   UNL d   1       0.816   1.264   0.475  0.00  0.00     0.141 C 
ATOM      9  C   UNL d   1       1.518   0.123  -0.211  0.00  0.00     0.188 C 
ATOM     10  O   UNL d   1       0.921  -1.144   0.052  0.00  0.00    -0.353 OA
ATOM     11  C   UNL d   1      -0.455  -1.265   0.073  0.00  0.00     0.067 C 
ATOM     12  C   UNL d   1      -0.840  -2.720   0.190  0.00  0.00     0.078 C 
ENDBRANCH   1   5
BRANCH   2  13
ATOM     13  C   UNL d   1      -5.092   0.271  -0.376  0.00  0.00     0.035 A 
ATOM     14  C   UNL d   1      -5.824  -0.525   0.510  0.00  0.00     0.029 A 
ATOM     15  C   UNL d   1      -7.222  -0.481   0.526  0.00  0.00     0.002 A 
ATOM     16  C   UNL d   1      -7.905   0.369  -0.339  0.00  0.00     0.000 A 
ATOM     17  C   UNL d   1      -7.189   1.182  -1.213  0.00  0.00     0.002 A 
ATOM     18  C   UNL d   1      -5.790   1.134  -1.231  0.00  0.00     0.029 A 
ENDBRANCH   2  13
TORSDOF 2
