REMARK  6 active torsions:
REMARK  status: ('A' for Active; 'I' for Inactive)
REMARK    1  A    between atoms: C_3  and  C_1 
REMARK    2  A    between atoms: C_4  and  C_2 
REMARK       I    between atoms: N_7  and  C_3 
REMARK    3  A    between atoms: O_28  and  C_5 
REMARK    4  A    between atoms: C_6  and  C_8 
REMARK    5  A    between atoms: C_11  and  C_16 
REMARK    6  A    between atoms: C_12  and  C_11 
ROOT
ATOM      1  C   UNL d   1       2.961  -0.464   0.260  0.00  0.00     0.257 C 
ATOM      2  N   UNL d   1       4.184   0.246   0.454  0.00  0.00    -0.348 N 
ATOM      3  O   UNL d   1       1.948  -0.226   0.917  0.00  0.00    -0.267 OA
ATOM      4  C   UNL d   1       5.205   0.332  -0.582  0.00  0.00     0.127 C 
ATOM      5  C   UNL d   1       4.140   1.377   1.388  0.00  0.00     0.127 C 
ATOM      6  C   UNL d   1       6.512   2.072   0.706  0.00  0.00     0.064 C 
ATOM      7  C   UNL d   1       6.581   0.785  -0.116  0.00  0.00     0.032 C 
ATOM      8  C   UNL d   1       5.527   1.844   1.856  0.00  0.00     0.032 C 
ENDROOT
BRANCH   1   9
ATOM      9  C   UNL d   1       2.899  -1.578  -0.743  0.00  0.00     0.080 C 
ATOM     10  C   UNL d   1       3.069  -1.366  -2.125  0.00  0.00     0.067 C 
ATOM     11  C   UNL d   1       3.258  -2.478  -2.979  0.00  0.00     0.033 C 
ATOM     12  C   UNL d   1       3.190  -3.789  -2.504  0.00  0.00     0.051 C 
ATOM     13  C   UNL d   1       2.865  -3.986  -1.164  0.00  0.00     0.053 C 
ATOM     14  C   UNL d   1       2.650  -2.900  -0.298  0.00  0.00     0.085 C 
BRANCH  10  15
ATOM     15  C   UNL d   1       3.035  -0.013  -2.791  0.00  0.00     0.418 C 
ATOM     16  F   UNL d   1       2.611   1.014  -2.015  0.00  0.00    -0.166 F 
ATOM     17  F   UNL d   1       4.259   0.334  -3.279  0.00  0.00    -0.166 F 
ATOM     18  F   UNL d   1       2.214  -0.012  -3.881  0.00  0.00    -0.166 F 
ENDBRANCH  10  15
BRANCH  12  19
ATOM     19  C   UNL d   1       3.379  -4.975  -3.419  0.00  0.00     0.417 C 
ATOM     20  F   UNL d   1       3.778  -4.632  -4.673  0.00  0.00    -0.166 F 
ATOM     21  F   UNL d   1       4.312  -5.849  -2.952  0.00  0.00    -0.166 F 
ATOM     22  F   UNL d   1       2.232  -5.692  -3.569  0.00  0.00    -0.166 F 
ENDBRANCH  12  19
BRANCH  14  23
ATOM     23  O   UNL d   1       2.202  -3.124   0.980  0.00  0.00    -0.355 OA
ATOM     24  C   UNL d   1       1.208  -4.157   1.096  0.00  0.00     0.210 C 
ENDBRANCH  14  23
ENDBRANCH   1   9
BRANCH   6  25
ATOM     25  C   UNL d   1       6.175   3.293  -0.160  0.00  0.00     0.163 C 
ATOM     26  O   UNL d   1       5.896   3.202  -1.358  0.00  0.00    -0.292 OA
BRANCH  25  27
ATOM     27  C   UNL d   1       6.206   4.663   0.428  0.00  0.00     0.010 A 
ATOM     28  C   UNL d   1       7.057   4.998   1.489  0.00  0.00     0.017 A 
ATOM     29  C   UNL d   1       7.058   6.298   1.998  0.00  0.00     0.025 A 
ATOM     30  C   UNL d   1       6.211   7.265   1.452  0.00  0.00     0.034 A 
ATOM     31  C   UNL d   1       5.377   6.947   0.390  0.00  0.00     0.025 A 
ATOM     32 CL   UNL d   1       6.208   8.857   2.101  0.00  0.00    -0.084 Cl
ATOM     33  C   UNL d   1       5.375   5.651  -0.129  0.00  0.00     0.017 A 
ENDBRANCH  25  27
ENDBRANCH   6  25
TORSDOF 6
