REMARK  7 active torsions:
REMARK  status: ('A' for Active; 'I' for Inactive)
REMARK    1  A    between atoms: N_15  and  C_2 
REMARK    2  A    between atoms: C_3  and  C_23 
REMARK    3  A    between atoms: C_10  and  C_6 
REMARK    4  A    between atoms: C_27  and  N_15 
REMARK    5  A    between atoms: S_21  and  C_28 
REMARK    6  A    between atoms: C_23  and  S_21 
REMARK    7  A    between atoms: C_28  and  C_27 
ROOT
ATOM      1  N   UNL d   1      -1.779  -2.567  -0.124  0.00  0.00    -0.392 N 
ATOM      2  H   UNL d   1      -1.197  -3.138   0.494  0.00  0.00     0.159 HD
ENDROOT
BRANCH   1   3
ATOM      3  C   UNL d   1      -1.168  -1.435  -0.639  0.00  0.00     0.009 C 
ATOM      4  C   UNL d   1      -1.830  -0.426  -1.228  0.00  0.00     0.074 C 
ATOM      5  C   UNL d   1      -1.120   0.721  -1.843  0.00  0.00     0.151 C 
ATOM      6  C   UNL d   1       0.390   0.727  -1.837  0.00  0.00     0.092 C 
ATOM      7  O   UNL d   1      -1.771   1.610  -2.388  0.00  0.00    -0.293 OA
ATOM      8  C   UNL d   1       0.944   0.034  -0.586  0.00  0.00     0.031 C 
ATOM      9  C   UNL d   1       0.349  -1.393  -0.523  0.00  0.00     0.066 C 
BRANCH   8  10
ATOM     10  C   UNL d   1       0.795   0.805   0.730  0.00  0.00    -0.053 A 
ATOM     11  C   UNL d   1       0.163   2.057   0.823  0.00  0.00     0.009 A 
ATOM     12  C   UNL d   1       0.062   2.728   2.046  0.00  0.00     0.024 A 
ATOM     13  C   UNL d   1       0.597   2.160   3.196  0.00  0.00     0.034 A 
ATOM     14  C   UNL d   1       1.243   0.932   3.130  0.00  0.00     0.024 A 
ATOM     15 CL   UNL d   1       0.468   2.986   4.699  0.00  0.00    -0.084 Cl
ATOM     16  C   UNL d   1       1.349   0.265   1.907  0.00  0.00     0.009 A 
ENDBRANCH   8  10
ENDBRANCH   1   3
BRANCH   1  17
ATOM     17  C   UNL d   1      -3.209  -2.785   0.050  0.00  0.00     0.130 C 
BRANCH  17  18
ATOM     18  C   UNL d   1      -3.521  -4.268   0.285  0.00  0.00     0.093 C 
BRANCH  18  19
ATOM     19  S   UNL d   1      -2.686  -4.988   1.745  0.00  0.00    -0.163 SA
BRANCH  19  20
ATOM     20  C   UNL d   1      -3.546  -4.069   3.061  0.00  0.00     0.113 C 
BRANCH  20  21
ATOM     21  C   UNL d   1      -3.012  -4.407   4.439  0.00  0.00    -0.037 A 
ATOM     22  C   UNL d   1      -1.888  -3.722   4.967  0.00  0.00    -0.054 A 
ATOM     23  C   UNL d   1      -1.476  -3.978   6.287  0.00  0.00     0.014 A 
ATOM     24  C   UNL d   1      -1.095  -2.690   4.205  0.00  0.00     0.049 C 
ATOM     25  C   UNL d   1      -2.137  -4.910   7.089  0.00  0.00    -0.061 A 
ATOM     26  C   UNL d   1      -3.205  -5.625   6.547  0.00  0.00     0.014 A 
ATOM     27  C   UNL d   1      -1.692  -5.133   8.503  0.00  0.00     0.048 C 
ATOM     28  C   UNL d   1      -3.638  -5.405   5.228  0.00  0.00    -0.054 A 
ATOM     29  C   UNL d   1      -4.809  -6.223   4.744  0.00  0.00     0.049 C 
ENDBRANCH  20  21
ENDBRANCH  19  20
ENDBRANCH  18  19
ENDBRANCH  17  18
ENDBRANCH   1  17
TORSDOF 7
