REMARK  1 active torsions:
REMARK  status: ('A' for Active; 'I' for Inactive)
REMARK       I    between atoms: N_2  and  C_1 
REMARK       I    between atoms: N_4  and  C_1 
REMARK       I    between atoms: C_3  and  N_2 
REMARK       I    between atoms: N_9  and  C_3 
REMARK    1  A    between atoms: C_10  and  N_4 
ROOT
ATOM      1  C   UNL d   1       0.998  -0.040  -0.063  0.00  0.00     0.678 C 
ATOM      2  N   UNL d   1       2.160   0.622  -0.355  0.00  0.00    -0.167 N 
ATOM      3  C   UNL d   1       2.588   1.895  -0.160  0.00  0.00     0.163 C 
ATOM      4  N   UNL d   1       0.261   0.511   0.950  0.00  0.00    -0.192 N 
ATOM      5  N   UNL d   1       0.655  -1.117  -0.691  0.00  0.00    -0.234 N 
ATOM      6  HN  UNL d   1      -0.194  -1.649  -0.498  1.00  0.00     0.174 HD
ATOM      7  N   UNL d   1       1.923   2.884   0.322  0.00  0.00    -0.376 N 
ATOM      8  HN  UNL d   1       2.287   3.821   0.497  1.00  0.00     0.158 HD
ATOM      9  N   UNL d   1       3.857   2.111  -0.572  0.00  0.00    -0.274 NA
ATOM     10  H   UNL d   1       2.721   0.157  -1.054  0.00  0.00     0.187 HD
ATOM     11  H   UNL d   1       0.784   0.833   1.753  0.00  0.00     0.184 HD
ATOM     12  H   UNL d   1       1.340  -1.369  -1.403  0.00  0.00     0.174 HD
ATOM     13  H   UNL d   1       0.961   2.570   0.500  0.00  0.00     0.158 HD
ATOM     14  H   UNL d   1       4.539   1.475  -0.176  0.00  0.00     0.127 HD
ATOM     15  H   UNL d   1       4.117   3.071  -0.353  0.00  0.00     0.127 HD
ENDROOT
BRANCH   4  16
ATOM     16  C   UNL d   1      -1.127   0.391   1.138  0.00  0.00     0.049 A 
ATOM     17  C   UNL d   1      -1.659   0.398   2.436  0.00  0.00     0.032 A 
ATOM     18  C   UNL d   1      -3.039   0.304   2.646  0.00  0.00     0.026 A 
ATOM     19  C   UNL d   1      -3.901   0.209   1.556  0.00  0.00     0.034 A 
ATOM     20  C   UNL d   1      -3.393   0.184   0.262  0.00  0.00     0.026 A 
ATOM     21 CL   UNL d   1      -5.600   0.127   1.811  0.00  0.00    -0.084 Cl
ATOM     22  C   UNL d   1      -2.012   0.261   0.059  0.00  0.00     0.032 A 
ENDBRANCH   4  16
TORSDOF 1
