REMARK  2 active torsions:
REMARK  status: ('A' for Active; 'I' for Inactive)
REMARK    1  A    between atoms: N_7  and  C_1 
REMARK       I    between atoms: C_8  and  N_7 
REMARK    2  A    between atoms: C_15  and  C_8 
ROOT
ATOM      1  C   UNL d   1       1.483   1.143   0.249  0.00  0.00     0.138 A 
ATOM      2  N   UNL d   1       2.332   0.117   0.197  0.00  0.00    -0.282 N 
ATOM      3  HN  UNL d   1       3.350   0.152   0.241  1.00  0.00     0.189 HD
ATOM      4  C   UNL d   1       0.137   0.691   0.140  0.00  0.00     0.076 A 
ATOM      5  N   UNL d   1       1.558  -0.970   0.072  0.00  0.00    -0.294 N 
ATOM      6  C   UNL d   1       0.216  -0.697   0.037  0.00  0.00     0.067 A 
ATOM      7  C   UNL d   1      -1.133   1.289   0.133  0.00  0.00     0.132 A 
ATOM      8  C   UNL d   1       2.180  -2.270  -0.003  0.00  0.00     0.178 C 
ATOM      9  F   UNL d   1      -1.257   2.621   0.230  0.00  0.00    -0.205 F 
ATOM     10  C   UNL d   1      -0.918  -1.516  -0.067  0.00  0.00     0.032 A 
ATOM     11  C   UNL d   1      -2.170  -0.890  -0.064  0.00  0.00     0.005 A 
ATOM     12  C   UNL d   1      -2.280   0.497   0.033  0.00  0.00     0.043 A 
ENDROOT
BRANCH   1  13
ATOM     13  N   UNL d   1       1.854   2.468   0.379  0.00  0.00    -0.311 N 
ATOM     14  C   UNL d   1       3.145   2.902   0.611  0.00  0.00     0.222 C 
ATOM     15  O   UNL d   1       4.144   2.215   0.799  0.00  0.00    -0.273 OA
ATOM     16  H   UNL d   1       1.101   3.141   0.347  0.00  0.00     0.170 HD
BRANCH  14  17
ATOM     17  C   UNL d   1       3.261   4.413   0.623  0.00  0.00     0.099 C 
ATOM     18  C   UNL d   1       3.149   4.989  -0.776  0.00  0.00     0.014 C 
ENDBRANCH  14  17
ENDBRANCH   1  13
TORSDOF 2
