REMARK  7 active torsions:
REMARK  status: ('A' for Active; 'I' for Inactive)
REMARK       I    between atoms: N_3  and  C_1 
REMARK    1  A    between atoms: C_6  and  C_1 
REMARK    2  A    between atoms: C_2  and  C_7 
REMARK    3  A    between atoms: O_12  and  C_2 
REMARK    4  A    between atoms: C_8  and  N_3 
REMARK    5  A    between atoms: C_10  and  C_6 
REMARK    6  A    between atoms: C_7  and  C_10 
REMARK    7  A    between atoms: C_11  and  C_8 
ROOT
ATOM      1  C   UNL d   1       0.944  -0.490  -0.080  0.00  0.00     0.218 C 
ATOM      2  N   UNL d   1       0.317  -0.590  -1.300  0.00  0.00    -0.357 N 
ATOM      3  O   UNL d   1       0.371  -0.660   0.991  0.00  0.00    -0.274 OA
ATOM      4  H   UNL d   1       0.864  -0.506  -2.147  0.00  0.00     0.162 HD
ENDROOT
BRANCH   1   5
ATOM      5  C   UNL d   1       2.411  -0.100  -0.181  0.00  0.00     0.107 C 
BRANCH   5   6
ATOM      6  C   UNL d   1       3.218  -0.433   1.089  0.00  0.00    -0.000 C 
ATOM      7  C   UNL d   1       4.632   0.154   1.012  0.00  0.00     0.011 C 
BRANCH   6   8
ATOM      8  C   UNL d   1       3.258  -1.934   1.445  0.00  0.00     0.114 C 
BRANCH   8   9
ATOM      9  C   UNL d   1       3.852  -2.853   0.399  0.00  0.00     0.139 C 
ATOM     10  O   UNL d   1       4.209  -2.528  -0.723  0.00  0.00    -0.650 OA
BRANCH   9  11
ATOM     11  O   UNL d   1       3.940  -4.132   0.835  0.00  0.00    -0.776 OA
ATOM     12  H   UNL d   1       3.609  -4.260   1.745  0.00  0.00     0.167 HD
ENDBRANCH   9  11
ENDBRANCH   8   9
ENDBRANCH   6   8
ENDBRANCH   5   6
ENDBRANCH   1   5
BRANCH   2  13
ATOM     13  C   UNL d   1      -1.081  -0.941  -1.432  0.00  0.00     0.161 C 
BRANCH  13  14
ATOM     14  C   UNL d   1      -1.249  -2.231  -2.196  0.00  0.00    -0.040 A 
ATOM     15  C   UNL d   1      -0.837  -3.446  -1.626  0.00  0.00     0.010 A 
ATOM     16  C   UNL d   1      -0.966  -4.644  -2.334  0.00  0.00     0.024 A 
ATOM     17  C   UNL d   1      -1.512  -4.634  -3.615  0.00  0.00     0.034 A 
ATOM     18  C   UNL d   1      -1.941  -3.439  -4.189  0.00  0.00     0.024 A 
ATOM     19 CL   UNL d   1      -1.655  -6.106  -4.496  0.00  0.00    -0.084 Cl
ATOM     20  C   UNL d   1      -1.810  -2.241  -3.482  0.00  0.00     0.010 A 
ENDBRANCH  13  14
ENDBRANCH   2  13
TORSDOF 7
