REMARK  6 active torsions:
REMARK  status: ('A' for Active; 'I' for Inactive)
REMARK    1  A    between atoms: C_2  and  S_1 
REMARK    2  A    between atoms: N_3  and  S_1 
REMARK    3  A    between atoms: C_4  and  N_10 
REMARK    4  A    between atoms: C_8  and  C_5 
REMARK    5  A    between atoms: C_12  and  O_15 
REMARK    6  A    between atoms: O_15  and  C_13 
ROOT
ATOM      1  N   UNL d   1       0.131  -0.256  -1.024  0.00  0.00    -0.304 N 
ATOM      2  N   UNL d   1      -2.614  -1.351  -0.799  0.00  0.00    -0.280 NA
ATOM      3  C   UNL d   1      -1.089   0.599  -1.114  0.00  0.00     0.150 C 
ATOM      4  C   UNL d   1      -0.122  -1.707  -1.257  0.00  0.00     0.150 C 
ATOM      5  C   UNL d   1      -2.262   0.017  -0.304  0.00  0.00     0.116 C 
ATOM      6  C   UNL d   1      -1.437  -2.247  -0.637  0.00  0.00     0.116 C 
ENDROOT
BRANCH   2   7
ATOM      7  C   UNL d   1      -3.288  -1.261  -2.047  0.00  0.00     0.025 C 
ATOM      8  C   UNL d   1      -2.673  -1.653  -3.233  0.00  0.00     0.059 C 
ATOM      9  C   UNL d   1      -3.061  -1.063  -4.429  0.00  0.00     0.118 C 
ATOM     10  N   UNL d   1      -4.161  -0.273  -4.521  0.00  0.00    -0.352 N 
ATOM     11  C   UNL d   1      -4.901  -0.075  -3.418  0.00  0.00     0.044 A 
ATOM     12  HN  UNL d   1      -4.419   0.160  -5.407  1.00  0.00     0.166 HD
ATOM     13  C   UNL d   1      -4.528  -0.575  -2.153  0.00  0.00     0.012 A 
ATOM     14  C   UNL d   1      -6.051   0.696  -3.519  0.00  0.00     0.030 A 
ATOM     15  C   UNL d   1      -5.390  -0.351  -1.052  0.00  0.00     0.015 A 
ATOM     16  C   UNL d   1      -6.557   0.396  -1.184  0.00  0.00     0.001 A 
ATOM     17  C   UNL d   1      -6.877   0.941  -2.419  0.00  0.00     0.002 A 
BRANCH   9  18
ATOM     18  C   UNL d   1      -2.117  -1.209  -5.616  0.00  0.00     0.432 C 
ATOM     19  F   UNL d   1      -2.264  -0.253  -6.574  0.00  0.00    -0.165 F 
ATOM     20  F   UNL d   1      -0.803  -1.128  -5.230  0.00  0.00    -0.165 F 
ATOM     21  F   UNL d   1      -2.230  -2.410  -6.246  0.00  0.00    -0.165 F 
ENDBRANCH   9  18
ENDBRANCH   2   7
BRANCH   1  22
ATOM     22  S   UNL d   1       1.243   0.116   0.190  0.00  0.00     0.263 S 
ATOM     23  O   UNL d   1       0.501   0.127   1.433  0.00  0.00    -0.200 OA
ATOM     24  O   UNL d   1       2.406  -0.719   0.024  0.00  0.00    -0.200 OA
BRANCH  22  25
ATOM     25  C   UNL d   1       1.735   1.783  -0.176  0.00  0.00     0.113 A 
ATOM     26  C   UNL d   1       2.086   2.177  -1.472  0.00  0.00     0.101 A 
ATOM     27  C   UNL d   1       2.408   3.516  -1.714  0.00  0.00     0.039 A 
ATOM     28  C   UNL d   1       2.408   4.442  -0.669  0.00  0.00     0.003 A 
ATOM     29  C   UNL d   1       2.065   4.044   0.621  0.00  0.00     0.002 A 
ATOM     30  C   UNL d   1       1.725   2.717   0.872  0.00  0.00     0.028 A 
BRANCH  26  31
ATOM     31  O   UNL d   1       1.959   1.325  -2.532  0.00  0.00    -0.254 OA
BRANCH  31  32
ATOM     32  C   UNL d   1       3.208   0.920  -3.081  0.00  0.00     0.530 C 
ATOM     33  F   UNL d   1       4.017   0.405  -2.136  0.00  0.00    -0.144 F 
ATOM     34  F   UNL d   1       2.977  -0.028  -4.016  0.00  0.00    -0.144 F 
ATOM     35  F   UNL d   1       3.829   1.958  -3.684  0.00  0.00    -0.144 F 
ENDBRANCH  31  32
ENDBRANCH  26  31
ENDBRANCH  22  25
ENDBRANCH   1  22
TORSDOF 6
