REMARK  3 active torsions:
REMARK  status: ('A' for Active; 'I' for Inactive)
REMARK    1  A    between atoms: C_3  and  C_1 
REMARK       I    between atoms: C_2  and  N_4 
REMARK       I    between atoms: N_10  and  C_2 
REMARK    2  A    between atoms: N_4  and  C_5 
REMARK    3  A    between atoms: N_16  and  N_10 
ROOT
ATOM      1  C   UNL d   1       0.463   0.212  -1.440  0.00  0.00     0.049 A 
ATOM      2  C   UNL d   1      -0.411   0.860  -4.059  0.00  0.00     0.058 A 
ATOM      3  C   UNL d   1       0.001   1.863  -3.163  0.00  0.00     0.061 A 
ATOM      4  C   UNL d   1       0.435   1.546  -1.869  0.00  0.00     0.042 A 
ATOM      5  C   UNL d   1       0.041  -0.787  -2.326  0.00  0.00     0.018 A 
ATOM      6  C   UNL d   1      -0.393  -0.465  -3.618  0.00  0.00     0.032 A 
ATOM      7 CL   UNL d   1      -0.009   3.531  -3.628  0.00  0.00    -0.082 Cl
ENDROOT
BRANCH   2   8
ATOM      8  N   UNL d   1      -0.832   1.232  -5.358  0.00  0.00    -0.306 N 
ATOM      9  C   UNL d   1      -1.163   0.397  -6.402  0.00  0.00     0.335 C 
ATOM     10  O   UNL d   1      -1.107  -0.830  -6.414  0.00  0.00    -0.246 OA
ATOM     11  N   UNL d   1      -1.574   1.113  -7.527  0.00  0.00    -0.275 N 
ATOM     12  H   UNL d   1      -2.002   2.021  -7.373  0.00  0.00     0.185 HD
ATOM     13  H   UNL d   1      -0.781   2.221  -5.567  0.00  0.00     0.171 HD
BRANCH  11  14
ATOM     14  N   UNL d   1      -2.026   0.379  -8.657  0.00  0.00    -0.246 NA
ATOM     15  H   UNL d   1      -2.277  -0.560  -8.310  0.00  0.00     0.143 HD
ATOM     16  H   UNL d   1      -1.206   0.192  -9.242  0.00  0.00     0.143 HD
ENDBRANCH  11  14
ENDBRANCH   2   8
BRANCH   1  17
ATOM     17  C   UNL d   1       0.932  -0.166  -0.056  0.00  0.00     0.417 C 
ATOM     18  F   UNL d   1       1.332   0.899   0.692  0.00  0.00    -0.166 F 
ATOM     19  F   UNL d   1       1.990  -1.022  -0.083  0.00  0.00    -0.166 F 
ATOM     20  F   UNL d   1      -0.037  -0.790   0.667  0.00  0.00    -0.166 F 
ENDBRANCH   1  17
TORSDOF 3
