REMARK  5 active torsions:
REMARK  status: ('A' for Active; 'I' for Inactive)
REMARK    1  A    between atoms: N_3  and  S_1 
REMARK    2  A    between atoms: C_9  and  S_1 
REMARK    3  A    between atoms: C_2  and  N_3 
REMARK    4  A    between atoms: C_10  and  C_13 
REMARK    5  A    between atoms: C_11  and  C_12 
ROOT
ATOM      1  C   UNL d   1       0.343  -0.139  -1.702  0.00  0.00     0.076 A 
ATOM      2  C   UNL d   1      -0.800   0.774  -3.638  0.00  0.00     0.050 A 
ATOM      3  C   UNL d   1      -0.360  -1.637  -3.478  0.00  0.00     0.050 A 
ATOM      4  C   UNL d   1       0.247  -1.431  -2.229  0.00  0.00     0.041 A 
ATOM      5  C   UNL d   1      -0.190   0.958  -2.389  0.00  0.00     0.041 A 
ATOM      6  C   UNL d   1      -0.871  -0.525  -4.176  0.00  0.00     0.032 A 
ENDROOT
BRANCH   1   7
ATOM      7  S   UNL d   1       1.107   0.107  -0.101  0.00  0.00     0.247 S 
ATOM      8  O   UNL d   1       0.646   1.379   0.410  0.00  0.00    -0.205 OA
ATOM      9  O   UNL d   1       0.909  -1.118   0.645  0.00  0.00    -0.205 OA
BRANCH   7  10
ATOM     10  N   UNL d   1       2.759   0.199  -0.438  0.00  0.00    -0.164 NA
ATOM     11  H   UNL d   1       3.138  -0.745  -0.380  0.00  0.00     0.147 HD
BRANCH  10  12
ATOM     12  C   UNL d   1       3.174   0.851  -1.586  0.00  0.00     0.128 A 
ATOM     13  C   UNL d   1       3.305   2.227  -1.849  0.00  0.00     0.068 A 
ATOM     14  C   UNL d   1       3.733   2.318  -3.148  0.00  0.00     0.132 A 
ATOM     15 BR   UNL d   1       3.018   3.640  -0.663  0.00  0.00    -0.046 Br
ATOM     16  N   UNL d   1       3.838   1.028  -3.582  0.00  0.00    -0.305 N 
ATOM     17  N   UNL d   1       3.551   0.114  -2.634  0.00  0.00    -0.287 N 
ATOM     18  C   UNL d   1       4.207   0.597  -4.909  0.00  0.00     0.177 C 
ATOM     19  HN  UNL d   1       3.609  -0.902  -2.701  1.00  0.00     0.188 HD
ENDBRANCH  10  12
ENDBRANCH   7  10
ENDBRANCH   1   7
BRANCH   3  20
ATOM     20  C   UNL d   1      -0.473  -3.019  -4.081  0.00  0.00     0.417 C 
ATOM     21  F   UNL d   1      -0.010  -4.008  -3.270  0.00  0.00    -0.166 F 
ATOM     22  F   UNL d   1      -1.759  -3.349  -4.381  0.00  0.00    -0.166 F 
ATOM     23  F   UNL d   1       0.223  -3.130  -5.246  0.00  0.00    -0.166 F 
ENDBRANCH   3  20
BRANCH   2  24
ATOM     24  C   UNL d   1      -1.379   1.940  -4.405  0.00  0.00     0.417 C 
ATOM     25  F   UNL d   1      -1.286   3.127  -3.746  0.00  0.00    -0.166 F 
ATOM     26  F   UNL d   1      -0.756   2.126  -5.601  0.00  0.00    -0.166 F 
ATOM     27  F   UNL d   1      -2.698   1.768  -4.690  0.00  0.00    -0.166 F 
ENDBRANCH   2  24
TORSDOF 5
