REMARK  6 active torsions:
REMARK  status: ('A' for Active; 'I' for Inactive)
REMARK    1  A    between atoms: S_10  and  C_3 
REMARK    2  A    between atoms: C_4  and  C_5 
REMARK    3  A    between atoms: O_20  and  C_9 
REMARK    4  A    between atoms: C_13  and  S_10 
REMARK    5  A    between atoms: C_11  and  C_13 
REMARK    6  A    between atoms: C_12  and  C_11 
ROOT
ATOM      1  N   UNL d   1       3.162  -2.700   2.931  0.00  0.00    -0.318 N 
ATOM      2  HN  UNL d   1       3.904  -2.195   2.446  1.00  0.00     0.170 HD
ATOM      3  C   UNL d   1       2.043  -3.087   2.305  0.00  0.00     0.147 A 
ATOM      4  C   UNL d   1       1.167  -4.060   4.203  0.00  0.00     0.122 A 
ATOM      5  N   UNL d   1       1.030  -3.743   2.891  0.00  0.00    -0.333 N 
ATOM      6  HN  UNL d   1       0.190  -3.995   2.370  1.00  0.00     0.168 HD
ATOM      7  C   UNL d   1       2.290  -3.696   4.925  0.00  0.00     0.090 A 
ATOM      8  C   UNL d   1       3.252  -3.014   4.225  0.00  0.00     0.143 A 
ENDROOT
BRANCH   3   9
ATOM      9  S   UNL d   1       1.824  -2.614   0.608  0.00  0.00    -0.086 SA
BRANCH   9  10
ATOM     10  C   UNL d   1       3.570  -2.489   0.101  0.00  0.00     0.166 C 
BRANCH  10  11
ATOM     11  C   UNL d   1       4.292  -3.821   0.212  0.00  0.00     0.169 C 
ATOM     12  O   UNL d   1       3.722  -4.913   0.188  0.00  0.00    -0.291 OA
BRANCH  11  13
ATOM     13  C   UNL d   1       5.778  -3.815   0.321  0.00  0.00     0.011 A 
ATOM     14  C   UNL d   1       6.399  -4.926   0.911  0.00  0.00     0.017 A 
ATOM     15  C   UNL d   1       7.790  -4.990   1.010  0.00  0.00     0.025 A 
ATOM     16  C   UNL d   1       8.565  -3.947   0.510  0.00  0.00     0.034 A 
ATOM     17  C   UNL d   1       7.960  -2.836  -0.079  0.00  0.00     0.025 A 
ATOM     18 CL   UNL d   1      10.280  -4.033   0.612  0.00  0.00    -0.084 Cl
ATOM     19  C   UNL d   1       6.564  -2.766  -0.174  0.00  0.00     0.017 A 
ENDBRANCH  11  13
ENDBRANCH  10  11
ENDBRANCH   9  10
ENDBRANCH   3   9
BRANCH   8  20
ATOM     20  O   UNL d   1       4.398  -2.588   4.828  0.00  0.00    -0.346 OA
ATOM     21  H   UNL d   1       4.343  -2.771   5.778  0.00  0.00     0.219 HD
ENDBRANCH   8  20
BRANCH   4  22
ATOM     22  C   UNL d   1       0.057  -4.813   4.918  0.00  0.00     0.432 C 
ATOM     23  F   UNL d   1      -0.979  -5.197   4.124  0.00  0.00    -0.165 F 
ATOM     24  F   UNL d   1       0.512  -5.952   5.518  0.00  0.00    -0.165 F 
ATOM     25  F   UNL d   1      -0.495  -4.074   5.925  0.00  0.00    -0.165 F 
ENDBRANCH   4  22
TORSDOF 6
