REMARK  7 active torsions:
REMARK  status: ('A' for Active; 'I' for Inactive)
REMARK    1  A    between atoms: C_7  and  C_1 
REMARK    2  A    between atoms: C_3  and  C_2 
REMARK    3  A    between atoms: N_14  and  C_6 
REMARK    4  A    between atoms: O_21  and  C_7 
REMARK       I    between atoms: C_8  and  N_12 
REMARK    5  A    between atoms: C_13  and  C_8 
REMARK    6  A    between atoms: N_12  and  N_14 
REMARK    7  A    between atoms: C_26  and  O_21 
ROOT
ATOM      1  C   UNL d   1      -0.030  -1.436   0.034  0.00  0.00     0.086 A 
ATOM      2  C   UNL d   1       1.169  -0.749   0.064  0.00  0.00     0.136 A 
ATOM      3  N   UNL d   1       1.189   0.623   0.168  0.00  0.00    -0.327 N 
ATOM      4  HN  UNL d   1       2.079   1.120   0.199  1.00  0.00     0.168 HD
ATOM      5  C   UNL d   1       0.037   1.306   0.228  0.00  0.00     0.176 A 
ATOM      6  N   UNL d   1      -1.160   0.705   0.168  0.00  0.00    -0.340 N 
ATOM      7  HN  UNL d   1      -2.029   1.239   0.200  1.00  0.00     0.167 HD
ATOM      8  C   UNL d   1      -1.163  -0.644   0.062  0.00  0.00     0.110 A 
ENDROOT
BRANCH   5   9
ATOM      9  N   UNL d   1       0.128   2.693   0.412  0.00  0.00    -0.172 NA
ATOM     10  H   UNL d   1       1.032   3.017   0.060  0.00  0.00     0.156 HD
BRANCH   9  11
ATOM     11  N   UNL d   1      -0.962   3.430  -0.094  0.00  0.00    -0.280 N 
ATOM     12  C   UNL d   1      -0.683   4.664  -0.658  0.00  0.00     0.266 C 
ATOM     13  O   UNL d   1       0.472   5.050  -0.845  0.00  0.00    -0.266 OA
ATOM     14  H   UNL d   1      -1.869   3.154   0.268  0.00  0.00     0.184 HD
BRANCH  12  15
ATOM     15  C   UNL d   1      -1.842   5.534  -1.030  0.00  0.00     0.033 A 
ATOM     16  C   UNL d   1      -3.165   5.066  -1.070  0.00  0.00     0.023 A 
ATOM     17  C   UNL d   1      -4.217   5.918  -1.446  0.00  0.00    -0.061 A 
ATOM     18  C   UNL d   1      -5.633   5.421  -1.488  0.00  0.00     0.048 C 
ATOM     19  C   UNL d   1      -3.937   7.247  -1.788  0.00  0.00     0.007 A 
ATOM     20  C   UNL d   1      -2.626   7.719  -1.760  0.00  0.00     0.002 A 
ATOM     21  C   UNL d   1      -1.584   6.868  -1.384  0.00  0.00     0.017 A 
ENDBRANCH  12  15
ENDBRANCH   9  11
ENDBRANCH   5   9
BRANCH   2  22
ATOM     22  C   UNL d   1       2.535  -1.395  -0.063  0.00  0.00     0.433 C 
ATOM     23  F   UNL d   1       2.561  -2.732  -0.304  0.00  0.00    -0.165 F 
ATOM     24  F   UNL d   1       3.253  -0.857  -1.095  0.00  0.00    -0.165 F 
ATOM     25  F   UNL d   1       3.301  -1.206   1.051  0.00  0.00    -0.165 F 
ENDBRANCH   2  22
BRANCH   1  26
ATOM     26  C   UNL d   1      -0.253  -2.888  -0.061  0.00  0.00     0.296 C 
ATOM     27  O   UNL d   1      -1.176  -3.360  -0.699  0.00  0.00    -0.259 OA
BRANCH  26  28
ATOM     28  O   UNL d   1       0.608  -3.570   0.728  0.00  0.00    -0.318 OA
BRANCH  28  29
ATOM     29  C   UNL d   1       0.467  -5.004   0.715  0.00  0.00     0.174 C 
ATOM     30  C   UNL d   1       0.992  -5.617  -0.576  0.00  0.00     0.034 C 
ENDBRANCH  28  29
ENDBRANCH  26  28
ENDBRANCH   1  26
TORSDOF 7
