REMARK  3 active torsions:
REMARK  status: ('A' for Active; 'I' for Inactive)
REMARK    1  A    between atoms: C_9  and  N_6 
REMARK    2  A    between atoms: C_10  and  C_9 
REMARK    3  A    between atoms: C_11  and  C_10 
ROOT
ATOM      1  C   UNL d   1      -1.416   0.114  -0.300  0.00  0.00     0.709 A 
ATOM      2  N   UNL d   1      -0.254   0.401  -0.903  0.00  0.00    -0.116 N 
ATOM      3  HN  UNL d   1      -0.056   0.552  -1.892  1.00  0.00     0.207 HD
ATOM      4  N   UNL d   1      -1.265  -0.083   1.053  0.00  0.00    -0.113 N 
ATOM      5  HN  UNL d   1      -2.000  -0.332   1.714  1.00  0.00     0.203 HD
ATOM      6  N   UNL d   1       0.585   0.434   0.160  0.00  0.00    -0.196 N 
ATOM      7  N   UNL d   1       0.013   0.110   1.335  0.00  0.00     0.011 NA
ATOM      8  N   UNL d   1      -2.635   0.042  -0.868  0.00  0.00    -0.215 N 
ATOM      9  C   UNL d   1      -3.862  -0.128  -0.119  0.00  0.00     0.141 C 
ATOM     10  C   UNL d   1      -2.840  -0.097  -2.301  0.00  0.00     0.141 C 
ATOM     11  C   UNL d   1      -4.353  -0.233  -2.450  0.00  0.00     0.022 C 
ATOM     12  C   UNL d   1      -4.787  -0.822  -1.112  0.00  0.00     0.022 C 
ENDROOT
BRANCH   6  13
ATOM     13  C   UNL d   1       1.779   1.252   0.154  0.00  0.00     0.246 C 
BRANCH  13  14
ATOM     14  C   UNL d   1       3.050   0.522  -0.194  0.00  0.00     0.155 C 
ATOM     15  O   UNL d   1       3.586   0.745  -1.288  0.00  0.00    -0.295 OA
BRANCH  14  16
ATOM     16  C   UNL d   1       3.711  -0.471   0.790  0.00  0.00     0.011 C 
ATOM     17  C   UNL d   1       3.343  -1.889   0.339  0.00  0.00     0.022 C 
ATOM     18  C   UNL d   1       5.243  -0.295   0.692  0.00  0.00     0.022 C 
ATOM     19  C   UNL d   1       3.333  -0.271   2.262  0.00  0.00     0.022 C 
ENDBRANCH  14  16
ENDBRANCH  13  14
ENDBRANCH   6  13
TORSDOF 3
