REMARK  3 active torsions:
REMARK  status: ('A' for Active; 'I' for Inactive)
REMARK    1  A    between atoms: C_2  and  S_1 
REMARK    2  A    between atoms: N_6  and  S_1 
REMARK    3  A    between atoms: C_4  and  N_7 
ROOT
ATOM      1  N   UNL d   1       0.309   0.168  -1.389  0.00  0.00    -0.203 NA
ATOM      2  N   UNL d   1      -2.475   0.971  -1.252  0.00  0.00    -0.374 N 
ATOM      3  C   UNL d   1      -0.114   1.544  -1.801  0.00  0.00     0.127 C 
ATOM      4  C   UNL d   1      -0.796  -0.812  -1.653  0.00  0.00     0.127 C 
ATOM      5  C   UNL d   1      -2.074  -0.410  -0.903  0.00  0.00     0.138 C 
ATOM      6  C   UNL d   1      -1.418   1.985  -1.088  0.00  0.00     0.138 C 
ENDROOT
BRANCH   1   7
ATOM      7  S   UNL d   1       1.099   0.021   0.106  0.00  0.00     0.246 S 
ATOM      8  O   UNL d   1       0.755   1.180   0.907  0.00  0.00    -0.206 OA
ATOM      9  O   UNL d   1       0.919  -1.313   0.629  0.00  0.00    -0.206 OA
BRANCH   7  10
ATOM     10  C   UNL d   1       2.789   0.181  -0.322  0.00  0.00     0.105 A 
ATOM     11  C   UNL d   1       3.441  -0.718  -1.182  0.00  0.00     0.108 A 
ATOM     12  C   UNL d   1       4.864  -0.578  -1.482  0.00  0.00     0.086 A 
ATOM     13  N   UNL d   1       2.990  -1.789  -1.850  0.00  0.00    -0.238 N 
ATOM     14  N   UNL d   1       5.221  -1.559  -2.318  0.00  0.00    -0.239 N 
ATOM     15  C   UNL d   1       5.658   0.450  -0.937  0.00  0.00     0.034 A 
ATOM     16  O   UNL d   1       4.075  -2.303  -2.535  0.00  0.00    -0.156 OA
ATOM     17  HN  UNL d   1       6.146  -1.724  -2.714  1.00  0.00     0.197 HD
ATOM     18  C   UNL d   1       4.980   1.326  -0.070  0.00  0.00     0.004 A 
ATOM     19  C   UNL d   1       3.600   1.198   0.230  0.00  0.00     0.027 A 
ATOM     20  HN  UNL d   1       2.037  -2.151  -1.853  1.00  0.00     0.197 HD
ENDBRANCH   7  10
ENDBRANCH   1   7
BRANCH   2  21
ATOM     21  C   UNL d   1      -3.808   1.299  -1.489  0.00  0.00     0.104 A 
ATOM     22  C   UNL d   1      -4.527   0.589  -2.605  0.00  0.00     0.213 A 
ATOM     23  C   UNL d   1      -5.920   0.991  -2.856  0.00  0.00     0.050 A 
ATOM     24  O   UNL d   1      -3.985  -0.265  -3.302  0.00  0.00    -0.285 OA
ATOM     25  C   UNL d   1      -6.651   0.410  -3.898  0.00  0.00     0.018 A 
ATOM     26  C   UNL d   1      -6.500   1.964  -2.047  0.00  0.00     0.089 A 
ATOM     27  C   UNL d   1      -7.972   0.800  -4.117  0.00  0.00     0.001 A 
ATOM     28  C   UNL d   1      -8.559   1.765  -3.297  0.00  0.00     0.003 A 
ATOM     29  C   UNL d   1      -7.824   2.349  -2.262  0.00  0.00     0.038 A 
ATOM     30  O   UNL d   1      -5.823   2.584  -1.030  0.00  0.00    -0.319 OA
ATOM     31  C   UNL d   1      -4.512   2.228  -0.827  0.00  0.00     0.176 A 
ENDBRANCH   2  21
TORSDOF 3
