REMARK  8 active torsions:
REMARK  status: ('A' for Active; 'I' for Inactive)
REMARK    1  A    between atoms: C_7  and  C_1 
REMARK    2  A    between atoms: O_9  and  C_2 
REMARK       I    between atoms: C_3  and  N_4 
REMARK    3  A    between atoms: C_5  and  C_3 
REMARK    4  A    between atoms: N_4  and  C_6 
REMARK    5  A    between atoms: O_22  and  C_7 
REMARK    6  A    between atoms: C_11  and  C_8 
REMARK    7  A    between atoms: C_12  and  O_9 
REMARK    8  A    between atoms: O_21  and  C_11 
ROOT
ATOM      1  C   UNL d   1       2.068   3.502   0.789  0.00  0.00     0.070 A 
ATOM      2  C   UNL d   1       2.602   3.144  -0.459  0.00  0.00     0.103 A 
ATOM      3  C   UNL d   1       2.025   4.845   1.174  0.00  0.00     0.056 A 
ATOM      4  C   UNL d   1       3.116   4.133  -1.306  0.00  0.00     0.041 A 
ATOM      5  C   UNL d   1       2.531   5.821   0.317  0.00  0.00     0.036 A 
ATOM      6  C   UNL d   1       3.078   5.472  -0.918  0.00  0.00     0.026 A 
ATOM      7 CL   UNL d   1       2.534   7.472   0.804  0.00  0.00    -0.084 Cl
ENDROOT
BRANCH   1   8
ATOM      8  N   UNL d   1       1.722   2.496   1.715  0.00  0.00    -0.320 N 
ATOM      9  C   UNL d   1       0.470   2.406   2.289  0.00  0.00     0.257 C 
ATOM     10  O   UNL d   1      -0.534   3.012   1.940  0.00  0.00    -0.267 OA
ATOM     11  H   UNL d   1       2.504   2.193   2.292  0.00  0.00     0.169 HD
BRANCH   9  12
ATOM     12  C   UNL d   1       0.346   1.369   3.341  0.00  0.00     0.049 A 
ATOM     13  C   UNL d   1       0.997   1.441   4.576  0.00  0.00     0.053 A 
ATOM     14  C   UNL d   1       0.869   0.395   5.504  0.00  0.00     0.019 A 
ATOM     15  C   UNL d   1       0.067  -0.706   5.204  0.00  0.00     0.001 A 
ATOM     16  C   UNL d   1      -0.613  -0.764   3.988  0.00  0.00     0.001 A 
ATOM     17  C   UNL d   1      -0.481   0.274   3.060  0.00  0.00     0.018 A 
BRANCH  13  18
ATOM     18  C   UNL d   1       1.864   2.576   4.919  0.00  0.00     0.177 C 
ATOM     19  O   UNL d   1       2.798   2.920   4.215  0.00  0.00    -0.646 OA
BRANCH  18  20
ATOM     20  O   UNL d   1       1.533   3.154   6.089  0.00  0.00    -0.773 OA
ATOM     21  H   UNL d   1       0.709   2.824   6.501  0.00  0.00     0.167 HD
ENDBRANCH  18  20
ENDBRANCH  13  18
ENDBRANCH   9  12
ENDBRANCH   1   8
BRANCH   2  22
ATOM     22  O   UNL d   1       2.663   1.806  -0.783  0.00  0.00    -0.307 OA
BRANCH  22  23
ATOM     23  C   UNL d   1       2.562   1.381  -2.068  0.00  0.00     0.099 A 
ATOM     24  C   UNL d   1       3.406   0.410  -2.573  0.00  0.00     0.114 A 
ATOM     25  S   UNL d   1       2.998   0.028  -4.199  0.00  0.00    -0.093 SA
ATOM     26  C   UNL d   1       1.728   1.170  -4.228  0.00  0.00     0.053 A 
ATOM     27  C   UNL d   1       1.580   1.805  -3.016  0.00  0.00     0.046 A 
BRANCH  24  28
ATOM     28  C   UNL d   1       4.540  -0.259  -1.967  0.00  0.00     0.302 C 
ATOM     29  O   UNL d   1       5.049  -1.309  -2.344  0.00  0.00    -0.259 OA
BRANCH  28  30
ATOM     30  O   UNL d   1       5.018   0.482  -0.926  0.00  0.00    -0.322 OA
ATOM     31  C   UNL d   1       6.210  -0.027  -0.331  0.00  0.00     0.213 C 
ENDBRANCH  28  30
ENDBRANCH  24  28
ENDBRANCH  22  23
ENDBRANCH   2  22
TORSDOF 8
