REMARK  5 active torsions:
REMARK  status: ('A' for Active; 'I' for Inactive)
REMARK    1  A    between atoms: N_8  and  C_1 
REMARK       I    between atoms: C_9  and  N_8 
REMARK    2  A    between atoms: C_14  and  C_9 
REMARK    3  A    between atoms: O_23  and  C_12 
REMARK    4  A    between atoms: O_24  and  C_13 
REMARK    5  A    between atoms: C_16  and  C_17 
ROOT
ATOM      1  C   UNL d   1       3.086   2.551   0.136  0.00  0.00     0.155 C 
ATOM      2  S   UNL d   1       4.223   3.769   0.612  0.00  0.00    -0.011 SA
ATOM      3  C   UNL d   1       1.830   4.839   1.260  0.00  0.00     0.051 A 
ATOM      4  C   UNL d   1       3.173   4.532   1.758  0.00  0.00     0.229 C 
ATOM      5  N   UNL d   1       1.806   2.746  -0.019  0.00  0.00    -0.336 N 
ATOM      6  HN  UNL d   1       1.215   1.999  -0.385  1.00  0.00     0.168 HD
ATOM      7  C   UNL d   1       1.242   3.997   0.323  0.00  0.00     0.051 A 
ATOM      8  C   UNL d   1       1.220   6.014   1.702  0.00  0.00     0.058 A 
ATOM      9  C   UNL d   1       0.014   4.398  -0.212  0.00  0.00     0.070 A 
ATOM     10  C   UNL d   1       0.011   6.434   1.143  0.00  0.00     0.102 A 
ATOM     11  C   UNL d   1      -0.592   5.622   0.162  0.00  0.00     0.103 A 
ATOM     12  O   UNL d   1       3.554   4.900   2.859  0.00  0.00    -0.279 OA
ENDROOT
BRANCH   1  13
ATOM     13  N   UNL d   1       3.559   1.274  -0.085  0.00  0.00    -0.303 N 
ATOM     14  C   UNL d   1       4.846   0.748   0.083  0.00  0.00     0.257 C 
ATOM     15  O   UNL d   1       5.864   1.384   0.323  0.00  0.00    -0.267 OA
ATOM     16  H   UNL d   1       2.827   0.645  -0.368  0.00  0.00     0.171 HD
BRANCH  14  17
ATOM     17  C   UNL d   1       4.981  -0.713  -0.139  0.00  0.00     0.032 A 
ATOM     18  C   UNL d   1       6.169  -1.193  -0.697  0.00  0.00     0.017 A 
ATOM     19  C   UNL d   1       6.282  -2.538  -1.060  0.00  0.00     0.009 A 
ATOM     20  C   UNL d   1       5.214  -3.434  -0.872  0.00  0.00    -0.051 A 
ATOM     21  C   UNL d   1       4.079  -2.954  -0.194  0.00  0.00     0.009 A 
ATOM     22  C   UNL d   1       3.961  -1.609   0.173  0.00  0.00     0.017 A 
BRANCH  20  23
ATOM     23  C   UNL d   1       5.281  -4.854  -1.464  0.00  0.00    -0.024 C 
ATOM     24  C   UNL d   1       3.990  -5.672  -1.236  0.00  0.00     0.019 C 
ATOM     25  C   UNL d   1       5.483  -4.750  -2.994  0.00  0.00     0.019 C 
ATOM     26  C   UNL d   1       6.451  -5.654  -0.859  0.00  0.00     0.019 C 
ENDBRANCH  20  23
ENDBRANCH  14  17
ENDBRANCH   1  13
BRANCH  11  27
ATOM     27  O   UNL d   1      -1.755   5.865  -0.527  0.00  0.00    -0.353 OA
ATOM     28  C   UNL d   1      -2.411   7.114  -0.347  0.00  0.00     0.210 C 
ENDBRANCH  11  27
BRANCH  10  29
ATOM     29  O   UNL d   1      -0.588   7.607   1.514  0.00  0.00    -0.353 OA
ATOM     30  C   UNL d   1       0.085   8.442   2.453  0.00  0.00     0.210 C 
ENDBRANCH  10  29
TORSDOF 5
