REMARK  1 active torsions:
REMARK  status: ('A' for Active; 'I' for Inactive)
REMARK    1  A    between atoms: C_6  and  N_1 
ROOT
ATOM      1  N   UNL d   1       2.465   0.013   0.112  0.00  0.00    -0.252 N 
ATOM      2  C   UNL d   1       1.669  -1.127   0.060  0.00  0.00     0.236 C 
ATOM      3  C   UNL d   1       1.679   1.161   0.139  0.00  0.00     0.236 C 
ATOM      4  C   UNL d   1       0.297  -0.640  -0.306  0.00  0.00     0.092 C 
ATOM      5  C   UNL d   1       0.274   0.696   0.405  0.00  0.00     0.092 C 
ATOM      6  C   UNL d   1      -0.896   1.534  -0.072  0.00  0.00     0.015 C 
ATOM      7  O   UNL d   1       1.963  -2.299   0.219  0.00  0.00    -0.272 OA
ATOM      8  O   UNL d   1       1.995   2.332  -0.001  0.00  0.00    -0.272 OA
ATOM      9  C   UNL d   1      -0.930  -1.452   0.055  0.00  0.00     0.019 C 
ATOM     10  C   UNL d   1      -2.201   0.763   0.194  0.00  0.00     0.005 C 
ATOM     11  C   UNL d   1      -2.201  -0.678  -0.369  0.00  0.00    -0.018 C 
ATOM     12  C   UNL d   1      -2.365  -0.664  -1.895  0.00  0.00     0.010 C 
ENDROOT
BRANCH   1  13
ATOM     13  C   UNL d   1       3.886   0.007   0.096  0.00  0.00     0.045 A 
ATOM     14  C   UNL d   1       4.600  -1.117  -0.356  0.00  0.00     0.033 A 
ATOM     15  C   UNL d   1       5.998  -1.118  -0.396  0.00  0.00     0.044 A 
ATOM     16  C   UNL d   1       6.696   0.001   0.033  0.00  0.00     0.116 A 
ATOM     17  C   UNL d   1       6.022   1.120   0.493  0.00  0.00     0.044 A 
ATOM     18  F   UNL d   1       8.034  -0.002   0.000  0.00  0.00    -0.206 F 
ATOM     19  C   UNL d   1       4.623   1.126   0.518  0.00  0.00     0.033 A 
ENDBRANCH   1  13
TORSDOF 1
