REMARK  7 active torsions:
REMARK  status: ('A' for Active; 'I' for Inactive)
REMARK    1  A    between atoms: O_4  and  C_1 
REMARK    2  A    between atoms: C_3  and  C_2 
REMARK       I    between atoms: N_8  and  C_3 
REMARK    3  A    between atoms: C_10  and  O_4 
REMARK    4  A    between atoms: C_20  and  N_8 
REMARK    5  A    between atoms: C_9  and  S_12 
REMARK    6  A    between atoms: S_12  and  C_21 
REMARK    7  A    between atoms: C_21  and  C_20 
ROOT
ATOM      1  C   UNL d   1      -0.528   1.072   0.387  0.00  0.00     0.163 A 
ATOM      2  C   UNL d   1       0.856   1.188   0.294  0.00  0.00     0.083 A 
ATOM      3  N   UNL d   1      -1.171  -0.122   0.233  0.00  0.00    -0.346 N 
ATOM      4  HN  UNL d   1      -2.179  -0.194   0.377  1.00  0.00     0.167 HD
ATOM      5  C   UNL d   1       1.578   0.038  -0.072  0.00  0.00     0.023 A 
ATOM      6  C   UNL d   1      -0.448  -1.201  -0.111  0.00  0.00     0.090 A 
ATOM      7  C   UNL d   1       0.917  -1.165  -0.302  0.00  0.00     0.018 A 
ENDROOT
BRANCH   2   8
ATOM      8  C   UNL d   1       1.600   2.418   0.674  0.00  0.00     0.255 C 
ATOM      9  O   UNL d   1       1.182   3.162   1.548  0.00  0.00    -0.268 OA
ATOM     10  N   UNL d   1       2.824   2.604   0.047  0.00  0.00    -0.356 N 
ATOM     11  H   UNL d   1       2.975   2.185  -0.863  0.00  0.00     0.162 HD
BRANCH  10  12
ATOM     12  C   UNL d   1       3.717   3.684   0.446  0.00  0.00     0.133 C 
BRANCH  12  13
ATOM     13  C   UNL d   1       5.040   3.715  -0.330  0.00  0.00     0.099 C 
BRANCH  13  14
ATOM     14  S   UNL d   1       4.726   4.020  -2.109  0.00  0.00    -0.128 SA
BRANCH  14  15
ATOM     15  C   UNL d   1       6.361   4.000  -2.830  0.00  0.00     0.000 A 
ATOM     16  C   UNL d   1       6.461   3.579  -4.165  0.00  0.00     0.020 A 
ATOM     17  C   UNL d   1       7.691   3.579  -4.830  0.00  0.00     0.025 A 
ATOM     18  C   UNL d   1       8.833   4.010  -4.164  0.00  0.00     0.034 A 
ATOM     19  C   UNL d   1       8.752   4.441  -2.841  0.00  0.00     0.025 A 
ATOM     20 CL   UNL d   1      10.347   4.025  -4.981  0.00  0.00    -0.084 Cl
ATOM     21  C   UNL d   1       7.518   4.439  -2.178  0.00  0.00     0.020 A 
ENDBRANCH  14  15
ENDBRANCH  13  14
ENDBRANCH  12  13
ENDBRANCH  10  12
ENDBRANCH   2   8
BRANCH   1  22
ATOM     22  O   UNL d   1      -1.324   2.204   0.562  0.00  0.00    -0.293 OA
BRANCH  22  23
ATOM     23  C   UNL d   1      -2.603   2.147   0.032  0.00  0.00     0.077 A 
ATOM     24  C   UNL d   1      -3.656   2.656   0.796  0.00  0.00     0.037 A 
ATOM     25  C   UNL d   1      -4.972   2.551   0.328  0.00  0.00     0.003 A 
ATOM     26  C   UNL d   1      -5.237   1.945  -0.902  0.00  0.00     0.000 A 
ATOM     27  C   UNL d   1      -4.184   1.484  -1.688  0.00  0.00     0.003 A 
ATOM     28  C   UNL d   1      -2.871   1.614  -1.236  0.00  0.00     0.037 A 
ENDBRANCH  22  23
ENDBRANCH   1  22
TORSDOF 7
