REMARK  6 active torsions:
REMARK  status: ('A' for Active; 'I' for Inactive)
REMARK    1  A    between atoms: N_4  and  C_1 
REMARK    2  A    between atoms: N_6  and  C_1 
REMARK    3  A    between atoms: N_2  and  N_6 
REMARK    4  A    between atoms: C_8  and  N_4 
REMARK    5  A    between atoms: C_9  and  C_7 
REMARK    6  A    between atoms: O_21  and  C_11 
ROOT
ATOM      1  N   UNL d   1       2.519  -0.216  -0.195  0.00  0.00    -0.276 N 
ATOM      2  H   UNL d   1       2.987   0.627  -0.513  0.00  0.00     0.189 HD
ENDROOT
BRANCH   1   3
ATOM      3  N   UNL d   1       3.176  -1.099   0.618  0.00  0.00    -0.309 N 
ATOM      4  C   UNL d   1       4.411  -0.777   0.853  0.00  0.00     0.118 C 
ATOM      5  HN  UNL d   1       2.734  -1.933   1.005  1.00  0.00     0.186 HD
BRANCH   4   6
ATOM      6  C   UNL d   1       5.267  -1.539   1.785  0.00  0.00    -0.019 A 
ATOM      7  C   UNL d   1       4.774  -2.646   2.475  0.00  0.00     0.015 A 
ATOM      8  C   UNL d   1       5.588  -3.316   3.396  0.00  0.00     0.037 A 
ATOM      9  C   UNL d   1       6.892  -2.876   3.629  0.00  0.00     0.068 A 
ATOM     10  C   UNL d   1       7.389  -1.783   2.914  0.00  0.00     0.037 A 
ATOM     11  C   UNL d   1       6.579  -1.106   2.000  0.00  0.00     0.015 A 
BRANCH   9  12
ATOM     12  O   UNL d   1       7.775  -3.456   4.497  0.00  0.00    -0.356 OA
ATOM     13  C   UNL d   1       7.192  -4.095   5.629  0.00  0.00     0.210 C 
ENDBRANCH   9  12
ENDBRANCH   4   6
ENDBRANCH   1   3
BRANCH   1  14
ATOM     14  C   UNL d   1       1.144  -0.237  -0.330  0.00  0.00     0.191 C 
ATOM     15  S   UNL d   1       0.416   1.063  -1.086  0.00  0.00    -0.039 SA
BRANCH  14  16
ATOM     16  N   UNL d   1       0.555  -1.384   0.152  0.00  0.00    -0.332 N 
ATOM     17  H   UNL d   1       1.200  -2.167   0.167  0.00  0.00     0.168 HD
BRANCH  16  18
ATOM     18  C   UNL d   1      -0.784  -1.625   0.503  0.00  0.00     0.034 A 
ATOM     19  C   UNL d   1      -1.283  -2.926   0.369  0.00  0.00     0.032 A 
ATOM     20  C   UNL d   1      -2.593  -3.221   0.757  0.00  0.00     0.044 A 
ATOM     21  C   UNL d   1      -3.385  -2.225   1.317  0.00  0.00     0.116 A 
ATOM     22  C   UNL d   1      -2.895  -0.937   1.483  0.00  0.00     0.044 A 
ATOM     23  F   UNL d   1      -4.629  -2.516   1.717  0.00  0.00    -0.206 F 
ATOM     24  C   UNL d   1      -1.596  -0.635   1.068  0.00  0.00     0.032 A 
ENDBRANCH  16  18
ENDBRANCH  14  16
ENDBRANCH   1  14
TORSDOF 6
