REMARK  8 active torsions:
REMARK  status: ('A' for Active; 'I' for Inactive)
REMARK    1  A    between atoms: C_6  and  O_20 
REMARK    2  A    between atoms: C_9  and  O_21 
REMARK    3  A    between atoms: C_10  and  C_18 
REMARK    4  A    between atoms: C_15  and  C_22 
REMARK    5  A    between atoms: O_27  and  C_15 
REMARK    6  A    between atoms: C_19  and  C_18 
REMARK    7  A    between atoms: C_22  and  C_19 
REMARK    8  A    between atoms: C_25  and  O_28 
ROOT
ATOM      1  C   UNL d   1      -1.477   2.622   0.082  0.00  0.00    -0.010 C 
ATOM      2  C   UNL d   1      -0.829  -0.411  -0.515  0.00  0.00     0.003 C 
ATOM      3  C   UNL d   1      -0.594  -1.814   0.166  0.00  0.00    -0.036 C 
ATOM      4  C   UNL d   1      -0.187   1.897   0.598  0.00  0.00     0.003 C 
ATOM      5  C   UNL d   1       0.279   0.656  -0.206  0.00  0.00     0.024 C 
ATOM      6  C   UNL d   1      -2.353   1.665  -0.779  0.00  0.00     0.127 C 
ATOM      7  C   UNL d   1       0.885  -2.274  -0.086  0.00  0.00    -0.001 C 
ATOM      8  C   UNL d   1      -2.244   0.193  -0.326  0.00  0.00     0.038 C 
ATOM      9  C   UNL d   1       1.587   0.108   0.408  0.00  0.00     0.123 C 
ATOM     10  C   UNL d   1      -0.882   3.897  -0.626  0.00  0.00     0.000 C 
ATOM     11  C   UNL d   1       1.981  -1.220  -0.165  0.00  0.00     0.037 C 
ATOM     12  C   UNL d   1       0.934   2.963   0.589  0.00  0.00     0.006 C 
ATOM     13  C   UNL d   1      -1.406  -2.984  -0.491  0.00  0.00     0.012 C 
ATOM     14  C   UNL d   1       0.263   4.287   0.327  0.00  0.00     0.006 C 
ATOM     15  C   UNL d   1       1.262  -3.479   0.782  0.00  0.00     0.037 C 
ATOM     16  C   UNL d   1      -2.315   3.023   1.332  0.00  0.00     0.018 C 
ATOM     17  C   UNL d   1      -1.093  -4.361   0.158  0.00  0.00     0.032 C 
ATOM     18  C   UNL d   1       0.399  -4.680   0.387  0.00  0.00     0.118 C 
ATOM     19  C   UNL d   1      -1.074  -1.737   1.642  0.00  0.00     0.016 C 
ENDROOT
BRANCH  10  20
ATOM     20  C   UNL d   1      -1.770   5.126  -0.983  0.00  0.00    -0.013 C 
ATOM     21  C   UNL d   1      -2.879   4.746  -1.964  0.00  0.00     0.010 C 
BRANCH  20  22
ATOM     22  C   UNL d   1      -0.871   6.255  -1.574  0.00  0.00     0.014 C 
BRANCH  22  23
ATOM     23  C   UNL d   1      -1.596   7.485  -2.119  0.00  0.00     0.111 C 
BRANCH  23  24
ATOM     24  C   UNL d   1      -0.627   8.543  -2.579  0.00  0.00     0.258 C 
ATOM     25  O   UNL d   1       0.599   8.451  -2.581  0.00  0.00    -0.265 OA
BRANCH  24  26
ATOM     26  O   UNL d   1      -1.323   9.637  -3.013  0.00  0.00    -0.326 OA
ATOM     27  C   UNL d   1      -0.505  10.704  -3.497  0.00  0.00     0.213 C 
ENDBRANCH  24  26
ENDBRANCH  23  24
ENDBRANCH  22  23
ENDBRANCH  20  22
ENDBRANCH  10  20
BRANCH   6  28
ATOM     28  O   UNL d   1      -2.071   1.746  -2.172  0.00  0.00    -0.395 OA
ATOM     29  H   UNL d   1      -1.125   1.591  -2.314  0.00  0.00     0.210 HD
ENDBRANCH   6  28
BRANCH   9  30
ATOM     30  O   UNL d   1       1.509  -0.003   1.823  0.00  0.00    -0.395 OA
ATOM     31  H   UNL d   1       2.420  -0.104   2.151  0.00  0.00     0.210 HD
ENDBRANCH   9  30
BRANCH  18  32
ATOM     32  O   UNL d   1       0.950  -5.259  -0.800  0.00  0.00    -0.396 OA
ATOM     33  H   UNL d   1       0.708  -4.701  -1.557  0.00  0.00     0.210 HD
ENDBRANCH  18  32
TORSDOF 8
