REMARK  4 active torsions:
REMARK  status: ('A' for Active; 'I' for Inactive)
REMARK    1  A    between atoms: C_9  and  C_3 
REMARK    2  A    between atoms: C_13  and  N_6 
REMARK    3  A    between atoms: C_8  and  C_10 
REMARK    4  A    between atoms: C_16  and  C_13 
ROOT
ATOM      1  N   UNL d   1      -0.292  -1.138  -0.175  0.00  0.00    -0.268 N 
ATOM      2  HN  UNL d   1      -0.519  -2.116  -0.357  1.00  0.00     0.190 HD
ATOM      3  C   UNL d   1       0.906  -0.547  -0.004  0.00  0.00     0.144 A 
ATOM      4  N   UNL d   1       0.793   0.803   0.245  0.00  0.00    -0.266 N 
ATOM      5  HN  UNL d   1       1.560   1.455   0.409  1.00  0.00     0.186 HD
ATOM      6  N   UNL d   1      -1.108  -0.070  -0.039  0.00  0.00    -0.212 N 
ATOM      7  N   UNL d   1      -0.498   1.096   0.231  0.00  0.00    -0.002 NA
ENDROOT
BRANCH   3   8
ATOM      8  C   UNL d   1       2.195  -1.227  -0.069  0.00  0.00     0.011 A 
ATOM      9  C   UNL d   1       2.283  -2.594  -0.383  0.00  0.00     0.031 A 
ATOM     10  C   UNL d   1       3.531  -3.236  -0.478  0.00  0.00     0.048 A 
ATOM     11  C   UNL d   1       4.699  -2.495  -0.239  0.00  0.00     0.016 A 
ATOM     12  C   UNL d   1       4.622  -1.142   0.084  0.00  0.00     0.002 A 
ATOM     13  C   UNL d   1       3.379  -0.513   0.167  0.00  0.00     0.015 A 
BRANCH  10  14
ATOM     14  C   UNL d   1       3.638  -4.697  -0.845  0.00  0.00     0.417 C 
ATOM     15  F   UNL d   1       2.434  -5.303  -1.034  0.00  0.00    -0.166 F 
ATOM     16  F   UNL d   1       4.338  -4.890  -1.997  0.00  0.00    -0.166 F 
ATOM     17  F   UNL d   1       4.279  -5.429   0.108  0.00  0.00    -0.166 F 
ENDBRANCH  10  14
ENDBRANCH   3   8
BRANCH   6  18
ATOM     18  C   UNL d   1      -2.554  -0.189  -0.021  0.00  0.00     0.205 C 
BRANCH  18  19
ATOM     19  C   UNL d   1      -3.159   0.037  -1.387  0.00  0.00    -0.035 A 
ATOM     20  C   UNL d   1      -3.381  -1.048  -2.254  0.00  0.00     0.036 A 
ATOM     21  C   UNL d   1      -3.943  -0.839  -3.517  0.00  0.00     0.073 A 
ATOM     22 CL   UNL d   1      -4.215  -2.185  -4.554  0.00  0.00    -0.081 Cl
ATOM     23  C   UNL d   1      -4.279   0.450  -3.922  0.00  0.00     0.138 A 
ATOM     24  C   UNL d   1      -4.059   1.535  -3.079  0.00  0.00     0.044 A 
ATOM     25  F   UNL d   1      -4.820   0.671  -5.129  0.00  0.00    -0.204 F 
ATOM     26  C   UNL d   1      -3.499   1.331  -1.815  0.00  0.00     0.012 A 
ENDBRANCH  18  19
ENDBRANCH   6  18
TORSDOF 4
