REMARK  2 active torsions:
REMARK  status: ('A' for Active; 'I' for Inactive)
REMARK       I    between atoms: C_2  and  N_5 
REMARK    1  A    between atoms: C_4  and  C_2 
REMARK    2  A    between atoms: N_5  and  C_9 
ROOT
ATOM      1  C   UNL d   1      -2.833  -2.634   1.460  0.00  0.00     0.275 C 
ATOM      2  N   UNL d   1      -2.822  -1.314   1.050  0.00  0.00    -0.350 N 
ATOM      3  O   UNL d   1      -1.919  -3.408   1.196  0.00  0.00    -0.265 OA
ATOM      4  H   UNL d   1      -3.687  -0.804   1.207  0.00  0.00     0.163 HD
ENDROOT
BRANCH   2   5
ATOM      5  C   UNL d   1      -1.788  -0.760   0.194  0.00  0.00     0.099 C 
ATOM      6  C   UNL d   1      -0.386  -0.850   0.798  0.00  0.00     0.165 C 
ATOM      7  S   UNL d   1       0.574   0.334  -0.121  0.00  0.00     0.146 S 
ATOM      8  O   UNL d   1       1.206  -0.339  -1.236  0.00  0.00    -0.228 OA
ATOM      9  O   UNL d   1       1.319   1.156   0.810  0.00  0.00    -0.228 OA
ATOM     10  C   UNL d   1      -0.799   1.281  -0.752  0.00  0.00     0.142 C 
ATOM     11  C   UNL d   1      -2.036   0.733  -0.056  0.00  0.00     0.041 C 
ENDBRANCH   2   5
BRANCH   1  12
ATOM     12  C   UNL d   1      -4.005  -2.999   2.225  0.00  0.00     0.142 A 
ATOM     13  O   UNL d   1      -4.981  -2.059   2.454  0.00  0.00    -0.317 OA
ATOM     14  C   UNL d   1      -5.946  -2.658   3.197  0.00  0.00     0.143 A 
ATOM     15  C   UNL d   1      -5.617  -3.969   3.451  0.00  0.00     0.027 A 
ATOM     16  C   UNL d   1      -4.368  -4.190   2.824  0.00  0.00     0.045 A 
ENDBRANCH   1  12
TORSDOF 2
