REMARK  2 active torsions:
REMARK  status: ('A' for Active; 'I' for Inactive)
REMARK    1  A    between atoms: N_2  and  C_8 
REMARK    2  A    between atoms: C_11  and  C_5 
ROOT
ATOM      1  C   UNL d   1       1.853   0.501   0.066  0.00  0.00    -0.002 A 
ATOM      2  C   UNL d   1       0.808   1.557   0.224  0.00  0.00     0.189 A 
ATOM      3  C   UNL d   1      -0.451   0.863   0.524  0.00  0.00     0.021 A 
ATOM      4  C   UNL d   1       3.148   0.787  -0.132  0.00  0.00     0.023 C 
ATOM      5  C   UNL d   1      -0.229  -0.515   0.531  0.00  0.00    -0.040 A 
ATOM      6  C   UNL d   1       1.195  -0.850   0.215  0.00  0.00     0.082 A 
ATOM      7  O   UNL d   1       0.966   2.758   0.141  0.00  0.00    -0.287 OA
ATOM      8  C   UNL d   1      -1.690   1.414   0.790  0.00  0.00     0.016 A 
ATOM      9  C   UNL d   1      -1.266  -1.391   0.809  0.00  0.00     0.008 A 
ATOM     10  C   UNL d   1      -2.738   0.536   1.073  0.00  0.00     0.001 A 
ATOM     11  C   UNL d   1      -2.527  -0.855   1.083  0.00  0.00     0.001 A 
ENDROOT
BRANCH   4  12
ATOM     12  C   UNL d   1       4.134  -0.289  -0.219  0.00  0.00    -0.033 A 
ATOM     13  C   UNL d   1       4.414  -0.888  -1.451  0.00  0.00     0.047 A 
ATOM     14  C   UNL d   1       5.254  -2.009  -1.493  0.00  0.00     0.103 A 
ATOM     15  C   UNL d   1       5.822  -2.525  -0.320  0.00  0.00     0.036 A 
ATOM     16  C   UNL d   1       5.551  -1.910   0.903  0.00  0.00     0.003 A 
ATOM     17  C   UNL d   1       4.710  -0.798   0.953  0.00  0.00     0.011 A 
BRANCH  14  18
ATOM     18  N   UNL d   1       5.510  -2.675  -2.776  0.00  0.00    -0.116 N 
ATOM     19  O   UNL d   1       4.959  -2.214  -3.785  0.00  0.00    -0.532 OA
ATOM     20  O   UNL d   1       6.252  -3.667  -2.772  0.00  0.00    -0.532 OA
ENDBRANCH  14  18
ENDBRANCH   4  12
TORSDOF 2
