REMARK  4 active torsions:
REMARK  status: ('A' for Active; 'I' for Inactive)
REMARK    1  A    between atoms: S_2  and  C_1 
REMARK    2  A    between atoms: C_3  and  C_4 
REMARK    3  A    between atoms: C_14  and  C_5 
REMARK    4  A    between atoms: O_21  and  C_18 
ROOT
ATOM      1  C   UNL d   1       0.990  -0.163   0.415  0.00  0.00     0.139 C 
ATOM      2  C   UNL d   1       0.244   0.939   0.203  0.00  0.00     0.050 C 
ATOM      3  C   UNL d   1       0.473  -1.448   0.701  0.00  0.00     0.111 C 
ATOM      4  N   UNL d   1       0.024  -2.481   0.982  0.00  0.00    -0.191 NA
ENDROOT
BRANCH   1   5
ATOM      5  S   UNL d   1       2.717  -0.028   0.264  0.00  0.00     0.181 S 
ATOM      6  O   UNL d   1       3.292  -1.331  -0.022  0.00  0.00    -0.222 OA
ATOM      7  O   UNL d   1       3.051   1.103  -0.586  0.00  0.00    -0.222 OA
ATOM      8  C   UNL d   1       3.208   0.407   1.912  0.00  0.00     0.168 C 
ENDBRANCH   1   5
BRANCH   2   9
ATOM      9  C   UNL d   1      -1.181   1.058   0.160  0.00  0.00     0.012 A 
ATOM     10  C   UNL d   1      -1.963   1.929  -0.672  0.00  0.00     0.070 A 
ATOM     11  N   UNL d   1      -3.268   1.797  -0.386  0.00  0.00    -0.299 N 
ATOM     12  N   UNL d   1      -3.320   0.835   0.545  0.00  0.00    -0.311 N 
ATOM     13  HN  UNL d   1      -4.049   2.315  -0.789  1.00  0.00     0.187 HD
ATOM     14  C   UNL d   1      -2.094   0.374   0.926  0.00  0.00     0.120 A 
ATOM     15  H   UNL d   1      -4.231   0.544   0.885  0.00  0.00     0.186 HD
BRANCH  10  16
ATOM     16  C   UNL d   1      -1.508   2.856  -1.714  0.00  0.00    -0.007 A 
ATOM     17  C   UNL d   1      -0.413   2.536  -2.528  0.00  0.00     0.016 A 
ATOM     18  C   UNL d   1       0.070   3.442  -3.477  0.00  0.00     0.037 A 
ATOM     19  C   UNL d   1      -0.553   4.675  -3.649  0.00  0.00     0.068 A 
ATOM     20  C   UNL d   1      -1.679   4.981  -2.879  0.00  0.00     0.037 A 
ATOM     21  C   UNL d   1      -2.154   4.081  -1.919  0.00  0.00     0.016 A 
BRANCH  19  22
ATOM     22  O   UNL d   1      -0.163   5.647  -4.529  0.00  0.00    -0.356 OA
ATOM     23  C   UNL d   1       1.016   5.383  -5.283  0.00  0.00     0.210 C 
ENDBRANCH  19  22
ENDBRANCH  10  16
ENDBRANCH   2   9
TORSDOF 4
