REMARK  3 active torsions:
REMARK  status: ('A' for Active; 'I' for Inactive)
REMARK    1  A    between atoms: N_14  and  C_2 
REMARK    2  A    between atoms: C_15  and  C_5 
REMARK    3  A    between atoms: N_8  and  N_14 
ROOT
ATOM      1  C   UNL d   1       3.123  -3.508   0.548  0.00  0.00     0.209 C 
ATOM      2  N   UNL d   1       2.102  -2.704   0.507  0.00  0.00    -0.280 N 
ATOM      3  HN  UNL d   1       1.207  -3.004   0.892  1.00  0.00     0.188 HD
ATOM      4  N   UNL d   1       5.394  -2.849  -0.521  0.00  0.00    -0.189 NA
ATOM      5  N   UNL d   1       2.713  -5.756   1.779  0.00  0.00    -0.189 NA
ATOM      6  C   UNL d   1       4.385  -3.161  -0.039  0.00  0.00     0.130 C 
ATOM      7  C   UNL d   1       2.882  -4.750   1.227  0.00  0.00     0.130 C 
ENDROOT
BRANCH   2   8
ATOM      8  N   UNL d   1       2.221  -1.458  -0.050  0.00  0.00    -0.283 N 
ATOM      9  H   UNL d   1       3.144  -1.058  -0.252  0.00  0.00     0.188 HD
BRANCH   8  10
ATOM     10  C   UNL d   1       1.186  -0.588  -0.004  0.00  0.00     0.136 A 
ATOM     11  C   UNL d   1       1.124   0.782  -0.066  0.00  0.00     0.083 A 
ATOM     12  C   UNL d   1      -0.262   1.109   0.019  0.00  0.00     0.062 A 
ATOM     13  N   UNL d   1      -1.004  -0.006   0.141  0.00  0.00    -0.298 N 
ATOM     14  N   UNL d   1      -0.107  -1.005   0.121  0.00  0.00    -0.284 N 
ATOM     15  HN  UNL d   1      -2.017  -0.077   0.228  1.00  0.00     0.187 HD
ATOM     16  H   UNL d   1      -0.430  -1.964   0.178  0.00  0.00     0.188 HD
BRANCH  12  17
ATOM     17  C   UNL d   1      -0.873   2.439  -0.015  0.00  0.00    -0.008 A 
ATOM     18  C   UNL d   1      -2.121   2.665   0.586  0.00  0.00     0.014 A 
ATOM     19  C   UNL d   1      -2.711   3.931   0.551  0.00  0.00     0.001 A 
ATOM     20  C   UNL d   1      -2.063   4.984  -0.092  0.00  0.00     0.000 A 
ATOM     21  C   UNL d   1      -0.825   4.774  -0.696  0.00  0.00     0.001 A 
ATOM     22  C   UNL d   1      -0.232   3.509  -0.656  0.00  0.00     0.014 A 
ENDBRANCH  12  17
ENDBRANCH   8  10
ENDBRANCH   2   8
TORSDOF 3
