REMARK  6 active torsions:
REMARK  status: ('A' for Active; 'I' for Inactive)
REMARK    1  A    between atoms: O_5  and  C_1 
REMARK    2  A    between atoms: C_10  and  N_2 
REMARK    3  A    between atoms: C_9  and  O_5 
REMARK    4  A    between atoms: S_13  and  C_6 
REMARK       I    between atoms: N_11  and  C_9 
REMARK    5  A    between atoms: C_22  and  S_13 
REMARK    6  A    between atoms: C_16  and  C_22 
ROOT
ATOM      1  C   UNL d   1       0.139  -1.004  -0.179  0.00  0.00     0.256 A 
ATOM      2  N   UNL d   1       1.366  -0.352  -0.294  0.00  0.00    -0.255 N 
ATOM      3  N   UNL d   1      -0.844  -0.139  -0.141  0.00  0.00    -0.262 N 
ATOM      4  HN  UNL d   1      -1.839  -0.360  -0.107  1.00  0.00     0.190 HD
ATOM      5  C   UNL d   1       1.007   0.991  -0.255  0.00  0.00     0.169 A 
ATOM      6  N   UNL d   1      -0.298   1.112  -0.154  0.00  0.00    -0.276 N 
ATOM      7  HN  UNL d   1      -0.814   1.990  -0.095  1.00  0.00     0.189 HD
ENDROOT
BRANCH   2   8
ATOM      8  C   UNL d   1       2.651  -0.976  -0.405  0.00  0.00     0.045 A 
ATOM      9  C   UNL d   1       2.770  -2.244  -1.002  0.00  0.00     0.032 A 
ATOM     10  C   UNL d   1       4.015  -2.874  -1.109  0.00  0.00     0.026 A 
ATOM     11  C   UNL d   1       5.155  -2.243  -0.626  0.00  0.00     0.034 A 
ATOM     12  C   UNL d   1       5.056  -0.990  -0.028  0.00  0.00     0.026 A 
ATOM     13 CL   UNL d   1       6.686  -3.012  -0.763  0.00  0.00    -0.084 Cl
ATOM     14  C   UNL d   1       3.810  -0.362   0.090  0.00  0.00     0.032 A 
ENDBRANCH   2   8
BRANCH   1  15
ATOM     15  O   UNL d   1       0.037  -2.300  -0.111  0.00  0.00    -0.226 OA
BRANCH  15  16
ATOM     16  C   UNL d   1      -0.833  -3.278   0.151  0.00  0.00     0.369 C 
ATOM     17  N   UNL d   1      -1.984  -3.043   0.897  0.00  0.00    -0.336 N 
ATOM     18  C   UNL d   1      -2.307  -1.818   1.603  0.00  0.00     0.154 C 
ATOM     19  C   UNL d   1      -2.850  -4.180   1.167  0.00  0.00     0.154 C 
ATOM     20  O   UNL d   1      -0.554  -4.412  -0.246  0.00  0.00    -0.238 OA
ENDBRANCH  15  16
ENDBRANCH   1  15
BRANCH   5  21
ATOM     21  S   UNL d   1       2.074   2.340  -0.493  0.00  0.00    -0.088 SA
BRANCH  21  22
ATOM     22  C   UNL d   1       0.976   3.729  -0.109  0.00  0.00     0.108 C 
BRANCH  22  23
ATOM     23  C   UNL d   1       1.666   5.069  -0.086  0.00  0.00    -0.026 C 
ATOM     24  C   UNL d   1       2.952   5.353   0.160  0.00  0.00     0.007 C 
ENDBRANCH  22  23
ENDBRANCH  21  22
ENDBRANCH   5  21
TORSDOF 6
