REMARK  4 active torsions:
REMARK  status: ('A' for Active; 'I' for Inactive)
REMARK    1  A    between atoms: C_2  and  N_1 
REMARK    2  A    between atoms: O_11  and  C_6 
REMARK    3  A    between atoms: C_12  and  C_9 
REMARK    4  A    between atoms: C_15  and  O_11 
ROOT
ATOM      1  C   UNL d   1      -1.597   7.850   2.251  0.00  0.00    -0.026 A 
ATOM      2  C   UNL d   1      -1.677   7.148   3.470  0.00  0.00     0.015 A 
ATOM      3  C   UNL d   1      -1.727   7.096   1.073  0.00  0.00     0.015 A 
ATOM      4  C   UNL d   1      -2.014   5.042   2.329  0.00  0.00     0.077 A 
ATOM      5  C   UNL d   1      -1.870   5.760   3.512  0.00  0.00     0.038 A 
ATOM      6  C   UNL d   1      -1.915   5.712   1.109  0.00  0.00     0.038 A 
ENDROOT
BRANCH   4   7
ATOM      7  O   UNL d   1      -2.187   3.679   2.440  0.00  0.00    -0.294 OA
BRANCH   7   8
ATOM      8  C   UNL d   1      -3.022   3.068   1.514  0.00  0.00     0.148 A 
ATOM      9  C   UNL d   1      -2.733   1.757   1.164  0.00  0.00     0.059 A 
ATOM     10  C   UNL d   1      -3.511   1.152   0.174  0.00  0.00     0.041 A 
ATOM     11  C   UNL d   1      -4.544   1.889  -0.415  0.00  0.00     0.118 A 
ATOM     12  C   UNL d   1      -4.787   3.179   0.024  0.00  0.00     0.126 A 
ATOM     13  N   UNL d   1      -4.054   3.773   0.991  0.00  0.00    -0.344 N 
ATOM     14  HN  UNL d   1      -4.271   4.715   1.316  1.00  0.00     0.167 HD
BRANCH  11  15
ATOM     15  N   UNL d   1      -5.356   1.335  -1.489  0.00  0.00    -0.114 N 
ATOM     16  O   UNL d   1      -6.228   2.059  -1.985  0.00  0.00    -0.532 OA
ATOM     17  O   UNL d   1      -5.118   0.171  -1.845  0.00  0.00    -0.532 OA
ENDBRANCH  11  15
ENDBRANCH   7   8
ENDBRANCH   4   7
BRANCH   1  18
ATOM     18  C   UNL d   1      -1.362   9.314   2.206  0.00  0.00    -0.026 A 
ATOM     19  C   UNL d   1      -1.898  10.121   1.184  0.00  0.00     0.012 A 
ATOM     20  C   UNL d   1      -1.653  11.498   1.134  0.00  0.00     0.001 A 
ATOM     21  C   UNL d   1      -0.877  12.105   2.116  0.00  0.00     0.000 A 
ATOM     22  C   UNL d   1      -0.338  11.334   3.139  0.00  0.00     0.001 A 
ATOM     23  C   UNL d   1      -0.572   9.956   3.177  0.00  0.00     0.012 A 
ENDBRANCH   1  18
TORSDOF 4
