REMARK  4 active torsions:
REMARK  status: ('A' for Active; 'I' for Inactive)
REMARK    1  A    between atoms: N_2  and  C_1 
REMARK    2  A    between atoms: C_9  and  C_4 
REMARK    3  A    between atoms: O_18  and  C_11 
REMARK    4  A    between atoms: C_22  and  O_18 
ROOT
ATOM      1  C   UNL d   1       2.341  -0.952  -0.035  0.00  0.00     0.115 C 
ATOM      2  C   UNL d   1       1.214  -1.582   0.324  0.00  0.00     0.049 C 
ATOM      3  C   UNL d   1       2.394   0.485  -0.430  0.00  0.00     0.218 C 
ATOM      4  O   UNL d   1       1.310   1.239   0.171  0.00  0.00    -0.331 OA
ATOM      5  C   UNL d   1       0.078   0.630   0.191  0.00  0.00     0.113 A 
ATOM      6  C   UNL d   1      -0.010  -0.779   0.250  0.00  0.00     0.002 A 
ATOM      7  C   UNL d   1      -1.080   1.418   0.116  0.00  0.00     0.102 A 
ATOM      8  C   UNL d   1      -1.260  -1.400   0.190  0.00  0.00     0.014 A 
ATOM      9  C   UNL d   1      -2.412  -0.624   0.071  0.00  0.00     0.004 A 
ATOM     10  C   UNL d   1      -2.319   0.770   0.045  0.00  0.00     0.040 A 
ENDROOT
BRANCH   3  11
ATOM     11  C   UNL d   1       2.396   0.730  -1.944  0.00  0.00    -0.023 A 
ATOM     12  C   UNL d   1       1.346   0.290  -2.776  0.00  0.00     0.013 A 
ATOM     13  C   UNL d   1       1.355   0.550  -4.146  0.00  0.00     0.043 A 
ATOM     14  C   UNL d   1       2.417   1.244  -4.699  0.00  0.00     0.116 A 
ATOM     15  C   UNL d   1       3.470   1.684  -3.909  0.00  0.00     0.043 A 
ATOM     16  F   UNL d   1       2.426   1.495  -6.016  0.00  0.00    -0.206 F 
ATOM     17  C   UNL d   1       3.463   1.430  -2.534  0.00  0.00     0.013 A 
ENDBRANCH   3  11
BRANCH   1  18
ATOM     18  N   UNL d   1       3.606  -1.653   0.028  0.00  0.00    -0.117 N 
ATOM     19  O   UNL d   1       4.628  -1.016  -0.263  0.00  0.00    -0.532 OA
ATOM     20  O   UNL d   1       3.600  -2.841   0.377  0.00  0.00    -0.532 OA
ENDBRANCH   1  18
BRANCH   7  21
ATOM     21  O   UNL d   1      -1.178   2.784   0.058  0.00  0.00    -0.349 OA
BRANCH  21  22
ATOM     22  C   UNL d   1       0.021   3.553   0.116  0.00  0.00     0.171 C 
ATOM     23  C   UNL d   1      -0.332   5.028   0.063  0.00  0.00     0.034 C 
ENDBRANCH  21  22
ENDBRANCH   7  21
TORSDOF 4
