REMARK  2 active torsions:
REMARK  status: ('A' for Active; 'I' for Inactive)
REMARK    1  A    between atoms: C_4  and  N_1 
REMARK    2  A    between atoms: C_6  and  C_5 
ROOT
ATOM      1  N   UNL d   1       0.011  -0.963  -0.131  0.00  0.00    -0.252 N 
ATOM      2  C   UNL d   1      -1.230  -0.330   0.025  0.00  0.00     0.231 C 
ATOM      3  C   UNL d   1       1.255  -0.320  -0.156  0.00  0.00     0.231 C 
ATOM      4  C   UNL d   1      -0.044   1.868  -0.208  0.00  0.00     0.039 C 
ATOM      5  C   UNL d   1      -1.207   1.119   0.421  0.00  0.00     0.113 C 
ATOM      6  C   UNL d   1       1.282   1.175   0.058  0.00  0.00     0.113 C 
ATOM      7  O   UNL d   1      -2.319  -0.892  -0.122  0.00  0.00    -0.273 OA
ATOM      8  O   UNL d   1       2.335  -0.907  -0.241  0.00  0.00    -0.273 OA
ENDROOT
BRANCH   1   9
ATOM      9  C   UNL d   1       0.001  -2.391  -0.291  0.00  0.00     0.048 A 
ATOM     10  C   UNL d   1       0.706  -3.003  -1.337  0.00  0.00     0.054 A 
ATOM     11  C   UNL d   1       0.691  -4.390  -1.475  0.00  0.00     0.037 A 
ATOM     12 CL   UNL d   1       1.514  -5.122  -2.797  0.00  0.00    -0.084 Cl
ATOM     13  C   UNL d   1       0.009  -5.189  -0.560  0.00  0.00     0.048 A 
ATOM     14  C   UNL d   1      -0.677  -4.586   0.488  0.00  0.00     0.037 A 
ATOM     15  C   UNL d   1      -0.700  -3.196   0.620  0.00  0.00     0.054 A 
ATOM     16 CL   UNL d   1      -1.488  -5.563   1.650  0.00  0.00    -0.084 Cl
ENDBRANCH   1   9
BRANCH   4  17
ATOM     17  C   UNL d   1      -0.029   3.351   0.181  0.00  0.00    -0.010 A 
ATOM     18  C   UNL d   1      -0.216   4.354  -0.799  0.00  0.00     0.042 A 
ATOM     19 CL   UNL d   1      -0.477   3.993  -2.474  0.00  0.00    -0.084 Cl
ATOM     20  C   UNL d   1      -0.210   5.718  -0.471  0.00  0.00     0.024 A 
ATOM     21  C   UNL d   1      -0.014   6.125   0.843  0.00  0.00     0.003 A 
ATOM     22  C   UNL d   1       0.168   5.169   1.831  0.00  0.00     0.024 A 
ATOM     23  C   UNL d   1       0.158   3.801   1.511  0.00  0.00     0.042 A 
ATOM     24 CL   UNL d   1       0.376   2.748   2.871  0.00  0.00    -0.084 Cl
ENDBRANCH   4  17
TORSDOF 2
