REMARK  5 active torsions:
REMARK  status: ('A' for Active; 'I' for Inactive)
REMARK    1  A    between atoms: C_10  and  C_2 
REMARK    2  A    between atoms: C_14  and  C_4 
REMARK    3  A    between atoms: N_16  and  C_6 
REMARK    4  A    between atoms: O_18  and  C_10 
REMARK    5  A    between atoms: C_23  and  O_18 
ROOT
ATOM      1  C   UNL d   1      -0.717   0.665  -0.040  0.00  0.00     0.146 A 
ATOM      2  C   UNL d   1      -1.549   0.424  -1.283  0.00  0.00     0.080 C 
ATOM      3  C   UNL d   1      -1.478   0.355   1.244  0.00  0.00     0.095 C 
ATOM      4  C   UNL d   1      -2.665  -0.332  -1.196  0.00  0.00     0.102 C 
ATOM      5  C   UNL d   1      -0.218   2.147   0.015  0.00  0.00     0.246 A 
ATOM      6  C   UNL d   1      -2.596  -0.394   1.210  0.00  0.00     0.139 C 
ATOM      7  O   UNL d   1      -3.118  -0.846   0.008  0.00  0.00    -0.296 OA
ATOM      8  N   UNL d   1       1.175   2.118   0.080  0.00  0.00    -0.325 N 
ATOM      9  C   UNL d   1       0.607  -0.092  -0.043  0.00  0.00    -0.003 A 
ATOM     10  C   UNL d   1       1.663   0.819   0.036  0.00  0.00     0.043 A 
ATOM     11  C   UNL d   1      -0.950   0.812   2.492  0.00  0.00     0.101 C 
ATOM     12  N   UNL d   1      -0.529   1.187   3.504  0.00  0.00    -0.191 NA
ATOM     13  O   UNL d   1      -0.907   3.156   0.020  0.00  0.00    -0.271 OA
ATOM     14  C   UNL d   1       0.849  -1.457  -0.082  0.00  0.00     0.011 A 
ATOM     15  C   UNL d   1       2.981   0.416   0.058  0.00  0.00     0.030 A 
ATOM     16  C   UNL d   1       2.178  -1.886  -0.051  0.00  0.00     0.001 A 
ATOM     17  C   UNL d   1       3.233  -0.958   0.013  0.00  0.00     0.002 A 
ATOM     18  H   UNL d   1       1.739   2.954   0.128  0.00  0.00     0.169 HD
ENDROOT
BRANCH   6  19
ATOM     19  N   UNL d   1      -3.320  -0.821   2.297  0.00  0.00    -0.282 NA
ATOM     20  H   UNL d   1      -3.244  -0.252   3.137  0.00  0.00     0.126 HD
ATOM     21  H   UNL d   1      -4.281  -1.051   2.052  0.00  0.00     0.126 HD
ENDBRANCH   6  19
BRANCH   2  22
ATOM     22  C   UNL d   1      -1.145   1.000  -2.593  0.00  0.00     0.294 C 
ATOM     23  O   UNL d   1      -1.901   1.264  -3.512  0.00  0.00    -0.259 OA
BRANCH  22  24
ATOM     24  O   UNL d   1       0.202   1.119  -2.645  0.00  0.00    -0.318 OA
BRANCH  24  25
ATOM     25  C   UNL d   1       0.776   1.242  -3.952  0.00  0.00     0.174 C 
ATOM     26  C   UNL d   1       1.183  -0.153  -4.386  0.00  0.00     0.034 C 
ENDBRANCH  24  25
ENDBRANCH  22  24
ENDBRANCH   2  22
BRANCH   4  27
ATOM     27  C   UNL d   1      -3.502  -0.776  -2.320  0.00  0.00    -0.001 A 
ATOM     28  C   UNL d   1      -3.213  -1.982  -2.974  0.00  0.00     0.014 A 
ATOM     29  C   UNL d   1      -4.021  -2.425  -4.024  0.00  0.00     0.001 A 
ATOM     30  C   UNL d   1      -5.119  -1.667  -4.426  0.00  0.00     0.000 A 
ATOM     31  C   UNL d   1      -5.411  -0.465  -3.782  0.00  0.00     0.001 A 
ATOM     32  C   UNL d   1      -4.608  -0.022  -2.728  0.00  0.00     0.014 A 
ENDBRANCH   4  27
TORSDOF 5
