REMARK  7 active torsions:
REMARK  status: ('A' for Active; 'I' for Inactive)
REMARK    1  A    between atoms: C_2  and  C_1 
REMARK       I    between atoms: N_4  and  C_1 
REMARK    2  A    between atoms: C_20  and  N_4 
REMARK    3  A    between atoms: O_18  and  C_8 
REMARK    4  A    between atoms: C_11  and  C_19 
REMARK    5  A    between atoms: S_13  and  C_21 
REMARK    6  A    between atoms: C_19  and  S_13 
REMARK    7  A    between atoms: C_21  and  C_20 
ROOT
ATOM      1  C   UNL d   1       2.073  -0.238  -1.251  0.00  0.00     0.251 C 
ATOM      2  O   UNL d   1       2.419  -1.259  -1.828  0.00  0.00    -0.268 OA
ATOM      3  N   UNL d   1       2.459   0.073   0.035  0.00  0.00    -0.356 N 
ATOM      4  H   UNL d   1       2.402   1.036   0.343  0.00  0.00     0.162 HD
ENDROOT
BRANCH   3   5
ATOM      5  C   UNL d   1       3.315  -0.808   0.814  0.00  0.00     0.133 C 
BRANCH   5   6
ATOM      6  C   UNL d   1       4.807  -0.509   0.643  0.00  0.00     0.093 C 
BRANCH   6   7
ATOM      7  S   UNL d   1       5.171   1.194   1.201  0.00  0.00    -0.163 SA
BRANCH   7   8
ATOM      8  C   UNL d   1       6.969   1.214   0.915  0.00  0.00     0.112 C 
BRANCH   8   9
ATOM      9  C   UNL d   1       7.534   2.575   1.242  0.00  0.00    -0.049 A 
ATOM     10  C   UNL d   1       7.932   2.886   2.552  0.00  0.00     0.009 A 
ATOM     11  C   UNL d   1       8.409   4.161   2.864  0.00  0.00     0.024 A 
ATOM     12  C   UNL d   1       8.488   5.133   1.869  0.00  0.00     0.034 A 
ATOM     13  C   UNL d   1       8.092   4.843   0.566  0.00  0.00     0.024 A 
ATOM     14 CL   UNL d   1       9.072   6.705   2.254  0.00  0.00    -0.084 Cl
ATOM     15  C   UNL d   1       7.613   3.568   0.253  0.00  0.00     0.009 A 
ENDBRANCH   8   9
ENDBRANCH   7   8
ENDBRANCH   6   7
ENDBRANCH   5   6
ENDBRANCH   3   5
BRANCH   1  16
ATOM     16  C   UNL d   1       1.201   0.759  -1.937  0.00  0.00     0.032 A 
ATOM     17  C   UNL d   1       0.318   1.584  -1.228  0.00  0.00     0.020 A 
ATOM     18  C   UNL d   1      -0.527   2.469  -1.912  0.00  0.00     0.038 A 
ATOM     19  C   UNL d   1      -0.496   2.530  -3.306  0.00  0.00     0.068 A 
ATOM     20  C   UNL d   1       0.398   1.723  -4.011  0.00  0.00     0.038 A 
ATOM     21  C   UNL d   1       1.232   0.828  -3.334  0.00  0.00     0.020 A 
BRANCH  19  22
ATOM     22  O   UNL d   1      -1.260   3.368  -4.072  0.00  0.00    -0.356 OA
ATOM     23  C   UNL d   1      -2.557   3.657  -3.559  0.00  0.00     0.210 C 
ENDBRANCH  19  22
ENDBRANCH   1  16
TORSDOF 7
