REMARK  7 active torsions:
REMARK  status: ('A' for Active; 'I' for Inactive)
REMARK    1  A    between atoms: N_2  and  C_1 
REMARK    2  A    between atoms: C_5  and  N_2 
REMARK    3  A    between atoms: C_4  and  C_13 
REMARK    4  A    between atoms: O_10  and  C_4 
REMARK    5  A    between atoms: C_15  and  N_8 
REMARK    6  A    between atoms: C_13  and  C_17 
REMARK    7  A    between atoms: C_17  and  C_15 
ROOT
ATOM      1  C   UNL d   1       1.073   0.066  -0.149  0.00  0.00     0.172 C 
ATOM      2  S   UNL d   1       0.294  -0.130   1.319  0.00  0.00    -0.041 SA
ATOM      3  N   UNL d   1       2.437   0.020  -0.128  0.00  0.00    -0.367 N 
ATOM      4  H   UNL d   1       2.806  -0.059   0.815  0.00  0.00     0.161 HD
ENDROOT
BRANCH   1   5
ATOM      5  N   UNL d   1       0.494   0.214  -1.387  0.00  0.00    -0.333 N 
ATOM      6  H   UNL d   1       0.876  -0.408  -2.088  0.00  0.00     0.168 HD
BRANCH   5   7
ATOM      7  C   UNL d   1      -0.808   0.705  -1.632  0.00  0.00     0.037 A 
ATOM      8  C   UNL d   1      -1.312   1.803  -0.930  0.00  0.00     0.071 A 
ATOM      9  C   UNL d   1      -2.607   2.244  -1.173  0.00  0.00     0.118 A 
ATOM     10  F   UNL d   1      -3.086   3.292  -0.489  0.00  0.00    -0.206 F 
ATOM     11  C   UNL d   1      -3.412   1.616  -2.115  0.00  0.00     0.042 A 
ATOM     12  C   UNL d   1      -2.899   0.550  -2.852  0.00  0.00     0.005 A 
ATOM     13  C   UNL d   1      -1.590   0.108  -2.628  0.00  0.00     0.029 A 
ENDBRANCH   5   7
ENDBRANCH   1   5
BRANCH   3  14
ATOM     14  C   UNL d   1       3.365   0.450  -1.157  0.00  0.00     0.122 C 
BRANCH  14  15
ATOM     15  C   UNL d   1       3.401   1.969  -1.310  0.00  0.00     0.030 C 
BRANCH  15  16
ATOM     16  C   UNL d   1       4.519   2.386  -2.262  0.00  0.00     0.111 C 
BRANCH  16  17
ATOM     17  C   UNL d   1       4.561   3.881  -2.482  0.00  0.00     0.139 C 
ATOM     18  O   UNL d   1       3.814   4.692  -1.964  0.00  0.00    -0.650 OA
BRANCH  17  19
ATOM     19  O   UNL d   1       5.545   4.241  -3.337  0.00  0.00    -0.776 OA
ATOM     20  H   UNL d   1       6.073   3.495  -3.678  0.00  0.00     0.167 HD
ENDBRANCH  17  19
ENDBRANCH  16  17
ENDBRANCH  15  16
ENDBRANCH  14  15
ENDBRANCH   3  14
TORSDOF 7
