REMARK  4 active torsions:
REMARK  status: ('A' for Active; 'I' for Inactive)
REMARK    1  A    between atoms: O_9  and  C_7 
REMARK    2  A    between atoms: O_10  and  C_8 
REMARK    3  A    between atoms: C_12  and  O_9 
REMARK    4  A    between atoms: C_11  and  O_10 
ROOT
ATOM      1  C   UNL d   1       1.261  -0.672  -0.154  0.00  0.00     0.066 A 
ATOM      2  C   UNL d   1       1.310   0.727  -0.042  0.00  0.00     0.066 A 
ATOM      3  C   UNL d   1      -0.046  -1.364  -0.255  0.00  0.00     0.197 C 
ATOM      4  C   UNL d   1       0.044   1.510  -0.069  0.00  0.00     0.197 C 
ATOM      5  C   UNL d   1      -1.292  -0.586  -0.112  0.00  0.00     0.029 A 
ATOM      6  C   UNL d   1      -1.252   0.802  -0.068  0.00  0.00     0.029 A 
ATOM      7  C   UNL d   1       2.563   1.369   0.058  0.00  0.00     0.094 A 
ATOM      8  C   UNL d   1       2.470  -1.399  -0.184  0.00  0.00     0.094 A 
ATOM      9  O   UNL d   1      -0.128  -2.570  -0.462  0.00  0.00    -0.286 OA
ATOM     10  O   UNL d   1       0.040   2.736  -0.089  0.00  0.00    -0.286 OA
ATOM     11  C   UNL d   1       3.749   0.633   0.022  0.00  0.00     0.041 A 
ATOM     12  C   UNL d   1       3.702  -0.747  -0.099  0.00  0.00     0.041 A 
ATOM     13  C   UNL d   1      -2.526  -1.253  -0.049  0.00  0.00     0.016 A 
ATOM     14  C   UNL d   1      -2.450   1.531  -0.015  0.00  0.00     0.016 A 
ATOM     15  C   UNL d   1      -3.715  -0.525   0.029  0.00  0.00     0.001 A 
ATOM     16  C   UNL d   1      -3.677   0.867   0.031  0.00  0.00     0.001 A 
ENDROOT
BRANCH   7  17
ATOM     17  O   UNL d   1       2.615   2.783   0.083  0.00  0.00    -0.278 OA
BRANCH  17  18
ATOM     18  C   UNL d   1       3.604   3.503   0.756  0.00  0.00     0.260 C 
ATOM     19  O   UNL d   1       4.512   3.038   1.430  0.00  0.00    -0.265 OA
ATOM     20  C   UNL d   1       3.401   4.971   0.531  0.00  0.00     0.126 C 
ENDBRANCH  17  18
ENDBRANCH   7  17
BRANCH   8  21
ATOM     21  O   UNL d   1       2.473  -2.773  -0.490  0.00  0.00    -0.278 OA
BRANCH  21  22
ATOM     22  C   UNL d   1       3.284  -3.612   0.270  0.00  0.00     0.260 C 
ATOM     23  O   UNL d   1       3.785  -3.352   1.353  0.00  0.00    -0.265 OA
ATOM     24  C   UNL d   1       3.489  -4.893  -0.484  0.00  0.00     0.126 C 
ENDBRANCH  21  22
ENDBRANCH   8  21
TORSDOF 4
