REMARK  1 active torsions:
REMARK  status: ('A' for Active; 'I' for Inactive)
REMARK    1  A    between atoms: C_8  and  C_4 
ROOT
ATOM      1  C   UNL d   1       1.843   0.563   0.020  0.00  0.00    -0.002 A 
ATOM      2  C   UNL d   1       1.131  -0.754   0.084  0.00  0.00     0.189 A 
ATOM      3  C   UNL d   1      -0.304  -0.466   0.050  0.00  0.00     0.021 A 
ATOM      4  C   UNL d   1       3.166   0.749  -0.088  0.00  0.00     0.023 C 
ATOM      5  C   UNL d   1      -0.505   0.912   0.025  0.00  0.00    -0.040 A 
ATOM      6  C   UNL d   1       0.797   1.657   0.053  0.00  0.00     0.082 A 
ATOM      7  O   UNL d   1       1.611  -1.864   0.161  0.00  0.00    -0.287 OA
ATOM      8  C   UNL d   1      -1.345  -1.376   0.028  0.00  0.00     0.016 A 
ATOM      9  C   UNL d   1      -1.792   1.423  -0.017  0.00  0.00     0.008 A 
ATOM     10  C   UNL d   1      -2.643  -0.867  -0.021  0.00  0.00     0.001 A 
ATOM     11  C   UNL d   1      -2.863   0.521  -0.043  0.00  0.00     0.001 A 
ENDROOT
BRANCH   4  12
ATOM     12  C   UNL d   1       4.175  -0.308  -0.172  0.00  0.00    -0.035 A 
ATOM     13  C   UNL d   1       4.549  -0.827  -1.418  0.00  0.00     0.013 A 
ATOM     14  C   UNL d   1       5.554  -1.794  -1.504  0.00  0.00     0.024 A 
ATOM     15  C   UNL d   1       6.183  -2.243  -0.344  0.00  0.00     0.034 A 
ATOM     16  C   UNL d   1       5.804  -1.747   0.902  0.00  0.00     0.024 A 
ATOM     17 CL   UNL d   1       7.453  -3.400  -0.454  0.00  0.00    -0.084 Cl
ATOM     18  C   UNL d   1       4.796  -0.783   0.988  0.00  0.00     0.013 A 
ENDBRANCH   4  12
TORSDOF 1
