REMARK  2 active torsions:
REMARK  status: ('A' for Active; 'I' for Inactive)
REMARK       I    between atoms: N_2  and  C_1 
REMARK    1  A    between atoms: C_3  and  C_1 
REMARK       I    between atoms: C_4  and  N_2 
REMARK       I    between atoms: N_6  and  C_4 
REMARK    2  A    between atoms: C_12  and  N_6 
ROOT
ATOM      1  C   UNL d   1       2.886  -4.774  -5.543  0.00  0.00    -0.078 C 
ATOM      2  C   UNL d   1       2.318  -5.319  -6.446  0.00  0.00     0.018 C 
ATOM      3  C   UNL d   1       3.229  -2.684  -2.487  0.00  0.00     0.037 A 
ATOM      4  C   UNL d   1       3.482  -4.139  -4.408  0.00  0.00     0.019 A 
ATOM      5  C   UNL d   1       2.727  -3.226  -3.669  0.00  0.00     0.050 A 
ATOM      6  C   UNL d   1       5.305  -3.889  -2.849  0.00  0.00     0.004 A 
ATOM      7  C   UNL d   1       4.539  -2.989  -2.100  0.00  0.00     0.029 A 
ATOM      8  C   UNL d   1       4.770  -4.477  -3.996  0.00  0.00     0.021 A 
ENDROOT
BRANCH   3   9
ATOM      9  N   UNL d   1       2.455  -1.870  -1.635  0.00  0.00    -0.309 N 
ATOM     10  C   UNL d   1       1.092  -1.746  -1.640  0.00  0.00     0.327 C 
ATOM     11  N   UNL d   1       0.559  -0.926  -0.667  0.00  0.00    -0.275 N 
ATOM     12  O   UNL d   1       0.301  -2.305  -2.397  0.00  0.00    -0.247 OA
ATOM     13  C   UNL d   1       1.214  -0.158   0.278  0.00  0.00     0.263 C 
ATOM     14  H   UNL d   1      -0.445  -0.866  -0.754  0.00  0.00     0.173 HD
ATOM     15  O   UNL d   1       2.439  -0.148   0.360  0.00  0.00    -0.267 OA
ATOM     16  H   UNL d   1       2.929  -1.438  -0.841  0.00  0.00     0.170 HD
BRANCH  13  17
ATOM     17  C   UNL d   1       0.376   0.670   1.205  0.00  0.00     0.075 A 
ATOM     18  C   UNL d   1       0.854   0.951   2.503  0.00  0.00     0.051 A 
ATOM     19 CL   UNL d   1       2.264   0.221   3.199  0.00  0.00    -0.083 Cl
ATOM     20  C   UNL d   1       0.158   1.822   3.354  0.00  0.00     0.025 A 
ATOM     21  C   UNL d   1      -1.037   2.403   2.949  0.00  0.00     0.003 A 
ATOM     22  C   UNL d   1      -1.550   2.100   1.694  0.00  0.00     0.025 A 
ATOM     23  C   UNL d   1      -0.853   1.247   0.823  0.00  0.00     0.051 A 
ATOM     24 CL   UNL d   1      -1.612   1.002  -0.715  0.00  0.00    -0.083 Cl
ENDBRANCH  13  17
ENDBRANCH   3   9
TORSDOF 2
