REMARK  4 active torsions:
REMARK  status: ('A' for Active; 'I' for Inactive)
REMARK    1  A    between atoms: C_5  and  C_1 
REMARK    2  A    between atoms: N_8  and  C_2 
REMARK       I    between atoms: C_10  and  N_8 
REMARK    3  A    between atoms: C_9  and  C_18 
REMARK       I    between atoms: N_17  and  C_10 
REMARK    4  A    between atoms: N_11  and  N_17 
ROOT
ATOM      1  N   UNL d   1       0.705  -2.415  -0.824  0.00  0.00    -0.303 N 
ATOM      2  C   UNL d   1       1.983  -2.797  -0.503  0.00  0.00     0.339 C 
ATOM      3  N   UNL d   1       2.704  -1.913   0.282  0.00  0.00    -0.252 N 
ATOM      4  O   UNL d   1       2.432  -3.827  -1.002  0.00  0.00    -0.245 OA
ATOM      5  H   UNL d   1       0.347  -2.924  -1.625  0.00  0.00     0.171 HD
ATOM      6  H   UNL d   1       2.383  -0.953   0.211  0.00  0.00     0.191 HD
ENDROOT
BRANCH   1   7
ATOM      7  C   UNL d   1      -0.119  -1.451  -0.264  0.00  0.00     0.097 A 
ATOM      8  C   UNL d   1      -1.220  -0.792  -0.912  0.00  0.00     0.097 A 
ATOM      9  N   UNL d   1      -1.803   0.079  -0.077  0.00  0.00    -0.258 N 
ATOM     10  O   UNL d   1      -1.149  -0.044   1.126  0.00  0.00    -0.240 OA
ATOM     11  HN  UNL d   1      -2.578   0.708  -0.292  1.00  0.00     0.195 HD
ATOM     12  C   UNL d   1      -0.180  -0.992   1.034  0.00  0.00     0.101 A 
ATOM     13  C   UNL d   1       0.443  -1.359   2.320  0.00  0.00     0.081 C 
BRANCH   8  14
ATOM     14  C   UNL d   1      -1.729  -0.963  -2.271  0.00  0.00     0.038 A 
ATOM     15  C   UNL d   1      -2.302  -2.183  -2.676  0.00  0.00     0.048 A 
ATOM     16 CL   UNL d   1      -2.404  -3.560  -1.629  0.00  0.00    -0.083 Cl
ATOM     17  C   UNL d   1      -2.838  -2.334  -3.961  0.00  0.00     0.025 A 
ATOM     18  C   UNL d   1      -2.821  -1.273  -4.859  0.00  0.00     0.003 A 
ATOM     19  C   UNL d   1      -2.257  -0.059  -4.479  0.00  0.00     0.025 A 
ATOM     20  C   UNL d   1      -1.707   0.097  -3.198  0.00  0.00     0.048 A 
ATOM     21 CL   UNL d   1      -0.982   1.632  -2.849  0.00  0.00    -0.083 Cl
ENDBRANCH   8  14
ENDBRANCH   1   7
BRANCH   3  22
ATOM     22  N   UNL d   1       4.073  -1.970   0.425  0.00  0.00    -0.307 N 
ATOM     23  C   UNL d   1       4.619  -3.122   0.660  0.00  0.00     0.122 C 
ATOM     24  HN  UNL d   1       4.642  -1.127   0.349  1.00  0.00     0.186 HD
BRANCH  23  25
ATOM     25  C   UNL d   1       6.094  -3.319   0.746  0.00  0.00     0.024 A 
ATOM     26  C   UNL d   1       7.013  -2.257   0.856  0.00  0.00     0.047 A 
ATOM     27 CL   UNL d   1       6.579  -0.584   0.962  0.00  0.00    -0.083 Cl
ATOM     28  C   UNL d   1       8.393  -2.513   0.921  0.00  0.00     0.025 A 
ATOM     29  C   UNL d   1       8.880  -3.814   0.880  0.00  0.00     0.003 A 
ATOM     30  C   UNL d   1       7.986  -4.872   0.775  0.00  0.00     0.025 A 
ATOM     31  C   UNL d   1       6.605  -4.633   0.707  0.00  0.00     0.047 A 
ATOM     32 CL   UNL d   1       5.607  -6.042   0.557  0.00  0.00    -0.083 Cl
ENDBRANCH  23  25
ENDBRANCH   3  22
TORSDOF 4
