REMARK  6 active torsions:
REMARK  status: ('A' for Active; 'I' for Inactive)
REMARK    1  A    between atoms: C_11  and  C_1 
REMARK    2  A    between atoms: N_7  and  C_2 
REMARK    3  A    between atoms: C_13  and  C_3 
REMARK       I    between atoms: C_10  and  N_7 
REMARK    4  A    between atoms: C_8  and  C_10 
REMARK    5  A    between atoms: C_12  and  CA_9 
REMARK    6  A    between atoms: OXT_25  and  C_12 
ROOT
ATOM      1  C   UNL d   1       1.607   0.768   0.043  0.00  0.00     0.147 A 
ATOM      2  C   UNL d   1       0.189  -0.957   0.058  0.00  0.00     0.138 A 
ATOM      3  C   UNL d   1       1.544  -0.662  -0.029  0.00  0.00     0.053 A 
ATOM      4  N   UNL d   1       0.380   1.294   0.230  0.00  0.00    -0.292 N 
ATOM      5  HN  UNL d   1       0.137   2.280   0.325  1.00  0.00     0.187 HD
ATOM      6  N   UNL d   1      -0.455   0.239   0.264  0.00  0.00    -0.280 N 
ATOM      7  C   UNL d   1      -1.875   0.505   0.241  0.00  0.00     0.179 C 
ENDROOT
BRANCH   2   8
ATOM      8  N   UNL d   1      -0.350  -2.216  -0.169  0.00  0.00    -0.306 N 
ATOM      9  C   UNL d   1      -1.311  -2.859   0.663  0.00  0.00     0.276 C 
ATOM     10  O   UNL d   1      -1.761  -2.231   1.611  0.00  0.00    -0.266 OA
ATOM     11  H   UNL d   1       0.009  -2.681  -0.998  0.00  0.00     0.170 HD
BRANCH   9  12
ATOM     12  C   UNL d   1      -1.667  -4.310   0.440  0.00  0.00     0.134 A 
ATOM     13  CA  UNL d   1      -1.449  -5.090  -0.687  0.00  0.00     0.139 A 
ATOM     14  N   UNL d   1      -1.756  -6.436  -0.745  0.00  0.00    -0.357 N 
ATOM     15  C   UNL d   1      -2.296  -6.974   0.370  0.00  0.00     0.105 A 
ATOM     16  HN  UNL d   1      -1.584  -6.991  -1.583  1.00  0.00     0.165 HD
ATOM     17  C   UNL d   1      -2.536  -6.215   1.496  0.00  0.00     0.105 A 
ATOM     18  N   UNL d   1      -2.231  -4.894   1.552  0.00  0.00    -0.358 N 
ATOM     19  HN  UNL d   1      -2.415  -4.349   2.394  1.00  0.00     0.165 HD
BRANCH  13  20
ATOM     20  C   UNL d   1      -0.871  -4.609  -1.968  0.00  0.00     0.196 C 
ATOM     21  O   UNL d   1      -0.524  -3.466  -2.186  0.00  0.00    -0.645 OA
BRANCH  20  22
ATOM     22  OXT UNL d   1      -0.713  -5.613  -2.857  0.00  0.00    -0.772 OA
ATOM     23  HXT UNL d   1      -1.050  -6.466  -2.486  0.00  0.00     0.167 HD
ENDBRANCH  20  22
ENDBRANCH  13  20
ENDBRANCH   9  12
ENDBRANCH   2   8
BRANCH   3  24
ATOM     24  C   UNL d   1       2.619  -1.654  -0.040  0.00  0.00    -0.020 A 
ATOM     25  C   UNL d   1       2.625  -2.747  -0.920  0.00  0.00     0.015 A 
ATOM     26  C   UNL d   1       3.608  -3.737  -0.826  0.00  0.00     0.043 A 
ATOM     27  C   UNL d   1       4.629  -3.607   0.106  0.00  0.00     0.116 A 
ATOM     28  C   UNL d   1       4.680  -2.507   0.950  0.00  0.00     0.043 A 
ATOM     29  F   UNL d   1       5.575  -4.550   0.185  0.00  0.00    -0.206 F 
ATOM     30  C   UNL d   1       3.669  -1.543   0.890  0.00  0.00     0.015 A 
ENDBRANCH   3  24
BRANCH   1  31
ATOM     31  C   UNL d   1       2.822   1.657  -0.083  0.00  0.00     0.434 C 
ATOM     32  F   UNL d   1       3.920   0.985  -0.521  0.00  0.00    -0.165 F 
ATOM     33  F   UNL d   1       2.627   2.671  -0.967  0.00  0.00    -0.165 F 
ATOM     34  F   UNL d   1       3.165   2.220   1.105  0.00  0.00    -0.165 F 
ENDBRANCH   1  31
TORSDOF 6
