REMARK  4 active torsions:
REMARK  status: ('A' for Active; 'I' for Inactive)
REMARK    1  A    between atoms: N_8  and  C_1 
REMARK    2  A    between atoms: O_14  and  C_4 
REMARK    3  A    between atoms: C_13  and  C_6 
REMARK    4  A    between atoms: C_15  and  N_10 
ROOT
ATOM      1  C   UNL d   1      -0.850   1.246  -0.008  0.00  0.00     0.153 A 
ATOM      2  N   UNL d   1       0.620  -1.185  -0.015  0.00  0.00    -0.292 N 
ATOM      3  HN  UNL d   1       1.139  -2.062  -0.006  1.00  0.00     0.187 HD
ATOM      4  C   UNL d   1      -1.498   0.067  -0.005  0.00  0.00     0.128 A 
ATOM      5  C   UNL d   1       0.646   1.255  -0.042  0.00  0.00     0.292 A 
ATOM      6  C   UNL d   1      -0.679  -1.182  -0.028  0.00  0.00     0.094 A 
ATOM      7  N   UNL d   1       1.274   0.017  -0.012  0.00  0.00    -0.260 N 
ATOM      8  O   UNL d   1       1.265   2.320  -0.080  0.00  0.00    -0.264 OA
ATOM      9  C   UNL d   1       2.723  -0.034  -0.005  0.00  0.00     0.181 C 
ENDROOT
BRANCH   1  10
ATOM     10  N   UNL d   1      -1.474   2.481  -0.017  0.00  0.00    -0.293 N 
ATOM     11  N   UNL d   1      -2.529   2.573   0.644  0.00  0.00    -0.300 N 
ATOM     12  HN  UNL d   1      -2.911   1.800   1.190  1.00  0.00     0.187 HD
ATOM     13  HN  UNL d   1      -1.093   3.273  -0.535  1.00  0.00     0.187 HD
BRANCH  11  14
ATOM     14  C   UNL d   1      -3.147   3.839   0.572  0.00  0.00     0.048 A 
ATOM     15  C   UNL d   1      -2.915   4.782  -0.440  0.00  0.00     0.031 A 
ATOM     16  C   UNL d   1      -3.599   6.002  -0.449  0.00  0.00     0.002 A 
ATOM     17  C   UNL d   1      -4.529   6.289   0.548  0.00  0.00     0.000 A 
ATOM     18  C   UNL d   1      -4.780   5.358   1.551  0.00  0.00     0.002 A 
ATOM     19  C   UNL d   1      -4.095   4.141   1.558  0.00  0.00     0.031 A 
ENDBRANCH  11  14
ENDBRANCH   1  10
BRANCH   4  20
ATOM     20  O   UNL d   1      -2.883  -0.011   0.052  0.00  0.00    -0.356 OA
ATOM     21  H   UNL d   1      -3.211   0.911   0.116  0.00  0.00     0.218 HD
ENDBRANCH   4  20
BRANCH   6  22
ATOM     22  C   UNL d   1      -1.385  -2.505  -0.032  0.00  0.00    -0.005 A 
ATOM     23  C   UNL d   1      -2.604  -2.714  -0.692  0.00  0.00     0.014 A 
ATOM     24  C   UNL d   1      -3.248  -3.952  -0.627  0.00  0.00     0.001 A 
ATOM     25  C   UNL d   1      -2.658  -5.009   0.061  0.00  0.00     0.000 A 
ATOM     26  C   UNL d   1      -1.421  -4.832   0.677  0.00  0.00     0.001 A 
ATOM     27  C   UNL d   1      -0.786  -3.587   0.631  0.00  0.00     0.014 A 
ENDBRANCH   6  22
TORSDOF 4
