REMARK  12 active torsions:
REMARK  status: ('A' for Active; 'I' for Inactive)
REMARK    1  A    between atoms: N_4  and  C_1 
REMARK    2  A    between atoms: C_7  and  C_2 
REMARK    3  A    between atoms: O_16  and  C_3 
REMARK    4  A    between atoms: O_18  and  C_5 
REMARK       I    between atoms: N_10  and  C_7 
REMARK    5  A    between atoms: O_19  and  C_8 
REMARK    6  A    between atoms: C_9  and  N_11 
REMARK    7  A    between atoms: N_17  and  C_9 
REMARK    8  A    between atoms: N_11  and  N_10 
REMARK    9  A    between atoms: C_22  and  N_17 
REMARK   10  A    between atoms: C_20  and  C_22 
REMARK   11  A    between atoms: C_23  and  C_20 
REMARK   12  A    between atoms: O_21  and  C_23 
ROOT
ATOM      1  C   UNL d   1       1.389  -0.329   0.108  0.00  0.00     0.154 A 
ATOM      2  C   UNL d   1       0.482  -1.396   0.031  0.00  0.00     0.072 A 
ATOM      3  C   UNL d   1       0.946   1.002   0.143  0.00  0.00     0.138 A 
ATOM      4  C   UNL d   1      -0.452   1.248   0.106  0.00  0.00     0.137 A 
ATOM      5  C   UNL d   1      -0.893  -1.137   0.006  0.00  0.00     0.059 A 
ATOM      6  C   UNL d   1      -1.371   0.180   0.027  0.00  0.00     0.105 A 
ENDROOT
BRANCH   2   7
ATOM      7  C   UNL d   1       0.952  -2.800  -0.084  0.00  0.00     0.272 C 
ATOM      8  N   UNL d   1       0.229  -3.749   0.595  0.00  0.00    -0.264 N 
ATOM      9  H   UNL d   1      -0.517  -3.557   1.254  0.00  0.00     0.190 HD
ATOM     10  O   UNL d   1       1.930  -3.068  -0.771  0.00  0.00    -0.266 OA
BRANCH   8  11
ATOM     11  N   UNL d   1       0.711  -5.068   0.582  0.00  0.00    -0.274 N 
ATOM     12  H   UNL d   1       1.575  -5.199   0.060  0.00  0.00     0.189 HD
BRANCH  11  13
ATOM     13  C   UNL d   1      -0.121  -6.140   0.857  0.00  0.00     0.186 C 
ATOM     14  S   UNL d   1      -1.742  -5.986   1.254  0.00  0.00    -0.040 SA
BRANCH  13  15
ATOM     15  N   UNL d   1       0.578  -7.327   0.802  0.00  0.00    -0.366 N 
ATOM     16  H   UNL d   1       1.570  -7.269   0.616  0.00  0.00     0.161 HD
BRANCH  15  17
ATOM     17  C   UNL d   1       0.052  -8.683   0.912  0.00  0.00     0.124 C 
BRANCH  17  18
ATOM     18  C   UNL d   1      -0.542  -9.185  -0.402  0.00  0.00     0.046 C 
BRANCH  18  19
ATOM     19  C   UNL d   1       0.445  -9.113  -1.563  0.00  0.00     0.168 C 
BRANCH  19  20
ATOM     20  O   UNL d   1       1.589  -9.910  -1.263  0.00  0.00    -0.396 OA
ATOM     21  C   UNL d   1       2.565  -9.831  -2.294  0.00  0.00     0.201 C 
ENDBRANCH  19  20
ENDBRANCH  18  19
ENDBRANCH  17  18
ENDBRANCH  15  17
ENDBRANCH  13  15
ENDBRANCH  11  13
ENDBRANCH   8  11
ENDBRANCH   2   7
BRANCH   1  22
ATOM     22  N   UNL d   1       2.771  -0.650   0.374  0.00  0.00    -0.112 N 
ATOM     23  O   UNL d   1       3.042  -0.991   1.534  0.00  0.00    -0.532 OA
ATOM     24  O   UNL d   1       3.571  -0.561  -0.564  0.00  0.00    -0.532 OA
ENDBRANCH   1  22
BRANCH   3  25
ATOM     25  O   UNL d   1       1.718   2.115   0.367  0.00  0.00    -0.351 OA
ATOM     26  C   UNL d   1       2.926   2.270  -0.369  0.00  0.00     0.210 C 
ENDBRANCH   3  25
BRANCH   6  27
ATOM     27  O   UNL d   1      -2.708   0.468  -0.002  0.00  0.00    -0.353 OA
ATOM     28  C   UNL d   1      -3.575  -0.495  -0.594  0.00  0.00     0.210 C 
ENDBRANCH   6  27
BRANCH   4  29
ATOM     29  O   UNL d   1      -0.793   2.583   0.068  0.00  0.00    -0.351 OA
ATOM     30  C   UNL d   1      -2.004   2.976   0.702  0.00  0.00     0.210 C 
ENDBRANCH   4  29
TORSDOF 12
