REMARK  4 active torsions:
REMARK  status: ('A' for Active; 'I' for Inactive)
REMARK    1  A    between atoms: N_7  and  C_4 
REMARK    2  A    between atoms: C_11  and  N_7 
REMARK    3  A    between atoms: C_14  and  N_8 
REMARK    4  A    between atoms: C_19  and  C_14 
ROOT
ATOM      1  N   UNL d   1      -4.283   0.623   0.148  0.00  0.00     0.092 N 
ATOM      2  C   UNL d   1      -2.718   3.178   0.384  0.00  0.00     0.086 C 
ATOM      3  C   UNL d   1      -3.450   2.545   1.560  0.00  0.00     0.055 C 
ATOM      4  C   UNL d   1      -3.466   2.826  -0.908  0.00  0.00     0.055 C 
ATOM      5  C   UNL d   1      -3.673   1.046   1.403  0.00  0.00     0.275 C 
ATOM      6  C   UNL d   1      -3.923   1.368  -1.055  0.00  0.00     0.275 C 
ENDROOT
BRANCH   2   7
ATOM      7  N   UNL d   1      -1.291   2.841   0.303  0.00  0.00    -0.371 N 
ATOM      8  H   UNL d   1      -1.030   2.186  -0.430  0.00  0.00     0.161 HD
BRANCH   7   9
ATOM      9  C   UNL d   1      -0.198   3.423   0.942  0.00  0.00     0.112 C 
ATOM     10  N   UNL d   1       1.063   3.339   0.364  0.00  0.00    -0.290 N 
ATOM     11  C   UNL d   1       2.256   3.551   1.055  0.00  0.00     0.332 C 
ATOM     12  C   UNL d   1       1.184   3.515  -1.075  0.00  0.00     0.163 C 
ATOM     13  N   UNL d   1       2.147   4.324   2.196  0.00  0.00    -0.271 N 
ATOM     14  O   UNL d   1       3.336   3.166   0.621  0.00  0.00    -0.246 OA
ATOM     15  C   UNL d   1       0.922   4.677   2.729  0.00  0.00     0.254 C 
ATOM     16  C   UNL d   1       3.350   4.941   2.712  0.00  0.00     0.164 C 
ATOM     17  C   UNL d   1      -0.271   4.058   2.124  0.00  0.00     0.123 C 
ATOM     18  O   UNL d   1       0.783   5.471   3.662  0.00  0.00    -0.268 OA
ENDBRANCH   7   9
ENDBRANCH   2   7
BRANCH   1  19
ATOM     19  C   UNL d   1      -4.234  -0.853  -0.041  0.00  0.00     0.311 C 
BRANCH  19  20
ATOM     20  C   UNL d   1      -2.865  -1.431  -0.384  0.00  0.00    -0.030 A 
ATOM     21  C   UNL d   1      -1.917  -1.696   0.616  0.00  0.00     0.009 A 
ATOM     22  C   UNL d   1      -0.611  -2.062   0.286  0.00  0.00     0.001 A 
ATOM     23  C   UNL d   1      -0.243  -2.209  -1.048  0.00  0.00     0.000 A 
ATOM     24  C   UNL d   1      -1.191  -2.024  -2.052  0.00  0.00     0.001 A 
ATOM     25  C   UNL d   1      -2.495  -1.647  -1.722  0.00  0.00     0.009 A 
ENDBRANCH  19  20
ENDBRANCH   1  19
TORSDOF 4
