REMARK  2 active torsions:
REMARK  status: ('A' for Active; 'I' for Inactive)
REMARK    1  A    between atoms: C_2  and  C_1 
REMARK       I    between atoms: N_3  and  C_1 
REMARK    2  A    between atoms: C_9  and  N_3 
ROOT
ATOM      1  C   UNL d   1       0.920  -0.111  -0.160  0.00  0.00     0.274 C 
ATOM      2  N   UNL d   1       0.177  -0.712   0.840  0.00  0.00    -0.322 N 
ATOM      3  O   UNL d   1       0.491   0.434  -1.172  0.00  0.00    -0.266 OA
ATOM      4  H   UNL d   1       0.714  -1.016   1.647  0.00  0.00     0.169 HD
ENDROOT
BRANCH   1   5
ATOM      5  C   UNL d   1       2.391  -0.152   0.072  0.00  0.00     0.116 A 
ATOM      6  N   UNL d   1       2.837  -0.850   1.158  0.00  0.00    -0.359 N 
ATOM      7  C   UNL d   1       4.187  -0.906   1.275  0.00  0.00     0.105 A 
ATOM      8  HN  UNL d   1       2.207  -1.293   1.827  1.00  0.00     0.165 HD
ATOM      9  C   UNL d   1       5.046  -0.291   0.374  0.00  0.00     0.104 A 
ATOM     10  N   UNL d   1       4.599   0.414  -0.689  0.00  0.00    -0.372 N 
ATOM     11  C   UNL d   1       3.249   0.468  -0.825  0.00  0.00     0.122 A 
ATOM     12  HN  UNL d   1       5.232   0.875  -1.344  1.00  0.00     0.164 HD
ENDBRANCH   1   5
BRANCH   2  13
ATOM     13  C   UNL d   1      -1.212  -0.944   0.846  0.00  0.00     0.035 A 
ATOM     14  C   UNL d   1      -2.026  -0.761  -0.275  0.00  0.00     0.031 A 
ATOM     15  C   UNL d   1      -3.394  -1.047  -0.218  0.00  0.00     0.020 A 
ATOM     16  C   UNL d   1      -3.957  -1.509   0.968  0.00  0.00     0.006 A 
ATOM     17  C   UNL d   1      -3.160  -1.691   2.096  0.00  0.00     0.020 A 
ATOM     18  I   UNL d   1      -5.989  -1.936   1.049  0.00  0.00    -0.045 I 
ATOM     19  C   UNL d   1      -1.789  -1.417   2.031  0.00  0.00     0.031 A 
ENDBRANCH   2  13
TORSDOF 2
