REMARK  7 active torsions:
REMARK  status: ('A' for Active; 'I' for Inactive)
REMARK    1  A    between atoms: C_5  and  C_1 
REMARK    2  A    between atoms: C_9  and  C_2 
REMARK    3  A    between atoms: C_6  and  C_12 
REMARK    4  A    between atoms: C_7  and  C_11 
REMARK    5  A    between atoms: O_19  and  C_9 
REMARK    6  A    between atoms: C_13  and  C_14 
REMARK       I    between atoms: C_14  and  N_18 
REMARK    7  A    between atoms: N_18  and  O_19 
ROOT
ATOM      1  C   UNL d   1      -0.776  -5.968   0.111  0.00  0.00     0.275 C 
ATOM      2  N   UNL d   1       0.138  -4.941   0.146  0.00  0.00    -0.221 N 
ATOM      3  O   UNL d   1      -1.983  -5.794   0.267  0.00  0.00    -0.265 OA
ATOM      4  H   UNL d   1       1.124  -4.976  -0.084  0.00  0.00     0.198 HD
ENDROOT
BRANCH   2   5
ATOM      5  O   UNL d   1      -0.454  -3.646   0.171  0.00  0.00    -0.192 OA
BRANCH   5   6
ATOM      6  C   UNL d   1       0.438  -2.638  -0.097  0.00  0.00     0.320 C 
ATOM      7  O   UNL d   1       1.629  -2.832  -0.338  0.00  0.00    -0.257 OA
BRANCH   6   8
ATOM      8  C   UNL d   1      -0.173  -1.330  -0.001  0.00  0.00     0.102 A 
ATOM      9  C   UNL d   1       0.276  -0.132   0.658  0.00  0.00     0.087 A 
ATOM     10  N   UNL d   1      -0.678   0.810   0.547  0.00  0.00    -0.259 N 
ATOM     11  O   UNL d   1      -1.663   0.303  -0.259  0.00  0.00    -0.241 OA
ATOM     12  HN  UNL d   1      -0.669   1.732   0.982  1.00  0.00     0.195 HD
ATOM     13  C   UNL d   1      -1.368  -0.974  -0.589  0.00  0.00     0.091 A 
ATOM     14  C   UNL d   1      -2.336  -1.630  -1.493  0.00  0.00     0.080 C 
BRANCH   9  15
ATOM     15  C   UNL d   1       1.516   0.179   1.402  0.00  0.00     0.037 A 
ATOM     16  C   UNL d   1       2.175   1.425   1.237  0.00  0.00     0.048 A 
ATOM     17 CL   UNL d   1       1.635   2.679   0.161  0.00  0.00    -0.083 Cl
ATOM     18  C   UNL d   1       3.351   1.734   1.943  0.00  0.00     0.025 A 
ATOM     19  C   UNL d   1       3.929   0.802   2.793  0.00  0.00     0.003 A 
ATOM     20  C   UNL d   1       3.299  -0.421   2.982  0.00  0.00     0.025 A 
ATOM     21  C   UNL d   1       2.087  -0.715   2.331  0.00  0.00     0.048 A 
ATOM     22 CL   UNL d   1       1.322  -2.181   2.852  0.00  0.00    -0.083 Cl
ENDBRANCH   9  15
ENDBRANCH   6   8
ENDBRANCH   5   6
ENDBRANCH   2   5
BRANCH   1  23
ATOM     23  C   UNL d   1      -0.279  -7.348  -0.206  0.00  0.00     0.035 A 
ATOM     24  C   UNL d   1       1.073  -7.681  -0.368  0.00  0.00     0.033 A 
ATOM     25  C   UNL d   1       1.448  -8.970  -0.807  0.00  0.00     0.049 A 
ATOM     26  C   UNL d   1       0.452  -9.929  -1.061  0.00  0.00     0.032 A 
ATOM     27  C   UNL d   1      -0.904  -9.622  -0.886  0.00  0.00     0.049 A 
ATOM     28  C   UNL d   1      -1.251  -8.339  -0.434  0.00  0.00     0.033 A 
BRANCH  25  29
ATOM     29  C   UNL d   1       2.907  -9.296  -1.050  0.00  0.00     0.417 C 
ATOM     30  F   UNL d   1       3.106 -10.525  -1.599  0.00  0.00    -0.166 F 
ATOM     31  F   UNL d   1       3.491  -8.406  -1.899  0.00  0.00    -0.166 F 
ATOM     32  F   UNL d   1       3.643  -9.267   0.093  0.00  0.00    -0.166 F 
ENDBRANCH  25  29
BRANCH  27  33
ATOM     33  C   UNL d   1      -1.991 -10.619  -1.225  0.00  0.00     0.417 C 
ATOM     34  F   UNL d   1      -1.519 -11.742  -1.833  0.00  0.00    -0.166 F 
ATOM     35  F   UNL d   1      -2.677 -11.041  -0.131  0.00  0.00    -0.166 F 
ATOM     36  F   UNL d   1      -2.915 -10.097  -2.078  0.00  0.00    -0.166 F 
ENDBRANCH  27  33
ENDBRANCH   1  23
TORSDOF 7
