REMARK  6 active torsions:
REMARK  status: ('A' for Active; 'I' for Inactive)
REMARK    1  A    between atoms: C_7  and  C_1 
REMARK    2  A    between atoms: O_11  and  C_3 
REMARK    3  A    between atoms: C_21  and  N_8 
REMARK    4  A    between atoms: C_12  and  S_15 
REMARK    5  A    between atoms: S_15  and  C_22 
REMARK    6  A    between atoms: C_22  and  C_21 
ROOT
ATOM      1  C   UNL d   1      -0.187   3.497   0.007  0.00  0.00     0.097 C 
ATOM      2  N   UNL d   1       0.842   4.279   0.007  0.00  0.00    -0.397 N 
ATOM      3  HN  UNL d   1       1.802   3.935   0.003  1.00  0.00     0.158 HD
ENDROOT
BRANCH   2   4
ATOM      4  C   UNL d   1       0.503   5.711   0.013  0.00  0.00     0.129 C 
BRANCH   4   5
ATOM      5  C   UNL d   1       1.811   6.509   0.051  0.00  0.00     0.099 C 
BRANCH   5   6
ATOM      6  S   UNL d   1       1.460   8.302   0.088  0.00  0.00    -0.128 SA
BRANCH   6   7
ATOM      7  C   UNL d   1       3.094   9.027   0.025  0.00  0.00     0.000 A 
ATOM      8  C   UNL d   1       3.220  10.280  -0.592  0.00  0.00     0.020 A 
ATOM      9  C   UNL d   1       4.452  10.940  -0.635  0.00  0.00     0.025 A 
ATOM     10  C   UNL d   1       5.570  10.350  -0.053  0.00  0.00     0.034 A 
ATOM     11  C   UNL d   1       5.463   9.108   0.568  0.00  0.00     0.025 A 
ATOM     12 CL   UNL d   1       7.085  11.164  -0.088  0.00  0.00    -0.084 Cl
ATOM     13  C   UNL d   1       4.227   8.451   0.610  0.00  0.00     0.020 A 
ENDBRANCH   6   7
ENDBRANCH   5   6
ENDBRANCH   4   5
ENDBRANCH   2   4
BRANCH   1  14
ATOM     14  C   UNL d   1      -0.022   2.027   0.007  0.00  0.00     0.015 A 
ATOM     15  C   UNL d   1      -1.134   1.180   0.003  0.00  0.00     0.099 A 
ATOM     16  C   UNL d   1      -0.946  -0.208   0.004  0.00  0.00     0.069 A 
ATOM     17 CL   UNL d   1      -2.306  -1.271  -0.001  0.00  0.00    -0.081 Cl
ATOM     18  C   UNL d   1       0.337  -0.753   0.011  0.00  0.00     0.050 A 
ATOM     19  C   UNL d   1       1.439   0.099   0.015  0.00  0.00     0.036 A 
ATOM     20  C   UNL d   1       1.269   1.482   0.014  0.00  0.00     0.039 A 
ATOM     21 CL   UNL d   1       3.027  -0.563   0.025  0.00  0.00    -0.084 Cl
BRANCH  15  22
ATOM     22  O   UNL d   1      -2.397   1.713  -0.003  0.00  0.00    -0.358 OA
ATOM     23  H   UNL d   1      -3.034   0.971  -0.007  0.00  0.00     0.217 HD
ENDBRANCH  15  22
ENDBRANCH   1  14
TORSDOF 6
