REMARK  2 active torsions:
REMARK  status: ('A' for Active; 'I' for Inactive)
REMARK    1  A    between atoms: C_2  and  C_1 
REMARK       I    between atoms: N_3  and  C_1 
REMARK    2  A    between atoms: C_9  and  N_3 
ROOT
ATOM      1  N   UNL d   1      -4.798  -2.289  -0.425  0.00  0.00    -0.191 NA
ATOM      2  C   UNL d   1      -4.141  -1.438   0.011  0.00  0.00     0.099 C 
ATOM      3  C   UNL d   1      -1.148   0.594   0.964  0.00  0.00     0.036 A 
ATOM      4  C   UNL d   1      -3.341  -0.379   0.556  0.00  0.00     0.046 A 
ATOM      5  C   UNL d   1      -1.946  -0.440   0.463  0.00  0.00     0.052 A 
ATOM      6  C   UNL d   1      -3.161   1.735   1.708  0.00  0.00     0.004 A 
ATOM      7  C   UNL d   1      -1.767   1.667   1.615  0.00  0.00     0.029 A 
ATOM      8  C   UNL d   1      -3.949   0.718   1.170  0.00  0.00     0.023 A 
ENDROOT
BRANCH   3   9
ATOM      9  N   UNL d   1       0.261   0.619   0.838  0.00  0.00    -0.323 N 
ATOM     10  C   UNL d   1       1.014  -0.173  -0.020  0.00  0.00     0.262 C 
ATOM     11  O   UNL d   1       0.533  -0.986  -0.803  0.00  0.00    -0.267 OA
ATOM     12  H   UNL d   1       0.744   1.347   1.354  0.00  0.00     0.169 HD
BRANCH  10  13
ATOM     13  C   UNL d   1       2.491   0.010  -0.008  0.00  0.00     0.109 A 
ATOM     14  C   UNL d   1       3.148   0.826   0.916  0.00  0.00     0.135 A 
ATOM     15  F   UNL d   1       2.459   1.517   1.838  0.00  0.00    -0.205 F 
ATOM     16  C   UNL d   1       4.539   0.960   0.911  0.00  0.00     0.043 A 
ATOM     17  C   UNL d   1       5.303   0.275  -0.031  0.00  0.00     0.006 A 
ATOM     18  C   UNL d   1       4.669  -0.539  -0.962  0.00  0.00     0.043 A 
ATOM     19  C   UNL d   1       3.279  -0.668  -0.949  0.00  0.00     0.135 A 
ATOM     20  F   UNL d   1       2.735  -1.464  -1.879  0.00  0.00    -0.205 F 
ENDBRANCH  10  13
ENDBRANCH   3   9
TORSDOF 2
