REMARK  4 active torsions:
REMARK  status: ('A' for Active; 'I' for Inactive)
REMARK    1  A    between atoms: S_12  and  C_6 
REMARK    2  A    between atoms: C_11  and  C_19 
REMARK       I    between atoms: N_14  and  C_11 
REMARK    3  A    between atoms: C_19  and  S_12 
REMARK    4  A    between atoms: N_16  and  N_14 
REMARK       I    between atoms: C_15  and  N_16 
ROOT
ATOM      1  C   UNL d   1       1.127   0.666  -0.126  0.00  0.00     0.089 A 
ATOM      2  C   UNL d   1       0.567  -0.608  -0.071  0.00  0.00     0.039 A 
ATOM      3  S   UNL d   1      -0.023   1.919  -0.080  0.00  0.00    -0.075 SA
ATOM      4  C   UNL d   1      -0.883  -0.509  -0.009  0.00  0.00    -0.029 A 
ATOM      5  C   UNL d   1      -1.305   0.812   0.004  0.00  0.00    -0.008 A 
ATOM      6  C   UNL d   1       1.518  -1.643  -0.073  0.00  0.00     0.084 A 
ATOM      7  N   UNL d   1       2.431   0.979  -0.194  0.00  0.00    -0.346 N 
ATOM      8  HN  UNL d   1       2.780   1.937  -0.223  1.00  0.00     0.167 HD
ATOM      9  N   UNL d   1       2.836  -1.373  -0.168  0.00  0.00    -0.346 N 
ATOM     10  HN  UNL d   1       3.523  -2.126  -0.199  1.00  0.00     0.167 HD
ATOM     11  C   UNL d   1       3.220  -0.092  -0.221  0.00  0.00     0.182 A 
ATOM     12  C   UNL d   1      -1.885  -1.630   0.056  0.00  0.00     0.040 C 
ATOM     13  C   UNL d   1      -2.727   1.284   0.047  0.00  0.00     0.047 C 
ATOM     14  C   UNL d   1      -3.319  -1.157  -0.243  0.00  0.00     0.005 C 
ATOM     15  C   UNL d   1      -3.656   0.147   0.487  0.00  0.00     0.005 C 
ENDROOT
BRANCH   6  16
ATOM     16  S   UNL d   1       1.150  -3.339   0.232  0.00  0.00    -0.102 SA
BRANCH  16  17
ATOM     17  C   UNL d   1       0.871  -3.984  -1.429  0.00  0.00     0.185 C 
BRANCH  17  18
ATOM     18  C   UNL d   1       1.972  -3.932  -2.468  0.00  0.00     0.245 C 
ATOM     19  N   UNL d   1       3.220  -3.454  -2.149  0.00  0.00    -0.267 N 
ATOM     20  H   UNL d   1       3.384  -2.820  -1.361  0.00  0.00     0.190 HD
ATOM     21  O   UNL d   1       1.750  -4.376  -3.604  0.00  0.00    -0.271 OA
BRANCH  19  22
ATOM     22  N   UNL d   1       4.162  -3.431  -3.204  0.00  0.00    -0.268 N 
ATOM     23  C   UNL d   1       5.024  -2.357  -3.314  0.00  0.00     0.232 C 
ATOM     24  O   UNL d   1       5.153  -1.487  -2.461  0.00  0.00    -0.272 OA
ATOM     25  C   UNL d   1       5.838  -2.367  -4.585  0.00  0.00     0.119 C 
ATOM     26  H   UNL d   1       3.870  -3.942  -4.035  0.00  0.00     0.190 HD
ENDBRANCH  19  22
ENDBRANCH  17  18
ENDBRANCH  16  17
ENDBRANCH   6  16
TORSDOF 4
