REMARK  5 active torsions:
REMARK  status: ('A' for Active; 'I' for Inactive)
REMARK    1  A    between atoms: C_3  and  C_1 
REMARK    2  A    between atoms: C_4  and  CA_2 
REMARK       I    between atoms: N_5  and  C_3 
REMARK    3  A    between atoms: OXT_19  and  C_4 
REMARK    4  A    between atoms: C_15  and  N_5 
REMARK    5  A    between atoms: C_6  and  C_11 
REMARK       I    between atoms: N_18  and  C_6 
ROOT
ATOM      1  C   UNL d   1      -1.444  -2.419   0.147  0.00  0.00     0.275 C 
ATOM      2  N   UNL d   1      -0.959  -3.712   0.198  0.00  0.00    -0.322 N 
ATOM      3  O   UNL d   1      -0.737  -1.423   0.296  0.00  0.00    -0.266 OA
ATOM      4  H   UNL d   1      -1.516  -4.461  -0.209  0.00  0.00     0.169 HD
ENDROOT
BRANCH   1   5
ATOM      5  C   UNL d   1      -2.923  -2.183  -0.053  0.00  0.00     0.134 A 
ATOM      6  CA  UNL d   1      -3.856  -2.964  -0.722  0.00  0.00     0.139 A 
ATOM      7  N   UNL d   1      -5.186  -2.591  -0.854  0.00  0.00    -0.357 N 
ATOM      8  C   UNL d   1      -5.535  -1.420  -0.274  0.00  0.00     0.105 A 
ATOM      9  HN  UNL d   1      -5.860  -3.166  -1.359  1.00  0.00     0.165 HD
ATOM     10  C   UNL d   1      -4.626  -0.643   0.405  0.00  0.00     0.105 A 
ATOM     11  N   UNL d   1      -3.329  -1.004   0.524  0.00  0.00    -0.358 N 
ATOM     12  HN  UNL d   1      -2.668  -0.415   1.030  1.00  0.00     0.165 HD
BRANCH   6  13
ATOM     13  C   UNL d   1      -3.591  -4.271  -1.383  0.00  0.00     0.196 C 
ATOM     14  O   UNL d   1      -2.569  -4.927  -1.306  0.00  0.00    -0.645 OA
BRANCH  13  15
ATOM     15  OXT UNL d   1      -4.686  -4.689  -2.070  0.00  0.00    -0.772 OA
ATOM     16  HXT UNL d   1      -5.418  -4.035  -1.952  0.00  0.00     0.167 HD
ENDBRANCH  13  15
ENDBRANCH   6  13
ENDBRANCH   1   5
BRANCH   2  17
ATOM     17  C   UNL d   1       0.277  -4.130   0.739  0.00  0.00     0.035 A 
ATOM     18  C   UNL d   1       1.130  -3.296   1.467  0.00  0.00     0.030 A 
ATOM     19  C   UNL d   1       2.262  -3.818   2.102  0.00  0.00     0.019 A 
ATOM     20  C   UNL d   1       2.546  -5.183   2.021  0.00  0.00     0.032 A 
ATOM     21  C   UNL d   1       1.738  -6.012   1.237  0.00  0.00     0.019 A 
ATOM     22  C   UNL d   1       0.608  -5.485   0.602  0.00  0.00     0.030 A 
BRANCH  20  23
ATOM     23  C   UNL d   1       3.681  -5.719   2.813  0.00  0.00     0.249 C 
ATOM     24  O   UNL d   1       4.659  -5.040   3.091  0.00  0.00    -0.268 OA
ATOM     25  N   UNL d   1       3.543  -6.994   3.291  0.00  0.00    -0.366 N 
ATOM     26  H   UNL d   1       2.646  -7.457   3.315  0.00  0.00     0.159 HD
ATOM     27  H   UNL d   1       4.239  -7.291   3.963  0.00  0.00     0.159 HD
ENDBRANCH  20  23
ENDBRANCH   2  17
TORSDOF 5
