REMARK  3 active torsions:
REMARK  status: ('A' for Active; 'I' for Inactive)
REMARK    1  A    between atoms: C_2  and  C_1 
REMARK    2  A    between atoms: N_7  and  C_2 
REMARK    3  A    between atoms: O_10  and  N_3 
ROOT
ATOM      1  C   UNL d   1      -1.204   2.917  -0.008  0.00  0.00     0.053 A 
ATOM      2  C   UNL d   1      -2.426   2.230   0.077  0.00  0.00     0.049 A 
ATOM      3  C   UNL d   1      -1.214   4.316  -0.124  0.00  0.00     0.049 A 
ATOM      4 CL   UNL d   1      -2.538   0.516   0.292  0.00  0.00    -0.083 Cl
ATOM      5 CL   UNL d   1       0.231   5.260  -0.247  0.00  0.00    -0.083 Cl
ATOM      6  C   UNL d   1      -3.637   4.325  -0.080  0.00  0.00     0.003 A 
ATOM      7  C   UNL d   1      -3.635   2.936   0.035  0.00  0.00     0.025 A 
ATOM      8  C   UNL d   1      -2.428   5.013  -0.154  0.00  0.00     0.025 A 
ENDROOT
BRANCH   1   9
ATOM      9  C   UNL d   1       0.092   2.160  -0.005  0.00  0.00     0.134 C 
ATOM     10  N   UNL d   1       0.217   1.323  -0.990  0.00  0.00    -0.252 N 
ATOM     11  HN  UNL d   1      -0.468   1.234  -1.740  1.00  0.00     0.196 HD
BRANCH  10  12
ATOM     12  O   UNL d   1       1.381   0.555  -0.922  0.00  0.00    -0.288 OA
ATOM     13  H   UNL d   1       1.198  -0.149  -1.568  0.00  0.00     0.244 HD
ENDBRANCH  10  12
BRANCH   9  14
ATOM     14  N   UNL d   1       0.964   2.439   1.042  0.00  0.00    -0.379 N 
ATOM     15  C   UNL d   1       2.405   2.345   0.926  0.00  0.00     0.147 C 
ATOM     16  H   UNL d   1       0.693   3.230   1.616  0.00  0.00     0.160 HD
ENDBRANCH   9  14
ENDBRANCH   1   9
TORSDOF 3
