REMARK  4 active torsions:
REMARK  status: ('A' for Active; 'I' for Inactive)
REMARK    1  A    between atoms: C_5  and  N_1 
REMARK    2  A    between atoms: C_3  and  C_4 
REMARK    3  A    between atoms: C_13  and  N_10 
REMARK    4  A    between atoms: C_16  and  C_13 
ROOT
ATOM      1  C   UNL d   1      -0.937   2.165   3.236  0.00  0.00     0.125 C 
ATOM      2  C   UNL d   1      -1.950   2.307   2.362  0.00  0.00     0.047 C 
ATOM      3  N   UNL d   1      -0.435  -0.042   4.484  0.00  0.00    -0.191 NA
ATOM      4  N   UNL d   1       0.534   4.233   3.724  0.00  0.00    -0.191 NA
ATOM      5  C   UNL d   1      -0.665   0.939   3.905  0.00  0.00     0.111 C 
ATOM      6  C   UNL d   1      -0.113   3.293   3.518  0.00  0.00     0.111 C 
ENDROOT
BRANCH   2   7
ATOM      7  C   UNL d   1      -2.882   1.245   1.949  0.00  0.00    -0.007 A 
ATOM      8  C   UNL d   1      -2.550   0.227   1.013  0.00  0.00     0.040 A 
ATOM      9  C   UNL d   1      -3.535  -0.748   0.770  0.00  0.00     0.030 A 
ATOM     10  C   UNL d   1      -4.774  -0.740   1.421  0.00  0.00     0.002 A 
ATOM     11  C   UNL d   1      -5.069   0.257   2.339  0.00  0.00     0.001 A 
ATOM     12  C   UNL d   1      -4.132   1.249   2.598  0.00  0.00     0.014 A 
BRANCH   8  13
ATOM     13  N   UNL d   1      -1.292   0.139   0.429  0.00  0.00    -0.377 N 
ATOM     14  C   UNL d   1      -0.766  -1.164  -0.029  0.00  0.00     0.153 C 
ATOM     15  C   UNL d   1       0.784  -1.159   0.059  0.00  0.00     0.292 C 
ATOM     16  N   UNL d   1       1.464  -0.015  -0.596  0.00  0.00     0.095 N 
ATOM     17  C   UNL d   1       0.812   1.245  -0.159  0.00  0.00     0.292 C 
ATOM     18  C   UNL d   1      -0.726   1.271  -0.324  0.00  0.00     0.153 C 
BRANCH  16  19
ATOM     19  C   UNL d   1       1.477  -0.172  -2.059  0.00  0.00     0.311 C 
BRANCH  19  20
ATOM     20  C   UNL d   1       2.238   0.934  -2.762  0.00  0.00    -0.030 A 
ATOM     21  C   UNL d   1       3.592   1.161  -2.470  0.00  0.00     0.009 A 
ATOM     22  C   UNL d   1       4.279   2.216  -3.071  0.00  0.00     0.001 A 
ATOM     23  C   UNL d   1       3.623   3.050  -3.974  0.00  0.00     0.000 A 
ATOM     24  C   UNL d   1       2.282   2.827  -4.282  0.00  0.00     0.001 A 
ATOM     25  C   UNL d   1       1.592   1.772  -3.682  0.00  0.00     0.009 A 
ENDBRANCH  19  20
ENDBRANCH  16  19
ENDBRANCH   8  13
ENDBRANCH   2   7
TORSDOF 4
