REMARK  4 active torsions:
REMARK  status: ('A' for Active; 'I' for Inactive)
REMARK    1  A    between atoms: C_3  and  C_1 
REMARK    2  A    between atoms: C_2  and  C_6 
REMARK    3  A    between atoms: C_6  and  S_9 
REMARK    4  A    between atoms: S_9  and  C_7 
ROOT
ATOM      1  C   UNL d   1       1.169  -1.793  -0.169  0.00  0.00     0.063 A 
ATOM      2  N   UNL d   1       1.043  -4.201   0.015  0.00  0.00    -0.360 N 
ATOM      3  HN  UNL d   1       1.497  -5.112  -0.055  1.00  0.00     0.166 HD
ATOM      4  C   UNL d   1      -0.257  -4.094   0.369  0.00  0.00     0.069 A 
ATOM      5  C   UNL d   1       1.724  -3.059  -0.242  0.00  0.00     0.105 A 
ATOM      6  C   UNL d   1      -0.181  -1.705   0.184  0.00  0.00     0.020 A 
ATOM      7  C   UNL d   1      -0.903  -2.868   0.457  0.00  0.00     0.038 A 
ENDROOT
BRANCH   4   8
ATOM      8  S   UNL d   1      -1.151  -5.590   0.756  0.00  0.00    -0.108 SA
BRANCH   8   9
ATOM      9  C   UNL d   1       0.149  -6.821   0.424  0.00  0.00     0.124 C 
BRANCH   9  10
ATOM     10  C   UNL d   1      -0.277  -8.222   0.775  0.00  0.00     0.012 A 
ATOM     11  C   UNL d   1      -0.101  -8.782   2.050  0.00  0.00     0.044 A 
ATOM     12 CL   UNL d   1       0.590  -7.886   3.357  0.00  0.00    -0.084 Cl
ATOM     13  C   UNL d   1      -0.472 -10.108   2.307  0.00  0.00     0.024 A 
ATOM     14  C   UNL d   1      -1.035 -10.892   1.300  0.00  0.00     0.005 A 
ATOM     15  C   UNL d   1      -1.236 -10.345   0.038  0.00  0.00     0.043 A 
ATOM     16  C   UNL d   1      -0.862  -9.026  -0.212  0.00  0.00     0.125 A 
ATOM     17  F   UNL d   1      -1.057  -8.533  -1.444  0.00  0.00    -0.205 F 
ENDBRANCH   9  10
ENDBRANCH   8   9
ENDBRANCH   4   8
BRANCH   1  18
ATOM     18  C   UNL d   1       1.996  -0.578  -0.453  0.00  0.00     0.418 C 
ATOM     19  F   UNL d   1       3.294  -0.860  -0.754  0.00  0.00    -0.166 F 
ATOM     20  F   UNL d   1       2.037   0.283   0.601  0.00  0.00    -0.166 F 
ATOM     21  F   UNL d   1       1.518   0.144  -1.505  0.00  0.00    -0.166 F 
ENDBRANCH   1  18
TORSDOF 4
