REMARK  1 active torsions:
REMARK  status: ('A' for Active; 'I' for Inactive)
REMARK    1  A    between atoms: N_7  and  C_1 
ROOT
ATOM      1  C   UNL d   1       1.294  -0.016   0.142  0.00  0.00     0.290 C 
ATOM      2  O   UNL d   1       0.094   0.671   0.557  0.00  0.00    -0.304 OA
ATOM      3  C   UNL d   1       1.165  -0.777  -1.180  0.00  0.00    -0.014 C 
ATOM      4  C   UNL d   1      -1.111   0.312   0.026  0.00  0.00     0.104 A 
ATOM      5  C   UNL d   1      -1.226  -0.569  -1.052  0.00  0.00     0.001 A 
ATOM      6  C   UNL d   1      -0.027  -1.044  -1.730  0.00  0.00     0.022 C 
ATOM      7  C   UNL d   1      -2.266   0.866   0.594  0.00  0.00     0.070 A 
ATOM      8  C   UNL d   1      -3.531   0.497   0.136  0.00  0.00     0.050 A 
ATOM      9  C   UNL d   1      -2.494  -0.956  -1.499  0.00  0.00     0.038 A 
ATOM     10  C   UNL d   1      -3.636  -0.433  -0.895  0.00  0.00     0.036 A 
ATOM     11 CL   UNL d   1      -2.169   2.028   1.870  0.00  0.00    -0.081 Cl
ATOM     12  C   UNL d   1       2.312   1.135  -0.105  0.00  0.00     0.077 C 
ATOM     13 CL   UNL d   1      -5.191  -0.929  -1.437  0.00  0.00    -0.084 Cl
ATOM     14  C   UNL d   1       2.456  -1.244  -1.812  0.00  0.00     0.039 C 
ATOM     15  C   UNL d   1       3.656   0.658  -0.659  0.00  0.00     0.005 C 
ATOM     16  C   UNL d   1       3.457  -0.102  -1.966  0.00  0.00     0.004 C 
ENDROOT
BRANCH   1  17
ATOM     17  N   UNL d   1       1.810  -0.914   1.198  0.00  0.00     0.128 N 
ATOM     18  C   UNL d   1       1.833  -0.335   2.544  0.00  0.00     0.277 C 
ATOM     19  C   UNL d   1       2.193  -1.532   3.412  0.00  0.00     0.032 C 
ATOM     20  C   UNL d   1       1.700  -2.745   2.634  0.00  0.00     0.032 C 
ATOM     21  C   UNL d   1       1.079  -2.171   1.367  0.00  0.00     0.277 C 
ENDBRANCH   1  17
TORSDOF 1
