REMARK  6 active torsions:
REMARK  status: ('A' for Active; 'I' for Inactive)
REMARK    1  A    between atoms: S_10  and  C_2 
REMARK    2  A    between atoms: C_15  and  C_3 
REMARK    3  A    between atoms: N_9  and  C_6 
REMARK    4  A    between atoms: C_12  and  S_10 
REMARK    5  A    between atoms: C_11  and  C_14 
REMARK    6  A    between atoms: C_18  and  C_19 
ROOT
ATOM      1  N   UNL d   1       0.811   0.047   0.080  0.00  0.00    -0.315 N 
ATOM      2  C   UNL d   1       0.003   1.144  -0.048  0.00  0.00     0.167 A 
ATOM      3  C   UNL d   1      -0.019  -1.055  -0.064  0.00  0.00     0.134 A 
ATOM      4  N   UNL d   1      -1.256  -0.611  -0.215  0.00  0.00    -0.283 N 
ATOM      5  HN  UNL d   1      -2.087  -1.194  -0.316  1.00  0.00     0.188 HD
ATOM      6  N   UNL d   1      -1.240   0.763  -0.214  0.00  0.00    -0.278 N 
ATOM      7  HN  UNL d   1      -2.049   1.375  -0.323  1.00  0.00     0.189 HD
ATOM      8  C   UNL d   1       2.223   0.033   0.368  0.00  0.00     0.160 C 
ENDROOT
BRANCH   2   9
ATOM      9  S   UNL d   1       0.531   2.781   0.128  0.00  0.00    -0.050 SA
BRANCH   9  10
ATOM     10  C   UNL d   1       0.652   3.288  -1.586  0.00  0.00     0.041 A 
ATOM     11  C   UNL d   1       1.786   3.921  -2.123  0.00  0.00     0.120 A 
ATOM     12  C   UNL d   1       1.802   4.473  -3.417  0.00  0.00     0.053 A 
ATOM     13  C   UNL d   1       0.657   4.398  -4.218  0.00  0.00     0.050 A 
ATOM     14  C   UNL d   1      -0.472   3.737  -3.711  0.00  0.00     0.017 A 
ATOM     15  C   UNL d   1      -0.475   3.198  -2.415  0.00  0.00     0.022 A 
BRANCH  11  16
ATOM     16  N   UNL d   1       3.010   4.035  -1.351  0.00  0.00    -0.114 N 
ATOM     17  O   UNL d   1       3.544   2.978  -0.981  0.00  0.00    -0.532 OA
ATOM     18  O   UNL d   1       3.458   5.172  -1.171  0.00  0.00    -0.532 OA
ENDBRANCH  11  16
BRANCH  13  19
ATOM     19  C   UNL d   1       0.612   5.041  -5.586  0.00  0.00     0.417 C 
ATOM     20  F   UNL d   1       1.772   5.670  -5.923  0.00  0.00    -0.166 F 
ATOM     21  F   UNL d   1       0.372   4.141  -6.577  0.00  0.00    -0.166 F 
ATOM     22  F   UNL d   1      -0.366   5.982  -5.682  0.00  0.00    -0.166 F 
ENDBRANCH  13  19
ENDBRANCH   9  10
ENDBRANCH   2   9
BRANCH   3  23
ATOM     23  C   UNL d   1       0.372  -2.470  -0.021  0.00  0.00     0.009 A 
ATOM     24  C   UNL d   1      -0.479  -3.425   0.550  0.00  0.00     0.016 A 
ATOM     25  C   UNL d   1      -0.101  -4.776   0.628  0.00  0.00     0.009 A 
ATOM     26  C   UNL d   1       1.142  -5.221   0.140  0.00  0.00    -0.051 A 
ATOM     27  C   UNL d   1       1.962  -4.262  -0.469  0.00  0.00     0.009 A 
ATOM     28  C   UNL d   1       1.576  -2.921  -0.564  0.00  0.00     0.016 A 
BRANCH  26  29
ATOM     29  C   UNL d   1       1.569  -6.694   0.269  0.00  0.00    -0.024 C 
ATOM     30  C   UNL d   1       2.987  -6.973  -0.285  0.00  0.00     0.019 C 
ATOM     31  C   UNL d   1       1.579  -7.110   1.756  0.00  0.00     0.019 C 
ATOM     32  C   UNL d   1       0.591  -7.599  -0.506  0.00  0.00     0.019 C 
ENDBRANCH  26  29
ENDBRANCH   3  23
TORSDOF 6
