REMARK  3 active torsions:
REMARK  status: ('A' for Active; 'I' for Inactive)
REMARK    1  A    between atoms: C_6  and  C_2 
REMARK    2  A    between atoms: N_4  and  C_6 
REMARK    3  A    between atoms: N_16  and  C_10 
ROOT
ATOM      1  S   UNL d   1      -1.024  -0.060  -0.071  0.00  0.00    -0.086 SA
ATOM      2  C   UNL d   1       0.116   1.226  -0.104  0.00  0.00     0.043 A 
ATOM      3  C   UNL d   1       0.185  -1.282  -0.067  0.00  0.00     0.022 A 
ATOM      4  C   UNL d   1      -0.139  -2.693  -0.040  0.00  0.00     0.021 A 
ATOM      5  C   UNL d   1       1.404   0.710  -0.104  0.00  0.00     0.023 A 
ATOM      6  C   UNL d   1       1.443  -0.713  -0.083  0.00  0.00     0.021 A 
ATOM      7  S   UNL d   1       0.973  -3.878  -0.612  0.00  0.00    -0.101 SA
ATOM      8  C   UNL d   1      -1.296  -3.298   0.420  0.00  0.00     0.021 A 
ATOM      9  C   UNL d   1      -0.079  -5.167  -0.231  0.00  0.00     0.050 A 
ATOM     10  C   UNL d   1      -1.259  -4.722   0.316  0.00  0.00     0.008 A 
ENDROOT
BRANCH   2  11
ATOM     11  C   UNL d   1      -0.301   2.632  -0.095  0.00  0.00     0.118 C 
ATOM     12  S   UNL d   1       0.763   3.799   0.497  0.00  0.00    -0.059 SA
BRANCH  11  13
ATOM     13  N   UNL d   1      -1.571   2.956  -0.497  0.00  0.00    -0.342 N 
ATOM     14  C   UNL d   1      -1.919   2.715  -1.719  0.00  0.00     0.178 C 
ATOM     15  HN  UNL d   1      -2.230   3.379   0.156  1.00  0.00     0.167 HD
BRANCH  14  16
ATOM     16  N   UNL d   1      -3.103   3.115  -2.287  0.00  0.00    -0.386 N 
ATOM     17  C   UNL d   1      -3.532   2.644  -3.591  0.00  0.00     0.149 C 
ATOM     18  C   UNL d   1      -3.806   4.288  -1.781  0.00  0.00     0.149 C 
ENDBRANCH  14  16
ENDBRANCH  11  13
ENDBRANCH   2  11
TORSDOF 3
