REMARK  7 active torsions:
REMARK  status: ('A' for Active; 'I' for Inactive)
REMARK    1  A    between atoms: N_2  and  S_1 
REMARK    2  A    between atoms: C_6  and  S_1 
REMARK    3  A    between atoms: C_4  and  N_2 
REMARK    4  A    between atoms: C_9  and  N_2 
REMARK    5  A    between atoms: C_3  and  C_4 
REMARK    6  A    between atoms: C_15  and  C_9 
REMARK    7  A    between atoms: O_25  and  C_16 
ROOT
ATOM      1  N   UNL d   1       0.391  -1.335   0.544  0.00  0.00    -0.297 N 
ENDROOT
BRANCH   1   2
ATOM      2  S   UNL d   1       1.430  -0.038   0.129  0.00  0.00     0.261 S 
ATOM      3  O   UNL d   1       0.940   0.615  -1.067  0.00  0.00    -0.200 OA
ATOM      4  O   UNL d   1       2.792  -0.521   0.177  0.00  0.00    -0.200 OA
BRANCH   2   5
ATOM      5  C   UNL d   1       1.312   1.137   1.463  0.00  0.00     0.079 A 
ATOM      6  C   UNL d   1       1.921   0.819   2.681  0.00  0.00     0.026 A 
ATOM      7  C   UNL d   1       2.171   1.830   3.612  0.00  0.00     0.008 A 
ATOM      8  C   UNL d   1       1.832   3.160   3.326  0.00  0.00    -0.062 A 
ATOM      9  C   UNL d   1       1.153   3.454   2.136  0.00  0.00     0.008 A 
ATOM     10  C   UNL d   1       2.227   4.256   4.274  0.00  0.00     0.048 C 
ATOM     11  C   UNL d   1       0.901   2.447   1.199  0.00  0.00     0.026 A 
ENDBRANCH   2   5
ENDBRANCH   1   2
BRANCH   1  12
ATOM     12  C   UNL d   1      -1.078  -1.114   0.436  0.00  0.00     0.193 C 
BRANCH  12  13
ATOM     13  C   UNL d   1      -1.596  -1.134  -0.975  0.00  0.00     0.029 C 
ATOM     14  N   UNL d   1      -1.868  -0.017  -1.744  0.00  0.00    -0.363 N 
ATOM     15  C   UNL d   1      -2.102  -0.399  -3.045  0.00  0.00     0.090 C 
ATOM     16  C   UNL d   1      -1.958   1.364  -1.325  0.00  0.00     0.155 C 
ATOM     17  C   UNL d   1      -2.196  -1.767  -3.076  0.00  0.00     0.019 C 
ATOM     18  C   UNL d   1      -1.968  -2.218  -1.758  0.00  0.00     0.028 C 
ENDBRANCH  12  13
ENDBRANCH   1  12
BRANCH   1  19
ATOM     19  C   UNL d   1       0.907  -2.625  -0.001  0.00  0.00     0.174 C 
BRANCH  19  20
ATOM     20  C   UNL d   1       0.256  -3.910   0.469  0.00  0.00    -0.040 A 
ATOM     21  C   UNL d   1      -0.177  -4.850  -0.479  0.00  0.00     0.011 A 
ATOM     22  C   UNL d   1      -0.739  -6.069  -0.093  0.00  0.00     0.037 A 
ATOM     23  C   UNL d   1      -0.831  -6.394   1.257  0.00  0.00     0.068 A 
ATOM     24  C   UNL d   1      -0.349  -5.492   2.210  0.00  0.00     0.037 A 
ATOM     25  C   UNL d   1       0.179  -4.253   1.824  0.00  0.00     0.011 A 
BRANCH  23  26
ATOM     26  O   UNL d   1      -1.317  -7.574   1.753  0.00  0.00    -0.356 OA
ATOM     27  C   UNL d   1      -2.232  -8.274   0.916  0.00  0.00     0.210 C 
ENDBRANCH  23  26
ENDBRANCH  19  20
ENDBRANCH   1  19
TORSDOF 7
