REMARK  5 active torsions:
REMARK  status: ('A' for Active; 'I' for Inactive)
REMARK    1  A    between atoms: N_3  and  C_1 
REMARK    2  A    between atoms: C_2  and  C_5 
REMARK    3  A    between atoms: C_5  and  N_3 
REMARK    4  A    between atoms: N_8  and  N_6 
REMARK    5  A    between atoms: O_9  and  C_7 
ROOT
ATOM      1  N   UNL d   1       2.246   0.944  -2.832  0.00  0.00    -0.362 N 
ATOM      2  H   UNL d   1       2.286   0.974  -3.841  0.00  0.00     0.162 HD
ENDROOT
BRANCH   1   3
ATOM      3  C   UNL d   1       3.452   0.751  -2.269  0.00  0.00     0.182 C 
ATOM      4  S   UNL d   1       4.764   0.573  -3.291  0.00  0.00    -0.040 SA
ATOM      5  N   UNL d   1       3.665   0.694  -0.930  0.00  0.00    -0.300 N 
ATOM      6  H   UNL d   1       4.639   0.558  -0.657  0.00  0.00     0.183 HD
BRANCH   5   7
ATOM      7  N   UNL d   1       2.743   0.934   0.087  0.00  0.00    -0.248 NA
ATOM      8  H   UNL d   1       1.963   0.285  -0.000  0.00  0.00     0.143 HD
ATOM      9  H   UNL d   1       2.386   1.886  -0.001  0.00  0.00     0.143 HD
ENDBRANCH   5   7
ENDBRANCH   1   3
BRANCH   1  10
ATOM     10  C   UNL d   1       0.914   1.092  -2.268  0.00  0.00     0.163 C 
BRANCH  10  11
ATOM     11  C   UNL d   1      -0.110   1.244  -3.361  0.00  0.00    -0.007 A 
ATOM     12  C   UNL d   1      -0.855   0.186  -3.906  0.00  0.00     0.076 A 
ATOM     13  C   UNL d   1      -1.810   0.448  -4.899  0.00  0.00     0.037 A 
ATOM     14  C   UNL d   1      -2.021   1.744  -5.371  0.00  0.00     0.003 A 
ATOM     15  C   UNL d   1      -1.278   2.796  -4.850  0.00  0.00     0.001 A 
ATOM     16  C   UNL d   1      -0.326   2.546  -3.863  0.00  0.00     0.011 A 
BRANCH  12  17
ATOM     17  O   UNL d   1      -0.848  -1.111  -3.466  0.00  0.00    -0.355 OA
ATOM     18  C   UNL d   1       0.419  -1.758  -3.416  0.00  0.00     0.210 C 
ENDBRANCH  12  17
ENDBRANCH  10  11
ENDBRANCH   1  10
TORSDOF 5
