REMARK  5 active torsions:
REMARK  status: ('A' for Active; 'I' for Inactive)
REMARK    1  A    between atoms: C_8  and  N_1 
REMARK    2  A    between atoms: C_4  and  C_2 
REMARK    3  A    between atoms: C_3  and  C_10 
REMARK    4  A    between atoms: O_17  and  C_7 
REMARK    5  A    between atoms: O_18  and  C_12 
ROOT
ATOM      1  C   UNL d   1      -3.124  -3.183   3.762  0.00  0.00     0.038 C 
ATOM      2  C   UNL d   1      -2.650  -1.992   4.180  0.00  0.00     0.055 C 
ATOM      3  C   UNL d   1      -2.651  -0.852   3.303  0.00  0.00     0.100 C 
ATOM      4  N   UNL d   1      -2.674   0.090   2.629  0.00  0.00    -0.191 NA
ENDROOT
BRANCH   2   5
ATOM      5  C   UNL d   1      -2.117  -1.848   5.565  0.00  0.00    -0.015 A 
ATOM      6  C   UNL d   1      -1.454  -2.912   6.211  0.00  0.00     0.015 A 
ATOM      7  C   UNL d   1      -0.898  -2.758   7.486  0.00  0.00     0.037 A 
ATOM      8  C   UNL d   1      -0.992  -1.523   8.133  0.00  0.00     0.102 A 
ATOM      9  C   UNL d   1      -1.646  -0.452   7.516  0.00  0.00     0.037 A 
ATOM     10  C   UNL d   1      -2.204  -0.619   6.242  0.00  0.00     0.015 A 
BRANCH   8  11
ATOM     11  N   UNL d   1      -0.391  -1.348   9.461  0.00  0.00    -0.116 N 
ATOM     12  O   UNL d   1      -0.494  -0.237   9.998  0.00  0.00    -0.532 OA
ATOM     13  O   UNL d   1       0.184  -2.324   9.964  0.00  0.00    -0.532 OA
ENDBRANCH   8  11
ENDBRANCH   2   5
BRANCH   1  14
ATOM     14  C   UNL d   1      -3.568  -3.457   2.387  0.00  0.00     0.002 A 
ATOM     15  C   UNL d   1      -2.695  -3.834   1.337  0.00  0.00     0.111 A 
ATOM     16  C   UNL d   1      -3.213  -3.921   0.028  0.00  0.00     0.102 A 
ATOM     17  C   UNL d   1      -4.574  -3.662  -0.203  0.00  0.00     0.040 A 
ATOM     18  C   UNL d   1      -5.430  -3.318   0.837  0.00  0.00     0.004 A 
ATOM     19  C   UNL d   1      -4.930  -3.222   2.128  0.00  0.00     0.014 A 
BRANCH  15  20
ATOM     20  O   UNL d   1      -1.343  -4.006   1.480  0.00  0.00    -0.352 OA
ATOM     21  C   UNL d   1      -0.821  -4.625   2.646  0.00  0.00     0.210 C 
ENDBRANCH  15  20
BRANCH  16  22
ATOM     22  O   UNL d   1      -2.558  -4.230  -1.138  0.00  0.00    -0.353 OA
ATOM     23  C   UNL d   1      -1.165  -4.491  -1.110  0.00  0.00     0.210 C 
ENDBRANCH  16  22
ENDBRANCH   1  14
TORSDOF 5
