REMARK  5 active torsions:
REMARK  status: ('A' for Active; 'I' for Inactive)
REMARK    1  A    between atoms: N_2  and  S_1 
REMARK    2  A    between atoms: C_10  and  S_1 
REMARK    3  A    between atoms: C_3  and  N_2 
REMARK       I    between atoms: C_7  and  N_11 
REMARK    4  A    between atoms: C_8  and  C_7 
REMARK    5  A    between atoms: N_11  and  C_22 
ROOT
ATOM      1  C   UNL d   1       0.348   0.280   1.503  0.00  0.00     0.075 A 
ATOM      2  C   UNL d   1      -0.179  -0.790   2.230  0.00  0.00     0.027 A 
ATOM      3  C   UNL d   1       0.441   1.543   2.083  0.00  0.00     0.027 A 
ATOM      4  C   UNL d   1      -0.494   0.668   4.156  0.00  0.00     0.035 A 
ATOM      5  C   UNL d   1       0.015   1.732   3.401  0.00  0.00     0.031 A 
ATOM      6  C   UNL d   1      -0.610  -0.590   3.549  0.00  0.00     0.031 A 
ENDROOT
BRANCH   1   7
ATOM      7  S   UNL d   1       1.020   0.008  -0.113  0.00  0.00     0.247 S 
ATOM      8  O   UNL d   1       1.968   1.069  -0.392  0.00  0.00    -0.205 OA
ATOM      9  O   UNL d   1       1.425  -1.378  -0.228  0.00  0.00    -0.205 OA
BRANCH   7  10
ATOM     10  N   UNL d   1      -0.290   0.304  -1.133  0.00  0.00    -0.165 NA
ATOM     11  H   UNL d   1       0.042   0.881  -1.902  0.00  0.00     0.147 HD
BRANCH  10  12
ATOM     12  C   UNL d   1      -1.099  -0.774  -1.456  0.00  0.00     0.117 A 
ATOM     13  N   UNL d   1      -2.146  -1.124  -0.706  0.00  0.00    -0.249 N 
ATOM     14  O   UNL d   1      -2.721  -2.204  -1.352  0.00  0.00    -0.241 OA
ATOM     15  HN  UNL d   1      -2.457  -0.687   0.161  1.00  0.00     0.196 HD
ATOM     16  C   UNL d   1      -2.005  -2.493  -2.472  0.00  0.00     0.075 A 
ATOM     17  C   UNL d   1      -0.970  -1.598  -2.591  0.00  0.00     0.079 A 
ATOM     18  C   UNL d   1      -2.468  -3.644  -3.265  0.00  0.00     0.079 C 
ENDBRANCH  10  12
ENDBRANCH   7  10
ENDBRANCH   1   7
BRANCH   4  19
ATOM     19  N   UNL d   1      -0.851   0.779   5.519  0.00  0.00    -0.321 N 
ATOM     20  C   UNL d   1      -0.718   1.898   6.327  0.00  0.00     0.279 C 
ATOM     21  O   UNL d   1      -0.381   3.016   5.939  0.00  0.00    -0.265 OA
ATOM     22  H   UNL d   1      -1.164  -0.060   5.993  0.00  0.00     0.169 HD
BRANCH  20  23
ATOM     23  C   UNL d   1      -0.976   1.653   7.736  0.00  0.00     0.142 A 
ATOM     24  O   UNL d   1      -1.377   0.416   8.167  0.00  0.00    -0.317 OA
ATOM     25  C   UNL d   1      -1.484   0.488   9.522  0.00  0.00     0.143 A 
ATOM     26  C   UNL d   1      -1.159   1.747   9.970  0.00  0.00     0.027 A 
ATOM     27  C   UNL d   1      -0.849   2.503   8.819  0.00  0.00     0.045 A 
ENDBRANCH  20  23
ENDBRANCH   4  19
TORSDOF 5
