REMARK  4 active torsions:
REMARK  status: ('A' for Active; 'I' for Inactive)
REMARK    1  A    between atoms: C_13  and  C_6 
REMARK    2  A    between atoms: O_12  and  C_7 
REMARK    3  A    between atoms: C_16  and  C_13 
REMARK    4  A    between atoms: C_17  and  C_16 
ROOT
ATOM      1  N   UNL d   1       0.715   0.244   0.012  0.00  0.00    -0.256 N 
ATOM      2  C   UNL d   1       1.216  -1.033   0.071  0.00  0.00     0.161 A 
ATOM      3  N   UNL d   1       2.459  -1.354   0.114  0.00  0.00    -0.316 N 
ATOM      4  HN  UNL d   1       2.757  -2.328   0.151  1.00  0.00     0.170 HD
ATOM      5  C   UNL d   1       1.574   1.310  -0.080  0.00  0.00     0.265 A 
ATOM      6  C   UNL d   1       3.035   0.976   0.035  0.00  0.00     0.061 A 
ATOM      7  C   UNL d   1       3.363  -0.331   0.107  0.00  0.00     0.153 A 
ATOM      8  S   UNL d   1      -0.064  -2.236   0.080  0.00  0.00    -0.051 SA
ATOM      9  C   UNL d   1      -0.701   0.306  -0.005  0.00  0.00     0.062 A 
ATOM     10  C   UNL d   1      -1.292  -0.962   0.025  0.00  0.00     0.035 A 
ATOM     11  O   UNL d   1       1.236   2.478  -0.269  0.00  0.00    -0.267 OA
ATOM     12  C   UNL d   1      -1.504   1.440  -0.029  0.00  0.00     0.031 A 
ATOM     13  C   UNL d   1      -2.669  -1.129   0.017  0.00  0.00     0.021 A 
ATOM     14  C   UNL d   1      -2.895   1.285  -0.029  0.00  0.00     0.002 A 
ATOM     15  C   UNL d   1      -3.474   0.010  -0.010  0.00  0.00     0.002 A 
ENDROOT
BRANCH   6  16
ATOM     16  C   UNL d   1       3.985   2.153  -0.006  0.00  0.00     0.049 C 
BRANCH  16  17
ATOM     17  C   UNL d   1       3.868   3.157   1.151  0.00  0.00     0.004 C 
BRANCH  17  18
ATOM     18  C   UNL d   1       4.104   2.551   2.534  0.00  0.00    -0.004 C 
ATOM     19  C   UNL d   1       3.975   3.613   3.618  0.00  0.00     0.005 C 
ENDBRANCH  17  18
ENDBRANCH  16  17
ENDBRANCH   6  16
BRANCH   7  20
ATOM     20  O   UNL d   1       4.666  -0.772   0.175  0.00  0.00    -0.345 OA
ATOM     21  H   UNL d   1       5.287  -0.036   0.107  0.00  0.00     0.219 HD
ENDBRANCH   7  20
TORSDOF 4
