REMARK  0 active torsions:
REMARK  status: ('A' for Active; 'I' for Inactive)
REMARK       I    between atoms: C_6  and  N_1 
ROOT
ATOM      1  N   UNL d   1       1.954   0.017  -0.012  0.00  0.00    -0.213 N 
ATOM      2  C   UNL d   1       1.170  -1.117   0.012  0.00  0.00     0.268 A 
ATOM      3  C   UNL d   1       1.161   1.147  -0.041  0.00  0.00     0.268 A 
ATOM      4  C   UNL d   1      -0.226   0.700  -0.023  0.00  0.00     0.048 A 
ATOM      5  C   UNL d   1      -0.222  -0.677  -0.003  0.00  0.00     0.048 A 
ATOM      6  C   UNL d   1       3.336  -0.053  -0.128  0.00  0.00     0.229 C 
ATOM      7  O   UNL d   1       1.455   2.329  -0.087  0.00  0.00    -0.267 OA
ATOM      8  O   UNL d   1       1.459  -2.293   0.110  0.00  0.00    -0.267 OA
ATOM      9  O   UNL d   1       3.927  -1.017  -0.621  0.00  0.00    -0.273 OA
ATOM     10  C   UNL d   1      -1.392  -1.414   0.019  0.00  0.00     0.018 A 
ATOM     11  C   UNL d   1      -1.403   1.427  -0.023  0.00  0.00     0.018 A 
ATOM     12  C   UNL d   1       4.149   1.156   0.269  0.00  0.00     0.118 C 
ATOM     13  C   UNL d   1      -2.596  -0.703   0.017  0.00  0.00     0.001 A 
ATOM     14  C   UNL d   1      -2.602   0.706  -0.004  0.00  0.00     0.001 A 
ENDROOT
TORSDOF 0
