REMARK  6 active torsions:
REMARK  status: ('A' for Active; 'I' for Inactive)
REMARK    1  A    between atoms: C_2  and  S_1 
REMARK    2  A    between atoms: N_8  and  S_1 
REMARK    3  A    between atoms: C_3  and  C_7 
REMARK    4  A    between atoms: C_6  and  C_13 
REMARK    5  A    between atoms: C_24  and  N_8 
REMARK    6  A    between atoms: C_25  and  C_24 
ROOT
ATOM      1  S   UNL d   1       0.890  -0.048   0.001  0.00  0.00     0.262 S 
ATOM      2  O   UNL d   1       0.374   0.012   1.353  0.00  0.00    -0.200 OA
ATOM      3  O   UNL d   1       2.283   0.192  -0.308  0.00  0.00    -0.200 OA
ENDROOT
BRANCH   1   4
ATOM      4  C   UNL d   1      -0.047   1.140  -0.921  0.00  0.00     0.122 A 
ATOM      5  C   UNL d   1      -0.988   0.828  -1.904  0.00  0.00     0.059 A 
ATOM      6  C   UNL d   1      -1.555   1.849  -2.688  0.00  0.00     0.041 A 
ATOM      7 CL   UNL d   1      -1.668  -0.730  -2.193  0.00  0.00    -0.083 Cl
ATOM      8  C   UNL d   1      -1.276   3.198  -2.450  0.00  0.00     0.051 A 
ATOM      9  C   UNL d   1      -0.425   3.514  -1.389  0.00  0.00     0.041 A 
ATOM     10  C   UNL d   1       0.193   2.501  -0.637  0.00  0.00     0.059 A 
ATOM     11 CL   UNL d   1       1.193   3.059   0.663  0.00  0.00    -0.083 Cl
BRANCH   8  12
ATOM     12  C   UNL d   1      -1.909   4.286  -3.283  0.00  0.00     0.417 C 
ATOM     13  F   UNL d   1      -2.693   3.803  -4.286  0.00  0.00    -0.166 F 
ATOM     14  F   UNL d   1      -2.704   5.106  -2.546  0.00  0.00    -0.166 F 
ATOM     15  F   UNL d   1      -0.985   5.084  -3.882  0.00  0.00    -0.166 F 
ENDBRANCH   8  12
ENDBRANCH   1   4
BRANCH   1  16
ATOM     16  N   UNL d   1       0.545  -1.599  -0.523  0.00  0.00    -0.311 N 
ATOM     17  H   UNL d   1      -0.448  -1.826  -0.496  0.00  0.00     0.172 HD
BRANCH  16  18
ATOM     18  C   UNL d   1       1.276  -2.153  -1.669  0.00  0.00     0.170 C 
BRANCH  18  19
ATOM     19  C   UNL d   1       0.735  -3.523  -2.031  0.00  0.00    -0.040 A 
ATOM     20  C   UNL d   1       0.202  -3.772  -3.303  0.00  0.00     0.009 A 
ATOM     21  C   UNL d   1      -0.341  -5.022  -3.615  0.00  0.00     0.017 A 
ATOM     22  C   UNL d   1      -0.360  -6.053  -2.664  0.00  0.00     0.047 A 
ATOM     23  C   UNL d   1       0.193  -5.811  -1.398  0.00  0.00     0.017 A 
ATOM     24  C   UNL d   1       0.735  -4.560  -1.086  0.00  0.00     0.009 A 
BRANCH  22  25
ATOM     25  C   UNL d   1      -0.975  -7.395  -2.983  0.00  0.00     0.417 C 
ATOM     26  F   UNL d   1      -1.494  -7.469  -4.242  0.00  0.00    -0.166 F 
ATOM     27  F   UNL d   1      -0.081  -8.418  -2.889  0.00  0.00    -0.166 F 
ATOM     28  F   UNL d   1      -1.998  -7.713  -2.142  0.00  0.00    -0.166 F 
ENDBRANCH  22  25
ENDBRANCH  18  19
ENDBRANCH  16  18
ENDBRANCH   1  16
TORSDOF 6
