REMARK  6 active torsions:
REMARK  status: ('A' for Active; 'I' for Inactive)
REMARK    1  A    between atoms: N_5  and  C_1 
REMARK    2  A    between atoms: N_6  and  C_1 
REMARK    3  A    between atoms: C_2  and  N_5 
REMARK    4  A    between atoms: N_3  and  C_4 
REMARK    5  A    between atoms: C_18  and  N_6 
REMARK    6  A    between atoms: C_12  and  C_13 
ROOT
ATOM      1  C   UNL d   1       1.403  -0.073  -0.096  0.00  0.00     0.176 C 
ATOM      2  S   UNL d   1       2.993   0.022  -0.624  0.00  0.00    -0.041 SA
ENDROOT
BRANCH   1   3
ATOM      3  N   UNL d   1       0.744   0.769   0.827  0.00  0.00    -0.331 N 
ATOM      4  H   UNL d   1      -0.158   0.420   1.116  0.00  0.00     0.168 HD
BRANCH   3   5
ATOM      5  C   UNL d   1       1.099   2.036   1.387  0.00  0.00     0.062 A 
ATOM      6  C   UNL d   1       0.133   2.905   1.957  0.00  0.00     0.065 A 
ATOM      7  C   UNL d   1       0.544   4.153   2.488  0.00  0.00     0.033 A 
ATOM      8  C   UNL d   1       1.879   4.553   2.464  0.00  0.00     0.009 A 
ATOM      9  C   UNL d   1       2.840   3.701   1.948  0.00  0.00    -0.060 A 
ATOM     10  C   UNL d   1       2.439   2.453   1.449  0.00  0.00     0.038 A 
ATOM     11  C   UNL d   1       4.287   4.095   1.926  0.00  0.00     0.048 C 
BRANCH   6  12
ATOM     12  N   UNL d   1      -1.276   2.641   2.002  0.00  0.00    -0.331 N 
ATOM     13  C   UNL d   1      -2.152   3.138   2.958  0.00  0.00     0.097 A 
ATOM     14  C   UNL d   1      -3.423   2.666   2.707  0.00  0.00     0.019 A 
ATOM     15  C   UNL d   1      -3.349   1.880   1.544  0.00  0.00     0.019 A 
ATOM     16  C   UNL d   1      -2.040   1.913   1.110  0.00  0.00     0.097 A 
ENDBRANCH   6  12
ENDBRANCH   3   5
ENDBRANCH   1   3
BRANCH   1  17
ATOM     17  N   UNL d   1       0.448  -0.961  -0.641  0.00  0.00    -0.333 N 
ATOM     18  H   UNL d   1      -0.477  -0.558  -0.705  0.00  0.00     0.168 HD
BRANCH  17  19
ATOM     19  C   UNL d   1       0.686  -2.008  -1.572  0.00  0.00     0.034 A 
ATOM     20  C   UNL d   1       1.792  -2.848  -1.499  0.00  0.00     0.030 A 
ATOM     21  C   UNL d   1       2.031  -3.802  -2.492  0.00  0.00     0.010 A 
ATOM     22  C   UNL d   1       1.145  -3.986  -3.568  0.00  0.00    -0.051 A 
ATOM     23  C   UNL d   1      -0.001  -3.175  -3.594  0.00  0.00     0.010 A 
ATOM     24  C   UNL d   1      -0.236  -2.208  -2.602  0.00  0.00     0.030 A 
BRANCH  22  25
ATOM     25  C   UNL d   1       1.454  -5.051  -4.633  0.00  0.00    -0.024 C 
ATOM     26  C   UNL d   1       0.341  -5.218  -5.694  0.00  0.00     0.019 C 
ATOM     27  C   UNL d   1       2.753  -4.682  -5.382  0.00  0.00     0.019 C 
ATOM     28  C   UNL d   1       1.638  -6.424  -3.947  0.00  0.00     0.019 C 
ENDBRANCH  22  25
ENDBRANCH  17  19
ENDBRANCH   1  17
TORSDOF 6
