REMARK  4 active torsions:
REMARK  status: ('A' for Active; 'I' for Inactive)
REMARK    1  A    between atoms: C_2  and  S_1 
REMARK    2  A    between atoms: N_3  and  S_1 
REMARK    3  A    between atoms: C_10  and  N_3 
REMARK    4  A    between atoms: C_4  and  C_10 
ROOT
ATOM      1  S   UNL d   1       0.877  -0.044   0.094  0.00  0.00     0.265 S 
ATOM      2  O   UNL d   1       0.073   0.185   1.273  0.00  0.00    -0.200 OA
ATOM      3  O   UNL d   1       2.323  -0.058   0.169  0.00  0.00    -0.200 OA
ENDROOT
BRANCH   1   4
ATOM      4  C   UNL d   1       0.357   1.122  -1.103  0.00  0.00     0.156 A 
ATOM      5  C   UNL d   1      -0.997   1.206  -1.405  0.00  0.00     0.142 A 
ATOM      6  F   UNL d   1      -1.870   0.325  -0.899  0.00  0.00    -0.204 F 
ATOM      7  C   UNL d   1      -1.478   2.200  -2.257  0.00  0.00     0.044 A 
ATOM      8  C   UNL d   1      -0.592   3.119  -2.818  0.00  0.00     0.006 A 
ATOM      9  C   UNL d   1       0.770   3.025  -2.530  0.00  0.00     0.044 A 
ATOM     10  C   UNL d   1       1.238   2.030  -1.670  0.00  0.00     0.142 A 
ATOM     11  F   UNL d   1       2.551   1.996  -1.415  0.00  0.00    -0.204 F 
ENDBRANCH   1   4
BRANCH   1  12
ATOM     12  N   UNL d   1       0.408  -1.529  -0.544  0.00  0.00    -0.310 N 
ATOM     13  H   UNL d   1      -0.602  -1.596  -0.685  0.00  0.00     0.172 HD
BRANCH  12  14
ATOM     14  C   UNL d   1       1.241  -2.086  -1.607  0.00  0.00     0.178 C 
BRANCH  14  15
ATOM     15  C   UNL d   1       0.650  -3.406  -2.005  0.00  0.00     0.001 A 
ATOM     16  S   UNL d   1      -0.311  -3.534  -3.419  0.00  0.00    -0.105 SA
ATOM     17  C   UNL d   1      -0.554  -5.210  -3.179  0.00  0.00     0.050 A 
ATOM     18  C   UNL d   1       0.072  -5.666  -2.041  0.00  0.00     0.008 A 
ATOM     19  C   UNL d   1       0.765  -4.625  -1.361  0.00  0.00     0.017 A 
ENDBRANCH  14  15
ENDBRANCH  12  14
ENDBRANCH   1  12
TORSDOF 4
