REMARK  11 active torsions:
REMARK  status: ('A' for Active; 'I' for Inactive)
REMARK    1  A    between atoms: N_3  and  C_1 
REMARK    2  A    between atoms: N_5  and  C_1 
REMARK    3  A    between atoms: C_2  and  N_4 
REMARK    4  A    between atoms: N_8  and  C_2 
REMARK    5  A    between atoms: N_4  and  N_3 
REMARK    6  A    between atoms: C_9  and  N_5 
REMARK    7  A    between atoms: C_18  and  N_8 
REMARK    8  A    between atoms: O_16  and  C_10 
REMARK    9  A    between atoms: C_15  and  C_18 
REMARK   10  A    between atoms: C_19  and  C_15 
REMARK   11  A    between atoms: O_17  and  C_19 
ROOT
ATOM      1  N   UNL d   1       0.390   0.917   1.077  0.00  0.00    -0.274 N 
ATOM      2  H   UNL d   1      -0.627   0.865   1.080  0.00  0.00     0.189 HD
ENDROOT
BRANCH   1   3
ATOM      3  C   UNL d   1       1.069   0.183   0.129  0.00  0.00     0.191 C 
ATOM      4  S   UNL d   1       2.575  -0.504   0.325  0.00  0.00    -0.039 SA
BRANCH   3   5
ATOM      5  N   UNL d   1       0.383   0.025  -1.054  0.00  0.00    -0.332 N 
ATOM      6  H   UNL d   1       0.657  -0.768  -1.628  0.00  0.00     0.168 HD
BRANCH   5   7
ATOM      7  C   UNL d   1      -0.518   0.954  -1.622  0.00  0.00     0.034 A 
ATOM      8  C   UNL d   1      -0.476   2.318  -1.296  0.00  0.00     0.032 A 
ATOM      9  C   UNL d   1      -1.396   3.215  -1.845  0.00  0.00     0.039 A 
ATOM     10  C   UNL d   1      -2.365   2.756  -2.725  0.00  0.00     0.068 A 
ATOM     11  C   UNL d   1      -2.363   1.414  -3.109  0.00  0.00     0.039 A 
ATOM     12  C   UNL d   1      -1.438   0.513  -2.568  0.00  0.00     0.032 A 
BRANCH  10  13
ATOM     13  O   UNL d   1      -3.332   3.537  -3.297  0.00  0.00    -0.356 OA
ATOM     14  C   UNL d   1      -3.730   4.666  -2.520  0.00  0.00     0.210 C 
ENDBRANCH  10  13
ENDBRANCH   5   7
ENDBRANCH   3   5
ENDBRANCH   1   3
BRANCH   1  15
ATOM     15  N   UNL d   1       0.985   1.468   2.199  0.00  0.00    -0.274 N 
ATOM     16  H   UNL d   1       1.846   1.981   2.048  0.00  0.00     0.189 HD
BRANCH  15  17
ATOM     17  C   UNL d   1       0.312   1.528   3.405  0.00  0.00     0.186 C 
ATOM     18  S   UNL d   1      -0.901   0.469   3.854  0.00  0.00    -0.040 SA
BRANCH  17  19
ATOM     19  N   UNL d   1       0.776   2.580   4.165  0.00  0.00    -0.366 N 
ATOM     20  H   UNL d   1       1.231   3.331   3.664  0.00  0.00     0.161 HD
BRANCH  19  21
ATOM     21  C   UNL d   1       0.666   2.729   5.609  0.00  0.00     0.124 C 
BRANCH  21  22
ATOM     22  C   UNL d   1       1.676   1.843   6.333  0.00  0.00     0.046 C 
BRANCH  22  23
ATOM     23  C   UNL d   1       3.107   2.140   5.895  0.00  0.00     0.168 C 
BRANCH  23  24
ATOM     24  O   UNL d   1       4.000   1.275   6.593  0.00  0.00    -0.396 OA
ATOM     25  C   UNL d   1       5.341   1.463   6.159  0.00  0.00     0.201 C 
ENDBRANCH  23  24
ENDBRANCH  22  23
ENDBRANCH  21  22
ENDBRANCH  19  21
ENDBRANCH  17  19
ENDBRANCH  15  17
ENDBRANCH   1  15
TORSDOF 11
