REMARK  6 active torsions:
REMARK  status: ('A' for Active; 'I' for Inactive)
REMARK    1  A    between atoms: C_2  and  N_1 
REMARK    2  A    between atoms: C_3  and  C_5 
REMARK    3  A    between atoms: N_8  and  C_6 
REMARK    4  A    between atoms: C_15  and  N_8 
REMARK    5  A    between atoms: C_17  and  C_15 
REMARK    6  A    between atoms: O_16  and  C_17 
ROOT
ATOM      1  C   UNL d   1       0.365  -1.142  -0.189  0.00  0.00     0.124 A 
ATOM      2  C   UNL d   1       0.710  -2.326   0.500  0.00  0.00     0.054 A 
ATOM      3  C   UNL d   1      -0.006  -3.505   0.276  0.00  0.00     0.050 A 
ATOM      4  C   UNL d   1      -0.650  -1.096  -1.161  0.00  0.00     0.041 A 
ATOM      5  C   UNL d   1      -1.084  -3.460  -0.613  0.00  0.00     0.018 A 
ATOM      6  C   UNL d   1      -1.403  -2.280  -1.301  0.00  0.00     0.027 A 
ENDROOT
BRANCH   4   7
ATOM      7  N   UNL d   1      -1.073  -0.002  -1.935  0.00  0.00    -0.289 NA
ATOM      8  H   UNL d   1      -1.610  -0.315  -2.745  0.00  0.00     0.127 HD
BRANCH   7   9
ATOM      9  C   UNL d   1      -0.129   1.072  -2.292  0.00  0.00     0.123 C 
BRANCH   9  10
ATOM     10  C   UNL d   1      -0.575   1.763  -3.596  0.00  0.00     0.127 C 
ATOM     11  C   UNL d   1       0.390   2.877  -3.973  0.00  0.00     0.040 C 
BRANCH  10  12
ATOM     12  O   UNL d   1      -1.882   2.321  -3.451  0.00  0.00    -0.395 OA
ATOM     13  H   UNL d   1      -2.326   1.836  -2.731  0.00  0.00     0.210 HD
ENDBRANCH  10  12
ENDBRANCH   9  10
ENDBRANCH   7   9
ENDBRANCH   4   7
BRANCH   1  14
ATOM     14  N   UNL d   1       1.127   0.028   0.191  0.00  0.00    -0.114 N 
ATOM     15  O   UNL d   1       2.318   0.052  -0.153  0.00  0.00    -0.532 OA
ATOM     16  O   UNL d   1       0.551   0.893   0.862  0.00  0.00    -0.532 OA
ENDBRANCH   1  14
BRANCH   3  17
ATOM     17  C   UNL d   1       0.355  -4.793   0.976  0.00  0.00     0.417 C 
ATOM     18  F   UNL d   1       1.441  -4.678   1.789  0.00  0.00    -0.166 F 
ATOM     19  F   UNL d   1      -0.653  -5.262   1.757  0.00  0.00    -0.166 F 
ATOM     20  F   UNL d   1       0.650  -5.791   0.098  0.00  0.00    -0.166 F 
ENDBRANCH   3  17
TORSDOF 6
