REMARK  5 active torsions:
REMARK  status: ('A' for Active; 'I' for Inactive)
REMARK    1  A    between atoms: C_4  and  N_1 
REMARK    2  A    between atoms: N_15  and  C_7 
REMARK    3  A    between atoms: C_11  and  C_12 
REMARK    4  A    between atoms: C_23  and  N_15 
REMARK    5  A    between atoms: C_24  and  N_15 
ROOT
ATOM      1  N   UNL d   1      -0.789   1.151  -0.073  0.00  0.00    -0.216 N 
ATOM      2  C   UNL d   1      -1.513  -0.041  -0.155  0.00  0.00     0.291 A 
ATOM      3  C   UNL d   1      -0.695  -1.292  -0.090  0.00  0.00     0.131 A 
ATOM      4  N   UNL d   1       0.578   1.218  -0.074  0.00  0.00    -0.300 N 
ATOM      5  HN  UNL d   1       1.067   2.114  -0.072  1.00  0.00     0.186 HD
ATOM      6  C   UNL d   1       0.645  -1.265  -0.056  0.00  0.00     0.074 A 
ATOM      7  C   UNL d   1       1.223   0.100  -0.079  0.00  0.00     0.139 A 
ATOM      8  O   UNL d   1      -2.735  -0.094  -0.302  0.00  0.00    -0.264 OA
ATOM      9 CL   UNL d   1      -1.563  -2.792  -0.047  0.00  0.00    -0.076 Cl
ENDROOT
BRANCH   1  10
ATOM     10  C   UNL d   1      -1.442   2.420  -0.064  0.00  0.00     0.103 A 
ATOM     11  C   UNL d   1      -2.378   2.752   0.937  0.00  0.00     0.065 A 
ATOM     12  C   UNL d   1      -3.025   3.999   0.940  0.00  0.00     0.042 A 
ATOM     13 CL   UNL d   1      -2.689   1.724   2.299  0.00  0.00    -0.082 Cl
ATOM     14  C   UNL d   1      -2.748   4.952  -0.049  0.00  0.00     0.051 A 
ATOM     15  C   UNL d   1      -1.809   4.633  -1.037  0.00  0.00     0.042 A 
ATOM     16  C   UNL d   1      -1.163   3.390  -1.048  0.00  0.00     0.065 A 
ATOM     17 CL   UNL d   1      -0.105   3.090  -2.390  0.00  0.00    -0.082 Cl
BRANCH  14  18
ATOM     18  C   UNL d   1      -3.432   6.297  -0.065  0.00  0.00     0.417 C 
ATOM     19  F   UNL d   1      -4.329   6.466   0.944  0.00  0.00    -0.166 F 
ATOM     20  F   UNL d   1      -2.546   7.325   0.043  0.00  0.00    -0.166 F 
ATOM     21  F   UNL d   1      -4.120   6.514  -1.219  0.00  0.00    -0.166 F 
ENDBRANCH  14  18
ENDBRANCH   1  10
BRANCH   6  22
ATOM     22  N   UNL d   1       1.551  -2.324   0.069  0.00  0.00    -0.379 N 
BRANCH  22  23
ATOM     23  C   UNL d   1       2.068  -3.123  -1.058  0.00  0.00     0.118 C 
ATOM     24  C   UNL d   1       1.710  -2.603  -2.438  0.00  0.00     0.026 C 
ENDBRANCH  22  23
BRANCH  22  25
ATOM     25  C   UNL d   1       1.792  -2.917   1.397  0.00  0.00     0.118 C 
ATOM     26  C   UNL d   1       3.062  -2.343   2.002  0.00  0.00     0.026 C 
ENDBRANCH  22  25
ENDBRANCH   6  22
TORSDOF 5
