REMARK  6 active torsions:
REMARK  status: ('A' for Active; 'I' for Inactive)
REMARK    1  A    between atoms: N_2  and  C_1 
REMARK    2  A    between atoms: C_3  and  N_6 
REMARK    3  A    between atoms: N_10  and  C_3 
REMARK    4  A    between atoms: N_8  and  C_4 
REMARK    5  A    between atoms: C_5  and  C_9 
REMARK    6  A    between atoms: C_21  and  N_10 
ROOT
ATOM      1  N   UNL d   1       1.580  -5.571   0.607  0.00  0.00    -0.356 N 
ATOM      2  N   UNL d   1       1.070  -2.622   0.080  0.00  0.00    -0.377 N 
ATOM      3  C   UNL d   1       1.091  -5.031  -0.669  0.00  0.00     0.145 C 
ATOM      4  C   UNL d   1       1.433  -3.567  -1.002  0.00  0.00     0.143 C 
ATOM      5  C   UNL d   1       1.304  -3.722   2.306  0.00  0.00     0.040 C 
ATOM      6  C   UNL d   1       0.886  -5.107   1.810  0.00  0.00     0.127 C 
ATOM      7  C   UNL d   1       1.933  -2.788   1.280  0.00  0.00     0.124 C 
ENDROOT
BRANCH   2   8
ATOM      8  C   UNL d   1       0.813  -1.261  -0.185  0.00  0.00     0.063 A 
ATOM      9  C   UNL d   1       1.168  -0.480  -1.303  0.00  0.00     0.130 A 
ATOM     10  C   UNL d   1       0.986   0.921  -1.345  0.00  0.00     0.054 A 
ATOM     11  C   UNL d   1       0.423   1.597  -0.258  0.00  0.00     0.050 A 
ATOM     12  C   UNL d   1      -0.043   0.837   0.816  0.00  0.00     0.018 A 
ATOM     13  C   UNL d   1       0.135  -0.552   0.836  0.00  0.00     0.032 A 
BRANCH   9  14
ATOM     14  N   UNL d   1       1.787  -1.030  -2.484  0.00  0.00    -0.113 N 
ATOM     15  O   UNL d   1       3.003  -1.272  -2.430  0.00  0.00    -0.532 OA
ATOM     16  O   UNL d   1       1.072  -1.163  -3.490  0.00  0.00    -0.532 OA
ENDBRANCH   9  14
BRANCH  11  17
ATOM     17  C   UNL d   1       0.352   3.102  -0.212  0.00  0.00     0.417 C 
ATOM     18  F   UNL d   1       0.890   3.703  -1.308  0.00  0.00    -0.166 F 
ATOM     19  F   UNL d   1      -0.922   3.564  -0.113  0.00  0.00    -0.166 F 
ATOM     20  F   UNL d   1       1.022   3.612   0.859  0.00  0.00    -0.166 F 
ENDBRANCH  11  17
ENDBRANCH   2   8
BRANCH   1  21
ATOM     21  C   UNL d   1       2.750  -6.285   0.692  0.00  0.00     0.174 C 
ATOM     22  S   UNL d   1       4.220  -5.756   0.075  0.00  0.00    -0.041 SA
BRANCH  21  23
ATOM     23  N   UNL d   1       2.766  -7.481   1.345  0.00  0.00    -0.333 N 
ATOM     24  H   UNL d   1       3.711  -7.811   1.511  0.00  0.00     0.168 HD
BRANCH  23  25
ATOM     25  C   UNL d   1       1.753  -8.430   1.602  0.00  0.00     0.034 A 
ATOM     26  C   UNL d   1       0.439  -8.331   1.144  0.00  0.00     0.029 A 
ATOM     27  C   UNL d   1      -0.505  -9.311   1.469  0.00  0.00     0.002 A 
ATOM     28  C   UNL d   1      -0.135 -10.415   2.232  0.00  0.00     0.000 A 
ATOM     29  C   UNL d   1       1.187 -10.555   2.645  0.00  0.00     0.002 A 
ATOM     30  C   UNL d   1       2.126  -9.570   2.326  0.00  0.00     0.029 A 
ENDBRANCH  23  25
ENDBRANCH  21  23
ENDBRANCH   1  21
TORSDOF 6
