REMARK  6 active torsions:
REMARK  status: ('A' for Active; 'I' for Inactive)
REMARK    1  A    between atoms: C_9  and  C_1 
REMARK       I    between atoms: C_7  and  N_10 
REMARK    2  A    between atoms: C_11  and  C_7 
REMARK    3  A    between atoms: C_8  and  O_14 
REMARK    4  A    between atoms: O_26  and  C_9 
REMARK    5  A    between atoms: N_10  and  C_13 
REMARK    6  A    between atoms: O_14  and  C_24 
ROOT
ATOM      1  C   UNL d   1      -1.922  -1.729  -0.087  0.00  0.00     0.112 A 
ATOM      2  N   UNL d   1      -0.564  -1.977   0.034  0.00  0.00    -0.350 N 
ATOM      3  C   UNL d   1      -2.419  -0.505  -0.319  0.00  0.00     0.091 A 
ATOM      4  C   UNL d   1      -0.037   0.362  -0.340  0.00  0.00     0.043 A 
ATOM      5  C   UNL d   1      -1.485   0.629  -0.480  0.00  0.00     0.186 A 
ATOM      6  C   UNL d   1       0.382  -0.954  -0.080  0.00  0.00     0.047 A 
ATOM      7  C   UNL d   1       0.876   1.416  -0.432  0.00  0.00     0.047 A 
ATOM      8  C   UNL d   1       2.237   1.181  -0.236  0.00  0.00     0.036 A 
ATOM      9  O   UNL d   1      -1.926   1.746  -0.713  0.00  0.00    -0.287 OA
ATOM     10  C   UNL d   1       1.747  -1.192   0.085  0.00  0.00     0.033 A 
ATOM     11  C   UNL d   1       2.664  -0.130   0.013  0.00  0.00     0.032 A 
ATOM     12  H   UNL d   1      -0.287  -2.941   0.192  0.00  0.00     0.166 HD
ENDROOT
BRANCH   8  13
ATOM     13  N   UNL d   1       3.212   2.207  -0.217  0.00  0.00    -0.323 N 
ATOM     14  C   UNL d   1       2.984   3.562  -0.397  0.00  0.00     0.256 C 
ATOM     15  O   UNL d   1       1.929   4.088  -0.734  0.00  0.00    -0.267 OA
ATOM     16  H   UNL d   1       4.140   1.923   0.059  0.00  0.00     0.169 HD
BRANCH  14  17
ATOM     17  C   UNL d   1       4.134   4.461  -0.091  0.00  0.00     0.032 A 
ATOM     18  C   UNL d   1       5.464   4.113  -0.336  0.00  0.00     0.020 A 
ATOM     19  C   UNL d   1       6.497   5.010  -0.016  0.00  0.00     0.038 A 
ATOM     20  C   UNL d   1       6.202   6.268   0.512  0.00  0.00     0.078 A 
ATOM     21  C   UNL d   1       4.868   6.604   0.764  0.00  0.00     0.038 A 
ATOM     22  C   UNL d   1       3.838   5.714   0.458  0.00  0.00     0.020 A 
BRANCH  20  23
ATOM     23  O   UNL d   1       7.079   7.263   0.819  0.00  0.00    -0.255 OA
BRANCH  23  24
ATOM     24  C   UNL d   1       8.422   7.182   0.379  0.00  0.00     0.530 C 
ATOM     25  F   UNL d   1       8.541   6.609  -0.840  0.00  0.00    -0.144 F 
ATOM     26  F   UNL d   1       8.918   8.436   0.293  0.00  0.00    -0.144 F 
ATOM     27  F   UNL d   1       9.162   6.492   1.271  0.00  0.00    -0.144 F 
ENDBRANCH  23  24
ENDBRANCH  20  23
ENDBRANCH  14  17
ENDBRANCH   8  13
BRANCH   1  28
ATOM     28  C   UNL d   1      -2.856  -2.894   0.054  0.00  0.00     0.309 C 
ATOM     29  O   UNL d   1      -2.456  -4.033   0.261  0.00  0.00    -0.258 OA
BRANCH  28  30
ATOM     30  O   UNL d   1      -4.150  -2.517  -0.096  0.00  0.00    -0.321 OA
ATOM     31  C   UNL d   1      -5.102  -3.578  -0.044  0.00  0.00     0.213 C 
ENDBRANCH  28  30
ENDBRANCH   1  28
TORSDOF 6
