REMARK  6 active torsions:
REMARK  status: ('A' for Active; 'I' for Inactive)
REMARK    1  A    between atoms: N_6  and  C_1 
REMARK    2  A    between atoms: N_4  and  C_2 
REMARK    3  A    between atoms: N_5  and  C_3 
REMARK    4  A    between atoms: C_11  and  N_6 
REMARK    5  A    between atoms: C_7  and  C_8 
REMARK    6  A    between atoms: N_20  and  C_16 
ROOT
ATOM      1  C   UNL d   1       1.319  -0.370   0.158  0.00  0.00     0.099 A 
ATOM      2  C   UNL d   1       0.311  -1.355   0.197  0.00  0.00     0.132 A 
ATOM      3  C   UNL d   1       0.860   0.956  -0.026  0.00  0.00     0.132 A 
ATOM      4  C   UNL d   1      -1.481   0.293  -0.087  0.00  0.00     0.052 A 
ATOM      5  C   UNL d   1      -0.504   1.292  -0.144  0.00  0.00     0.054 A 
ATOM      6  C   UNL d   1      -1.062  -1.034   0.080  0.00  0.00     0.054 A 
ENDROOT
BRANCH   1   7
ATOM      7  N   UNL d   1       2.696  -0.650   0.219  0.00  0.00    -0.350 N 
ATOM      8  H   UNL d   1       3.272   0.094   0.615  0.00  0.00     0.166 HD
BRANCH   7   9
ATOM      9  C   UNL d   1       3.499  -1.567  -0.509  0.00  0.00     0.059 A 
ATOM     10  C   UNL d   1       4.751  -1.955   0.025  0.00  0.00     0.052 A 
ATOM     11  C   UNL d   1       5.506  -2.931  -0.640  0.00  0.00     0.031 A 
ATOM     12  C   UNL d   1       5.071  -3.472  -1.849  0.00  0.00     0.002 A 
ATOM     13  C   UNL d   1       3.857  -3.065  -2.392  0.00  0.00     0.002 A 
ATOM     14  C   UNL d   1       3.068  -2.128  -1.720  0.00  0.00     0.032 A 
BRANCH  10  15
ATOM     15  N   UNL d   1       5.156  -1.568   1.317  0.00  0.00    -0.397 N 
ATOM     16  H   UNL d   1       4.706  -0.749   1.702  0.00  0.00     0.156 HD
ATOM     17  H   UNL d   1       6.150  -1.609   1.484  0.00  0.00     0.156 HD
ENDBRANCH  10  15
ENDBRANCH   7   9
ENDBRANCH   1   7
BRANCH   2  18
ATOM     18  N   UNL d   1       0.616  -2.760   0.468  0.00  0.00    -0.113 N 
ATOM     19  O   UNL d   1       1.381  -3.021   1.404  0.00  0.00    -0.532 OA
ATOM     20  O   UNL d   1      -0.004  -3.597  -0.208  0.00  0.00    -0.532 OA
ENDBRANCH   2  18
BRANCH   3  21
ATOM     21  N   UNL d   1       1.817   2.054  -0.109  0.00  0.00    -0.113 N 
ATOM     22  O   UNL d   1       2.736   2.069   0.724  0.00  0.00    -0.532 OA
ATOM     23  O   UNL d   1       1.637   2.896  -0.996  0.00  0.00    -0.532 OA
ENDBRANCH   3  21
BRANCH   4  24
ATOM     24  C   UNL d   1      -2.955   0.618  -0.187  0.00  0.00     0.417 C 
ATOM     25  F   UNL d   1      -3.205   1.949  -0.297  0.00  0.00    -0.166 F 
ATOM     26  F   UNL d   1      -3.540   0.029  -1.262  0.00  0.00    -0.166 F 
ATOM     27  F   UNL d   1      -3.646   0.193   0.904  0.00  0.00    -0.166 F 
ENDBRANCH   4  24
TORSDOF 6
