REMARK  5 active torsions:
REMARK  status: ('A' for Active; 'I' for Inactive)
REMARK    1  A    between atoms: C_3  and  C_1 
REMARK       I    between atoms: N_4  and  C_1 
REMARK    2  A    between atoms: C_5  and  C_2 
REMARK    3  A    between atoms: C_6  and  N_4 
REMARK       I    between atoms: N_7  and  C_5 
REMARK    4  A    between atoms: C_16  and  N_7 
REMARK    5  A    between atoms: C_9  and  C_16 
ROOT
ATOM      1  C   UNL d   1      -1.942   1.173  -0.458  0.00  0.00     0.058 A 
ATOM      2  C   UNL d   1      -1.128   0.497  -1.387  0.00  0.00     0.050 A 
ATOM      3  C   UNL d   1      -3.339   1.142  -0.594  0.00  0.00     0.019 A 
ATOM      4  C   UNL d   1      -1.738  -0.176  -2.455  0.00  0.00     0.030 A 
ATOM      5  C   UNL d   1      -3.929   0.457  -1.656  0.00  0.00     0.001 A 
ATOM      6  C   UNL d   1      -3.128  -0.197  -2.588  0.00  0.00     0.002 A 
ENDROOT
BRANCH   2   7
ATOM      7  N   UNL d   1       0.273   0.414  -1.188  0.00  0.00    -0.322 N 
ATOM      8  C   UNL d   1       1.210   0.202  -2.171  0.00  0.00     0.257 C 
ATOM      9  O   UNL d   1       0.965   0.344  -3.371  0.00  0.00    -0.267 OA
ATOM     10  H   UNL d   1       0.605   0.600  -0.244  0.00  0.00     0.169 HD
BRANCH   8  11
ATOM     11  C   UNL d   1       2.591  -0.216  -1.770  0.00  0.00     0.054 A 
ATOM     12  C   UNL d   1       3.077  -0.386  -0.464  0.00  0.00     0.049 A 
ATOM     13 CL   UNL d   1       2.205   0.029   0.970  0.00  0.00    -0.083 Cl
ATOM     14  C   UNL d   1       4.359  -0.920  -0.256  0.00  0.00     0.025 A 
ATOM     15  C   UNL d   1       5.173  -1.271  -1.333  0.00  0.00     0.002 A 
ATOM     16  C   UNL d   1       4.721  -1.071  -2.630  0.00  0.00     0.001 A 
ATOM     17  C   UNL d   1       3.446  -0.547  -2.844  0.00  0.00     0.019 A 
ENDBRANCH   8  11
ENDBRANCH   2   7
BRANCH   1  18
ATOM     18  C   UNL d   1      -1.386   2.003   0.647  0.00  0.00     0.254 C 
ATOM     19  N   UNL d   1      -0.210   2.666   0.362  0.00  0.00    -0.352 N 
ATOM     20  H   UNL d   1       0.063   2.743  -0.613  0.00  0.00     0.163 HD
ATOM     21  O   UNL d   1      -1.980   2.110   1.713  0.00  0.00    -0.268 OA
BRANCH  19  22
ATOM     22  C   UNL d   1       0.320   3.648   1.276  0.00  0.00     0.169 C 
BRANCH  22  23
ATOM     23  C   UNL d   1       1.653   4.120   0.786  0.00  0.00     0.000 A 
ATOM     24  S   UNL d   1       1.787   4.953  -0.711  0.00  0.00    -0.105 SA
ATOM     25  C   UNL d   1       3.469   5.178  -0.512  0.00  0.00     0.050 A 
ATOM     26  C   UNL d   1       3.928   4.631   0.665  0.00  0.00     0.008 A 
ATOM     27  C   UNL d   1       2.882   4.012   1.409  0.00  0.00     0.017 A 
ENDBRANCH  22  23
ENDBRANCH  19  22
ENDBRANCH   1  18
TORSDOF 5
