REMARK  6 active torsions:
REMARK  status: ('A' for Active; 'I' for Inactive)
REMARK    1  A    between atoms: C_6  and  C_1 
REMARK    2  A    between atoms: C_9  and  C_2 
REMARK    3  A    between atoms: S_5  and  C_11 
REMARK    4  A    between atoms: C_10  and  S_5 
REMARK       I    between atoms: N_17  and  C_9 
REMARK    5  A    between atoms: C_11  and  C_20 
REMARK    6  A    between atoms: C_20  and  N_17 
ROOT
ATOM      1  C   UNL d   1       0.378  -2.695  -0.421  0.00  0.00     0.256 C 
ATOM      2  O   UNL d   1      -0.464  -3.510  -0.784  0.00  0.00    -0.267 OA
ATOM      3  N   UNL d   1       1.707  -3.026  -0.203  0.00  0.00    -0.356 N 
ATOM      4  H   UNL d   1       2.229  -2.381   0.378  0.00  0.00     0.162 HD
ENDROOT
BRANCH   1   5
ATOM      5  C   UNL d   1       0.043  -1.327  -0.089  0.00  0.00     0.092 A 
ATOM      6  C   UNL d   1      -1.104  -0.830   0.617  0.00  0.00     0.086 A 
ATOM      7  N   UNL d   1      -1.010   0.502   0.760  0.00  0.00    -0.259 N 
ATOM      8  O   UNL d   1       0.129   0.893   0.101  0.00  0.00    -0.241 OA
ATOM      9  HN  UNL d   1      -1.660   1.107   1.263  1.00  0.00     0.195 HD
ATOM     10  C   UNL d   1       0.765  -0.193  -0.403  0.00  0.00     0.090 A 
ATOM     11  C   UNL d   1       2.001   0.101  -1.156  0.00  0.00     0.080 C 
BRANCH   6  12
ATOM     12  C   UNL d   1      -2.242  -1.559   1.196  0.00  0.00     0.037 A 
ATOM     13  C   UNL d   1      -2.053  -2.658   2.059  0.00  0.00     0.048 A 
ATOM     14 CL   UNL d   1      -0.495  -3.142   2.652  0.00  0.00    -0.083 Cl
ATOM     15  C   UNL d   1      -3.144  -3.384   2.559  0.00  0.00     0.025 A 
ATOM     16  C   UNL d   1      -4.446  -2.993   2.268  0.00  0.00     0.003 A 
ATOM     17  C   UNL d   1      -4.659  -1.874   1.472  0.00  0.00     0.025 A 
ATOM     18  C   UNL d   1      -3.574  -1.170   0.926  0.00  0.00     0.048 A 
ATOM     19 CL   UNL d   1      -3.990   0.169  -0.096  0.00  0.00    -0.083 Cl
ENDBRANCH   6  12
ENDBRANCH   1   5
BRANCH   3  20
ATOM     20  C   UNL d   1       2.111  -4.425  -0.187  0.00  0.00     0.138 C 
BRANCH  20  21
ATOM     21  C   UNL d   1       3.618  -4.588  -0.160  0.00  0.00     0.165 C 
BRANCH  21  22
ATOM     22  S   UNL d   1       4.121  -6.287  -0.079  0.00  0.00     0.177 S 
ATOM     23  O   UNL d   1       5.569  -6.319  -0.140  0.00  0.00    -0.223 OA
ATOM     24  O   UNL d   1       3.424  -6.915   1.029  0.00  0.00    -0.223 OA
BRANCH  22  25
ATOM     25  C   UNL d   1       3.515  -7.013  -1.584  0.00  0.00     0.059 A 
ATOM     26  C   UNL d   1       4.308  -6.982  -2.730  0.00  0.00     0.024 A 
ATOM     27  C   UNL d   1       3.825  -7.548  -3.915  0.00  0.00     0.008 A 
ATOM     28  C   UNL d   1       2.556  -8.145  -3.948  0.00  0.00    -0.062 A 
ATOM     29  C   UNL d   1       1.786  -8.191  -2.782  0.00  0.00     0.008 A 
ATOM     30  C   UNL d   1       2.049  -8.746  -5.227  0.00  0.00     0.048 C 
ATOM     31  C   UNL d   1       2.265  -7.637  -1.593  0.00  0.00     0.024 A 
ENDBRANCH  22  25
ENDBRANCH  21  22
ENDBRANCH  20  21
ENDBRANCH   3  20
TORSDOF 6
