REMARK  6 active torsions:
REMARK  status: ('A' for Active; 'I' for Inactive)
REMARK    1  A    between atoms: C_2  and  S_1 
REMARK    2  A    between atoms: N_4  and  S_1 
REMARK    3  A    between atoms: C_11  and  C_3 
REMARK    4  A    between atoms: C_5  and  N_10 
REMARK    5  A    between atoms: C_6  and  C_7 
REMARK    6  A    between atoms: O_29  and  C_11 
ROOT
ATOM      1  N   UNL d   1       0.470  -0.680   1.336  0.00  0.00    -0.203 NA
ATOM      2  N   UNL d   1       1.484  -3.298   2.014  0.00  0.00    -0.364 N 
ATOM      3  C   UNL d   1       1.528  -0.875   2.393  0.00  0.00     0.127 C 
ATOM      4  C   UNL d   1      -0.336  -1.944   1.149  0.00  0.00     0.127 C 
ATOM      5  C   UNL d   1       0.565  -3.168   0.873  0.00  0.00     0.140 C 
ATOM      6  C   UNL d   1       2.389  -2.146   2.146  0.00  0.00     0.140 C 
ENDROOT
BRANCH   1   7
ATOM      7  S   UNL d   1       0.976   0.060  -0.096  0.00  0.00     0.245 S 
ATOM      8  O   UNL d   1       2.402  -0.152  -0.227  0.00  0.00    -0.206 OA
ATOM      9  O   UNL d   1       0.080  -0.266  -1.185  0.00  0.00    -0.206 OA
BRANCH   7  10
ATOM     10  C   UNL d   1       0.837   1.799   0.021  0.00  0.00     0.099 C 
ATOM     11  C   UNL d   1      -0.341   2.535   0.069  0.00  0.00     0.101 C 
ATOM     12  S   UNL d   1      -0.008   4.218  -0.149  0.00  0.00    -0.094 SA
ATOM     13  C   UNL d   1       1.675   3.975  -0.138  0.00  0.00     0.052 C 
ATOM     14  C   UNL d   1       1.994   2.645  -0.004  0.00  0.00     0.033 C 
BRANCH  11  15
ATOM     15  C   UNL d   1      -1.710   2.093   0.248  0.00  0.00     0.184 C 
ATOM     16  O   UNL d   1      -2.074   0.940   0.461  0.00  0.00    -0.646 OA
BRANCH  15  17
ATOM     17  O   UNL d   1      -2.611   3.113   0.228  0.00  0.00    -0.772 OA
ATOM     18  H   UNL d   1      -2.186   3.981   0.090  0.00  0.00     0.167 HD
ENDBRANCH  15  17
ENDBRANCH  11  15
ENDBRANCH   7  10
ENDBRANCH   1   7
BRANCH   2  19
ATOM     19  C   UNL d   1       1.994  -4.564   2.275  0.00  0.00     0.125 A 
ATOM     20  N   UNL d   1       2.122  -5.439   1.246  0.00  0.00    -0.350 N 
ATOM     21  C   UNL d   1       2.463  -6.725   1.523  0.00  0.00     0.106 A 
ATOM     22  HN  UNL d   1       1.965  -5.138   0.284  1.00  0.00     0.166 HD
ATOM     23  C   UNL d   1       2.674  -7.215   2.801  0.00  0.00     0.065 A 
ATOM     24  C   UNL d   1       2.569  -6.309   3.856  0.00  0.00     0.045 A 
ATOM     25  C   UNL d   1       2.233  -4.980   3.599  0.00  0.00     0.078 A 
ATOM     26 CL   UNL d   1       1.996  -3.945   4.967  0.00  0.00    -0.080 Cl
BRANCH  23  27
ATOM     27  C   UNL d   1       2.958  -8.667   3.022  0.00  0.00     0.418 C 
ATOM     28  F   UNL d   1       3.089  -8.995   4.339  0.00  0.00    -0.166 F 
ATOM     29  F   UNL d   1       1.973  -9.471   2.538  0.00  0.00    -0.166 F 
ATOM     30  F   UNL d   1       4.108  -9.075   2.421  0.00  0.00    -0.166 F 
ENDBRANCH  23  27
ENDBRANCH   2  19
TORSDOF 6
