REMARK  3 active torsions:
REMARK  status: ('A' for Active; 'I' for Inactive)
REMARK    1  A    between atoms: C_3  and  N_1 
REMARK    2  A    between atoms: C_8  and  C_6 
REMARK    3  A    between atoms: C_11  and  C_7 
ROOT
ATOM      1  C   UNL d   1       4.739   2.976  -1.932  0.00  0.00    -0.026 A 
ATOM      2  C   UNL d   1       3.480   3.325  -1.407  0.00  0.00     0.013 A 
ATOM      3  C   UNL d   1       5.128   1.627  -1.833  0.00  0.00     0.013 A 
ATOM      4  C   UNL d   1       3.062   1.046  -0.716  0.00  0.00    -0.021 A 
ATOM      5  C   UNL d   1       4.298   0.668  -1.238  0.00  0.00     0.013 A 
ATOM      6  C   UNL d   1       2.648   2.375  -0.800  0.00  0.00     0.013 A 
ENDROOT
BRANCH   1   7
ATOM      7  C   UNL d   1       5.627   3.989  -2.553  0.00  0.00    -0.026 A 
ATOM      8  C   UNL d   1       5.712   5.299  -2.045  0.00  0.00     0.012 A 
ATOM      9  C   UNL d   1       6.557   6.253  -2.621  0.00  0.00     0.001 A 
ATOM     10  C   UNL d   1       7.348   5.916  -3.714  0.00  0.00     0.000 A 
ATOM     11  C   UNL d   1       7.285   4.628  -4.237  0.00  0.00     0.001 A 
ATOM     12  C   UNL d   1       6.430   3.679  -3.666  0.00  0.00     0.012 A 
ENDBRANCH   1   7
BRANCH   4  13
ATOM     13  C   UNL d   1       2.174   0.055  -0.080  0.00  0.00     0.094 C 
ATOM     14  N   UNL d   1       2.507  -1.190   0.025  0.00  0.00    -0.393 N 
ATOM     15  HN  UNL d   1       3.405  -1.532  -0.318  1.00  0.00     0.159 HD
BRANCH  14  16
ATOM     16  C   UNL d   1       1.561  -2.066   0.644  0.00  0.00     0.081 A 
ATOM     17  C   UNL d   1       2.139  -3.199   1.447  0.00  0.00     0.027 A 
ATOM     18  C   UNL d   1       1.543  -3.471   0.104  0.00  0.00     0.027 A 
ENDBRANCH  14  16
ENDBRANCH   4  13
TORSDOF 3
