REMARK  3 active torsions:
REMARK  status: ('A' for Active; 'I' for Inactive)
REMARK    1  A    between atoms: S_10  and  C_2 
REMARK    2  A    between atoms: O_11  and  C_3 
REMARK    3  A    between atoms: C_13  and  S_10 
ROOT
ATOM      1  N   UNL d   1       6.126  -1.343   0.911  0.00  0.00    -0.197 NA
ATOM      2  C   UNL d   1       5.040  -0.939   0.860  0.00  0.00     0.069 C 
ATOM      3  C   UNL d   1       3.664  -0.420   0.806  0.00  0.00     0.206 C 
ENDROOT
BRANCH   3   4
ATOM      4  S   UNL d   1       2.508  -1.650   0.115  0.00  0.00    -0.078 SA
BRANCH   4   5
ATOM      5  C   UNL d   1       1.054  -0.719   0.090  0.00  0.00     0.165 A 
ATOM      6  N   UNL d   1      -0.205  -1.249   0.023  0.00  0.00    -0.296 N 
ATOM      7  C   UNL d   1      -1.046  -0.166   0.029  0.00  0.00     0.240 A 
ATOM      8  C   UNL d   1      -0.605  -2.630  -0.014  0.00  0.00     0.162 C 
ATOM      9  N   UNL d   1      -0.346   0.941   0.093  0.00  0.00    -0.263 N 
ATOM     10  N   UNL d   1       0.985   0.592   0.135  0.00  0.00    -0.277 N 
ATOM     11  HN  UNL d   1      -0.720   1.889   0.109  1.00  0.00     0.190 HD
ATOM     12  HN  UNL d   1       1.774   1.235   0.190  1.00  0.00     0.189 HD
BRANCH   7  13
ATOM     13  O   UNL d   1      -2.369  -0.194  -0.010  0.00  0.00    -0.331 OA
ATOM     14  H   UNL d   1      -2.680  -1.110  -0.039  0.00  0.00     0.221 HD
ENDBRANCH   7  13
ENDBRANCH   4   5
ENDBRANCH   3   4
TORSDOF 3
