REMARK  3 active torsions:
REMARK  status: ('A' for Active; 'I' for Inactive)
REMARK    1  A    between atoms: S_9  and  C_1 
REMARK    2  A    between atoms: C_13  and  S_9 
REMARK    3  A    between atoms: C_10  and  C_13 
ROOT
ATOM      1  N   UNL d   1      -2.846  -5.314   3.466  0.00  0.00    -0.197 NA
ATOM      2  C   UNL d   1      -2.923  -4.282   2.940  0.00  0.00     0.059 C 
ATOM      3  C   UNL d   1      -3.032  -2.974   2.280  0.00  0.00     0.134 C 
ENDROOT
BRANCH   3   4
ATOM      4  C   UNL d   1      -3.413  -3.146   0.812  0.00  0.00     0.095 C 
BRANCH   4   5
ATOM      5  S   UNL d   1      -3.678  -1.545  -0.017  0.00  0.00    -0.104 SA
BRANCH   5   6
ATOM      6  C   UNL d   1      -2.056  -0.884  -0.028  0.00  0.00     0.113 A 
ATOM      7  N   UNL d   1      -0.997  -1.656   0.020  0.00  0.00    -0.344 N 
ATOM      8  C   UNL d   1       0.148  -0.873   0.005  0.00  0.00     0.050 A 
ATOM      9  HN  UNL d   1      -1.013  -2.675   0.061  1.00  0.00     0.167 HD
ATOM     10  C   UNL d   1       1.475  -1.348   0.025  0.00  0.00     0.031 A 
ATOM     11  C   UNL d   1      -0.070   0.506  -0.026  0.00  0.00     0.034 A 
ATOM     12  C   UNL d   1       2.540  -0.440   0.021  0.00  0.00     0.002 A 
ATOM     13  C   UNL d   1       2.298   0.930   0.001  0.00  0.00     0.002 A 
ATOM     14  C   UNL d   1       0.992   1.427  -0.023  0.00  0.00     0.021 A 
ATOM     15  S   UNL d   1      -1.766   0.801  -0.071  0.00  0.00    -0.063 SA
ENDBRANCH   5   6
ENDBRANCH   4   5
ENDBRANCH   3   4
TORSDOF 3
