REMARK  1 active torsions:
REMARK  status: ('A' for Active; 'I' for Inactive)
REMARK    1  A    between atoms: C_6  and  C_10 
ROOT
ATOM      1  C   UNL d   1       1.761  -0.732  -0.066  0.00  0.00     0.106 A 
ATOM      2  C   UNL d   1       0.970  -1.909  -0.320  0.00  0.00     0.266 C 
ATOM      3  C   UNL d   1       1.462   0.602  -0.212  0.00  0.00     0.099 A 
ATOM      4  N   UNL d   1      -0.399  -1.829  -0.374  0.00  0.00    -0.320 N 
ATOM      5  O   UNL d   1       0.287   1.100  -0.639  0.00  0.00    -0.307 OA
ATOM      6  C   UNL d   1      -1.260  -0.750  -0.145  0.00  0.00     0.070 A 
ATOM      7  C   UNL d   1      -0.912   0.598  -0.213  0.00  0.00     0.102 A 
ATOM      8  S   UNL d   1       3.378  -0.934   0.494  0.00  0.00    -0.094 SA
ATOM      9  C   UNL d   1      -3.537  -0.113   0.515  0.00  0.00     0.050 A 
ATOM     10  C   UNL d   1       2.575   1.452   0.047  0.00  0.00     0.046 A 
ATOM     11  C   UNL d   1      -2.584  -1.092   0.185  0.00  0.00     0.048 A 
ATOM     12  C   UNL d   1       3.677   0.746   0.470  0.00  0.00     0.053 A 
ATOM     13  O   UNL d   1       1.446  -3.043  -0.448  0.00  0.00    -0.267 OA
ATOM     14  C   UNL d   1      -1.867   1.582   0.078  0.00  0.00     0.040 A 
ATOM     15  C   UNL d   1      -3.162   1.233   0.459  0.00  0.00     0.019 A 
ATOM     16  H   UNL d   1      -0.803  -2.757  -0.430  0.00  0.00     0.169 HD
ENDROOT
BRANCH   9  17
ATOM     17  C   UNL d   1      -4.927  -0.498   0.954  0.00  0.00     0.417 C 
ATOM     18  F   UNL d   1      -5.171  -1.835   0.878  0.00  0.00    -0.166 F 
ATOM     19  F   UNL d   1      -5.173  -0.147   2.248  0.00  0.00    -0.166 F 
ATOM     20  F   UNL d   1      -5.896   0.103   0.211  0.00  0.00    -0.166 F 
ENDBRANCH   9  17
TORSDOF 1
