REMARK  11 active torsions:
REMARK  status: ('A' for Active; 'I' for Inactive)
REMARK    1  A    between atoms: N_2  and  C_1 
REMARK    2  A    between atoms: C_3  and  C_1 
REMARK    3  A    between atoms: C_4  and  C_1 
REMARK    4  A    between atoms: N_6  and  C_1 
REMARK       I    between atoms: C_5  and  N_2 
REMARK    5  A    between atoms: O_18  and  C_5 
REMARK    6  A    between atoms: C_22  and  N_6 
REMARK    7  A    between atoms: O_21  and  C_7 
REMARK    8  A    between atoms: O_23  and  C_8 
REMARK    9  A    between atoms: C_25  and  O_18 
REMARK   10  A    between atoms: C_19  and  C_24 
REMARK   11  A    between atoms: C_24  and  C_22 
ROOT
ATOM      1  C   UNL d   1       0.868  -0.042   0.020  0.00  0.00     0.427 C 
ENDROOT
BRANCH   1   2
ATOM      2  N   UNL d   1       0.426   0.993  -0.920  0.00  0.00    -0.286 N 
ATOM      3  C   UNL d   1      -0.872   1.163  -1.235  0.00  0.00     0.363 C 
ATOM      4  O   UNL d   1      -1.785   0.523  -0.722  0.00  0.00    -0.238 OA
ATOM      5  H   UNL d   1       1.109   1.577  -1.373  0.00  0.00     0.168 HD
BRANCH   3   6
ATOM      6  O   UNL d   1      -0.975   2.050  -2.241  0.00  0.00    -0.304 OA
BRANCH   6   7
ATOM      7  C   UNL d   1      -2.235   2.058  -2.924  0.00  0.00     0.176 C 
ATOM      8  C   UNL d   1      -2.224   0.964  -3.978  0.00  0.00     0.034 C 
ENDBRANCH   6   7
ENDBRANCH   3   6
ENDBRANCH   1   2
BRANCH   1   9
ATOM      9  C   UNL d   1       0.299  -1.483  -0.291  0.00  0.00     0.452 C 
ATOM     10  F   UNL d   1       0.040  -1.620  -1.622  0.00  0.00    -0.166 F 
ATOM     11  F   UNL d   1       1.236  -2.431  -0.002  0.00  0.00    -0.166 F 
ATOM     12  F   UNL d   1      -0.822  -1.843   0.356  0.00  0.00    -0.166 F 
ENDBRANCH   1   9
BRANCH   1  13
ATOM     13  C   UNL d   1       0.450   0.290   1.509  0.00  0.00     0.452 C 
ATOM     14  F   UNL d   1      -0.133   1.515   1.603  0.00  0.00    -0.166 F 
ATOM     15  F   UNL d   1      -0.371  -0.587   2.111  0.00  0.00    -0.166 F 
ATOM     16  F   UNL d   1       1.561   0.356   2.303  0.00  0.00    -0.166 F 
ENDBRANCH   1  13
BRANCH   1  17
ATOM     17  N   UNL d   1       2.381   0.083  -0.136  0.00  0.00     0.132 N 
ATOM     18  H   UNL d   1       2.803  -0.469   0.621  0.00  0.00     0.320 HD
BRANCH  17  19
ATOM     19  C   UNL d   1       2.920  -0.388  -1.418  0.00  0.00     0.278 C 
BRANCH  19  20
ATOM     20  C   UNL d   1       4.457  -0.326  -1.407  0.00  0.00     0.068 C 
BRANCH  20  21
ATOM     21  C   UNL d   1       5.001  -0.728  -2.757  0.00  0.00    -0.054 A 
ATOM     22  C   UNL d   1       5.265  -2.077  -3.042  0.00  0.00     0.046 A 
ATOM     23  C   UNL d   1       5.691  -2.484  -4.316  0.00  0.00     0.102 A 
ATOM     24  C   UNL d   1       5.833  -1.513  -5.322  0.00  0.00     0.101 A 
ATOM     25  C   UNL d   1       5.600  -0.164  -5.025  0.00  0.00     0.040 A 
ATOM     26  C   UNL d   1       5.181   0.230  -3.757  0.00  0.00     0.010 A 
BRANCH  23  27
ATOM     27  O   UNL d   1       5.996  -3.781  -4.628  0.00  0.00    -0.353 OA
ATOM     28  C   UNL d   1       5.895  -4.759  -3.602  0.00  0.00     0.210 C 
ENDBRANCH  23  27
BRANCH  24  29
ATOM     29  O   UNL d   1       6.237  -1.719  -6.617  0.00  0.00    -0.353 OA
ATOM     30  C   UNL d   1       5.829  -2.940  -7.222  0.00  0.00     0.210 C 
ENDBRANCH  24  29
ENDBRANCH  20  21
ENDBRANCH  19  20
ENDBRANCH  17  19
ENDBRANCH   1  17
TORSDOF 11
