REMARK  5 active torsions:
REMARK  status: ('A' for Active; 'I' for Inactive)
REMARK    1  A    between atoms: C_2  and  S_1 
REMARK    2  A    between atoms: N_7  and  S_1 
REMARK    3  A    between atoms: C_3  and  C_6 
REMARK    4  A    between atoms: C_4  and  C_5 
REMARK    5  A    between atoms: C_13  and  N_7 
ROOT
ATOM      1  C   UNL d   1       0.574   1.254   1.001  0.00  0.00     0.081 A 
ATOM      2  C   UNL d   1      -0.122   2.102   3.173  0.00  0.00     0.050 A 
ATOM      3  C   UNL d   1       0.619   3.649   1.420  0.00  0.00     0.050 A 
ATOM      4  C   UNL d   1       0.102   1.024   2.300  0.00  0.00     0.041 A 
ATOM      5  C   UNL d   1       0.832   2.558   0.561  0.00  0.00     0.041 A 
ATOM      6  C   UNL d   1       0.132   3.408   2.718  0.00  0.00     0.032 A 
ENDROOT
BRANCH   1   7
ATOM      7  S   UNL d   1       1.058  -0.132  -0.019  0.00  0.00     0.263 S 
ATOM      8  O   UNL d   1       1.417  -1.210   0.882  0.00  0.00    -0.200 OA
ATOM      9  O   UNL d   1       1.989   0.352  -1.012  0.00  0.00    -0.200 OA
BRANCH   7  10
ATOM     10  N   UNL d   1      -0.353  -0.611  -0.775  0.00  0.00    -0.279 N 
ATOM     11  H   UNL d   1      -0.820  -1.436  -0.404  0.00  0.00     0.179 HD
BRANCH  10  12
ATOM     12  C   UNL d   1      -1.020   0.253  -1.674  0.00  0.00     0.058 A 
ATOM     13  C   UNL d   1      -2.106   1.014  -1.263  0.00  0.00     0.117 A 
ATOM     14  N   UNL d   1      -2.774   1.869  -2.070  0.00  0.00    -0.373 N 
ATOM     15  C   UNL d   1      -2.345   1.953  -3.349  0.00  0.00     0.088 A 
ATOM     16  HN  UNL d   1      -3.560   2.423  -1.731  1.00  0.00     0.164 HD
ATOM     17  C   UNL d   1      -1.283   1.218  -3.856  0.00  0.00     0.019 A 
ATOM     18  C   UNL d   1      -0.606   0.354  -2.998  0.00  0.00     0.033 A 
ENDBRANCH  10  12
ENDBRANCH   7  10
ENDBRANCH   1   7
BRANCH   2  19
ATOM     19  C   UNL d   1      -0.572   1.881   4.602  0.00  0.00     0.417 C 
ATOM     20  F   UNL d   1      -0.737   0.569   4.921  0.00  0.00    -0.166 F 
ATOM     21  F   UNL d   1       0.315   2.381   5.505  0.00  0.00    -0.166 F 
ATOM     22  F   UNL d   1      -1.762   2.485   4.869  0.00  0.00    -0.166 F 
ENDBRANCH   2  19
BRANCH   3  23
ATOM     23  C   UNL d   1       0.959   5.062   0.996  0.00  0.00     0.417 C 
ATOM     24  F   UNL d   1       1.481   5.144  -0.258  0.00  0.00    -0.166 F 
ATOM     25  F   UNL d   1      -0.124   5.884   1.011  0.00  0.00    -0.166 F 
ATOM     26  F   UNL d   1       1.877   5.636   1.823  0.00  0.00    -0.166 F 
ENDBRANCH   3  23
TORSDOF 5
