REMARK  3 active torsions:
REMARK  status: ('A' for Active; 'I' for Inactive)
REMARK    1  A    between atoms: C_14  and  C_7 
REMARK    2  A    between atoms: O_13  and  C_10 
REMARK    3  A    between atoms: C_17  and  O_13 
ROOT
ATOM      1  N   UNL d   1      -4.955   2.788  -0.837  0.00  0.00    -0.346 N 
ATOM      2  HN  UNL d   1      -5.832   3.022  -0.372  1.00  0.00     0.167 HD
ATOM      3  C   UNL d   1      -4.407   3.604  -1.768  0.00  0.00     0.147 A 
ATOM      4  C   UNL d   1      -3.067   1.302  -1.117  0.00  0.00    -0.019 A 
ATOM      5  C   UNL d   1      -4.289   1.651  -0.553  0.00  0.00     0.101 A 
ATOM      6  C   UNL d   1      -3.182   3.360  -2.370  0.00  0.00     0.057 A 
ATOM      7  C   UNL d   1      -2.504   2.185  -2.038  0.00  0.00     0.017 A 
ENDROOT
BRANCH   4   8
ATOM      8  C   UNL d   1      -2.402   0.061  -0.719  0.00  0.00     0.036 C 
ATOM      9  C   UNL d   1      -2.577  -1.157  -1.270  0.00  0.00     0.115 C 
ATOM     10  C   UNL d   1      -1.910  -2.288  -0.613  0.00  0.00     0.302 C 
ATOM     11  C   UNL d   1      -3.425  -1.412  -2.440  0.00  0.00     0.302 C 
ATOM     12  O   UNL d   1      -2.465  -3.494  -0.845  0.00  0.00    -0.280 OA
ATOM     13  O   UNL d   1      -0.926  -2.161   0.110  0.00  0.00    -0.259 OA
ATOM     14  C   UNL d   1      -3.782  -3.536  -1.397  0.00  0.00     0.175 C 
ATOM     15  O   UNL d   1      -3.958  -2.649  -2.501  0.00  0.00    -0.280 OA
ATOM     16  C   UNL d   1      -4.831  -3.263  -0.312  0.00  0.00     0.080 C 
ATOM     17  C   UNL d   1      -3.983  -4.949  -1.944  0.00  0.00     0.080 C 
ATOM     18  O   UNL d   1      -3.632  -0.588  -3.321  0.00  0.00    -0.259 OA
ENDBRANCH   4   8
BRANCH   3  19
ATOM     19  O   UNL d   1      -5.104   4.742  -2.165  0.00  0.00    -0.294 OA
BRANCH  19  20
ATOM     20  C   UNL d   1      -6.481   4.665  -2.122  0.00  0.00     0.077 A 
ATOM     21  C   UNL d   1      -7.182   5.789  -1.686  0.00  0.00     0.037 A 
ATOM     22  C   UNL d   1      -8.576   5.740  -1.586  0.00  0.00     0.003 A 
ATOM     23  C   UNL d   1      -9.265   4.574  -1.927  0.00  0.00     0.000 A 
ATOM     24  C   UNL d   1      -8.568   3.467  -2.405  0.00  0.00     0.003 A 
ATOM     25  C   UNL d   1      -7.183   3.523  -2.530  0.00  0.00     0.037 A 
ENDBRANCH  19  20
ENDBRANCH   3  19
TORSDOF 3
