REMARK  4 active torsions:
REMARK  status: ('A' for Active; 'I' for Inactive)
REMARK    1  A    between atoms: C_6  and  N_1 
REMARK    2  A    between atoms: C_2  and  C_5 
REMARK       I    between atoms: N_3  and  C_2 
REMARK       I    between atoms: C_4  and  N_7 
REMARK    3  A    between atoms: C_15  and  C_4 
REMARK    4  A    between atoms: N_7  and  C_16 
ROOT
ATOM      1  C   UNL d   1       0.510   1.784   4.592  0.00  0.00     0.253 C 
ATOM      2  N   UNL d   1      -0.014   1.790   5.887  0.00  0.00    -0.348 N 
ATOM      3  C   UNL d   1      -0.475   3.062   6.440  0.00  0.00     0.128 C 
ATOM      4  C   UNL d   1      -0.112   0.639   6.789  0.00  0.00     0.128 C 
ATOM      5  O   UNL d   1       0.771   2.812   3.971  0.00  0.00    -0.267 OA
ATOM      6  C   UNL d   1       0.087   2.223   8.762  0.00  0.00     0.087 C 
ATOM      7  C   UNL d   1       0.211   3.377   7.764  0.00  0.00     0.045 C 
ATOM      8  C   UNL d   1       0.565   0.913   8.129  0.00  0.00     0.045 C 
ENDROOT
BRANCH   1   9
ATOM      9  C   UNL d   1       0.763   0.498   3.892  0.00  0.00     0.034 A 
ATOM     10  C   UNL d   1       1.925   0.375   3.116  0.00  0.00     0.053 A 
ATOM     11  C   UNL d   1       2.159  -0.818   2.421  0.00  0.00     0.103 A 
ATOM     12  C   UNL d   1       1.253  -1.885   2.503  0.00  0.00     0.036 A 
ATOM     13  C   UNL d   1       0.083  -1.741   3.247  0.00  0.00     0.003 A 
ATOM     14  C   UNL d   1      -0.176  -0.543   3.913  0.00  0.00     0.017 A 
BRANCH  11  15
ATOM     15  N   UNL d   1       3.360  -0.955   1.586  0.00  0.00    -0.116 N 
ATOM     16  O   UNL d   1       4.148   0.001   1.548  0.00  0.00    -0.532 OA
ATOM     17  O   UNL d   1       3.514  -2.018   0.970  0.00  0.00    -0.532 OA
ENDBRANCH  11  15
ENDBRANCH   1   9
BRANCH   6  18
ATOM     18  N   UNL d   1      -1.274   2.100   9.285  0.00  0.00    -0.352 N 
ATOM     19  C   UNL d   1      -1.520   1.598  10.547  0.00  0.00     0.252 C 
ATOM     20  O   UNL d   1      -0.628   1.278  11.326  0.00  0.00    -0.268 OA
ATOM     21  H   UNL d   1      -2.050   2.392   8.708  0.00  0.00     0.163 HD
BRANCH  19  22
ATOM     22  C   UNL d   1      -2.946   1.469  10.958  0.00  0.00     0.032 A 
ATOM     23  C   UNL d   1      -3.977   1.236  10.038  0.00  0.00     0.017 A 
ATOM     24  C   UNL d   1      -5.292   1.079  10.488  0.00  0.00     0.001 A 
ATOM     25  C   UNL d   1      -5.581   1.149  11.851  0.00  0.00     0.000 A 
ATOM     26  C   UNL d   1      -4.559   1.379  12.770  0.00  0.00     0.001 A 
ATOM     27  C   UNL d   1      -3.245   1.535  12.326  0.00  0.00     0.017 A 
ENDBRANCH  19  22
ENDBRANCH   6  18
TORSDOF 4
