REMARK  6 active torsions:
REMARK  status: ('A' for Active; 'I' for Inactive)
REMARK    1  A    between atoms: C_2  and  C_1 
REMARK       I    between atoms: N_4  and  C_2 
REMARK       I    between atoms: C_3  and  N_5 
REMARK    2  A    between atoms: C_6  and  C_3 
REMARK    3  A    between atoms: N_5  and  N_4 
REMARK    4  A    between atoms: C_8  and  C_6 
REMARK    5  A    between atoms: C_17  and  C_13 
REMARK    6  A    between atoms: C_20  and  C_17 
ROOT
ATOM      1  C   UNL d   1       2.223   5.016   0.196  0.00  0.00     0.244 C 
ATOM      2  N   UNL d   1       3.493   4.984   0.751  0.00  0.00    -0.267 N 
ATOM      3  O   UNL d   1       1.615   3.983  -0.094  0.00  0.00    -0.271 OA
ATOM      4  H   UNL d   1       4.108   5.795   0.792  0.00  0.00     0.190 HD
ENDROOT
BRANCH   1   5
ATOM      5  C   UNL d   1       1.633   6.423   0.009  0.00  0.00     0.108 C 
ATOM      6  C   UNL d   1       0.101   6.383   0.086  0.00  0.00     0.025 C 
BRANCH   5   7
ATOM      7  C   UNL d   1       2.061   7.074  -1.297  0.00  0.00    -0.045 A 
ATOM      8  C   UNL d   1       1.842   6.434  -2.526  0.00  0.00     0.008 A 
ATOM      9  C   UNL d   1       2.214   7.042  -3.726  0.00  0.00     0.007 A 
ATOM     10  C   UNL d   1       2.814   8.306  -3.731  0.00  0.00    -0.058 A 
ATOM     11  C   UNL d   1       2.997   8.966  -2.510  0.00  0.00     0.007 A 
ATOM     12  C   UNL d   1       2.627   8.357  -1.305  0.00  0.00     0.008 A 
BRANCH  10  13
ATOM     13  C   UNL d   1       3.238   8.934  -5.040  0.00  0.00     0.042 C 
BRANCH  13  14
ATOM     14  C   UNL d   1       4.741   9.270  -5.134  0.00  0.00    -0.019 C 
ATOM     15  C   UNL d   1       5.627   8.030  -4.990  0.00  0.00     0.010 C 
ATOM     16  C   UNL d   1       5.037   9.956  -6.471  0.00  0.00     0.010 C 
ENDBRANCH  13  14
ENDBRANCH  10  13
ENDBRANCH   5   7
ENDBRANCH   1   5
BRANCH   2  17
ATOM     17  N   UNL d   1       4.079   3.728   0.999  0.00  0.00    -0.263 N 
ATOM     18  C   UNL d   1       5.336   3.667   1.576  0.00  0.00     0.271 C 
ATOM     19  O   UNL d   1       5.995   4.679   1.806  0.00  0.00    -0.266 OA
ATOM     20  H   UNL d   1       3.476   2.918   0.877  0.00  0.00     0.190 HD
BRANCH  18  21
ATOM     21  C   UNL d   1       5.917   2.309   1.859  0.00  0.00     0.055 A 
ATOM     22  C   UNL d   1       5.187   1.130   2.063  0.00  0.00     0.049 A 
ATOM     23 CL   UNL d   1       3.460   1.065   2.122  0.00  0.00    -0.083 Cl
ATOM     24  C   UNL d   1       5.852  -0.090   2.277  0.00  0.00     0.025 A 
ATOM     25  C   UNL d   1       7.246  -0.150   2.302  0.00  0.00     0.002 A 
ATOM     26  C   UNL d   1       7.983   1.017   2.134  0.00  0.00     0.001 A 
ATOM     27  C   UNL d   1       7.327   2.233   1.920  0.00  0.00     0.019 A 
ENDBRANCH  18  21
ENDBRANCH   2  17
TORSDOF 6
