REMARK  13 active torsions:
REMARK  status: ('A' for Active; 'I' for Inactive)
REMARK       I    between atoms: N_6  and  C_1 
REMARK       I    between atoms: N_13  and  C_1 
REMARK       I    between atoms: C_2  and  N_14 
REMARK       I    between atoms: N_5  and  C_2 
REMARK       I    between atoms: C_3  and  N_8 
REMARK    1  A    between atoms: O_16  and  C_3 
REMARK       I    between atoms: C_4  and  N_7 
REMARK    2  A    between atoms: O_15  and  C_4 
REMARK    3  A    between atoms: N_7  and  N_5 
REMARK    4  A    between atoms: N_8  and  N_6 
REMARK    5  A    between atoms: C_17  and  N_13 
REMARK    6  A    between atoms: N_14  and  C_18 
REMARK    7  A    between atoms: C_20  and  O_15 
REMARK    8  A    between atoms: C_19  and  O_16 
REMARK    9  A    between atoms: C_21  and  C_17 
REMARK   10  A    between atoms: C_18  and  C_22 
REMARK   11  A    between atoms: C_24  and  C_21 
REMARK   12  A    between atoms: C_22  and  C_23 
REMARK   13  A    between atoms: C_23  and  C_24 
ROOT
ATOM      1  C   UNL d   1       7.011  -1.817  -1.144  0.00  0.00     0.002 C 
ENDROOT
BRANCH   1   2
ATOM      2  C   UNL d   1       7.683  -2.931  -1.962  0.00  0.00     0.020 C 
BRANCH   2   3
ATOM      3  C   UNL d   1       7.312  -2.873  -3.447  0.00  0.00     0.124 C 
BRANCH   3   4
ATOM      4  N   UNL d   1       7.877  -3.968  -4.204  0.00  0.00    -0.342 N 
ATOM      5  C   UNL d   1       7.304  -5.159  -4.521  0.00  0.00     0.334 C 
ATOM      6  N   UNL d   1       6.094  -5.435  -3.949  0.00  0.00    -0.247 N 
ATOM      7  O   UNL d   1       7.860  -5.921  -5.311  0.00  0.00    -0.246 OA
ATOM      8  H   UNL d   1       5.730  -4.917  -3.157  0.00  0.00     0.192 HD
ATOM      9  H   UNL d   1       8.747  -3.804  -4.702  0.00  0.00     0.164 HD
BRANCH   6  10
ATOM     10  N   UNL d   1       5.510  -6.681  -4.192  0.00  0.00    -0.241 N 
ATOM     11  C   UNL d   1       4.347  -7.024  -3.560  0.00  0.00     0.379 C 
ATOM     12  O   UNL d   1       3.764  -6.308  -2.754  0.00  0.00    -0.237 OA
ATOM     13  H   UNL d   1       5.963  -7.300  -4.858  0.00  0.00     0.192 HD
BRANCH  11  14
ATOM     14  O   UNL d   1       3.952  -8.261  -3.951  0.00  0.00    -0.303 OA
BRANCH  14  15
ATOM     15  C   UNL d   1       2.726  -8.735  -3.374  0.00  0.00     0.176 C 
ATOM     16  C   UNL d   1       2.982  -9.359  -2.015  0.00  0.00     0.034 C 
ENDBRANCH  14  15
ENDBRANCH  11  14
ENDBRANCH   6  10
ENDBRANCH   3   4
ENDBRANCH   2   3
ENDBRANCH   1   2
BRANCH   1  17
ATOM     17  C   UNL d   1       5.488  -1.942  -1.167  0.00  0.00     0.002 C 
BRANCH  17  18
ATOM     18  C   UNL d   1       4.759  -0.825  -0.423  0.00  0.00     0.020 C 
BRANCH  18  19
ATOM     19  C   UNL d   1       3.249  -1.023  -0.599  0.00  0.00     0.124 C 
BRANCH  19  20
ATOM     20  N   UNL d   1       2.441  -0.045   0.082  0.00  0.00    -0.342 N 
ATOM     21  C   UNL d   1       2.336   1.247  -0.345  0.00  0.00     0.334 C 
ATOM     22  N   UNL d   1       1.371   1.986   0.290  0.00  0.00    -0.247 N 
ATOM     23  O   UNL d   1       3.016   1.736  -1.238  0.00  0.00    -0.246 OA
ATOM     24  H   UNL d   1       1.357   2.989   0.114  0.00  0.00     0.192 HD
ATOM     25  H   UNL d   1       1.807  -0.347   0.805  0.00  0.00     0.164 HD
BRANCH  22  26
ATOM     26  N   UNL d   1       0.590   1.501   1.343  0.00  0.00    -0.241 N 
ATOM     27  C   UNL d   1       0.100   2.405   2.253  0.00  0.00     0.379 C 
ATOM     28  O   UNL d   1       0.433   3.577   2.326  0.00  0.00    -0.237 OA
ATOM     29  H   UNL d   1       0.010   0.687   1.174  0.00  0.00     0.192 HD
BRANCH  27  30
ATOM     30  O   UNL d   1      -0.826   1.792   3.033  0.00  0.00    -0.303 OA
BRANCH  30  31
ATOM     31  C   UNL d   1      -1.410   2.606   4.061  0.00  0.00     0.176 C 
ATOM     32  C   UNL d   1      -0.501   2.647   5.276  0.00  0.00     0.034 C 
ENDBRANCH  30  31
ENDBRANCH  27  30
ENDBRANCH  22  26
ENDBRANCH  19  20
ENDBRANCH  18  19
ENDBRANCH  17  18
ENDBRANCH   1  17
TORSDOF 13
