REMARK  4 active torsions:
REMARK  status: ('A' for Active; 'I' for Inactive)
REMARK       I    between atoms: C_3  and  N_4 
REMARK    1  A    between atoms: C_8  and  C_3 
REMARK    2  A    between atoms: N_4  and  C_5 
REMARK    3  A    between atoms: S_6  and  C_8 
REMARK    4  A    between atoms: C_10  and  S_6 
ROOT
ATOM      1  N   UNL d   1      -3.048  -0.443  -0.592  0.00  0.00    -0.191 NA
ATOM      2  C   UNL d   1      -1.907  -0.312  -0.440  0.00  0.00     0.099 C 
ATOM      3  C   UNL d   1       1.433   1.303  -0.013  0.00  0.00     0.036 A 
ATOM      4  C   UNL d   1      -0.494  -0.155  -0.253  0.00  0.00     0.046 A 
ATOM      5  C   UNL d   1       0.058   1.130  -0.181  0.00  0.00     0.052 A 
ATOM      6  C   UNL d   1       1.702  -1.116   0.022  0.00  0.00     0.004 A 
ATOM      7  C   UNL d   1       2.250   0.169   0.090  0.00  0.00     0.029 A 
ATOM      8  C   UNL d   1       0.330  -1.279  -0.153  0.00  0.00     0.023 A 
ENDROOT
BRANCH   3   9
ATOM      9  N   UNL d   1       2.061   2.564   0.034  0.00  0.00    -0.326 N 
ATOM     10  C   UNL d   1       1.475   3.813  -0.102  0.00  0.00     0.231 C 
ATOM     11  O   UNL d   1       0.267   4.031  -0.165  0.00  0.00    -0.272 OA
ATOM     12  H   UNL d   1       3.076   2.564   0.080  0.00  0.00     0.169 HD
BRANCH  10  13
ATOM     13  C   UNL d   1       2.455   4.988  -0.089  0.00  0.00     0.182 C 
BRANCH  13  14
ATOM     14  S   UNL d   1       4.047   4.538  -0.865  0.00  0.00    -0.121 SA
BRANCH  14  15
ATOM     15  C   UNL d   1       5.027   6.018  -0.691  0.00  0.00     0.001 A 
ATOM     16  C   UNL d   1       6.410   5.838  -0.541  0.00  0.00     0.020 A 
ATOM     17  C   UNL d   1       7.277   6.932  -0.492  0.00  0.00     0.025 A 
ATOM     18  C   UNL d   1       6.764   8.220  -0.599  0.00  0.00     0.034 A 
ATOM     19  C   UNL d   1       5.392   8.419  -0.742  0.00  0.00     0.025 A 
ATOM     20 CL   UNL d   1       7.831   9.568  -0.574  0.00  0.00    -0.084 Cl
ATOM     21  C   UNL d   1       4.524   7.319  -0.789  0.00  0.00     0.020 A 
ENDBRANCH  14  15
ENDBRANCH  13  14
ENDBRANCH  10  13
ENDBRANCH   3   9
TORSDOF 4
