REMARK  1 active torsions:
REMARK  status: ('A' for Active; 'I' for Inactive)
REMARK    1  A    between atoms: C_11  and  C_5 
ROOT
ATOM      1  C   UNL d   1      -0.725   0.356   0.005  0.00  0.00     0.050 C 
ATOM      2  C   UNL d   1      -1.375  -0.821  -0.021  0.00  0.00    -0.025 C 
ATOM      3  N   UNL d   1      -1.466   1.514  -0.031  0.00  0.00    -0.332 N 
ATOM      4  C   UNL d   1      -2.821   1.570   0.080  0.00  0.00     0.173 C 
ATOM      5  C   UNL d   1      -2.881  -0.875  -0.152  0.00  0.00     0.148 C 
ATOM      6  N   UNL d   1      -3.475   0.391   0.215  0.00  0.00    -0.354 N 
ATOM      7  C   UNL d   1       0.756   0.411   0.047  0.00  0.00    -0.003 A 
ATOM      8  C   UNL d   1      -0.680  -2.152   0.043  0.00  0.00     0.043 C 
ATOM      9  S   UNL d   1      -3.633   3.018   0.086  0.00  0.00    -0.041 SA
ATOM     10  C   UNL d   1       1.503  -0.782   0.019  0.00  0.00    -0.045 A 
ATOM     11  C   UNL d   1       0.845  -2.133  -0.063  0.00  0.00     0.044 C 
ATOM     12  C   UNL d   1       1.464   1.627   0.103  0.00  0.00     0.014 A 
ATOM     13  C   UNL d   1       2.910  -0.738   0.028  0.00  0.00     0.008 A 
ATOM     14  C   UNL d   1       2.862   1.660   0.111  0.00  0.00     0.001 A 
ATOM     15  C   UNL d   1       3.586   0.477   0.072  0.00  0.00     0.001 A 
ATOM     16  H   UNL d   1      -1.007   2.412  -0.089  0.00  0.00     0.168 HD
ATOM     17  H   UNL d   1      -4.485   0.448   0.230  0.00  0.00     0.163 HD
ENDROOT
BRANCH   5  18
ATOM     18  C   UNL d   1      -3.335  -1.281  -1.547  0.00  0.00    -0.031 A 
ATOM     19  C   UNL d   1      -4.113  -2.433  -1.737  0.00  0.00     0.009 A 
ATOM     20  C   UNL d   1      -4.516  -2.813  -3.019  0.00  0.00     0.001 A 
ATOM     21  C   UNL d   1      -4.150  -2.047  -4.124  0.00  0.00     0.000 A 
ATOM     22  C   UNL d   1      -3.387  -0.896  -3.954  0.00  0.00     0.001 A 
ATOM     23  C   UNL d   1      -2.984  -0.516  -2.675  0.00  0.00     0.009 A 
ENDBRANCH   5  18
TORSDOF 1
