REMARK  2 active torsions:
REMARK  status: ('A' for Active; 'I' for Inactive)
REMARK    1  A    between atoms: C_4  and  C_5 
REMARK    2  A    between atoms: C_12  and  C_10 
ROOT
ATOM      1  N   UNL d   1      -1.274   1.393  -0.024  0.00  0.00    -0.351 N 
ATOM      2  HN  UNL d   1      -1.309   2.412  -0.043  1.00  0.00     0.166 HD
ATOM      3  C   UNL d   1      -0.082   0.741  -0.025  0.00  0.00     0.081 A 
ATOM      4  C   UNL d   1       2.394  -0.655  -0.009  0.00  0.00     0.051 A 
ATOM      5  C   UNL d   1      -0.048  -0.673  -0.010  0.00  0.00     0.061 A 
ATOM      6  C   UNL d   1       1.145   1.417  -0.034  0.00  0.00     0.063 A 
ATOM      7  N   UNL d   1      -1.173  -1.405  -0.001  0.00  0.00    -0.362 N 
ATOM      8  HN  UNL d   1      -1.148  -2.425   0.001  1.00  0.00     0.165 HD
ATOM      9  C   UNL d   1      -2.415   0.662   0.003  0.00  0.00     0.058 A 
ATOM     10  C   UNL d   1       2.370   0.739  -0.025  0.00  0.00     0.042 A 
ATOM     11  C   UNL d   1       1.171  -1.339  -0.004  0.00  0.00     0.048 A 
ATOM     12  C   UNL d   1      -2.343  -0.723   0.004  0.00  0.00     0.118 A 
ATOM     13 CL   UNL d   1       1.196   3.149  -0.052  0.00  0.00    -0.082 Cl
ENDROOT
BRANCH   9  14
ATOM     14  C   UNL d   1      -3.674   1.427   0.040  0.00  0.00    -0.006 A 
ATOM     15  C   UNL d   1      -3.762   2.691  -0.578  0.00  0.00     0.039 A 
ATOM     16  C   UNL d   1      -4.940   3.448  -0.538  0.00  0.00     0.056 A 
ATOM     17 CL   UNL d   1      -4.940   4.980  -1.336  0.00  0.00    -0.083 Cl
ATOM     18  C   UNL d   1      -6.061   2.954   0.132  0.00  0.00     0.055 A 
ATOM     19  C   UNL d   1      -5.996   1.706   0.754  0.00  0.00     0.026 A 
ATOM     20 CL   UNL d   1      -7.545   3.831   0.238  0.00  0.00    -0.083 Cl
ATOM     21  C   UNL d   1      -4.817   0.953   0.708  0.00  0.00     0.015 A 
ENDBRANCH   9  14
BRANCH   4  22
ATOM     22  C   UNL d   1       3.691  -1.425   0.005  0.00  0.00     0.417 C 
ATOM     23  F   UNL d   1       4.793  -0.628  -0.004  0.00  0.00    -0.166 F 
ATOM     24  F   UNL d   1       3.809  -2.217   1.105  0.00  0.00    -0.166 F 
ATOM     25  F   UNL d   1       3.814  -2.249  -1.070  0.00  0.00    -0.166 F 
ENDBRANCH   4  22
TORSDOF 2
