REMARK  9 active torsions:
REMARK  status: ('A' for Active; 'I' for Inactive)
REMARK    1  A    between atoms: C_9  and  N_1 
REMARK    2  A    between atoms: C_13  and  C_5 
REMARK    3  A    between atoms: C_8  and  C_14 
REMARK    4  A    between atoms: C_12  and  C_9 
REMARK    5  A    between atoms: C_10  and  C_15 
REMARK    6  A    between atoms: C_11  and  C_16 
REMARK       I    between atoms: N_17  and  C_12 
REMARK       I    between atoms: C_14  and  N_18 
REMARK    7  A    between atoms: N_18  and  N_17 
REMARK    8  A    between atoms: O_35  and  C_22 
REMARK    9  A    between atoms: O_37  and  C_33 
ROOT
ATOM      1  N   UNL d   1      -0.211  -1.248  -0.277  0.00  0.00    -0.203 N 
ATOM      2  N   UNL d   1      -0.695  -0.382   0.628  0.00  0.00    -0.268 N 
ATOM      3  HN  UNL d   1      -1.020  -0.549   1.580  1.00  0.00     0.190 HD
ATOM      4  N   UNL d   1       0.192  -0.699  -1.434  0.00  0.00    -0.002 NA
ATOM      5  C   UNL d   1      -0.634   0.766  -0.067  0.00  0.00     0.144 A 
ATOM      6  N   UNL d   1      -0.096   0.590  -1.319  0.00  0.00    -0.266 N 
ATOM      7  HN  UNL d   1       0.052   1.312  -2.025  1.00  0.00     0.186 HD
ENDROOT
BRANCH   1   8
ATOM      8  C   UNL d   1      -0.408  -2.674  -0.104  0.00  0.00     0.214 C 
ATOM      9  C   UNL d   1       0.887  -3.351   0.349  0.00  0.00     0.046 C 
BRANCH   8  10
ATOM     10  C   UNL d   1      -1.052  -3.327  -1.329  0.00  0.00     0.262 C 
ATOM     11  N   UNL d   1      -2.009  -2.583  -2.018  0.00  0.00    -0.265 N 
ATOM     12  H   UNL d   1      -2.004  -1.560  -2.016  0.00  0.00     0.190 HD
ATOM     13  O   UNL d   1      -0.835  -4.507  -1.625  0.00  0.00    -0.269 OA
BRANCH  11  14
ATOM     14  N   UNL d   1      -2.586  -3.159  -3.174  0.00  0.00    -0.263 N 
ATOM     15  C   UNL d   1      -3.473  -2.412  -3.950  0.00  0.00     0.273 C 
ATOM     16  O   UNL d   1      -3.768  -1.258  -3.641  0.00  0.00    -0.266 OA
ATOM     17  H   UNL d   1      -2.254  -4.089  -3.413  0.00  0.00     0.190 HD
BRANCH  15  18
ATOM     18  C   UNL d   1      -4.059  -3.101  -5.160  0.00  0.00     0.069 A 
ATOM     19  C   UNL d   1      -4.566  -2.395  -6.275  0.00  0.00     0.084 A 
ATOM     20  C   UNL d   1      -5.079  -3.113  -7.367  0.00  0.00     0.040 A 
ATOM     21  C   UNL d   1      -5.154  -4.511  -7.351  0.00  0.00     0.039 A 
ATOM     22  C   UNL d   1      -4.684  -5.211  -6.248  0.00  0.00     0.069 A 
ATOM     23  C   UNL d   1      -4.154  -4.505  -5.162  0.00  0.00     0.056 A 
BRANCH  19  24
ATOM     24  O   UNL d   1      -4.519  -1.023  -6.292  0.00  0.00    -0.355 OA
ATOM     25  C   UNL d   1      -5.412  -0.373  -7.200  0.00  0.00     0.210 C 
ENDBRANCH  19  24
BRANCH  22  26
ATOM     26  O   UNL d   1      -4.688  -6.573  -6.118  0.00  0.00    -0.356 OA
ATOM     27  C   UNL d   1      -5.224  -7.319  -7.205  0.00  0.00     0.210 C 
ENDBRANCH  22  26
ENDBRANCH  15  18
ENDBRANCH  11  14
ENDBRANCH   8  10
ENDBRANCH   1   8
BRANCH   5  28
ATOM     28  C   UNL d   1      -1.123   2.036   0.448  0.00  0.00     0.012 A 
ATOM     29  C   UNL d   1      -1.571   2.107   1.777  0.00  0.00     0.031 A 
ATOM     30  C   UNL d   1      -2.047   3.301   2.328  0.00  0.00     0.049 A 
ATOM     31  C   UNL d   1      -2.082   4.446   1.519  0.00  0.00     0.032 A 
ATOM     32  C   UNL d   1      -1.635   4.406   0.184  0.00  0.00     0.049 A 
ATOM     33  C   UNL d   1      -1.163   3.191  -0.344  0.00  0.00     0.031 A 
BRANCH  30  34
ATOM     34  C   UNL d   1      -2.487   3.355   3.771  0.00  0.00     0.417 C 
ATOM     35  F   UNL d   1      -2.357   2.166   4.424  0.00  0.00    -0.166 F 
ATOM     36  F   UNL d   1      -1.768   4.256   4.494  0.00  0.00    -0.166 F 
ATOM     37  F   UNL d   1      -3.791   3.715   3.906  0.00  0.00    -0.166 F 
ENDBRANCH  30  34
BRANCH  32  38
ATOM     38  C   UNL d   1      -1.647   5.673  -0.641  0.00  0.00     0.417 C 
ATOM     39  F   UNL d   1      -1.158   5.513  -1.901  0.00  0.00    -0.166 F 
ATOM     40  F   UNL d   1      -2.898   6.190  -0.784  0.00  0.00    -0.166 F 
ATOM     41  F   UNL d   1      -0.899   6.659  -0.072  0.00  0.00    -0.166 F 
ENDBRANCH  32  38
ENDBRANCH   5  28
TORSDOF 9
