REMARK  3 active torsions:
REMARK  status: ('A' for Active; 'I' for Inactive)
REMARK    1  A    between atoms: O_7  and  S_1 
REMARK    2  A    between atoms: C_8  and  S_1 
REMARK    3  A    between atoms: C_10  and  O_7 
ROOT
ATOM      1  S   UNL d   1       0.758  -0.066   0.018  0.00  0.00     0.303 S 
ATOM      2  O   UNL d   1       0.939  -1.179   0.927  0.00  0.00    -0.193 OA
ATOM      3  O   UNL d   1      -0.298  -0.067  -0.976  0.00  0.00    -0.193 OA
ENDROOT
BRANCH   1   4
ATOM      4  O   UNL d   1       2.190   0.240  -0.707  0.00  0.00    -0.227 OA
BRANCH   4   5
ATOM      5  C   UNL d   1       2.752  -0.652  -1.593  0.00  0.00     0.111 A 
ATOM      6  C   UNL d   1       4.148  -0.650  -1.736  0.00  0.00     0.070 A 
ATOM      7  C   UNL d   1       4.776  -1.495  -2.658  0.00  0.00     0.050 A 
ATOM      8 CL   UNL d   1       5.143   0.386  -0.775  0.00  0.00    -0.081 Cl
ATOM      9  C   UNL d   1       4.004  -2.345  -3.446  0.00  0.00     0.035 A 
ATOM     10  C   UNL d   1       2.620  -2.359  -3.315  0.00  0.00     0.026 A 
ATOM     11 CL   UNL d   1       4.759  -3.379  -4.594  0.00  0.00    -0.084 Cl
ATOM     12  C   UNL d   1       1.995  -1.512  -2.398  0.00  0.00     0.041 A 
ENDBRANCH   4   5
ENDBRANCH   1   4
BRANCH   1  13
ATOM     13  C   UNL d   1       0.425   1.367   1.017  0.00  0.00     0.087 A 
ATOM     14  C   UNL d   1       0.831   2.627   0.588  0.00  0.00     0.044 A 
ATOM     15  C   UNL d   1       0.465   3.708   1.383  0.00  0.00     0.051 A 
ATOM     16  C   UNL d   1       0.784   5.111   1.093  0.00  0.00     0.241 A 
ATOM     17  C   UNL d   1      -0.279   3.593   2.573  0.00  0.00     0.055 A 
ATOM     18  S   UNL d   1       0.113   6.107   2.388  0.00  0.00     0.032 SA
ATOM     19  O   UNL d   1       1.407   5.514   0.129  0.00  0.00    -0.278 OA
ATOM     20  N   UNL d   1      -0.571   4.800   3.193  0.00  0.00    -0.318 N 
ATOM     21  C   UNL d   1      -1.190   4.970   4.490  0.00  0.00     0.165 C 
ATOM     22  C   UNL d   1      -0.662   2.320   2.979  0.00  0.00     0.032 A 
ATOM     23  C   UNL d   1      -0.310   1.206   2.204  0.00  0.00     0.028 A 
ENDBRANCH   1  13
TORSDOF 3
