REMARK  3 active torsions:
REMARK  status: ('A' for Active; 'I' for Inactive)
REMARK    1  A    between atoms: C_7  and  N_1 
REMARK    2  A    between atoms: N_6  and  C_4 
REMARK    3  A    between atoms: C_10  and  N_6 
ROOT
ATOM      1  N   UNL d   1       0.046   0.930  -0.021  0.00  0.00    -0.251 N 
ATOM      2  C   UNL d   1      -1.102   0.212   0.216  0.00  0.00     0.233 A 
ATOM      3  C   UNL d   1       1.122   0.094  -0.228  0.00  0.00     0.254 A 
ATOM      4  C   UNL d   1       0.660  -1.353  -0.155  0.00  0.00     0.183 A 
ATOM      5  C   UNL d   1      -0.832  -1.246   0.067  0.00  0.00     0.138 A 
ATOM      6  O   UNL d   1      -2.228   0.614   0.485  0.00  0.00    -0.273 OA
ATOM      7  O   UNL d   1       2.300   0.382  -0.417  0.00  0.00    -0.270 OA
ENDROOT
BRANCH   4   8
ATOM      8  N   UNL d   1       0.999  -2.040  -1.407  0.00  0.00    -0.376 N 
ATOM      9  H   UNL d   1       1.921  -1.785  -1.764  0.00  0.00     0.160 HD
BRANCH   8  10
ATOM     10  C   UNL d   1       0.716  -3.389  -1.613  0.00  0.00     0.028 A 
ATOM     11  C   UNL d   1       0.044  -4.201  -0.691  0.00  0.00     0.029 A 
ATOM     12  C   UNL d   1      -0.333  -5.507  -1.011  0.00  0.00     0.002 A 
ATOM     13  C   UNL d   1      -0.046  -6.029  -2.267  0.00  0.00     0.000 A 
ATOM     14  C   UNL d   1       0.625  -5.243  -3.199  0.00  0.00     0.002 A 
ATOM     15  C   UNL d   1       0.998  -3.936  -2.872  0.00  0.00     0.029 A 
ENDBRANCH   8  10
ENDBRANCH   4   8
BRANCH   1  16
ATOM     16  C   UNL d   1       0.110   2.356  -0.057  0.00  0.00     0.045 A 
ATOM     17  C   UNL d   1      -0.886   3.153   0.534  0.00  0.00     0.030 A 
ATOM     18  C   UNL d   1      -0.833   4.550   0.478  0.00  0.00     0.002 A 
ATOM     19  C   UNL d   1       0.216   5.184  -0.176  0.00  0.00     0.000 A 
ATOM     20  C   UNL d   1       1.211   4.420  -0.772  0.00  0.00     0.002 A 
ATOM     21  C   UNL d   1       1.160   3.023  -0.708  0.00  0.00     0.030 A 
ENDBRANCH   1  16
TORSDOF 3
