REMARK  3 active torsions:
REMARK  status: ('A' for Active; 'I' for Inactive)
REMARK    1  A    between atoms: N_8  and  C_1 
REMARK    2  A    between atoms: N_6  and  N_8 
REMARK    3  A    between atoms: C_10  and  N_6 
ROOT
ATOM      1  N   UNL d   1       1.383   2.259  -0.150  0.00  0.00    -0.280 N 
ATOM      2  H   UNL d   1       0.980   2.327  -1.080  0.00  0.00     0.189 HD
ENDROOT
BRANCH   1   3
ATOM      3  N   UNL d   1       2.731   2.321   0.006  0.00  0.00    -0.307 N 
ATOM      4  HN  UNL d   1       3.147   2.884   0.747  1.00  0.00     0.186 HD
BRANCH   3   5
ATOM      5  C   UNL d   1       3.478   1.640  -0.817  0.00  0.00     0.004 C 
ATOM      6  C   UNL d   1       3.010   0.721  -1.928  0.00  0.00     0.054 C 
ATOM      7  C   UNL d   1       3.620  -0.667  -1.725  0.00  0.00     0.006 C 
ATOM      8  C   UNL d   1       5.139  -0.619  -1.538  0.00  0.00     0.001 C 
ATOM      9  C   UNL d   1       5.543   0.339  -0.416  0.00  0.00     0.006 C 
ATOM     10  C   UNL d   1       4.981   1.736  -0.652  0.00  0.00     0.054 C 
ENDBRANCH   3   5
ENDBRANCH   1   3
BRANCH   1  11
ATOM     11  C   UNL d   1       0.471   2.303   0.861  0.00  0.00     0.163 A 
ATOM     12  N   UNL d   1      -0.827   2.210   0.645  0.00  0.00    -0.339 N 
ATOM     13  C   UNL d   1      -1.521   2.126   1.842  0.00  0.00     0.014 A 
ATOM     14  HN  UNL d   1      -1.261   2.200  -0.278  1.00  0.00     0.168 HD
ATOM     15  C   UNL d   1      -2.993   1.939   1.813  0.00  0.00     0.068 C 
ATOM     16  C   UNL d   1      -0.731   2.195   2.971  0.00  0.00     0.077 A 
ATOM     17  S   UNL d   1       0.904   2.429   2.528  0.00  0.00    -0.062 SA
ENDBRANCH   1  11
TORSDOF 3
