REMARK  2 active torsions:
REMARK  status: ('A' for Active; 'I' for Inactive)
REMARK    1  A    between atoms: C_8  and  N_1 
REMARK    2  A    between atoms: C_9  and  C_8 
ROOT
ATOM      1  N   UNL d   1      -4.362  -2.789   1.192  0.00  0.00    -0.375 N 
ATOM      2  HN  UNL d   1      -4.859  -2.876   2.078  1.00  0.00     0.164 HD
ATOM      3  C   UNL d   1      -2.283  -2.568  -0.037  0.00  0.00    -0.025 A 
ATOM      4  C   UNL d   1      -3.016  -2.673   1.142  0.00  0.00     0.096 A 
ATOM      5  C   UNL d   1      -5.017  -2.785   0.012  0.00  0.00     0.087 A 
ATOM      6  C   UNL d   1      -2.998  -2.571  -1.238  0.00  0.00     0.011 A 
ATOM      7  C   UNL d   1      -4.386  -2.681  -1.216  0.00  0.00     0.018 A 
ENDROOT
BRANCH   3   8
ATOM      8  C   UNL d   1      -0.789  -2.436  -0.007  0.00  0.00     0.167 C 
BRANCH   8   9
ATOM      9  N   UNL d   1      -0.370  -1.042   0.073  0.00  0.00    -0.362 N 
ATOM     10  C   UNL d   1      -0.068  -0.241  -0.999  0.00  0.00     0.090 A 
ATOM     11  C   UNL d   1       0.358   0.977  -0.514  0.00  0.00     0.019 A 
ATOM     12  C   UNL d   1       0.315   0.908   0.899  0.00  0.00     0.019 A 
ATOM     13  C   UNL d   1      -0.136  -0.351   1.235  0.00  0.00     0.090 A 
ENDBRANCH   8   9
ENDBRANCH   3   8
TORSDOF 2
