REMARK  3 active torsions:
REMARK  status: ('A' for Active; 'I' for Inactive)
REMARK    1  A    between atoms: C_6  and  N_1 
REMARK    2  A    between atoms: N_8  and  C_6 
REMARK    3  A    between atoms: C_9  and  C_10 
REMARK       I    between atoms: N_16  and  C_9 
ROOT
ATOM      1  N   UNL d   1       3.578  -2.403  -0.039  0.00  0.00     0.107 N 
ATOM      2  C   UNL d   1       6.219  -1.068  -0.000  0.00  0.00     0.081 C 
ATOM      3  C   UNL d   1       5.654  -1.740  -1.252  0.00  0.00     0.044 C 
ATOM      4  C   UNL d   1       5.641  -1.769   1.232  0.00  0.00     0.044 C 
ATOM      5  C   UNL d   1       4.123  -1.757  -1.245  0.00  0.00     0.275 C 
ATOM      6  C   UNL d   1       4.110  -1.812   1.200  0.00  0.00     0.275 C 
ENDROOT
BRANCH   1   7
ATOM      7  C   UNL d   1       2.097  -2.297  -0.009  0.00  0.00     0.418 C 
BRANCH   7   8
ATOM      8  N   UNL d   1       1.499  -3.054  -1.103  0.00  0.00    -0.245 N 
ATOM      9  N   UNL d   1       0.672  -2.434  -1.976  0.00  0.00    -0.018 NA
ATOM     10  N   UNL d   1       0.224  -3.353  -2.823  0.00  0.00    -0.282 N 
ATOM     11  C   UNL d   1       0.771  -4.558  -2.474  0.00  0.00     0.074 A 
ATOM     12  HN  UNL d   1      -0.417  -3.189  -3.599  1.00  0.00     0.184 HD
ATOM     13  C   UNL d   1       1.592  -4.396  -1.364  0.00  0.00     0.078 A 
ATOM     14  C   UNL d   1       0.625  -5.830  -3.045  0.00  0.00     0.033 A 
ATOM     15  C   UNL d   1       2.293  -5.450  -0.771  0.00  0.00     0.033 A 
ATOM     16  C   UNL d   1       2.141  -6.712  -1.356  0.00  0.00     0.002 A 
ATOM     17  C   UNL d   1       1.321  -6.902  -2.471  0.00  0.00     0.002 A 
ENDBRANCH   7   8
ENDBRANCH   1   7
BRANCH   2  18
ATOM     18  C   UNL d   1       5.948   0.436   0.034  0.00  0.00     0.219 C 
ATOM     19  O   UNL d   1       5.349   1.012   0.933  0.00  0.00    -0.273 OA
ATOM     20  N   UNL d   1       6.447   1.151  -1.013  0.00  0.00    -0.370 N 
ATOM     21  H   UNL d   1       7.114   0.772  -1.671  0.00  0.00     0.159 HD
ATOM     22  H   UNL d   1       6.337   2.156  -0.971  0.00  0.00     0.159 HD
ENDBRANCH   2  18
TORSDOF 3
