REMARK  3 active torsions:
REMARK  status: ('A' for Active; 'I' for Inactive)
REMARK    1  A    between atoms: S_9  and  C_2 
REMARK    2  A    between atoms: C_7  and  C_10 
REMARK    3  A    between atoms: C_10  and  S_9 
ROOT
ATOM      1  N   UNL d   1      -0.891   0.489  -0.047  0.00  0.00    -0.318 N 
ATOM      2  C   UNL d   1      -1.041  -1.926  -0.257  0.00  0.00     0.098 A 
ATOM      3  C   UNL d   1      -1.679  -0.639  -0.143  0.00  0.00     0.073 A 
ATOM      4  N   UNL d   1       0.249  -2.063  -0.228  0.00  0.00    -0.347 N 
ATOM      5  HN  UNL d   1       0.677  -2.987  -0.290  1.00  0.00     0.167 HD
ATOM      6  C   UNL d   1       0.514   0.398  -0.034  0.00  0.00     0.066 A 
ATOM      7  C   UNL d   1       1.048  -0.902  -0.107  0.00  0.00     0.060 A 
ATOM      8  C   UNL d   1      -1.696   1.599   0.035  0.00  0.00     0.098 A 
ATOM      9  C   UNL d   1      -3.000  -0.229  -0.097  0.00  0.00     0.034 A 
ATOM     10  C   UNL d   1      -3.010   1.181   0.014  0.00  0.00     0.020 A 
ATOM     11  C   UNL d   1       1.337   1.525   0.053  0.00  0.00     0.032 A 
ATOM     12  C   UNL d   1       2.436  -1.047  -0.075  0.00  0.00     0.032 A 
ATOM     13  C   UNL d   1       2.721   1.354   0.075  0.00  0.00     0.002 A 
ATOM     14  C   UNL d   1       3.269   0.073   0.016  0.00  0.00     0.002 A 
ENDROOT
BRANCH   2  15
ATOM     15  S   UNL d   1      -2.107  -3.296  -0.458  0.00  0.00    -0.105 SA
BRANCH  15  16
ATOM     16  C   UNL d   1      -0.909  -4.636  -0.689  0.00  0.00     0.123 C 
BRANCH  16  17
ATOM     17  C   UNL d   1      -1.576  -5.923  -1.133  0.00  0.00    -0.005 A 
ATOM     18  C   UNL d   1      -1.734  -6.231  -2.500  0.00  0.00     0.042 A 
ATOM     19 CL   UNL d   1      -1.216  -5.156  -3.754  0.00  0.00    -0.084 Cl
ATOM     20  C   UNL d   1      -2.325  -7.433  -2.911  0.00  0.00     0.024 A 
ATOM     21  C   UNL d   1      -2.785  -8.349  -1.971  0.00  0.00     0.003 A 
ATOM     22  C   UNL d   1      -2.668  -8.054  -0.617  0.00  0.00     0.024 A 
ATOM     23  C   UNL d   1      -2.076  -6.854  -0.201  0.00  0.00     0.042 A 
ATOM     24 CL   UNL d   1      -1.994  -6.582   1.507  0.00  0.00    -0.084 Cl
ENDBRANCH  16  17
ENDBRANCH  15  16
ENDBRANCH   2  15
TORSDOF 3
