REMARK  3 active torsions:
REMARK  status: ('A' for Active; 'I' for Inactive)
REMARK       I    between atoms: N_2  and  C_1 
REMARK    1  A    between atoms: C_4  and  C_1 
REMARK    2  A    between atoms: C_7  and  N_2 
REMARK    3  A    between atoms: C_3  and  C_7 
REMARK       I    between atoms: N_10  and  C_3 
ROOT
ATOM      1  C   UNL d   1       1.062   0.025  -0.044  0.00  0.00     0.252 C 
ATOM      2  N   UNL d   1       0.340  -0.972   0.568  0.00  0.00    -0.348 N 
ATOM      3  O   UNL d   1       2.285   0.002  -0.130  0.00  0.00    -0.268 OA
ATOM      4  H   UNL d   1      -0.670  -1.025   0.488  0.00  0.00     0.163 HD
ENDROOT
BRANCH   1   5
ATOM      5  C   UNL d   1       0.290   1.147  -0.642  0.00  0.00     0.032 A 
ATOM      6  C   UNL d   1      -0.949   1.557  -0.132  0.00  0.00     0.018 A 
ATOM      7  C   UNL d   1      -1.619   2.638  -0.715  0.00  0.00     0.025 A 
ATOM      8  C   UNL d   1      -1.054   3.305  -1.802  0.00  0.00     0.034 A 
ATOM      9  C   UNL d   1       0.181   2.907  -2.310  0.00  0.00     0.025 A 
ATOM     10 CL   UNL d   1      -1.881   4.635  -2.513  0.00  0.00    -0.084 Cl
ATOM     11  C   UNL d   1       0.856   1.833  -1.726  0.00  0.00     0.018 A 
ENDBRANCH   1   5
BRANCH   2  12
ATOM     12  C   UNL d   1       1.015  -2.121   1.134  0.00  0.00     0.225 C 
BRANCH  12  13
ATOM     13  C   UNL d   1       0.007  -3.086   1.748  0.00  0.00     0.233 C 
ATOM     14  O   UNL d   1      -1.207  -2.896   1.741  0.00  0.00    -0.272 OA
ATOM     15  N   UNL d   1       0.544  -4.206   2.312  0.00  0.00    -0.369 N 
ATOM     16  H   UNL d   1       1.535  -4.405   2.316  0.00  0.00     0.159 HD
ATOM     17  H   UNL d   1      -0.088  -4.881   2.724  0.00  0.00     0.159 HD
ENDBRANCH  12  13
ENDBRANCH   2  12
TORSDOF 3
