REMARK  4 active torsions:
REMARK  status: ('A' for Active; 'I' for Inactive)
REMARK    1  A    between atoms: C_6  and  C_1 
REMARK    2  A    between atoms: C_7  and  C_2 
REMARK    3  A    between atoms: S_15  and  C_5 
REMARK       I    between atoms: N_9  and  C_6 
REMARK    4  A    between atoms: C_13  and  N_9 
ROOT
ATOM      1  C   UNL d   1       1.424  -1.343   0.049  0.00  0.00     0.087 A 
ATOM      2  C   UNL d   1       0.084  -1.268  -0.335  0.00  0.00     0.026 A 
ATOM      3  C   UNL d   1      -0.438   0.073  -0.218  0.00  0.00     0.081 A 
ATOM      4  S   UNL d   1       2.019   0.215   0.475  0.00  0.00    -0.075 SA
ATOM      5  C   UNL d   1       0.526   0.983   0.165  0.00  0.00     0.063 A 
ATOM      6  C   UNL d   1      -1.815   0.443  -0.415  0.00  0.00     0.102 C 
ATOM      7  N   UNL d   1      -2.928   0.728  -0.574  0.00  0.00    -0.191 NA
ENDROOT
BRANCH   2   8
ATOM      8  C   UNL d   1      -0.727  -2.447  -0.828  0.00  0.00     0.018 C 
ATOM      9  S   UNL d   1      -0.714  -4.015  -0.144  0.00  0.00    -0.101 SA
ATOM     10  C   UNL d   1      -1.650  -4.654  -1.421  0.00  0.00     0.050 C 
ATOM     11  C   UNL d   1      -2.089  -3.669  -2.274  0.00  0.00     0.008 C 
ATOM     12  C   UNL d   1      -1.593  -2.384  -1.904  0.00  0.00     0.020 C 
ENDBRANCH   2   8
BRANCH   5  13
ATOM     13  S   UNL d   1       0.298   2.716   0.427  0.00  0.00    -0.126 SA
ATOM     14  C   UNL d   1       1.519   3.434  -0.693  0.00  0.00     0.096 C 
ENDBRANCH   5  13
BRANCH   1  15
ATOM     15  C   UNL d   1       2.331  -2.495   0.060  0.00  0.00     0.264 C 
ATOM     16  N   UNL d   1       3.443  -2.386   0.883  0.00  0.00    -0.322 N 
ATOM     17  H   UNL d   1       3.762  -1.452   1.102  0.00  0.00     0.169 HD
ATOM     18  O   UNL d   1       2.160  -3.489  -0.646  0.00  0.00    -0.267 OA
BRANCH  16  19
ATOM     19  C   UNL d   1       4.214  -3.474   1.347  0.00  0.00     0.036 A 
ATOM     20  C   UNL d   1       3.665  -4.747   1.533  0.00  0.00     0.053 A 
ATOM     21  C   UNL d   1       4.436  -5.763   2.101  0.00  0.00     0.036 A 
ATOM     22 CL   UNL d   1       3.729  -7.301   2.418  0.00  0.00    -0.084 Cl
ATOM     23  C   UNL d   1       5.765  -5.532   2.450  0.00  0.00     0.024 A 
ATOM     24  C   UNL d   1       6.322  -4.271   2.244  0.00  0.00     0.004 A 
ATOM     25  C   UNL d   1       5.541  -3.238   1.717  0.00  0.00     0.029 A 
ENDBRANCH  16  19
ENDBRANCH   1  15
TORSDOF 4
