REMARK  7 active torsions:
REMARK  status: ('A' for Active; 'I' for Inactive)
REMARK    1  A    between atoms: O_6  and  C_1 
REMARK    2  A    between atoms: C_8  and  C_1 
REMARK    3  A    between atoms: C_12  and  C_2 
REMARK    4  A    between atoms: N_15  and  C_2 
REMARK    5  A    between atoms: N_3  and  O_6 
REMARK    6  A    between atoms: C_9  and  O_10 
REMARK    7  A    between atoms: O_10  and  C_12 
ROOT
ATOM      1  C   UNL d   1      -1.761  -2.210   0.022  0.00  0.00     0.100 C 
ATOM      2  N   UNL d   1      -1.047  -1.129  -0.088  0.00  0.00    -0.249 N 
ATOM      3  HN  UNL d   1      -0.034  -1.133  -0.206  1.00  0.00     0.196 HD
ENDROOT
BRANCH   1   4
ATOM      4  C   UNL d   1      -0.971  -3.530  -0.008  0.00  0.00     0.247 C 
BRANCH   4   5
ATOM      5  O   UNL d   1      -1.742  -4.599  -0.548  0.00  0.00    -0.343 OA
BRANCH   5   6
ATOM      6  C   UNL d   1      -1.077  -5.793  -0.713  0.00  0.00     0.091 A 
ATOM      7  C   UNL d   1      -1.825  -6.980  -0.630  0.00  0.00     0.069 A 
ATOM      8  C   UNL d   1      -1.222  -8.226  -0.829  0.00  0.00     0.050 A 
ATOM      9 CL   UNL d   1      -3.515  -6.949  -0.265  0.00  0.00    -0.081 Cl
ATOM     10  C   UNL d   1       0.135  -8.294  -1.127  0.00  0.00     0.035 A 
ATOM     11  C   UNL d   1       0.890  -7.130  -1.229  0.00  0.00     0.026 A 
ATOM     12 CL   UNL d   1       0.887  -9.820  -1.386  0.00  0.00    -0.084 Cl
ATOM     13  C   UNL d   1       0.286  -5.885  -1.026  0.00  0.00     0.040 A 
ENDBRANCH   5   6
ENDBRANCH   4   5
ENDBRANCH   1   4
BRANCH   1  14
ATOM     14  N   UNL d   1      -3.124  -2.261   0.171  0.00  0.00    -0.289 NA
ATOM     15  H   UNL d   1      -3.611  -1.431  -0.147  0.00  0.00     0.125 HD
ATOM     16  H   UNL d   1      -3.554  -3.134  -0.130  0.00  0.00     0.125 HD
ENDBRANCH   1  14
BRANCH   2  17
ATOM     17  O   UNL d   1      -1.819   0.048  -0.029  0.00  0.00    -0.198 OA
BRANCH  17  18
ATOM     18  C   UNL d   1      -0.990   1.136  -0.192  0.00  0.00     0.288 C 
ATOM     19  O   UNL d   1       0.219   1.089  -0.412  0.00  0.00    -0.262 OA
BRANCH  18  20
ATOM     20  C   UNL d   1      -1.742   2.466  -0.045  0.00  0.00     0.039 C 
ATOM     21  C   UNL d   1      -3.263   2.301   0.076  0.00  0.00     0.025 C 
ATOM     22  C   UNL d   1      -1.208   3.170   1.212  0.00  0.00     0.025 C 
ATOM     23  C   UNL d   1      -1.436   3.327  -1.281  0.00  0.00     0.025 C 
ENDBRANCH  18  20
ENDBRANCH  17  18
ENDBRANCH   2  17
TORSDOF 7
