REMARK  4 active torsions:
REMARK  status: ('A' for Active; 'I' for Inactive)
REMARK    1  A    between atoms: S_15  and  C_8 
REMARK    2  A    between atoms: C_12  and  C_11 
REMARK    3  A    between atoms: C_13  and  C_12 
REMARK    4  A    between atoms: O_17  and  C_13 
ROOT
ATOM      1  N   UNL d   1       0.389   0.706  -0.018  0.00  0.00    -0.046 N 
ATOM      2  C   UNL d   1       0.329  -0.668   0.000  0.00  0.00     0.709 A 
ATOM      3  N   UNL d   1       1.536  -1.168   0.011  0.00  0.00    -0.167 N 
ATOM      4  HN  UNL d   1       1.820  -2.148   0.024  1.00  0.00     0.186 HD
ATOM      5  N   UNL d   1       1.677   1.122  -0.009  0.00  0.00    -0.255 N 
ATOM      6  HN  UNL d   1       2.050   2.071  -0.011  1.00  0.00     0.190 HD
ATOM      7  C   UNL d   1      -0.725   1.547  -0.028  0.00  0.00     0.284 A 
ATOM      8  C   UNL d   1       2.328  -0.045   0.002  0.00  0.00     0.174 A 
ATOM      9  C   UNL d   1      -2.029   0.825  -0.025  0.00  0.00     0.103 A 
ATOM     10  N   UNL d   1      -0.883  -1.263   0.010  0.00  0.00    -0.193 N 
ATOM     11  C   UNL d   1      -2.060  -0.525  -0.019  0.00  0.00     0.041 A 
ATOM     12  O   UNL d   1      -0.626   2.766  -0.026  0.00  0.00    -0.266 OA
ATOM     13  H   UNL d   1      -0.938  -2.278  -0.024  0.00  0.00     0.184 HD
ENDROOT
BRANCH  11  14
ATOM     14  C   UNL d   1      -3.378  -1.268   0.007  0.00  0.00     0.168 C 
BRANCH  14  15
ATOM     15  C   UNL d   1      -3.901  -1.572  -1.388  0.00  0.00     0.264 C 
ATOM     16  O   UNL d   1      -3.356  -1.269  -2.439  0.00  0.00    -0.265 OA
BRANCH  15  17
ATOM     17  O   UNL d   1      -5.090  -2.234  -1.286  0.00  0.00    -0.326 OA
ATOM     18  C   UNL d   1      -5.686  -2.561  -2.544  0.00  0.00     0.213 C 
ENDBRANCH  15  17
ENDBRANCH  14  15
ENDBRANCH  11  14
BRANCH   8  19
ATOM     19  S   UNL d   1       4.069  -0.158   0.015  0.00  0.00    -0.097 SA
ATOM     20  C   UNL d   1       4.542   1.585   0.000  0.00  0.00     0.099 C 
ENDBRANCH   8  19
TORSDOF 4
