REMARK  3 active torsions:
REMARK  status: ('A' for Active; 'I' for Inactive)
REMARK    1  A    between atoms: C_8  and  C_1 
REMARK    2  A    between atoms: C_12  and  C_5 
REMARK    3  A    between atoms: O_13  and  C_8 
ROOT
ATOM      1  C   UNL d   1      -1.251  -1.595  -0.057  0.00  0.00     0.052 A 
ATOM      2  N   UNL d   1      -1.678   1.151   0.037  0.00  0.00    -0.359 N 
ATOM      3  HN  UNL d   1      -1.830   2.158   0.097  1.00  0.00     0.166 HD
ATOM      4  C   UNL d   1      -0.125  -0.720  -0.064  0.00  0.00     0.008 A 
ATOM      5  C   UNL d   1      -2.732   0.314  -0.017  0.00  0.00     0.015 A 
ATOM      6  C   UNL d   1      -2.548  -1.060  -0.054  0.00  0.00     0.044 A 
ATOM      7  C   UNL d   1      -0.431   0.661   0.010  0.00  0.00     0.043 A 
ATOM      8  C   UNL d   1       1.247  -1.085  -0.156  0.00  0.00     0.021 A 
ATOM      9  C   UNL d   1       0.596   1.591   0.053  0.00  0.00     0.031 A 
ATOM     10  C   UNL d   1       2.277  -0.134  -0.066  0.00  0.00    -0.061 A 
ATOM     11  C   UNL d   1       1.938   1.214   0.037  0.00  0.00     0.009 A 
ATOM     12  C   UNL d   1       3.720  -0.544  -0.078  0.00  0.00     0.048 C 
ENDROOT
BRANCH   5  13
ATOM     13  C   UNL d   1      -4.133   0.914  -0.026  0.00  0.00     0.035 C 
ATOM     14  C   UNL d   1      -4.383   1.867  -1.211  0.00  0.00     0.011 C 
ATOM     15  C   UNL d   1      -3.884   3.299  -1.009  0.00  0.00     0.001 C 
ATOM     16  C   UNL d   1      -4.333   3.892   0.320  0.00  0.00     0.000 C 
ATOM     17  C   UNL d   1      -3.989   2.990   1.500  0.00  0.00     0.001 C 
ATOM     18  C   UNL d   1      -4.521   1.570   1.312  0.00  0.00     0.011 C 
ENDBRANCH   5  13
BRANCH   1  19
ATOM     19  C   UNL d   1      -1.202  -3.086  -0.093  0.00  0.00     0.177 C 
ATOM     20  O   UNL d   1      -2.087  -3.746  -0.641  0.00  0.00    -0.646 OA
BRANCH  19  21
ATOM     21  O   UNL d   1      -0.203  -3.688   0.582  0.00  0.00    -0.773 OA
ATOM     22  H   UNL d   1       0.257  -3.132   1.243  0.00  0.00     0.167 HD
ENDBRANCH  19  21
ENDBRANCH   1  19
TORSDOF 3
