REMARK  3 active torsions:
REMARK  status: ('A' for Active; 'I' for Inactive)
REMARK    1  A    between atoms: C_8  and  C_3 
REMARK    2  A    between atoms: C_7  and  C_4 
REMARK    3  A    between atoms: C_9  and  C_10 
ROOT
ATOM      1  N   UNL d   1       1.246  -0.521   0.461  0.00  0.00    -0.349 N 
ATOM      2  HN  UNL d   1       2.025  -1.023   0.886  1.00  0.00     0.166 HD
ATOM      3  C   UNL d   1       0.169  -1.095  -0.045  0.00  0.00     0.084 A 
ATOM      4  C   UNL d   1       1.169   0.859   0.333  0.00  0.00     0.050 A 
ATOM      5  S   UNL d   1      -1.006   0.007  -0.664  0.00  0.00    -0.081 SA
ATOM      6  C   UNL d   1       0.016   1.320  -0.269  0.00  0.00     0.082 A 
ENDROOT
BRANCH   3   7
ATOM      7  C   UNL d   1      -0.072  -2.549  -0.070  0.00  0.00    -0.002 A 
ATOM      8  C   UNL d   1       0.460  -3.361   0.938  0.00  0.00     0.015 A 
ATOM      9  C   UNL d   1       0.253  -4.748   0.932  0.00  0.00     0.009 A 
ATOM     10  C   UNL d   1      -0.481  -5.380  -0.089  0.00  0.00    -0.051 A 
ATOM     11  C   UNL d   1      -1.007  -4.558  -1.096  0.00  0.00     0.009 A 
ATOM     12  C   UNL d   1      -0.805  -3.171  -1.088  0.00  0.00     0.015 A 
BRANCH  10  13
ATOM     13  C   UNL d   1      -0.666  -6.908  -0.088  0.00  0.00    -0.024 C 
ATOM     14  C   UNL d   1      -1.467  -7.439  -1.300  0.00  0.00     0.019 C 
ATOM     15  C   UNL d   1       0.715  -7.597  -0.120  0.00  0.00     0.019 C 
ATOM     16  C   UNL d   1      -1.423  -7.344   1.184  0.00  0.00     0.019 C 
ENDBRANCH  10  13
ENDBRANCH   3   7
BRANCH   4  17
ATOM     17  C   UNL d   1       2.255   1.726   0.774  0.00  0.00    -0.006 A 
ATOM     18  C   UNL d   1       3.573   1.253   0.741  0.00  0.00     0.056 A 
ATOM     19  C   UNL d   1       4.617   2.083   1.137  0.00  0.00     0.117 A 
ATOM     20  F   UNL d   1       5.877   1.628   1.087  0.00  0.00    -0.206 F 
ATOM     21  C   UNL d   1       4.380   3.379   1.579  0.00  0.00     0.042 A 
ATOM     22  C   UNL d   1       3.073   3.856   1.631  0.00  0.00     0.004 A 
ATOM     23  C   UNL d   1       2.015   3.033   1.232  0.00  0.00     0.014 A 
ENDBRANCH   4  17
TORSDOF 3
