REMARK  5 active torsions:
REMARK  status: ('A' for Active; 'I' for Inactive)
REMARK    1  A    between atoms: N_6  and  C_4 
REMARK    2  A    between atoms: C_14  and  N_6 
REMARK    3  A    between atoms: N_7  and  C_13 
REMARK    4  A    between atoms: C_9  and  C_14 
REMARK    5  A    between atoms: C_13  and  C_9 
ROOT
ATOM      1  C   UNL d   1      -0.052   0.631  -0.044  0.00  0.00     0.092 A 
ATOM      2  C   UNL d   1      -1.362   1.158   0.206  0.00  0.00     0.103 C 
ATOM      3  N   UNL d   1      -2.422   1.592   0.417  0.00  0.00    -0.191 NA
ATOM      4  C   UNL d   1       1.100   1.454  -0.128  0.00  0.00     0.050 A 
ATOM      5  C   UNL d   1       0.073  -0.769  -0.172  0.00  0.00     0.057 A 
ATOM      6 CL   UNL d   1      -1.292  -1.835  -0.054  0.00  0.00    -0.083 Cl
ATOM      7  C   UNL d   1       2.444  -0.573  -0.515  0.00  0.00     0.004 A 
ATOM      8  C   UNL d   1       2.333   0.812  -0.383  0.00  0.00     0.031 A 
ATOM      9  C   UNL d   1       1.312  -1.365  -0.407  0.00  0.00     0.025 A 
ENDROOT
BRANCH   4  10
ATOM     10  N   UNL d   1       1.157   2.854  -0.118  0.00  0.00    -0.389 N 
ATOM     11  H   UNL d   1       2.022   3.218   0.277  0.00  0.00     0.159 HD
BRANCH  10  12
ATOM     12  C   UNL d   1       0.004   3.717   0.096  0.00  0.00     0.121 C 
BRANCH  12  13
ATOM     13  C   UNL d   1       0.397   5.193   0.035  0.00  0.00     0.050 C 
BRANCH  13  14
ATOM     14  C   UNL d   1      -0.874   6.047   0.158  0.00  0.00     0.273 C 
BRANCH  14  15
ATOM     15  N   UNL d   1      -0.639   7.500   0.180  0.00  0.00     0.080 N 
ATOM     16  C   UNL d   1      -0.028   7.980  -1.061  0.00  0.00     0.309 C 
ATOM     17  C   UNL d   1      -1.919   8.191   0.392  0.00  0.00     0.309 C 
ENDBRANCH  14  15
ENDBRANCH  13  14
ENDBRANCH  12  13
ENDBRANCH  10  12
ENDBRANCH   4  10
TORSDOF 5
