REMARK  7 active torsions:
REMARK  status: ('A' for Active; 'I' for Inactive)
REMARK    1  A    between atoms: C_5  and  S_1 
REMARK    2  A    between atoms: N_6  and  S_1 
REMARK    3  A    between atoms: N_2  and  C_3 
REMARK    4  A    between atoms: C_4  and  O_8 
REMARK    5  A    between atoms: C_23  and  N_6 
REMARK    6  A    between atoms: O_8  and  C_17 
REMARK    7  A    between atoms: C_18  and  C_23 
ROOT
ATOM      1  N   UNL d   1      -2.006   3.620  -4.009  0.00  0.00    -0.197 NA
ATOM      2  C   UNL d   1      -1.019   3.098  -3.692  0.00  0.00     0.060 C 
ATOM      3  C   UNL d   1       0.229   2.436  -3.287  0.00  0.00     0.139 C 
ENDROOT
BRANCH   3   4
ATOM      4  C   UNL d   1       0.050   1.745  -1.935  0.00  0.00     0.121 C 
BRANCH   4   5
ATOM      5  N   UNL d   1       1.235   0.916  -1.516  0.00  0.00    -0.210 NA
ATOM      6  C   UNL d   1       2.514   1.673  -1.502  0.00  0.00     0.129 C 
BRANCH   5   7
ATOM      7  S   UNL d   1       0.968   0.018  -0.052  0.00  0.00     0.243 S 
ATOM      8  O   UNL d   1       2.245  -0.151   0.608  0.00  0.00    -0.206 OA
ATOM      9  O   UNL d   1      -0.162   0.608   0.639  0.00  0.00    -0.206 OA
BRANCH   7  10
ATOM     10  C   UNL d   1       0.457  -1.596  -0.614  0.00  0.00     0.074 A 
ATOM     11  C   UNL d   1       1.214  -2.719  -0.255  0.00  0.00     0.027 A 
ATOM     12  C   UNL d   1       0.816  -3.996  -0.666  0.00  0.00     0.039 A 
ATOM     13  C   UNL d   1      -0.304  -4.139  -1.489  0.00  0.00     0.076 A 
ATOM     14  C   UNL d   1      -1.097  -3.026  -1.783  0.00  0.00     0.039 A 
ATOM     15  C   UNL d   1      -0.726  -1.754  -1.338  0.00  0.00     0.027 A 
BRANCH  13  16
ATOM     16  O   UNL d   1      -0.723  -5.325  -2.043  0.00  0.00    -0.307 OA
BRANCH  16  17
ATOM     17  C   UNL d   1       0.189  -6.282  -2.428  0.00  0.00     0.130 A 
ATOM     18  C   UNL d   1      -0.145  -7.623  -2.180  0.00  0.00     0.138 A 
ATOM     19  C   UNL d   1       0.703  -8.689  -2.522  0.00  0.00     0.039 A 
ATOM     20  C   UNL d   1       1.919  -8.415  -3.136  0.00  0.00     0.004 A 
ATOM     21  C   UNL d   1       2.252  -7.096  -3.442  0.00  0.00     0.027 A 
ATOM     22  C   UNL d   1       1.382  -6.038  -3.129  0.00  0.00     0.070 A 
ATOM     23 CL   UNL d   1       1.840  -4.484  -3.741  0.00  0.00    -0.081 Cl
BRANCH  18  24
ATOM     24  N   UNL d   1      -1.424  -7.961  -1.583  0.00  0.00    -0.113 N 
ATOM     25  O   UNL d   1      -2.446  -7.587  -2.172  0.00  0.00    -0.532 OA
ATOM     26  O   UNL d   1      -1.395  -8.656  -0.558  0.00  0.00    -0.532 OA
ENDBRANCH  18  24
ENDBRANCH  16  17
ENDBRANCH  13  16
ENDBRANCH   7  10
ENDBRANCH   5   7
ENDBRANCH   4   5
ENDBRANCH   3   4
TORSDOF 7
