REMARK  2 active torsions:
REMARK  status: ('A' for Active; 'I' for Inactive)
REMARK    1  A    between atoms: C_3  and  N_1 
REMARK    2  A    between atoms: C_12  and  N_4 
ROOT
ATOM      1  N   UNL d   1       2.797  -2.283  -2.646  0.00  0.00    -0.195 NA
ATOM      2  C   UNL d   1       2.291  -1.325  -2.225  0.00  0.00     0.089 C 
ATOM      3  C   UNL d   1       1.599  -0.122  -1.713  0.00  0.00     0.395 C 
ENDROOT
BRANCH   3   4
ATOM      4  N   UNL d   1       1.425  -0.096  -0.244  0.00  0.00     0.104 N 
ATOM      5  C   UNL d   1       0.739   1.153   0.175  0.00  0.00     0.293 C 
ATOM      6  C   UNL d   1      -0.757   1.260  -0.217  0.00  0.00     0.153 C 
ATOM      7  N   UNL d   1      -1.484   0.045   0.178  0.00  0.00    -0.377 N 
ATOM      8  C   UNL d   1      -0.855  -1.241  -0.154  0.00  0.00     0.153 C 
ATOM      9  C   UNL d   1       0.630  -1.244   0.263  0.00  0.00     0.293 C 
BRANCH   7  10
ATOM     10  C   UNL d   1      -2.622   0.127   0.955  0.00  0.00     0.031 A 
ATOM     11  C   UNL d   1      -2.886  -0.789   1.983  0.00  0.00     0.053 A 
ATOM     12  C   UNL d   1      -4.042  -0.696   2.760  0.00  0.00     0.036 A 
ATOM     13 CL   UNL d   1      -4.312  -1.837   4.022  0.00  0.00    -0.084 Cl
ATOM     14  C   UNL d   1      -4.970   0.312   2.531  0.00  0.00     0.024 A 
ATOM     15  C   UNL d   1      -4.733   1.236   1.519  0.00  0.00     0.004 A 
ATOM     16  C   UNL d   1      -3.570   1.142   0.747  0.00  0.00     0.029 A 
ENDBRANCH   7  10
ENDBRANCH   3   4
TORSDOF 2
