REMARK  6 active torsions:
REMARK  status: ('A' for Active; 'I' for Inactive)
REMARK    1  A    between atoms: C_13  and  N_1 
REMARK    2  A    between atoms: O_18  and  C_4 
REMARK    3  A    between atoms: C_5  and  C_6 
REMARK    4  A    between atoms: O_20  and  C_7 
REMARK    5  A    between atoms: O_19  and  C_8 
REMARK    6  A    between atoms: O_24  and  C_21 
ROOT
ATOM      1  N   UNL d   1       0.013  -0.948  -0.059  0.00  0.00    -0.252 N 
ATOM      2  C   UNL d   1      -1.222  -0.289  -0.092  0.00  0.00     0.231 C 
ATOM      3  C   UNL d   1       1.255  -0.332   0.110  0.00  0.00     0.231 C 
ATOM      4  C   UNL d   1       0.005   1.847  -0.228  0.00  0.00     0.036 C 
ATOM      5  C   UNL d   1       1.273   1.167   0.263  0.00  0.00     0.113 C 
ATOM      6  C   UNL d   1      -1.195   1.144   0.375  0.00  0.00     0.113 C 
ATOM      7  O   UNL d   1      -2.300  -0.801  -0.397  0.00  0.00    -0.273 OA
ATOM      8  O   UNL d   1       2.347  -0.925   0.147  0.00  0.00    -0.273 OA
ENDROOT
BRANCH   4   9
ATOM      9  C   UNL d   1       0.036   3.324   0.109  0.00  0.00    -0.048 A 
ATOM     10  C   UNL d   1      -0.040   4.284  -0.899  0.00  0.00     0.047 A 
ATOM     11  C   UNL d   1       0.052   5.658  -0.610  0.00  0.00     0.104 A 
ATOM     12  C   UNL d   1       0.251   6.098   0.723  0.00  0.00     0.135 A 
ATOM     13  C   UNL d   1       0.356   5.125   1.737  0.00  0.00     0.104 A 
ATOM     14  C   UNL d   1       0.214   3.767   1.421  0.00  0.00     0.047 A 
BRANCH  11  15
ATOM     15  O   UNL d   1       0.055   6.574  -1.636  0.00  0.00    -0.353 OA
ATOM     16  C   UNL d   1      -0.823   6.282  -2.724  0.00  0.00     0.210 C 
ENDBRANCH  11  15
BRANCH  12  17
ATOM     17  O   UNL d   1       0.357   7.398   1.133  0.00  0.00    -0.351 OA
ATOM     18  C   UNL d   1       0.050   8.468   0.255  0.00  0.00     0.210 C 
ENDBRANCH  12  17
BRANCH  13  19
ATOM     19  O   UNL d   1       0.621   5.271   3.074  0.00  0.00    -0.353 OA
ATOM     20  C   UNL d   1       0.779   6.552   3.656  0.00  0.00     0.210 C 
ENDBRANCH  13  19
ENDBRANCH   4   9
BRANCH   1  21
ATOM     21  C   UNL d   1       0.022  -2.371  -0.257  0.00  0.00     0.045 A 
ATOM     22  C   UNL d   1      -0.597  -2.945  -1.373  0.00  0.00     0.033 A 
ATOM     23  C   UNL d   1      -0.529  -4.325  -1.593  0.00  0.00     0.039 A 
ATOM     24  C   UNL d   1       0.128  -5.149  -0.678  0.00  0.00     0.068 A 
ATOM     25  C   UNL d   1       0.736  -4.584   0.441  0.00  0.00     0.039 A 
ATOM     26  C   UNL d   1       0.689  -3.205   0.650  0.00  0.00     0.033 A 
BRANCH  24  27
ATOM     27  O   UNL d   1       0.272  -6.504  -0.788  0.00  0.00    -0.356 OA
ATOM     28  C   UNL d   1      -0.684  -7.165  -1.607  0.00  0.00     0.210 C 
ENDBRANCH  24  27
ENDBRANCH   1  21
TORSDOF 6
