REMARK  1 active torsions:
REMARK  status: ('A' for Active; 'I' for Inactive)
REMARK       I    between atoms: N_2  and  C_1 
REMARK       I    between atoms: N_4  and  C_1 
REMARK       I    between atoms: C_3  and  N_2 
REMARK       I    between atoms: N_12  and  C_3 
REMARK    1  A    between atoms: C_5  and  N_4 
ROOT
ATOM      1  C   UNL d   1       1.054  -1.942  -0.721  0.00  0.00     0.678 C 
ATOM      2  N   UNL d   1       2.171  -2.053   0.058  0.00  0.00    -0.167 N 
ATOM      3  C   UNL d   1       2.474  -1.732   1.341  0.00  0.00     0.163 C 
ATOM      4  N   UNL d   1       0.174  -0.961  -0.353  0.00  0.00    -0.192 N 
ATOM      5  N   UNL d   1       0.885  -2.704  -1.754  0.00  0.00    -0.234 N 
ATOM      6  HN  UNL d   1       0.089  -2.644  -2.389  1.00  0.00     0.174 HD
ATOM      7  N   UNL d   1       1.689  -1.258   2.242  0.00  0.00    -0.376 N 
ATOM      8  HN  UNL d   1       1.963  -0.981   3.185  1.00  0.00     0.158 HD
ATOM      9  N   UNL d   1       3.763  -1.970   1.679  0.00  0.00    -0.274 NA
ATOM     10  H   UNL d   1       2.927  -2.528  -0.407  0.00  0.00     0.187 HD
ATOM     11  H   UNL d   1       0.563  -0.131   0.072  0.00  0.00     0.184 HD
ATOM     12  H   UNL d   1       1.649  -3.371  -1.849  0.00  0.00     0.174 HD
ATOM     13  H   UNL d   1       0.739  -1.205   1.855  0.00  0.00     0.158 HD
ATOM     14  H   UNL d   1       4.077  -2.914   1.492  0.00  0.00     0.127 HD
ATOM     15  H   UNL d   1       3.874  -1.780   2.673  0.00  0.00     0.127 HD
ENDROOT
BRANCH   4  16
ATOM     16  C   UNL d   1      -1.220  -0.951  -0.562  0.00  0.00     0.055 A 
ATOM     17  C   UNL d   1      -1.925   0.253  -0.816  0.00  0.00    -0.029 A 
ATOM     18  C   UNL d   1      -3.342   0.227  -0.901  0.00  0.00    -0.054 A 
ATOM     19  C   UNL d   1      -1.192   1.556  -1.026  0.00  0.00     0.051 C 
ATOM     20  C   UNL d   1      -4.191   1.459  -1.074  0.00  0.00     0.049 C 
ATOM     21  C   UNL d   1      -4.018  -1.000  -0.826  0.00  0.00     0.007 A 
ATOM     22  C   UNL d   1      -3.318  -2.189  -0.672  0.00  0.00     0.003 A 
ATOM     23  C   UNL d   1      -1.933  -2.160  -0.545  0.00  0.00     0.030 A 
ENDBRANCH   4  16
TORSDOF 1
