REMARK  1 active torsions:
REMARK  status: ('A' for Active; 'I' for Inactive)
REMARK    1  A    between atoms: C_8  and  C_3 
ROOT
ATOM      1  N   UNL d   1       1.116  -0.244  -0.964  0.00  0.00    -0.323 N 
ATOM      2  HN  UNL d   1       1.694  -0.443  -1.780  1.00  0.00     0.169 HD
ATOM      3  C   UNL d   1       1.308   0.705   0.021  0.00  0.00     0.137 A 
ATOM      4  N   UNL d   1       0.348   0.709   0.963  0.00  0.00    -0.242 N 
ATOM      5  HN  UNL d   1       0.271   1.313   1.780  1.00  0.00     0.196 HD
ATOM      6  C   UNL d   1       0.003  -0.826  -0.585  0.00  0.00     0.144 A 
ATOM      7  O   UNL d   1      -0.517  -0.306   0.561  0.00  0.00    -0.223 OA
ATOM      8  C   UNL d   1      -0.741  -1.935  -1.203  0.00  0.00     0.100 C 
ENDROOT
BRANCH   3   9
ATOM      9  C   UNL d   1       2.455   1.607   0.023  0.00  0.00     0.010 A 
ATOM     10  C   UNL d   1       3.403   1.552  -1.008  0.00  0.00     0.016 A 
ATOM     11  C   UNL d   1       4.505   2.414  -1.012  0.00  0.00     0.007 A 
ATOM     12  C   UNL d   1       4.681   3.347   0.016  0.00  0.00    -0.062 A 
ATOM     13  C   UNL d   1       3.738   3.406   1.047  0.00  0.00     0.007 A 
ATOM     14  C   UNL d   1       5.862   4.271  -0.003  0.00  0.00     0.048 C 
ATOM     15  C   UNL d   1       2.636   2.544   1.051  0.00  0.00     0.016 A 
ENDBRANCH   3   9
TORSDOF 1
