REMARK  5 active torsions:
REMARK  status: ('A' for Active; 'I' for Inactive)
REMARK    1  A    between atoms: C_11  and  C_1 
REMARK    2  A    between atoms: N_10  and  C_2 
REMARK       I    between atoms: C_4  and  N_7 
REMARK    3  A    between atoms: C_8  and  C_4 
REMARK    4  A    between atoms: C_12  and  C_5 
REMARK       I    between atoms: N_7  and  C_9 
REMARK       I    between atoms: C_9  and  N_10 
REMARK    5  A    between atoms: O_18  and  C_11 
ROOT
ATOM      1  C   UNL d   1       4.823   4.072   0.047  0.00  0.00     0.263 C 
ATOM      2  N   UNL d   1       3.437   3.962   0.267  0.00  0.00    -0.275 N 
ATOM      3  C   UNL d   1       2.499   2.976   0.353  0.00  0.00     0.327 C 
ATOM      4  N   UNL d   1       2.635   1.789  -0.306  0.00  0.00    -0.307 N 
ATOM      5  O   UNL d   1       5.515   3.305  -0.596  0.00  0.00    -0.267 OA
ATOM      6  O   UNL d   1       1.532   3.254   1.081  0.00  0.00    -0.247 OA
ATOM      7  H   UNL d   1       3.054   4.719   0.813  0.00  0.00     0.173 HD
ATOM      8  H   UNL d   1       3.566   1.390  -0.340  0.00  0.00     0.170 HD
ENDROOT
BRANCH   4   9
ATOM      9  C   UNL d   1       1.509   0.927  -0.351  0.00  0.00     0.060 C 
ATOM     10  C   UNL d   1       0.206   1.344  -0.621  0.00  0.00     0.107 C 
ATOM     11  S   UNL d   1      -0.920   0.089  -0.329  0.00  0.00    -0.086 SA
ATOM     12  C   UNL d   1       0.296  -1.101  -0.121  0.00  0.00    -0.007 C 
ATOM     13  C   UNL d   1       1.553  -0.501  -0.167  0.00  0.00     0.046 C 
BRANCH  10  14
ATOM     14  C   UNL d   1      -0.258   2.627  -1.148  0.00  0.00     0.302 C 
ATOM     15  O   UNL d   1       0.456   3.497  -1.639  0.00  0.00    -0.259 OA
BRANCH  14  16
ATOM     16  O   UNL d   1      -1.624   2.721  -1.117  0.00  0.00    -0.322 OA
ATOM     17  C   UNL d   1      -2.156   3.875  -1.765  0.00  0.00     0.213 C 
ENDBRANCH  14  16
ENDBRANCH  10  14
BRANCH  12  18
ATOM     18  C   UNL d   1      -0.114  -2.583   0.006  0.00  0.00    -0.018 C 
ATOM     19  C   UNL d   1      -0.610  -3.084  -1.368  0.00  0.00     0.020 C 
ATOM     20  C   UNL d   1       1.075  -3.459   0.444  0.00  0.00     0.020 C 
ATOM     21  C   UNL d   1      -1.244  -2.811   1.040  0.00  0.00     0.020 C 
ENDBRANCH  12  18
ENDBRANCH   4   9
BRANCH   1  22
ATOM     22  C   UNL d   1       5.342   5.350   0.660  0.00  0.00     0.075 A 
ATOM     23  C   UNL d   1       5.140   5.558   2.042  0.00  0.00     0.051 A 
ATOM     24 CL   UNL d   1       4.749   4.263   3.119  0.00  0.00    -0.083 Cl
ATOM     25  C   UNL d   1       5.236   6.839   2.596  0.00  0.00     0.025 A 
ATOM     26  C   UNL d   1       5.589   7.922   1.802  0.00  0.00     0.003 A 
ATOM     27  C   UNL d   1       5.900   7.709   0.457  0.00  0.00     0.025 A 
ATOM     28  C   UNL d   1       5.777   6.433  -0.117  0.00  0.00     0.051 A 
ATOM     29 CL   UNL d   1       6.138   6.290  -1.797  0.00  0.00    -0.083 Cl
ENDBRANCH   1  22
TORSDOF 5
