REMARK  4 active torsions:
REMARK  status: ('A' for Active; 'I' for Inactive)
REMARK    1  A    between atoms: C_8  and  C_1 
REMARK    2  A    between atoms: C_13  and  C_5 
REMARK    3  A    between atoms: O_15  and  C_8 
REMARK    4  A    between atoms: C_21  and  O_15 
ROOT
ATOM      1  C   UNL d   1       2.833  -0.775   0.059  0.00  0.00     0.052 C 
ATOM      2  C   UNL d   1       0.295  -0.699   0.063  0.00  0.00     0.023 C 
ATOM      3  C   UNL d   1       0.374   0.640  -0.062  0.00  0.00     0.021 C 
ATOM      4  C   UNL d   1       2.821   0.576  -0.093  0.00  0.00     0.018 C 
ATOM      5  C   UNL d   1       1.526  -1.517   0.408  0.00  0.00     0.098 C 
ATOM      6  N   UNL d   1       1.608   1.260   0.001  0.00  0.00    -0.362 N 
ATOM      7  C   UNL d   1      -0.993  -1.396  -0.194  0.00  0.00     0.159 C 
ATOM      8  C   UNL d   1      -0.823   1.526  -0.282  0.00  0.00     0.067 C 
ATOM      9  C   UNL d   1      -2.173   0.840   0.016  0.00  0.00    -0.036 C 
ATOM     10  C   UNL d   1      -2.183  -0.560  -0.621  0.00  0.00     0.092 C 
ATOM     11  O   UNL d   1      -1.061  -2.623  -0.161  0.00  0.00    -0.293 OA
ATOM     12  C   UNL d   1       3.988   1.492  -0.373  0.00  0.00     0.069 C 
ATOM     13  C   UNL d   1      -3.300   1.694  -0.590  0.00  0.00     0.015 C 
ATOM     14  C   UNL d   1      -2.418   0.730   1.536  0.00  0.00     0.015 C 
ATOM     15  H   UNL d   1       1.631   2.260  -0.186  0.00  0.00     0.165 HD
ENDROOT
BRANCH   5  16
ATOM     16  C   UNL d   1       1.514  -1.893   1.901  0.00  0.00    -0.045 A 
ATOM     17  C   UNL d   1       1.468  -3.237   2.299  0.00  0.00     0.008 A 
ATOM     18  C   UNL d   1       1.472  -3.579   3.654  0.00  0.00     0.001 A 
ATOM     19  C   UNL d   1       1.519  -2.583   4.630  0.00  0.00     0.000 A 
ATOM     20  C   UNL d   1       1.559  -1.245   4.254  0.00  0.00     0.001 A 
ATOM     21  C   UNL d   1       1.557  -0.903   2.902  0.00  0.00     0.008 A 
ENDBRANCH   5  16
BRANCH   1  22
ATOM     22  C   UNL d   1       3.996  -1.701  -0.035  0.00  0.00     0.292 C 
ATOM     23  O   UNL d   1       3.885  -2.914  -0.172  0.00  0.00    -0.259 OA
BRANCH  22  24
ATOM     24  O   UNL d   1       5.159  -1.050   0.163  0.00  0.00    -0.318 OA
BRANCH  24  25
ATOM     25  C   UNL d   1       6.289  -1.853   0.519  0.00  0.00     0.174 C 
ATOM     26  C   UNL d   1       6.309  -1.946   2.032  0.00  0.00     0.034 C 
ENDBRANCH  24  25
ENDBRANCH  22  24
ENDBRANCH   1  22
TORSDOF 4
