REMARK  2 active torsions:
REMARK  status: ('A' for Active; 'I' for Inactive)
REMARK    1  A    between atoms: C_2  and  C_1 
REMARK    2  A    between atoms: C_14  and  C_8 
ROOT
ATOM      1  C   UNL d   1      -0.299  -1.059   0.034  0.00  0.00     0.179 A 
ATOM      2  O   UNL d   1      -1.114   0.023  -0.197  0.00  0.00    -0.272 OA
ATOM      3  N   UNL d   1       0.928  -0.690   0.349  0.00  0.00    -0.277 N 
ATOM      4  HN  UNL d   1       1.714  -1.307   0.552  1.00  0.00     0.189 HD
ATOM      5  N   UNL d   1       0.947   0.688   0.351  0.00  0.00    -0.277 N 
ATOM      6  HN  UNL d   1       1.747   1.288   0.552  1.00  0.00     0.189 HD
ATOM      7  C   UNL d   1      -0.273   1.077   0.044  0.00  0.00     0.174 A 
ENDROOT
BRANCH   1   8
ATOM      8  C   UNL d   1      -0.743  -2.466  -0.031  0.00  0.00     0.072 A 
ATOM      9  C   UNL d   1      -1.989  -2.915  -0.398  0.00  0.00     0.089 A 
ATOM     10  O   UNL d   1      -2.006  -4.274  -0.313  0.00  0.00    -0.242 OA
ATOM     11  C   UNL d   1      -3.238  -2.274  -0.849  0.00  0.00     0.080 C 
ATOM     12  N   UNL d   1      -0.771  -4.729   0.113  0.00  0.00    -0.265 N 
ATOM     13  C   UNL d   1      -0.014  -3.636   0.281  0.00  0.00     0.045 A 
ATOM     14  HN  UNL d   1      -0.493  -5.698   0.268  1.00  0.00     0.194 HD
ATOM     15  C   UNL d   1       1.385  -3.761   0.752  0.00  0.00     0.071 C 
ENDBRANCH   1   8
BRANCH   7  16
ATOM     16  C   UNL d   1      -0.840   2.418  -0.007  0.00  0.00     0.018 A 
ATOM     17  C   UNL d   1      -2.181   2.643  -0.347  0.00  0.00     0.039 A 
ATOM     18  C   UNL d   1      -2.703   3.938  -0.330  0.00  0.00     0.035 A 
ATOM     19 CL   UNL d   1      -4.357   4.193  -0.727  0.00  0.00    -0.084 Cl
ATOM     20  C   UNL d   1      -1.901   5.023   0.018  0.00  0.00     0.024 A 
ATOM     21  C   UNL d   1      -0.562   4.814   0.342  0.00  0.00     0.003 A 
ATOM     22  C   UNL d   1      -0.036   3.520   0.328  0.00  0.00     0.016 A 
ENDBRANCH   7  16
TORSDOF 2
