REMARK  8 active torsions:
REMARK  status: ('A' for Active; 'I' for Inactive)
REMARK    1  A    between atoms: N_3  and  C_1 
REMARK    2  A    between atoms: N_8  and  C_1 
REMARK    3  A    between atoms: C_2  and  N_9 
REMARK    4  A    between atoms: N_7  and  C_2 
REMARK    5  A    between atoms: C_4  and  N_3 
REMARK    6  A    between atoms: C_16  and  N_7 
REMARK    7  A    between atoms: N_9  and  N_8 
REMARK    8  A    between atoms: S_19  and  C_18 
ROOT
ATOM      1  N   UNL d   1      -1.279   0.261  -0.828  0.00  0.00    -0.274 N 
ATOM      2  H   UNL d   1      -1.202  -0.692  -1.182  0.00  0.00     0.189 HD
ENDROOT
BRANCH   1   3
ATOM      3  C   UNL d   1      -2.179   1.091  -1.451  0.00  0.00     0.191 C 
ATOM      4  S   UNL d   1      -3.022   0.583  -2.794  0.00  0.00    -0.039 SA
BRANCH   3   5
ATOM      5  N   UNL d   1      -2.298   2.375  -0.990  0.00  0.00    -0.332 N 
ATOM      6  H   UNL d   1      -2.705   3.040  -1.640  0.00  0.00     0.168 HD
BRANCH   5   7
ATOM      7  C   UNL d   1      -2.356   2.753   0.375  0.00  0.00     0.035 A 
ATOM      8  C   UNL d   1      -2.578   1.820   1.399  0.00  0.00     0.048 A 
ATOM      9  C   UNL d   1      -2.702   2.228   2.728  0.00  0.00     0.002 A 
ATOM     10  C   UNL d   1      -2.595   3.587   3.031  0.00  0.00     0.018 A 
ATOM     11  C   UNL d   1      -2.376   4.523   2.017  0.00  0.00     0.004 A 
ATOM     12  C   UNL d   1      -2.276   4.111   0.689  0.00  0.00     0.029 A 
BRANCH   9  13
ATOM     13  S   UNL d   1      -3.144   1.077   4.020  0.00  0.00    -0.134 SA
ATOM     14  C   UNL d   1      -1.762  -0.094   3.924  0.00  0.00     0.095 C 
ENDBRANCH   9  13
ENDBRANCH   5   7
ENDBRANCH   3   5
ENDBRANCH   1   3
BRANCH   1  15
ATOM     15  N   UNL d   1      -0.051   0.823  -0.388  0.00  0.00    -0.274 N 
ATOM     16  H   UNL d   1       0.150   1.742  -0.768  0.00  0.00     0.189 HD
BRANCH  15  17
ATOM     17  C   UNL d   1       0.974   0.024   0.097  0.00  0.00     0.186 C 
ATOM     18  S   UNL d   1       0.776  -1.561   0.588  0.00  0.00    -0.040 SA
BRANCH  17  19
ATOM     19  N   UNL d   1       2.166   0.717   0.118  0.00  0.00    -0.361 N 
ATOM     20  H   UNL d   1       2.136   1.634  -0.305  0.00  0.00     0.162 HD
BRANCH  19  21
ATOM     21  C   UNL d   1       3.518   0.141   0.181  0.00  0.00     0.092 C 
ATOM     22  C   UNL d   1       3.916  -0.678  -1.093  0.00  0.00     0.031 C 
ATOM     23  C   UNL d   1       3.496   0.127  -2.310  0.00  0.00    -0.024 C 
ATOM     24  C   UNL d   1       5.428  -0.433  -1.194  0.00  0.00     0.019 C 
ATOM     25  C   UNL d   1       4.282   1.217  -2.331  0.00  0.00    -0.026 C 
ATOM     26  C   UNL d   1       5.279   1.090  -1.198  0.00  0.00     0.010 C 
ATOM     27  C   UNL d   1       4.586   1.281   0.170  0.00  0.00     0.034 C 
ENDBRANCH  19  21
ENDBRANCH  17  19
ENDBRANCH  15  17
ENDBRANCH   1  15
TORSDOF 8
