REMARK  6 active torsions:
REMARK  status: ('A' for Active; 'I' for Inactive)
REMARK    1  A    between atoms: C_2  and  C_1 
REMARK    2  A    between atoms: N_10  and  C_1 
REMARK    3  A    between atoms: O_13  and  N_3 
REMARK    4  A    between atoms: C_5  and  S_8 
REMARK    5  A    between atoms: S_8  and  C_12 
REMARK    6  A    between atoms: C_12  and  C_11 
ROOT
ATOM      1  C   UNL d   1       2.501  -0.107  -0.122  0.00  0.00     0.004 A 
ATOM      2  C   UNL d   1       3.190   0.282   1.034  0.00  0.00     0.022 A 
ATOM      3  C   UNL d   1       4.586   0.134   1.120  0.00  0.00    -0.048 A 
ATOM      4  C   UNL d   1       3.207  -0.627  -1.212  0.00  0.00     0.015 A 
ATOM      5  C   UNL d   1       4.593  -0.769  -1.141  0.00  0.00     0.002 A 
ATOM      6  C   UNL d   1       5.275  -0.402   0.021  0.00  0.00     0.008 A 
ENDROOT
BRANCH   3   7
ATOM      7  C   UNL d   1       5.311   0.484   2.401  0.00  0.00     0.119 C 
BRANCH   7   8
ATOM      8  S   UNL d   1       6.551   1.800   2.178  0.00  0.00    -0.108 SA
BRANCH   8   9
ATOM      9  C   UNL d   1       7.167   1.934   3.848  0.00  0.00     0.069 A 
ATOM     10  N   UNL d   1       6.645   1.121   4.795  0.00  0.00    -0.361 N 
ATOM     11  C   UNL d   1       7.114   1.256   6.056  0.00  0.00     0.089 A 
ATOM     12  HN  UNL d   1       5.927   0.433   4.566  1.00  0.00     0.165 HD
ATOM     13  C   UNL d   1       8.086   2.168   6.424  0.00  0.00     0.017 A 
ATOM     14  C   UNL d   1       8.618   2.990   5.439  0.00  0.00     0.004 A 
ATOM     15  C   UNL d   1       8.154   2.873   4.130  0.00  0.00     0.037 A 
ENDBRANCH   8   9
ENDBRANCH   7   8
ENDBRANCH   3   7
BRANCH   1  16
ATOM     16  C   UNL d   1       1.012   0.011  -0.182  0.00  0.00     0.108 C 
ATOM     17  N   UNL d   1       0.421   0.892   0.574  0.00  0.00    -0.258 N 
ATOM     18  HN  UNL d   1       0.904   1.529   1.207  1.00  0.00     0.195 HD
BRANCH  17  19
ATOM     19  O   UNL d   1      -0.974   0.847   0.401  0.00  0.00    -0.289 OA
ATOM     20  H   UNL d   1      -1.262   1.637   0.894  0.00  0.00     0.244 HD
ENDBRANCH  17  19
BRANCH  16  21
ATOM     21  N   UNL d   1       0.308  -0.827  -1.017  0.00  0.00    -0.287 NA
ATOM     22  H   UNL d   1       0.648  -1.780  -1.050  0.00  0.00     0.125 HD
ATOM     23  H   UNL d   1      -0.680  -0.780  -0.781  0.00  0.00     0.125 HD
ENDBRANCH  16  21
ENDBRANCH   1  16
TORSDOF 6
