REMARK  5 active torsions:
REMARK  status: ('A' for Active; 'I' for Inactive)
REMARK    1  A    between atoms: N_5  and  C_11 
REMARK    2  A    between atoms: C_10  and  N_8 
REMARK    3  A    between atoms: C_19  and  C_10 
REMARK    4  A    between atoms: O_25  and  C_10 
REMARK    5  A    between atoms: C_24  and  C_19 
ROOT
ATOM      1  C   UNL d   1      -3.045   0.154   0.308  0.00  0.00     0.148 A 
ATOM      2  N   UNL d   1      -2.381   0.400  -0.801  0.00  0.00    -0.336 N 
ATOM      3  HN  UNL d   1      -2.818   0.678  -1.680  1.00  0.00     0.168 HD
ATOM      4  S   UNL d   1      -2.028  -0.315   1.628  0.00  0.00    -0.052 SA
ATOM      5  N   UNL d   1      -4.397   0.310   0.396  0.00  0.00    -0.358 N 
ATOM      6  C   UNL d   1      -0.627  -0.148   0.645  0.00  0.00     0.036 A 
ATOM      7  N   UNL d   1      -7.090  -0.637  -0.375  0.00  0.00     0.120 N 
ATOM      8  C   UNL d   1      -1.024   0.235  -0.632  0.00  0.00     0.051 A 
ATOM      9  C   UNL d   1       0.726  -0.339   0.975  0.00  0.00     0.045 A 
ATOM     10  C   UNL d   1      -5.237  -0.342   1.408  0.00  0.00     0.155 C 
ATOM     11  C   UNL d   1      -5.107   0.894  -0.746  0.00  0.00     0.155 C 
ATOM     12  C   UNL d   1      -6.325  -1.240   0.754  0.00  0.00     0.295 C 
ATOM     13  C   UNL d   1      -6.082  -0.137  -1.344  0.00  0.00     0.295 C 
ATOM     14  C   UNL d   1      -0.044   0.429  -1.627  0.00  0.00     0.032 A 
ATOM     15  C   UNL d   1       1.678  -0.133  -0.029  0.00  0.00     0.035 A 
ATOM     16  C   UNL d   1       1.306   0.243  -1.315  0.00  0.00     0.026 A 
ATOM     17 CL   UNL d   1       3.348  -0.350   0.336  0.00  0.00    -0.084 Cl
ENDROOT
BRANCH   7  18
ATOM     18  C   UNL d   1      -8.025   0.401   0.093  0.00  0.00     0.360 C 
BRANCH  18  19
ATOM     19  C   UNL d   1      -8.780   1.103  -1.065  0.00  0.00     0.102 C 
BRANCH  19  20
ATOM     20  C   UNL d   1      -9.757   2.193  -0.667  0.00  0.00    -0.054 A 
ATOM     21  C   UNL d   1      -9.329   3.524  -0.536  0.00  0.00     0.010 A 
ATOM     22  C   UNL d   1     -10.257   4.550  -0.333  0.00  0.00     0.036 A 
ATOM     23  C   UNL d   1     -11.620   4.243  -0.249  0.00  0.00     0.102 A 
ATOM     24  C   UNL d   1     -12.054   2.913  -0.315  0.00  0.00     0.036 A 
ATOM     25  C   UNL d   1     -11.120   1.895  -0.518  0.00  0.00     0.010 A 
BRANCH  23  26
ATOM     26  N   UNL d   1     -12.609   5.322  -0.138  0.00  0.00    -0.116 N 
ATOM     27  O   UNL d   1     -12.186   6.489  -0.113  0.00  0.00    -0.532 OA
ATOM     28  O   UNL d   1     -13.806   5.010  -0.090  0.00  0.00    -0.532 OA
ENDBRANCH  23  26
ENDBRANCH  19  20
ENDBRANCH  18  19
BRANCH  18  29
ATOM     29  O   UNL d   1      -8.994  -0.253   0.901  0.00  0.00    -0.367 OA
ATOM     30  H   UNL d   1      -9.171  -1.079   0.420  0.00  0.00     0.212 HD
ENDBRANCH  18  29
ENDBRANCH   7  18
TORSDOF 5
