REMARK  5 active torsions:
REMARK  status: ('A' for Active; 'I' for Inactive)
REMARK    1  A    between atoms: C_2  and  C_1 
REMARK       I    between atoms: N_5  and  C_1 
REMARK    2  A    between atoms: C_8  and  C_3 
REMARK    3  A    between atoms: C_6  and  C_8 
REMARK    4  A    between atoms: C_7  and  C_6 
REMARK    5  A    between atoms: O_15  and  C_7 
ROOT
ATOM      1  C   UNL d   1      -0.002   1.187   0.259  0.00  0.00     0.044 C 
ATOM      2  C   UNL d   1       0.488   2.169  -0.655  0.00  0.00    -0.040 C 
ATOM      3  C   UNL d   1      -0.957   1.576   1.234  0.00  0.00    -0.045 C 
ATOM      4  C   UNL d   1      -0.150   3.428  -0.695  0.00  0.00     0.015 C 
ATOM      5  C   UNL d   1      -1.589   2.826   1.126  0.00  0.00     0.014 C 
ATOM      6  C   UNL d   1      -1.214   3.744   0.149  0.00  0.00    -0.061 C 
ATOM      7  C   UNL d   1      -1.346   0.751   2.435  0.00  0.00     0.049 C 
ATOM      8  C   UNL d   1      -1.880   5.083   0.055  0.00  0.00     0.048 C 
ENDROOT
BRANCH   1   9
ATOM      9  C   UNL d   1       0.502  -0.232   0.219  0.00  0.00     0.255 C 
ATOM     10  N   UNL d   1      -0.403  -1.304   0.177  0.00  0.00    -0.344 N 
ATOM     11  C   UNL d   1      -1.871  -1.243   0.213  0.00  0.00     0.152 C 
ATOM     12  C   UNL d   1       0.109  -2.680   0.234  0.00  0.00     0.152 C 
ATOM     13  C   UNL d   1      -2.513  -2.194  -0.797  0.00  0.00     0.187 C 
ATOM     14  O   UNL d   1      -2.014  -3.528  -0.646  0.00  0.00    -0.388 OA
ATOM     15  C   UNL d   1      -0.588  -3.554  -0.815  0.00  0.00     0.187 C 
ATOM     16  O   UNL d   1       1.715  -0.422   0.175  0.00  0.00    -0.267 OA
ENDBRANCH   1   9
BRANCH   2  17
ATOM     17  C   UNL d   1       1.744   2.047  -1.517  0.00  0.00     0.059 C 
BRANCH  17  18
ATOM     18  C   UNL d   1       1.619   1.704  -3.026  0.00  0.00     0.042 C 
ATOM     19  C   UNL d   1       0.855   0.390  -3.227  0.00  0.00     0.026 C 
ATOM     20  C   UNL d   1       0.894   2.787  -3.852  0.00  0.00     0.026 C 
BRANCH  18  21
ATOM     21  C   UNL d   1       3.067   1.693  -3.566  0.00  0.00     0.148 C 
ATOM     22  O   UNL d   1       3.710   2.708  -3.780  0.00  0.00    -0.649 OA
BRANCH  21  23
ATOM     23  O   UNL d   1       3.623   0.474  -3.761  0.00  0.00    -0.776 OA
ATOM     24  H   UNL d   1       3.090  -0.291  -3.489  0.00  0.00     0.167 HD
ENDBRANCH  21  23
ENDBRANCH  18  21
ENDBRANCH  17  18
ENDBRANCH   2  17
TORSDOF 5
