REMARK  2 active torsions:
REMARK  status: ('A' for Active; 'I' for Inactive)
REMARK    1  A    between atoms: C_7  and  C_1 
REMARK    2  A    between atoms: N_8  and  C_7 
ROOT
ATOM      1  C   UNL d   1       0.961  -1.397  -0.065  0.00  0.00    -0.011 A 
ATOM      2  C   UNL d   1       0.011  -0.262  -0.076  0.00  0.00     0.007 A 
ATOM      3  C   UNL d   1       2.810   0.267   0.036  0.00  0.00     0.288 A 
ATOM      4  O   UNL d   1       1.895   1.300   0.051  0.00  0.00    -0.275 OA
ATOM      5  C   UNL d   1       2.271  -1.097  -0.050  0.00  0.00     0.092 A 
ATOM      6  C   UNL d   1       0.515   1.041  -0.021  0.00  0.00     0.090 A 
ATOM      7  C   UNL d   1      -1.384  -0.405  -0.158  0.00  0.00     0.021 A 
ATOM      8  O   UNL d   1       4.018   0.462   0.107  0.00  0.00    -0.260 OA
ATOM      9  C   UNL d   1      -0.310   2.167  -0.042  0.00  0.00     0.039 A 
ATOM     10  C   UNL d   1      -2.236   0.716  -0.197  0.00  0.00    -0.061 A 
ATOM     11  C   UNL d   1      -1.688   2.002  -0.126  0.00  0.00     0.009 A 
ATOM     12  C   UNL d   1      -3.727   0.550  -0.269  0.00  0.00     0.048 C 
ENDROOT
BRANCH   1  13
ATOM     13  C   UNL d   1       0.417  -2.818  -0.114  0.00  0.00     0.312 C 
BRANCH  13  14
ATOM     14  N   UNL d   1       1.408  -3.912  -0.115  0.00  0.00     0.096 N 
ATOM     15  C   UNL d   1       2.012  -4.171   1.215  0.00  0.00     0.299 C 
ATOM     16  C   UNL d   1       1.082  -4.874   2.216  0.00  0.00     0.198 C 
ATOM     17  O   UNL d   1       0.581  -6.103   1.684  0.00  0.00    -0.388 OA
ATOM     18  C   UNL d   1      -0.099  -5.883   0.444  0.00  0.00     0.198 C 
ATOM     19  C   UNL d   1       0.810  -5.186  -0.586  0.00  0.00     0.299 C 
ENDBRANCH  13  14
ENDBRANCH   1  13
TORSDOF 2
