REMARK  5 active torsions:
REMARK  status: ('A' for Active; 'I' for Inactive)
REMARK    1  A    between atoms: C_4  and  C_1 
REMARK    2  A    between atoms: C_11  and  C_2 
REMARK       I    between atoms: N_10  and  C_4 
REMARK    3  A    between atoms: C_6  and  N_10 
REMARK    4  A    between atoms: C_15  and  C_7 
REMARK    5  A    between atoms: C_17  and  C_12 
ROOT
ATOM      1  C   UNL d   1       1.177   0.617   0.023  0.00  0.00     0.073 A 
ATOM      2  C   UNL d   1       0.902  -0.670  -0.421  0.00  0.00     0.175 A 
ATOM      3  O   UNL d   1      -0.401  -0.992  -0.134  0.00  0.00    -0.304 OA
ATOM      4  C   UNL d   1      -0.072   1.119   0.503  0.00  0.00     0.058 A 
ATOM      5  C   UNL d   1      -0.995   0.101   0.433  0.00  0.00     0.087 A 
ENDROOT
BRANCH   1   6
ATOM      6  C   UNL d   1       2.420   1.391  -0.017  0.00  0.00     0.260 C 
ATOM      7  N   UNL d   1       3.563   0.652   0.141  0.00  0.00    -0.303 N 
ATOM      8  H   UNL d   1       3.542  -0.344   0.294  0.00  0.00     0.171 HD
ATOM      9  O   UNL d   1       2.357   2.610  -0.098  0.00  0.00    -0.267 OA
BRANCH   7  10
ATOM     10  C   UNL d   1       4.810   1.212   0.098  0.00  0.00     0.151 A 
ATOM     11  N   UNL d   1       5.161   2.435  -0.190  0.00  0.00    -0.335 N 
ATOM     12  C   UNL d   1       6.547   2.542  -0.207  0.00  0.00     0.051 A 
ATOM     13  HN  UNL d   1       4.513   3.201  -0.374  1.00  0.00     0.168 HD
ATOM     14  C   UNL d   1       7.208   1.380   0.152  0.00  0.00     0.083 A 
ATOM     15  S   UNL d   1       6.074   0.121   0.444  0.00  0.00    -0.063 SA
BRANCH  12  16
ATOM     16  C   UNL d   1       7.193   3.788  -0.623  0.00  0.00    -0.009 A 
ATOM     17  C   UNL d   1       6.394   4.901  -0.931  0.00  0.00     0.014 A 
ATOM     18  C   UNL d   1       6.963   6.095  -1.384  0.00  0.00     0.001 A 
ATOM     19  C   UNL d   1       8.343   6.194  -1.534  0.00  0.00     0.000 A 
ATOM     20  C   UNL d   1       9.153   5.104  -1.227  0.00  0.00     0.001 A 
ATOM     21  C   UNL d   1       8.583   3.909  -0.773  0.00  0.00     0.014 A 
ENDBRANCH  12  16
ENDBRANCH   7  10
ENDBRANCH   1   6
BRANCH   2  22
ATOM     22  C   UNL d   1       1.668  -1.714  -1.148  0.00  0.00     0.440 C 
ATOM     23  F   UNL d   1       2.903  -1.282  -1.510  0.00  0.00    -0.164 F 
ATOM     24  F   UNL d   1       1.869  -2.814  -0.379  0.00  0.00    -0.164 F 
ATOM     25  F   UNL d   1       1.048  -2.122  -2.282  0.00  0.00    -0.164 F 
ENDBRANCH   2  22
BRANCH   5  26
ATOM     26  C   UNL d   1      -2.407  -0.018   0.791  0.00  0.00    -0.002 A 
ATOM     27  C   UNL d   1      -3.084   1.085   1.339  0.00  0.00     0.016 A 
ATOM     28  C   UNL d   1      -4.449   1.021   1.638  0.00  0.00     0.024 A 
ATOM     29  C   UNL d   1      -5.152  -0.154   1.399  0.00  0.00     0.034 A 
ATOM     30  C   UNL d   1      -4.497  -1.272   0.886  0.00  0.00     0.024 A 
ATOM     31 CL   UNL d   1      -6.839  -0.221   1.725  0.00  0.00    -0.084 Cl
ATOM     32  C   UNL d   1      -3.129  -1.203   0.587  0.00  0.00     0.016 A 
ENDBRANCH   5  26
TORSDOF 5
