REMARK  6 active torsions:
REMARK  status: ('A' for Active; 'I' for Inactive)
REMARK       I    between atoms: N_2  and  C_1 
REMARK    1  A    between atoms: C_5  and  C_1 
REMARK    2  A    between atoms: C_3  and  N_2 
REMARK    3  A    between atoms: O_18  and  C_4 
REMARK    4  A    between atoms: C_6  and  S_10 
REMARK    5  A    between atoms: S_10  and  C_16 
REMARK    6  A    between atoms: C_16  and  C_17 
ROOT
ATOM      1  C   UNL d   1       0.216   1.033   0.690  0.00  0.00     0.032 A 
ATOM      2  C   UNL d   1       0.630   2.340   0.397  0.00  0.00     0.017 A 
ATOM      3  C   UNL d   1      -1.006   0.840   1.347  0.00  0.00     0.017 A 
ATOM      4  C   UNL d   1      -1.334   3.248   1.499  0.00  0.00    -0.049 A 
ATOM      5  C   UNL d   1      -1.772   1.939   1.746  0.00  0.00     0.009 A 
ATOM      6  C   UNL d   1      -0.134   3.436   0.802  0.00  0.00     0.009 A 
ENDROOT
BRANCH   1   7
ATOM      7  C   UNL d   1       1.116  -0.086   0.274  0.00  0.00     0.256 C 
ATOM      8  N   UNL d   1       0.868  -1.321   0.835  0.00  0.00    -0.321 N 
ATOM      9  H   UNL d   1       0.054  -1.465   1.415  0.00  0.00     0.169 HD
ATOM     10  O   UNL d   1       1.988   0.136  -0.566  0.00  0.00    -0.267 OA
BRANCH   8  11
ATOM     11  C   UNL d   1       1.598  -2.490   0.541  0.00  0.00     0.068 A 
ATOM     12  C   UNL d   1       0.895  -3.696   0.464  0.00  0.00     0.092 A 
ATOM     13  C   UNL d   1       1.545  -4.892   0.194  0.00  0.00     0.045 A 
ATOM     14  C   UNL d   1       2.933  -4.903   0.013  0.00  0.00    -0.059 A 
ATOM     15  C   UNL d   1       3.645  -3.698   0.109  0.00  0.00     0.009 A 
ATOM     16  C   UNL d   1       3.628  -6.184  -0.338  0.00  0.00     0.048 C 
ATOM     17  C   UNL d   1       2.979  -2.493   0.361  0.00  0.00     0.033 A 
BRANCH  12  18
ATOM     18  O   UNL d   1      -0.472  -3.705   0.534  0.00  0.00    -0.358 OA
ATOM     19  H   UNL d   1      -0.758  -2.902   0.062  0.00  0.00     0.217 HD
ENDBRANCH  12  18
ENDBRANCH   8  11
ENDBRANCH   1   7
BRANCH   4  20
ATOM     20  C   UNL d   1      -2.150   4.435   1.959  0.00  0.00     0.119 C 
BRANCH  20  21
ATOM     21  S   UNL d   1      -2.257   4.510   3.779  0.00  0.00    -0.108 SA
BRANCH  21  22
ATOM     22  C   UNL d   1      -3.304   5.939   3.980  0.00  0.00     0.069 A 
ATOM     23  N   UNL d   1      -3.691   6.615   2.874  0.00  0.00    -0.361 N 
ATOM     24  C   UNL d   1      -4.469   7.703   3.060  0.00  0.00     0.089 A 
ATOM     25  HN  UNL d   1      -3.408   6.316   1.940  1.00  0.00     0.165 HD
ATOM     26  C   UNL d   1      -4.888   8.153   4.299  0.00  0.00     0.017 A 
ATOM     27  C   UNL d   1      -4.487   7.438   5.422  0.00  0.00     0.004 A 
ATOM     28  C   UNL d   1      -3.681   6.319   5.262  0.00  0.00     0.037 A 
ENDBRANCH  21  22
ENDBRANCH  20  21
ENDBRANCH   4  20
TORSDOF 6
