REMARK  2 active torsions:
REMARK  status: ('A' for Active; 'I' for Inactive)
REMARK    1  A    between atoms: C_8  and  N_2 
REMARK    2  A    between atoms: C_9  and  N_4 
ROOT
ATOM      1  C   UNL d   1       0.881  -0.707   0.116  0.00  0.00     0.156 C 
ATOM      2  N   UNL d   1       0.843   0.707   0.073  0.00  0.00    -0.296 N 
ATOM      3  S   UNL d   1      -0.763  -1.277   0.600  0.00  0.00    -0.063 SA
ATOM      4  N   UNL d   1       1.878  -1.500  -0.143  0.00  0.00    -0.336 N 
ATOM      5  HN  UNL d   1       2.769  -1.067  -0.386  1.00  0.00     0.168 HD
ATOM      6  C   UNL d   1      -0.471   1.230   0.163  0.00  0.00     0.022 C 
ATOM      7  C   UNL d   1      -1.420   0.312   0.414  0.00  0.00     0.078 C 
ATOM      8  C   UNL d   1      -0.853   2.647  -0.140  0.00  0.00     0.069 C 
ENDROOT
BRANCH   2   9
ATOM      9  C   UNL d   1       2.026   1.509   0.009  0.00  0.00     0.041 A 
ATOM     10  C   UNL d   1       3.144   1.128  -0.751  0.00  0.00     0.030 A 
ATOM     11  C   UNL d   1       4.288   1.934  -0.831  0.00  0.00     0.002 A 
ATOM     12  C   UNL d   1       4.338   3.150  -0.157  0.00  0.00     0.000 A 
ATOM     13  C   UNL d   1       3.258   3.544   0.623  0.00  0.00     0.002 A 
ATOM     14  C   UNL d   1       2.127   2.722   0.719  0.00  0.00     0.030 A 
ENDBRANCH   2   9
BRANCH   4  15
ATOM     15  C   UNL d   1       1.829  -2.901  -0.116  0.00  0.00     0.034 A 
ATOM     16  C   UNL d   1       0.862  -3.663  -0.792  0.00  0.00     0.029 A 
ATOM     17  C   UNL d   1       0.877  -5.059  -0.739  0.00  0.00     0.002 A 
ATOM     18  C   UNL d   1       1.903  -5.722  -0.071  0.00  0.00     0.000 A 
ATOM     19  C   UNL d   1       2.915  -4.982   0.539  0.00  0.00     0.002 A 
ATOM     20  C   UNL d   1       2.871  -3.584   0.516  0.00  0.00     0.029 A 
ENDBRANCH   4  15
TORSDOF 2
