REMARK  5 active torsions:
REMARK  status: ('A' for Active; 'I' for Inactive)
REMARK       I    between atoms: N_2  and  C_1 
REMARK    1  A    between atoms: C_3  and  C_1 
REMARK    2  A    between atoms: C_8  and  N_2 
REMARK    3  A    between atoms: C_4  and  C_8 
REMARK    4  A    between atoms: O_10  and  C_4 
REMARK    5  A    between atoms: C_15  and  O_10 
ROOT
ATOM      1  C   UNL d   1       1.010   0.113  -0.017  0.00  0.00     0.252 C 
ATOM      2  N   UNL d   1       0.300   1.172  -0.527  0.00  0.00    -0.348 N 
ATOM      3  O   UNL d   1       2.220   0.152   0.181  0.00  0.00    -0.268 OA
ATOM      4  H   UNL d   1      -0.714   1.169  -0.542  0.00  0.00     0.163 HD
ENDROOT
BRANCH   1   5
ATOM      5  C   UNL d   1       0.227  -1.104   0.325  0.00  0.00     0.033 A 
ATOM      6  C   UNL d   1       0.709  -1.927   1.351  0.00  0.00     0.041 A 
ATOM      7  C   UNL d   1      -0.000  -3.072   1.702  0.00  0.00     0.035 A 
ATOM      8 CL   UNL d   1       0.577  -4.077   2.974  0.00  0.00    -0.084 Cl
ATOM      9  C   UNL d   1      -1.177  -3.411   1.034  0.00  0.00     0.024 A 
ATOM     10  C   UNL d   1      -1.648  -2.602  -0.000  0.00  0.00     0.003 A 
ATOM     11  C   UNL d   1      -0.947  -1.448  -0.358  0.00  0.00     0.017 A 
ENDBRANCH   1   5
BRANCH   2  12
ATOM     12  C   UNL d   1       0.962   2.421  -0.865  0.00  0.00     0.233 C 
BRANCH  12  13
ATOM     13  C   UNL d   1      -0.021   3.345  -1.559  0.00  0.00     0.276 C 
ATOM     14  O   UNL d   1      -1.210   3.093  -1.720  0.00  0.00    -0.263 OA
BRANCH  13  15
ATOM     15  O   UNL d   1       0.623   4.458  -2.005  0.00  0.00    -0.321 OA
BRANCH  15  16
ATOM     16  C   UNL d   1      -0.119   5.278  -2.918  0.00  0.00     0.174 C 
ATOM     17  C   UNL d   1       0.141   4.779  -4.327  0.00  0.00     0.034 C 
ENDBRANCH  15  16
ENDBRANCH  13  15
ENDBRANCH  12  13
ENDBRANCH   2  12
TORSDOF 5
