REMARK  4 active torsions:
REMARK  status: ('A' for Active; 'I' for Inactive)
REMARK    1  A    between atoms: C_4  and  C_1 
REMARK    2  A    between atoms: N_5  and  C_15 
REMARK    3  A    between atoms: C_17  and  C_6 
REMARK    4  A    between atoms: C_8  and  C_11 
ROOT
ATOM      1  C   UNL d   1       0.200  -1.131  -0.018  0.00  0.00     0.088 A 
ATOM      2  N   UNL d   1       1.351  -0.544  -0.292  0.00  0.00    -0.349 N 
ATOM      3  HN  UNL d   1       2.185  -1.032  -0.620  1.00  0.00     0.166 HD
ATOM      4  C   UNL d   1       1.274   0.823  -0.075  0.00  0.00     0.050 A 
ATOM      5  S   UNL d   1      -1.022  -0.049   0.553  0.00  0.00    -0.081 SA
ATOM      6  C   UNL d   1       0.030   1.277   0.311  0.00  0.00     0.082 A 
ENDROOT
BRANCH   1   7
ATOM      7  C   UNL d   1      -0.035  -2.590  -0.050  0.00  0.00     0.041 A 
ATOM      8  C   UNL d   1       0.898  -3.476   0.534  0.00  0.00     0.049 A 
ATOM      9  C   UNL d   1       0.684  -4.865   0.549  0.00  0.00     0.041 A 
ATOM     10 CL   UNL d   1       2.353  -2.941   1.314  0.00  0.00    -0.083 Cl
ATOM     11  C   UNL d   1      -0.473  -5.421  -0.002  0.00  0.00     0.051 A 
ATOM     12  C   UNL d   1      -1.397  -4.560  -0.602  0.00  0.00     0.041 A 
ATOM     13  C   UNL d   1      -1.174  -3.173  -0.648  0.00  0.00     0.049 A 
ATOM     14 CL   UNL d   1      -2.359  -2.270  -1.537  0.00  0.00    -0.083 Cl
BRANCH  11  15
ATOM     15  C   UNL d   1      -0.738  -6.906   0.043  0.00  0.00     0.417 C 
ATOM     16  F   UNL d   1       0.289  -7.625   0.570  0.00  0.00    -0.166 F 
ATOM     17  F   UNL d   1      -1.833  -7.208   0.792  0.00  0.00    -0.166 F 
ATOM     18  F   UNL d   1      -0.970  -7.429  -1.192  0.00  0.00    -0.166 F 
ENDBRANCH  11  15
ENDBRANCH   1   7
BRANCH   4  19
ATOM     19  C   UNL d   1       2.448   1.681  -0.173  0.00  0.00    -0.009 A 
ATOM     20  C   UNL d   1       2.360   2.998  -0.652  0.00  0.00     0.016 A 
ATOM     21  C   UNL d   1       3.490   3.823  -0.681  0.00  0.00     0.037 A 
ATOM     22  C   UNL d   1       4.720   3.333  -0.224  0.00  0.00     0.102 A 
ATOM     23  C   UNL d   1       4.825   2.018   0.248  0.00  0.00     0.037 A 
ATOM     24  C   UNL d   1       3.691   1.199   0.266  0.00  0.00     0.016 A 
BRANCH  22  25
ATOM     25  N   UNL d   1       5.902   4.201  -0.237  0.00  0.00    -0.116 N 
ATOM     26  O   UNL d   1       6.968   3.736   0.190  0.00  0.00    -0.532 OA
ATOM     27  O   UNL d   1       5.767   5.354  -0.670  0.00  0.00    -0.532 OA
ENDBRANCH  22  25
ENDBRANCH   4  19
TORSDOF 4
