REMARK  6 active torsions:
REMARK  status: ('A' for Active; 'I' for Inactive)
REMARK    1  A    between atoms: C_5  and  C_2 
REMARK    2  A    between atoms: N_11  and  C_3 
REMARK    3  A    between atoms: C_4  and  N_10 
REMARK    4  A    between atoms: O_14  and  C_5 
REMARK    5  A    between atoms: N_10  and  N_11 
REMARK    6  A    between atoms: C_20  and  O_14 
ROOT
ATOM      1  C   UNL d   1       3.031  -0.251   1.259  0.00  0.00     0.111 A 
ATOM      2  C   UNL d   1       1.869   0.153   0.548  0.00  0.00     0.074 A 
ATOM      3  C   UNL d   1       4.142   0.614   1.499  0.00  0.00     0.105 C 
ATOM      4  N   UNL d   1       5.078   1.293   1.643  0.00  0.00    -0.191 NA
ATOM      5  C   UNL d   1       3.163  -1.568   1.725  0.00  0.00     0.139 A 
ATOM      6  F   UNL d   1       4.269  -1.941   2.390  0.00  0.00    -0.204 F 
ATOM      7  C   UNL d   1       0.896  -0.859   0.338  0.00  0.00     0.033 A 
ATOM      8  C   UNL d   1       1.045  -2.172   0.811  0.00  0.00     0.005 A 
ATOM      9  C   UNL d   1       2.182  -2.525   1.514  0.00  0.00     0.044 A 
ENDROOT
BRANCH   2  10
ATOM     10  N   UNL d   1       1.646   1.485   0.078  0.00  0.00    -0.295 N 
ATOM     11  C   UNL d   1       0.479   1.715  -0.790  0.00  0.00     0.178 C 
BRANCH  10  12
ATOM     12  N   UNL d   1       2.618   2.470   0.106  0.00  0.00    -0.308 N 
ATOM     13  H   UNL d   1       3.402   2.269  -0.523  0.00  0.00     0.186 HD
BRANCH  12  14
ATOM     14  C   UNL d   1       2.385   3.839   0.168  0.00  0.00     0.136 C 
ATOM     15  C   UNL d   1       2.014   4.614   1.200  0.00  0.00     0.136 C 
ATOM     16  C   UNL d   1       1.822   4.097   2.503  0.00  0.00     0.107 C 
ATOM     17  N   UNL d   1       1.672   3.696   3.586  0.00  0.00    -0.191 NA
BRANCH  15  18
ATOM     18  C   UNL d   1       1.953   6.081   0.956  0.00  0.00     0.305 C 
ATOM     19  O   UNL d   1       2.098   6.602  -0.140  0.00  0.00    -0.258 OA
BRANCH  18  20
ATOM     20  O   UNL d   1       1.805   6.748   2.128  0.00  0.00    -0.317 OA
BRANCH  20  21
ATOM     21  C   UNL d   1       2.103   8.153   2.111  0.00  0.00     0.174 C 
ATOM     22  C   UNL d   1       3.588   8.330   2.375  0.00  0.00     0.034 C 
ENDBRANCH  20  21
ENDBRANCH  18  20
ENDBRANCH  15  18
ENDBRANCH  12  14
ENDBRANCH  10  12
ENDBRANCH   2  10
TORSDOF 6
