REMARK  6 active torsions:
REMARK  status: ('A' for Active; 'I' for Inactive)
REMARK    1  A    between atoms: N_2  and  S_1 
REMARK    2  A    between atoms: C_8  and  S_1 
REMARK    3  A    between atoms: C_3  and  N_2 
REMARK    4  A    between atoms: C_4  and  C_5 
REMARK    5  A    between atoms: O_15  and  C_7 
REMARK    6  A    between atoms: C_12  and  O_15 
ROOT
ATOM      1  C   UNL d   1       0.725   0.271   2.613  0.00  0.00     0.077 A 
ATOM      2  C   UNL d   1       0.312   0.104   5.020  0.00  0.00     0.050 A 
ATOM      3  C   UNL d   1       2.028  -0.213   2.806  0.00  0.00     0.103 A 
ATOM      4  C   UNL d   1      -0.119   0.426   3.723  0.00  0.00     0.049 A 
ATOM      5  C   UNL d   1       1.613  -0.385   5.196  0.00  0.00     0.019 A 
ATOM      6  C   UNL d   1       2.457  -0.550   4.096  0.00  0.00     0.040 A 
ENDROOT
BRANCH   1   7
ATOM      7  N   UNL d   1       0.167   0.602   1.339  0.00  0.00    -0.278 N 
ATOM      8  H   UNL d   1      -0.493   1.377   1.303  0.00  0.00     0.179 HD
BRANCH   7   9
ATOM      9  S   UNL d   1      -0.274  -0.607   0.248  0.00  0.00     0.263 S 
ATOM     10  O   UNL d   1       0.900  -1.219  -0.332  0.00  0.00    -0.200 OA
ATOM     11  O   UNL d   1      -1.304  -0.023  -0.583  0.00  0.00    -0.200 OA
BRANCH   9  12
ATOM     12  C   UNL d   1      -1.052  -1.817   1.289  0.00  0.00     0.080 A 
ATOM     13  C   UNL d   1      -2.400  -1.683   1.631  0.00  0.00     0.027 A 
ATOM     14  C   UNL d   1      -2.970  -2.603   2.514  0.00  0.00     0.025 A 
ATOM     15  C   UNL d   1      -2.194  -3.643   3.032  0.00  0.00     0.034 A 
ATOM     16  C   UNL d   1      -0.858  -3.792   2.658  0.00  0.00     0.025 A 
ATOM     17 CL   UNL d   1      -2.889  -4.747   4.153  0.00  0.00    -0.084 Cl
ATOM     18  C   UNL d   1      -0.285  -2.883   1.774  0.00  0.00     0.027 A 
ENDBRANCH   9  12
ENDBRANCH   7   9
ENDBRANCH   1   7
BRANCH   3  19
ATOM     19  O   UNL d   1       2.946  -0.466   1.816  0.00  0.00    -0.308 OA
BRANCH  19  20
ATOM     20  C   UNL d   1       3.272   0.507   0.900  0.00  0.00     0.077 A 
ATOM     21  C   UNL d   1       3.002   1.866   1.030  0.00  0.00     0.045 A 
ATOM     22  C   UNL d   1       3.280   2.754  -0.021  0.00  0.00    -0.037 A 
ATOM     23  C   UNL d   1       2.870   4.193   0.131  0.00  0.00     0.050 C 
ATOM     24  C   UNL d   1       3.929   2.273  -1.178  0.00  0.00     0.046 A 
ATOM     25  C   UNL d   1       4.290   0.917  -1.282  0.00  0.00    -0.037 A 
ATOM     26 CL   UNL d   1       4.274   3.375  -2.472  0.00  0.00    -0.083 Cl
ATOM     27  C   UNL d   1       3.938   0.046  -0.237  0.00  0.00     0.045 A 
ATOM     28  C   UNL d   1       4.991   0.318  -2.470  0.00  0.00     0.050 C 
ENDBRANCH  19  20
ENDBRANCH   3  19
BRANCH   2  29
ATOM     29  C   UNL d   1      -0.601   0.282   6.209  0.00  0.00     0.417 C 
ATOM     30  F   UNL d   1      -1.848   0.712   5.869  0.00  0.00    -0.166 F 
ATOM     31  F   UNL d   1      -0.780  -0.870   6.910  0.00  0.00    -0.166 F 
ATOM     32  F   UNL d   1      -0.121   1.195   7.096  0.00  0.00    -0.166 F 
ENDBRANCH   2  29
TORSDOF 6
