REMARK  4 active torsions:
REMARK  status: ('A' for Active; 'I' for Inactive)
REMARK    1  A    between atoms: N_6  and  C_1 
REMARK    2  A    between atoms: C_2  and  O_7 
REMARK    3  A    between atoms: C_11  and  N_6 
REMARK    4  A    between atoms: O_7  and  C_12 
ROOT
ATOM      1  C   UNL d   1       0.398   3.868  -0.309  0.00  0.00     0.034 A 
ATOM      2  C   UNL d   1       2.192   5.986  -0.849  0.00  0.00     0.078 A 
ATOM      3  C   UNL d   1       1.337   3.776  -1.348  0.00  0.00     0.032 A 
ATOM      4  C   UNL d   1       0.355   5.060   0.421  0.00  0.00     0.032 A 
ATOM      5  C   UNL d   1       1.233   6.113   0.150  0.00  0.00     0.039 A 
ATOM      6  C   UNL d   1       2.217   4.831  -1.627  0.00  0.00     0.039 A 
ENDROOT
BRANCH   1   7
ATOM      7  N   UNL d   1      -0.394   2.751  -0.002  0.00  0.00    -0.337 N 
ATOM      8  H   UNL d   1      -0.480   2.050  -0.724  0.00  0.00     0.168 HD
BRANCH   7   9
ATOM      9  C   UNL d   1      -1.018   2.450   1.181  0.00  0.00     0.140 C 
ATOM     10  N   UNL d   1      -0.900   3.119   2.264  0.00  0.00    -0.371 N 
ATOM     11  C   UNL d   1      -1.537   2.834   3.532  0.00  0.00     0.122 C 
ATOM     12  HN  UNL d   1      -0.294   3.938   2.231  1.00  0.00     0.161 HD
ATOM     13  C   UNL d   1      -1.948   1.390   3.705  0.00  0.00     0.030 C 
ATOM     14  C   UNL d   1      -2.869   0.981   2.579  0.00  0.00     0.084 C 
ATOM     15  S   UNL d   1      -1.972   0.984   1.018  0.00  0.00    -0.094 SA
ENDBRANCH   7   9
ENDBRANCH   1   7
BRANCH   2  16
ATOM     16  O   UNL d   1       2.986   7.070  -1.059  0.00  0.00    -0.255 OA
BRANCH  16  17
ATOM     17  C   UNL d   1       4.384   6.837  -1.181  0.00  0.00     0.530 C 
ATOM     18  F   UNL d   1       4.734   5.534  -1.208  0.00  0.00    -0.144 F 
ATOM     19  F   UNL d   1       4.821   7.418  -2.320  0.00  0.00    -0.144 F 
ATOM     20  F   UNL d   1       5.020   7.422  -0.142  0.00  0.00    -0.144 F 
ENDBRANCH  16  17
ENDBRANCH   2  16
TORSDOF 4
