REMARK  3 active torsions:
REMARK  status: ('A' for Active; 'I' for Inactive)
REMARK    1  A    between atoms: C_7  and  C_1 
REMARK    2  A    between atoms: C_8  and  C_2 
REMARK    3  A    between atoms: C_10  and  C_7 
ROOT
ATOM      1  C   UNL d   1      -2.323  -0.293   0.064  0.00  0.00     0.032 A 
ATOM      2  C   UNL d   1      -1.860  -1.552  -0.122  0.00  0.00     0.097 A 
ATOM      3  C   UNL d   1      -1.311   0.805   0.145  0.00  0.00     0.194 A 
ATOM      4  O   UNL d   1      -0.508  -1.884  -0.180  0.00  0.00    -0.308 OA
ATOM      5  C   UNL d   1       0.104   0.438   0.060  0.00  0.00     0.048 A 
ATOM      6  C   UNL d   1       0.435  -0.899  -0.082  0.00  0.00     0.090 A 
ATOM      7  O   UNL d   1      -1.628   1.981   0.276  0.00  0.00    -0.287 OA
ATOM      8  C   UNL d   1       1.104   1.415   0.122  0.00  0.00     0.018 A 
ATOM      9  C   UNL d   1       1.774  -1.280  -0.140  0.00  0.00     0.038 A 
ATOM     10  C   UNL d   1       2.445   1.037   0.051  0.00  0.00     0.001 A 
ATOM     11  C   UNL d   1       2.780  -0.311  -0.073  0.00  0.00     0.003 A 
ENDROOT
BRANCH   1  12
ATOM     12  C   UNL d   1      -3.755   0.186   0.190  0.00  0.00     0.084 C 
BRANCH  12  13
ATOM     13  C   UNL d   1      -4.611  -0.474   1.252  0.00  0.00    -0.052 A 
ATOM     14  C   UNL d   1      -5.962  -0.747   0.973  0.00  0.00     0.026 A 
ATOM     15  C   UNL d   1      -6.787  -1.297   1.954  0.00  0.00     0.011 A 
ATOM     16 BR   UNL d   1      -8.601  -1.653   1.558  0.00  0.00    -0.051 Br
ATOM     17  C   UNL d   1      -6.287  -1.573   3.224  0.00  0.00     0.019 A 
ATOM     18  C   UNL d   1      -4.955  -1.289   3.516  0.00  0.00     0.002 A 
ATOM     19  C   UNL d   1      -4.123  -0.734   2.541  0.00  0.00     0.007 A 
ENDBRANCH  12  13
ENDBRANCH   1  12
BRANCH   2  20
ATOM     20  C   UNL d   1      -2.710  -2.765  -0.258  0.00  0.00    -0.002 A 
ATOM     21  C   UNL d   1      -3.862  -2.800  -1.057  0.00  0.00     0.014 A 
ATOM     22  C   UNL d   1      -4.648  -3.954  -1.143  0.00  0.00     0.001 A 
ATOM     23  C   UNL d   1      -4.264  -5.113  -0.476  0.00  0.00     0.000 A 
ATOM     24  C   UNL d   1      -3.093  -5.120   0.275  0.00  0.00     0.001 A 
ATOM     25  C   UNL d   1      -2.327  -3.955   0.387  0.00  0.00     0.014 A 
ENDBRANCH   2  20
TORSDOF 3
