REMARK  8 active torsions:
REMARK  status: ('A' for Active; 'I' for Inactive)
REMARK    1  A    between atoms: N_2  and  S_1 
REMARK    2  A    between atoms: C_7  and  S_1 
REMARK    3  A    between atoms: N_12  and  N_2 
REMARK    4  A    between atoms: C_3  and  C_11 
REMARK    5  A    between atoms: C_4  and  C_10 
REMARK    6  A    between atoms: C_5  and  C_9 
REMARK    7  A    between atoms: C_6  and  C_8 
REMARK       I    between atoms: C_13  and  N_12 
REMARK    8  A    between atoms: C_14  and  C_13 
ROOT
ATOM      1  N   UNL d   1       0.279  -1.446  -0.633  0.00  0.00    -0.220 N 
ATOM      2  H   UNL d   1      -0.642  -1.711  -0.268  0.00  0.00     0.200 HD
ENDROOT
BRANCH   1   3
ATOM      3  S   UNL d   1       0.953   0.014  -0.141  0.00  0.00     0.276 S 
ATOM      4  O   UNL d   1       2.392  -0.126  -0.212  0.00  0.00    -0.199 OA
ATOM      5  O   UNL d   1       0.268   0.452   1.052  0.00  0.00    -0.199 OA
BRANCH   3   6
ATOM      6  C   UNL d   1       0.468   1.096  -1.481  0.00  0.00     0.082 A 
ATOM      7  C   UNL d   1      -0.748   1.788  -1.419  0.00  0.00     0.041 A 
ATOM      8  C   UNL d   1      -1.088   2.702  -2.431  0.00  0.00     0.050 A 
ATOM      9  C   UNL d   1      -0.188   2.910  -3.494  0.00  0.00     0.032 A 
ATOM     10  C   UNL d   1       1.046   2.239  -3.548  0.00  0.00     0.050 A 
ATOM     11  C   UNL d   1       1.361   1.320  -2.536  0.00  0.00     0.041 A 
BRANCH   8  12
ATOM     12  C   UNL d   1      -2.376   3.496  -2.380  0.00  0.00     0.417 C 
ATOM     13  F   UNL d   1      -3.124   3.252  -1.271  0.00  0.00    -0.166 F 
ATOM     14  F   UNL d   1      -2.154   4.838  -2.398  0.00  0.00    -0.166 F 
ATOM     15  F   UNL d   1      -3.184   3.236  -3.445  0.00  0.00    -0.166 F 
ENDBRANCH   8  12
BRANCH  10  16
ATOM     16  C   UNL d   1       2.036   2.546  -4.650  0.00  0.00     0.417 C 
ATOM     17  F   UNL d   1       3.202   1.855  -4.532  0.00  0.00    -0.166 F 
ATOM     18  F   UNL d   1       1.548   2.250  -5.885  0.00  0.00    -0.166 F 
ATOM     19  F   UNL d   1       2.378   3.862  -4.682  0.00  0.00    -0.166 F 
ENDBRANCH  10  16
ENDBRANCH   3   6
ENDBRANCH   1   3
BRANCH   1  20
ATOM     20  N   UNL d   1       0.835  -2.145  -1.764  0.00  0.00    -0.256 N 
ATOM     21  C   UNL d   1       0.018  -3.017  -2.458  0.00  0.00     0.270 C 
ATOM     22  O   UNL d   1      -1.105  -3.326  -2.077  0.00  0.00    -0.266 OA
ATOM     23  H   UNL d   1       1.736  -1.817  -2.104  0.00  0.00     0.191 HD
BRANCH  21  24
ATOM     24  C   UNL d   1       0.526  -3.455  -3.789  0.00  0.00     0.035 A 
ATOM     25  C   UNL d   1       1.893  -3.494  -4.098  0.00  0.00     0.033 A 
ATOM     26  C   UNL d   1       2.320  -3.763  -5.410  0.00  0.00     0.049 A 
ATOM     27  C   UNL d   1       1.361  -4.035  -6.397  0.00  0.00     0.032 A 
ATOM     28  C   UNL d   1      -0.012  -4.027  -6.099  0.00  0.00     0.049 A 
ATOM     29  C   UNL d   1      -0.418  -3.744  -4.785  0.00  0.00     0.033 A 
BRANCH  26  30
ATOM     30  C   UNL d   1       3.792  -3.699  -5.750  0.00  0.00     0.417 C 
ATOM     31  F   UNL d   1       4.057  -3.910  -7.067  0.00  0.00    -0.166 F 
ATOM     32  F   UNL d   1       4.322  -2.481  -5.449  0.00  0.00    -0.166 F 
ATOM     33  F   UNL d   1       4.527  -4.610  -5.060  0.00  0.00    -0.166 F 
ENDBRANCH  26  30
BRANCH  28  34
ATOM     34  C   UNL d   1      -1.045  -4.269  -7.176  0.00  0.00     0.417 C 
ATOM     35  F   UNL d   1      -0.500  -4.465  -8.409  0.00  0.00    -0.166 F 
ATOM     36  F   UNL d   1      -1.817  -5.359  -6.927  0.00  0.00    -0.166 F 
ATOM     37  F   UNL d   1      -1.900  -3.218  -7.310  0.00  0.00    -0.166 F 
ENDBRANCH  28  34
ENDBRANCH  21  24
ENDBRANCH   1  20
TORSDOF 8
