REMARK  7 active torsions:
REMARK  status: ('A' for Active; 'I' for Inactive)
REMARK    1  A    between atoms: N_6  and  C_1 
REMARK    2  A    between atoms: C_2  and  C_3 
REMARK       I    between atoms: C_9  and  N_7 
REMARK    3  A    between atoms: C_16  and  C_9 
REMARK    4  A    between atoms: C_30  and  C_16 
REMARK    5  A    between atoms: S_23  and  C_30 
REMARK    6  A    between atoms: C_31  and  S_23 
REMARK    7  A    between atoms: C_24  and  C_31 
ROOT
ATOM      1  N   UNL d   1       0.598   2.197  -0.201  0.00  0.00    -0.363 N 
ATOM      2  N   UNL d   1       2.445   4.339  -0.025  0.00  0.00    -0.349 N 
ATOM      3  C   UNL d   1       3.085   5.530  -0.301  0.00  0.00     0.220 C 
ATOM      4  C   UNL d   1       1.351   2.606  -1.396  0.00  0.00     0.144 C 
ATOM      5  C   UNL d   1       0.230   3.337   0.651  0.00  0.00     0.144 C 
ATOM      6  C   UNL d   1       2.691   3.185  -0.909  0.00  0.00     0.145 C 
ATOM      7  C   UNL d   1       1.527   4.059   1.099  0.00  0.00     0.145 C 
ATOM      8  O   UNL d   1       3.859   5.652  -1.248  0.00  0.00    -0.273 OA
ENDROOT
BRANCH   3   9
ATOM      9  C   UNL d   1       2.776   6.750   0.542  0.00  0.00     0.113 C 
BRANCH   9  10
ATOM     10  C   UNL d   1       3.358   6.760   1.949  0.00  0.00     0.083 C 
BRANCH  10  11
ATOM     11  S   UNL d   1       5.139   6.408   2.094  0.00  0.00    -0.164 SA
BRANCH  11  12
ATOM     12  C   UNL d   1       5.801   7.795   1.128  0.00  0.00     0.112 C 
BRANCH  12  13
ATOM     13  C   UNL d   1       7.309   7.813   1.134  0.00  0.00    -0.049 A 
ATOM     14  C   UNL d   1       8.026   7.084   0.172  0.00  0.00     0.009 A 
ATOM     15  C   UNL d   1       9.421   7.133   0.142  0.00  0.00     0.024 A 
ATOM     16  C   UNL d   1      10.106   7.902   1.080  0.00  0.00     0.034 A 
ATOM     17  C   UNL d   1       9.410   8.605   2.061  0.00  0.00     0.024 A 
ATOM     18 CL   UNL d   1      11.824   7.990   1.022  0.00  0.00    -0.084 Cl
ATOM     19  C   UNL d   1       8.014   8.556   2.092  0.00  0.00     0.009 A 
ENDBRANCH  12  13
ENDBRANCH  11  12
ENDBRANCH  10  11
ENDBRANCH   9  10
ENDBRANCH   3   9
BRANCH   1  20
ATOM     20  C   UNL d   1      -0.158   1.044  -0.172  0.00  0.00     0.125 A 
ATOM     21  N   UNL d   1      -1.398   1.136   0.377  0.00  0.00    -0.350 N 
ATOM     22  C   UNL d   1      -2.169   0.024   0.471  0.00  0.00     0.106 A 
ATOM     23  HN  UNL d   1      -1.745   2.033   0.715  1.00  0.00     0.166 HD
ATOM     24  C   UNL d   1      -1.781  -1.226   0.021  0.00  0.00     0.065 A 
ATOM     25  C   UNL d   1      -0.505  -1.335  -0.521  0.00  0.00     0.045 A 
ATOM     26  C   UNL d   1       0.321  -0.211  -0.599  0.00  0.00     0.078 A 
ATOM     27 CL   UNL d   1       1.955  -0.514  -1.092  0.00  0.00    -0.080 Cl
BRANCH  24  28
ATOM     28  C   UNL d   1      -2.697  -2.401   0.157  0.00  0.00     0.418 C 
ATOM     29  F   UNL d   1      -2.201  -3.538  -0.404  0.00  0.00    -0.166 F 
ATOM     30  F   UNL d   1      -2.962  -2.712   1.455  0.00  0.00    -0.166 F 
ATOM     31  F   UNL d   1      -3.905  -2.193  -0.434  0.00  0.00    -0.166 F 
ENDBRANCH  24  28
ENDBRANCH   1  20
TORSDOF 7
