REMARK  1 active torsions:
REMARK  status: ('A' for Active; 'I' for Inactive)
REMARK    1  A    between atoms: N_4  and  C_1 
REMARK       I    between atoms: C_8  and  N_4 
ROOT
ATOM      1  C   UNL d   1      -0.636   1.139   0.018  0.00  0.00     0.095 A 
ATOM      2  C   UNL d   1      -1.206  -0.144  -0.053  0.00  0.00     0.077 A 
ATOM      3  C   UNL d   1       0.769   1.240   0.041  0.00  0.00     0.147 A 
ATOM      4  C   UNL d   1      -2.595  -0.414  -0.306  0.00  0.00     0.102 C 
ATOM      5  N   UNL d   1      -3.672  -0.740  -0.586  0.00  0.00    -0.191 NA
ATOM      6  C   UNL d   1       1.600   0.127   0.057  0.00  0.00     0.087 A 
ATOM      7  C   UNL d   1      -0.360  -1.273  -0.021  0.00  0.00     0.067 A 
ATOM      8  C   UNL d   1       1.019  -1.127   0.041  0.00  0.00     0.120 A 
ATOM      9  F   UNL d   1       1.333   2.459   0.067  0.00  0.00    -0.204 F 
ATOM     10  F   UNL d   1       1.800  -2.215   0.052  0.00  0.00    -0.206 F 
ENDROOT
BRANCH   1  11
ATOM     11  N   UNL d   1      -1.312   2.388   0.038  0.00  0.00    -0.324 N 
ATOM     12  C   UNL d   1      -2.571   2.649   0.534  0.00  0.00     0.218 C 
ATOM     13  O   UNL d   1      -3.307   1.833   1.076  0.00  0.00    -0.274 OA
ATOM     14  C   UNL d   1      -2.978   4.095   0.389  0.00  0.00     0.117 C 
ATOM     15  H   UNL d   1      -0.703   3.195  -0.063  0.00  0.00     0.169 HD
ENDBRANCH   1  11
TORSDOF 1
