REMARK  3 active torsions:
REMARK  status: ('A' for Active; 'I' for Inactive)
REMARK    1  A    between atoms: O_7  and  C_1 
REMARK    2  A    between atoms: C_9  and  O_7 
REMARK    3  A    between atoms: O_15  and  C_10 
ROOT
ATOM      1  C   UNL d   1      -0.675   1.676  -0.069  0.00  0.00     0.090 A 
ATOM      2  N   UNL d   1      -1.046  -1.075   0.042  0.00  0.00    -0.359 N 
ATOM      3  HN  UNL d   1      -1.189  -2.085   0.052  1.00  0.00     0.166 HD
ATOM      4  C   UNL d   1       0.446   0.825  -0.046  0.00  0.00     0.025 A 
ATOM      5  C   UNL d   1       0.196  -0.561   0.008  0.00  0.00     0.045 A 
ATOM      6  C   UNL d   1      -1.960   1.144   0.039  0.00  0.00     0.062 A 
ATOM      7  C   UNL d   1      -2.103  -0.232   0.061  0.00  0.00     0.008 A 
ATOM      8  C   UNL d   1       1.784   1.287  -0.078  0.00  0.00     0.016 A 
ATOM      9  C   UNL d   1       1.277  -1.431   0.028  0.00  0.00     0.030 A 
ATOM     10  C   UNL d   1      -3.472  -0.844   0.080  0.00  0.00     0.068 C 
ATOM     11  C   UNL d   1       2.850   0.392  -0.048  0.00  0.00     0.001 A 
ATOM     12  C   UNL d   1       2.597  -0.972   0.002  0.00  0.00     0.002 A 
ENDROOT
BRANCH   1  13
ATOM     13  O   UNL d   1      -0.451   3.039  -0.134  0.00  0.00    -0.310 OA
BRANCH  13  14
ATOM     14  C   UNL d   1      -1.308   3.824  -0.873  0.00  0.00     0.076 A 
ATOM     15  C   UNL d   1      -1.542   5.110  -0.385  0.00  0.00     0.040 A 
ATOM     16  C   UNL d   1      -2.417   5.973  -1.056  0.00  0.00     0.039 A 
ATOM     17  C   UNL d   1      -3.060   5.551  -2.220  0.00  0.00     0.068 A 
ATOM     18  C   UNL d   1      -2.785   4.279  -2.729  0.00  0.00     0.039 A 
ATOM     19  C   UNL d   1      -1.895   3.424  -2.075  0.00  0.00     0.040 A 
BRANCH  17  20
ATOM     20  O   UNL d   1      -3.964   6.272  -2.949  0.00  0.00    -0.356 OA
ATOM     21  C   UNL d   1      -4.287   7.572  -2.471  0.00  0.00     0.210 C 
ENDBRANCH  17  20
ENDBRANCH  13  14
ENDBRANCH   1  13
TORSDOF 3
