REMARK  5 active torsions:
REMARK  status: ('A' for Active; 'I' for Inactive)
REMARK    1  A    between atoms: C_8  and  N_1 
REMARK    2  A    between atoms: C_19  and  C_8 
REMARK    3  A    between atoms: O_23  and  C_12 
REMARK    4  A    between atoms: O_24  and  C_14 
REMARK    5  A    between atoms: C_18  and  C_19 
ROOT
ATOM      1  N   UNL d   1       2.761   0.157   0.022  0.00  0.00    -0.280 N 
ATOM      2  C   UNL d   1       2.042   1.071  -0.739  0.00  0.00     0.261 C 
ATOM      3  C   UNL d   1       2.154  -0.940   0.646  0.00  0.00     0.261 C 
ATOM      4  C   UNL d   1       0.566   1.081  -0.595  0.00  0.00     0.044 A 
ATOM      5  C   UNL d   1      -0.079   0.041   0.079  0.00  0.00     0.007 A 
ATOM      6  C   UNL d   1       0.669  -0.981   0.676  0.00  0.00     0.044 A 
ATOM      7  C   UNL d   1      -1.501   0.009   0.136  0.00  0.00    -0.006 A 
ATOM      8  C   UNL d   1      -0.165   2.123  -1.176  0.00  0.00     0.019 A 
ATOM      9  O   UNL d   1       2.776  -1.876   1.138  0.00  0.00    -0.267 OA
ATOM     10  O   UNL d   1       2.543   1.842  -1.554  0.00  0.00    -0.267 OA
ATOM     11  C   UNL d   1      -2.220   1.075  -0.466  0.00  0.00     0.022 A 
ATOM     12  C   UNL d   1      -1.555   2.123  -1.107  0.00  0.00     0.021 A 
ATOM     13  C   UNL d   1       0.031  -2.057   1.307  0.00  0.00     0.018 A 
ATOM     14 BR   UNL d   1      -4.124   1.163  -0.462  0.00  0.00    -0.050 Br
ATOM     15  C   UNL d   1      -2.112  -1.091   0.783  0.00  0.00     0.014 A 
ATOM     16  C   UNL d   1      -1.356  -2.114   1.356  0.00  0.00     0.002 A 
ENDROOT
BRANCH   1  17
ATOM     17  C   UNL d   1       4.231   0.111  -0.123  0.00  0.00     0.140 C 
BRANCH  17  18
ATOM     18  C   UNL d   1       4.968   1.458  -0.005  0.00  0.00     0.059 C 
BRANCH  18  19
ATOM     19  C   UNL d   1       6.478   1.310  -0.007  0.00  0.00    -0.054 A 
ATOM     20  C   UNL d   1       7.200   1.119  -1.200  0.00  0.00     0.046 A 
ATOM     21  C   UNL d   1       8.604   0.982  -1.192  0.00  0.00     0.102 A 
ATOM     22  C   UNL d   1       9.303   1.025   0.019  0.00  0.00     0.101 A 
ATOM     23  C   UNL d   1       8.574   1.222   1.201  0.00  0.00     0.040 A 
ATOM     24  C   UNL d   1       7.183   1.352   1.196  0.00  0.00     0.010 A 
BRANCH  21  25
ATOM     25  O   UNL d   1       9.187   0.661  -2.390  0.00  0.00    -0.353 OA
ATOM     26  C   UNL d   1       9.752   1.790  -3.055  0.00  0.00     0.210 C 
ENDBRANCH  21  25
BRANCH  22  27
ATOM     27  O   UNL d   1      10.638   0.883   0.271  0.00  0.00    -0.353 OA
ATOM     28  C   UNL d   1      11.536   0.554  -0.772  0.00  0.00     0.210 C 
ENDBRANCH  22  27
ENDBRANCH  18  19
ENDBRANCH  17  18
ENDBRANCH   1  17
TORSDOF 5
