REMARK  5 active torsions:
REMARK  status: ('A' for Active; 'I' for Inactive)
REMARK    1  A    between atoms: N_3  and  C_1 
REMARK    2  A    between atoms: C_8  and  C_2 
REMARK       I    between atoms: C_4  and  N_3 
REMARK    3  A    between atoms: C_6  and  C_4 
REMARK    4  A    between atoms: O_15  and  C_8 
REMARK    5  A    between atoms: C_17  and  O_15 
ROOT
ATOM      1  C   UNL d   1       0.347  -0.740   0.561  0.00  0.00     0.093 C 
ATOM      2  C   UNL d   1       1.362   0.170   0.311  0.00  0.00     0.079 C 
ATOM      3  S   UNL d   1      -1.134  -0.011   0.974  0.00  0.00    -0.083 SA
ATOM      4  C   UNL d   1       0.800   1.522   0.253  0.00  0.00    -0.036 C 
ATOM      5  C   UNL d   1      -0.547   1.527   0.565  0.00  0.00     0.059 C 
ATOM      6  C   UNL d   1       1.534   2.793  -0.049  0.00  0.00     0.050 C 
ENDROOT
BRANCH   1   7
ATOM      7  N   UNL d   1       0.210  -2.110   0.551  0.00  0.00    -0.317 N 
ATOM      8  C   UNL d   1       0.825  -2.923  -0.402  0.00  0.00     0.277 C 
ATOM      9  O   UNL d   1       1.666  -2.501  -1.202  0.00  0.00    -0.268 OA
ATOM     10  H   UNL d   1      -0.654  -2.451   0.961  0.00  0.00     0.169 HD
BRANCH   8  11
ATOM     11  C   UNL d   1       0.247  -4.357  -0.486  0.00  0.00     0.269 C 
ATOM     12 CL   UNL d   1      -0.487  -4.855   1.072  0.00  0.00    -0.073 Cl
ATOM     13 CL   UNL d   1      -1.033  -4.333  -1.735  0.00  0.00    -0.073 Cl
ATOM     14 CL   UNL d   1       1.523  -5.512  -0.924  0.00  0.00    -0.073 Cl
ENDBRANCH   8  11
ENDBRANCH   1   7
BRANCH   2  15
ATOM     15  C   UNL d   1       2.790  -0.154   0.161  0.00  0.00     0.296 C 
ATOM     16  O   UNL d   1       3.595   0.597  -0.380  0.00  0.00    -0.259 OA
BRANCH  15  17
ATOM     17  O   UNL d   1       3.151  -1.308   0.800  0.00  0.00    -0.318 OA
BRANCH  17  18
ATOM     18  C   UNL d   1       4.548  -1.641   0.749  0.00  0.00     0.174 C 
ATOM     19  C   UNL d   1       5.208  -1.205   2.043  0.00  0.00     0.034 C 
ENDBRANCH  17  18
ENDBRANCH  15  17
ENDBRANCH   2  15
TORSDOF 5
