REMARK  2 active torsions:
REMARK  status: ('A' for Active; 'I' for Inactive)
REMARK    1  A    between atoms: C_2  and  C_1 
REMARK    2  A    between atoms: C_5  and  C_1 
ROOT
ATOM      1  C   UNL d   1       1.010  -0.069  -0.217  0.00  0.00     0.170 C 
ATOM      2  O   UNL d   1       2.083  -0.062  -0.819  0.00  0.00    -0.291 OA
ENDROOT
BRANCH   1   3
ATOM      3  C   UNL d   1       0.191  -1.346  -0.059  0.00  0.00     0.130 C 
ATOM      4  C   UNL d   1       0.608  -2.124   1.179  0.00  0.00     0.138 C 
ATOM      5  O   UNL d   1       1.129  -1.571   2.149  0.00  0.00    -0.297 OA
ATOM      6  C   UNL d   1       0.155  -3.566   1.284  0.00  0.00     0.079 C 
ATOM      7  C   UNL d   1       0.351  -4.318  -0.021  0.00  0.00     0.007 C 
ATOM      8  C   UNL d   1      -0.299  -3.579  -1.182  0.00  0.00     0.002 C 
ATOM      9  C   UNL d   1       0.320  -2.194  -1.334  0.00  0.00     0.020 C 
ENDBRANCH   1   3
BRANCH   1  10
ATOM     10  C   UNL d   1       0.536   1.203   0.404  0.00  0.00     0.011 A 
ATOM     11  C   UNL d   1       1.500   2.157   0.764  0.00  0.00     0.015 A 
ATOM     12  C   UNL d   1       1.115   3.379   1.317  0.00  0.00     0.001 A 
ATOM     13  C   UNL d   1      -0.236   3.662   1.506  0.00  0.00     0.000 A 
ATOM     14  C   UNL d   1      -1.201   2.723   1.143  0.00  0.00     0.001 A 
ATOM     15  C   UNL d   1      -0.819   1.496   0.591  0.00  0.00     0.015 A 
ENDBRANCH   1  10
TORSDOF 2
