REMARK  2 active torsions:
REMARK  status: ('A' for Active; 'I' for Inactive)
REMARK    1  A    between atoms: C_9  and  C_5 
REMARK    2  A    between atoms: C_11  and  N_7 
ROOT
ATOM      1  C   UNL d   1       0.637   1.413   0.066  0.00  0.00     0.161 C 
ATOM      2  N   UNL d   1       0.863  -1.063   0.251  0.00  0.00    -0.304 N 
ATOM      3  HN  UNL d   1       1.529  -1.830   0.342  1.00  0.00     0.186 HD
ATOM      4  N   UNL d   1       1.336   0.221   0.277  0.00  0.00    -0.276 N 
ATOM      5  C   UNL d   1      -0.393  -1.347   0.115  0.00  0.00     0.021 C 
ATOM      6  S   UNL d   1      -1.117   1.334   0.295  0.00  0.00    -0.087 SA
ATOM      7  N   UNL d   1       0.976   2.631  -0.187  0.00  0.00    -0.336 N 
ATOM      8  HN  UNL d   1       0.209   3.295  -0.288  1.00  0.00     0.168 HD
ATOM      9  C   UNL d   1      -1.500  -0.355  -0.088  0.00  0.00     0.137 C 
ATOM     10  C   UNL d   1       2.764   0.197   0.591  0.00  0.00     0.180 C 
ENDROOT
BRANCH   7  11
ATOM     11  C   UNL d   1       2.257   3.155  -0.340  0.00  0.00     0.034 A 
ATOM     12  C   UNL d   1       3.228   2.624  -1.192  0.00  0.00     0.032 A 
ATOM     13  C   UNL d   1       4.509   3.176  -1.241  0.00  0.00     0.044 A 
ATOM     14  C   UNL d   1       4.798   4.320  -0.507  0.00  0.00     0.116 A 
ATOM     15  C   UNL d   1       3.819   4.932   0.264  0.00  0.00     0.044 A 
ATOM     16  F   UNL d   1       6.027   4.848  -0.555  0.00  0.00    -0.206 F 
ATOM     17  C   UNL d   1       2.556   4.343   0.350  0.00  0.00     0.032 A 
ENDBRANCH   7  11
BRANCH   5  18
ATOM     18  C   UNL d   1      -0.738  -2.868   0.038  0.00  0.00    -0.010 C 
ATOM     19  C   UNL d   1      -0.738  -3.292  -1.438  0.00  0.00     0.021 C 
ATOM     20  C   UNL d   1       0.328  -3.687   0.796  0.00  0.00     0.021 C 
ATOM     21  C   UNL d   1      -2.103  -3.188   0.664  0.00  0.00     0.021 C 
ENDBRANCH   5  18
TORSDOF 2
