REMARK  4 active torsions:
REMARK  status: ('A' for Active; 'I' for Inactive)
REMARK    1  A    between atoms: N_2  and  C_1 
REMARK       I    between atoms: C_3  and  N_2 
REMARK    2  A    between atoms: C_8  and  N_2 
REMARK       I    between atoms: N_7  and  C_3 
REMARK    3  A    between atoms: C_10  and  N_7 
REMARK    4  A    between atoms: C_12  and  C_8 
ROOT
ATOM      1  N   UNL d   1       2.127   1.312  -0.180  0.00  0.00    -0.271 N 
ATOM      2  C   UNL d   1       3.526   1.023  -0.061  0.00  0.00     0.329 C 
ATOM      3  N   UNL d   1       3.824  -0.322  -0.112  0.00  0.00    -0.308 N 
ATOM      4  O   UNL d   1       4.390   1.891   0.019  0.00  0.00    -0.246 OA
ATOM      5  H   UNL d   1       3.021  -0.931  -0.060  0.00  0.00     0.170 HD
ENDROOT
BRANCH   1   6
ATOM      6  C   UNL d   1       1.032   0.425  -0.155  0.00  0.00     0.147 C 
ATOM      7  N   UNL d   1      -0.143   0.733  -0.596  0.00  0.00    -0.369 N 
ATOM      8  C   UNL d   1      -1.048  -0.432  -0.514  0.00  0.00     0.137 C 
ATOM      9  HN  UNL d   1      -0.409   1.652  -0.950  1.00  0.00     0.161 HD
ATOM     10  C   UNL d   1      -0.615  -1.345   0.625  0.00  0.00     0.069 C 
ATOM     11  S   UNL d   1       1.177  -1.172   0.551  0.00  0.00    -0.088 SA
ATOM     12  C   UNL d   1      -1.137  -0.889   1.981  0.00  0.00     0.023 C 
ENDBRANCH   1   6
BRANCH   1  13
ATOM     13  C   UNL d   1       1.746   2.747  -0.214  0.00  0.00     0.125 C 
ATOM     14  C   UNL d   1       2.463   3.593  -1.277  0.00  0.00     0.038 C 
BRANCH  13  15
ATOM     15  C   UNL d   1       1.732   3.331   1.199  0.00  0.00    -0.035 A 
ATOM     16  C   UNL d   1       2.854   3.942   1.777  0.00  0.00     0.009 A 
ATOM     17  C   UNL d   1       2.824   4.390   3.100  0.00  0.00     0.001 A 
ATOM     18  C   UNL d   1       1.673   4.234   3.868  0.00  0.00     0.000 A 
ATOM     19  C   UNL d   1       0.547   3.634   3.310  0.00  0.00     0.001 A 
ATOM     20  C   UNL d   1       0.575   3.187   1.989  0.00  0.00     0.009 A 
ENDBRANCH  13  15
ENDBRANCH   1  13
BRANCH   3  21
ATOM     21  C   UNL d   1       5.058  -0.994  -0.112  0.00  0.00     0.037 A 
ATOM     22  C   UNL d   1       6.306  -0.378  -0.142  0.00  0.00     0.053 A 
ATOM     23  C   UNL d   1       7.460  -1.167  -0.186  0.00  0.00     0.036 A 
ATOM     24 CL   UNL d   1       9.010  -0.417  -0.241  0.00  0.00    -0.084 Cl
ATOM     25  C   UNL d   1       7.381  -2.562  -0.196  0.00  0.00     0.024 A 
ATOM     26  C   UNL d   1       6.137  -3.179  -0.147  0.00  0.00     0.004 A 
ATOM     27  C   UNL d   1       4.986  -2.398  -0.103  0.00  0.00     0.029 A 
ENDBRANCH   3  21
TORSDOF 4
