REMARK  1 active torsions:
REMARK  status: ('A' for Active; 'I' for Inactive)
REMARK    1  A    between atoms: C_8  and  C_4 
ROOT
ATOM      1  C   UNL d   1      -1.242   0.073  -0.101  0.00  0.00     0.115 C 
ATOM      2  C   UNL d   1      -0.518   1.311   0.225  0.00  0.00     0.302 C 
ATOM      3  C   UNL d   1      -0.620  -1.222   0.206  0.00  0.00     0.302 C 
ATOM      4  C   UNL d   1      -2.435   0.058  -0.730  0.00  0.00     0.040 C 
ATOM      5  O   UNL d   1       0.822   1.189   0.272  0.00  0.00    -0.280 OA
ATOM      6  O   UNL d   1       0.724  -1.188   0.336  0.00  0.00    -0.280 OA
ATOM      7  C   UNL d   1       1.417  -0.036  -0.147  0.00  0.00     0.175 C 
ATOM      8  O   UNL d   1      -1.062   2.384   0.449  0.00  0.00    -0.259 OA
ATOM      9  O   UNL d   1      -1.254  -2.263   0.327  0.00  0.00    -0.259 OA
ATOM     10  C   UNL d   1       1.548  -0.083  -1.674  0.00  0.00     0.080 C 
ATOM     11  C   UNL d   1       2.812  -0.058   0.477  0.00  0.00     0.080 C 
ENDROOT
BRANCH   4  12
ATOM     12  C   UNL d   1      -3.133   1.255  -1.225  0.00  0.00     0.025 A 
ATOM     13  C   UNL d   1      -2.849   1.708  -2.520  0.00  0.00     0.128 A 
ATOM     14  F   UNL d   1      -2.001   1.019  -3.300  0.00  0.00    -0.205 F 
ATOM     15  C   UNL d   1      -3.414   2.877  -3.026  0.00  0.00     0.043 A 
ATOM     16  C   UNL d   1      -4.279   3.623  -2.230  0.00  0.00     0.005 A 
ATOM     17  C   UNL d   1      -4.587   3.183  -0.941  0.00  0.00     0.025 A 
ATOM     18  C   UNL d   1      -4.024   2.002  -0.442  0.00  0.00     0.047 A 
ATOM     19 CL   UNL d   1      -4.453   1.512   1.160  0.00  0.00    -0.083 Cl
ENDBRANCH   4  12
TORSDOF 1
