REMARK  5 active torsions:
REMARK  status: ('A' for Active; 'I' for Inactive)
REMARK    1  A    between atoms: C_2  and  C_1 
REMARK    2  A    between atoms: O_14  and  C_3 
REMARK    3  A    between atoms: O_13  and  C_4 
REMARK    4  A    between atoms: O_15  and  C_9 
REMARK    5  A    between atoms: O_16  and  C_10 
ROOT
ATOM      1  C   UNL d   1       1.342  -0.315   0.232  0.00  0.00     0.013 A 
ATOM      2  C   UNL d   1       0.620   0.689   0.937  0.00  0.00     0.079 A 
ATOM      3  C   UNL d   1       0.567  -1.362  -0.321  0.00  0.00     0.052 A 
ATOM      4  C   UNL d   1      -0.781   0.595   1.085  0.00  0.00     0.040 A 
ATOM      5  C   UNL d   1      -0.826  -1.413  -0.227  0.00  0.00     0.069 A 
ATOM      6  C   UNL d   1      -1.496  -0.451   0.512  0.00  0.00     0.039 A 
ENDROOT
BRANCH   1   7
ATOM      7  C   UNL d   1       2.849  -0.360   0.118  0.00  0.00     0.013 A 
ATOM      8  C   UNL d   1       3.553  -0.913  -0.989  0.00  0.00     0.079 A 
ATOM      9  C   UNL d   1       4.956  -1.016  -0.967  0.00  0.00     0.040 A 
ATOM     10  C   UNL d   1       5.698  -0.546   0.115  0.00  0.00     0.039 A 
ATOM     11  C   UNL d   1       5.045   0.050   1.182  0.00  0.00     0.069 A 
ATOM     12  C   UNL d   1       3.646   0.097   1.194  0.00  0.00     0.052 A 
BRANCH   8  13
ATOM     13  O   UNL d   1       2.836  -1.291  -2.102  0.00  0.00    -0.355 OA
ATOM     14  C   UNL d   1       3.410  -2.315  -2.913  0.00  0.00     0.210 C 
ENDBRANCH   8  13
BRANCH  11  15
ATOM     15  O   UNL d   1       5.669   0.587   2.276  0.00  0.00    -0.356 OA
ATOM     16  C   UNL d   1       6.992   1.065   2.044  0.00  0.00     0.210 C 
ENDBRANCH  11  15
ENDBRANCH   1   7
BRANCH   2  17
ATOM     17  O   UNL d   1       1.310   1.777   1.420  0.00  0.00    -0.355 OA
ATOM     18  C   UNL d   1       0.740   2.446   2.545  0.00  0.00     0.210 C 
ENDBRANCH   2  17
BRANCH   5  19
ATOM     19  O   UNL d   1      -1.427  -2.466  -0.866  0.00  0.00    -0.356 OA
ATOM     20  C   UNL d   1      -2.772  -2.239  -1.274  0.00  0.00     0.210 C 
ENDBRANCH   5  19
TORSDOF 5
