REMARK  6 active torsions:
REMARK  status: ('A' for Active; 'I' for Inactive)
REMARK    1  A    between atoms: N_7  and  C_1 
REMARK    2  A    between atoms: C_9  and  N_2 
REMARK    3  A    between atoms: C_12  and  C_6 
REMARK       I    between atoms: C_8  and  N_7 
REMARK    4  A    between atoms: C_18  and  C_8 
REMARK    5  A    between atoms: C_10  and  O_14 
REMARK    6  A    between atoms: O_14  and  C_25 
ROOT
ATOM      1  C   UNL d   1      -0.478  -1.200  -0.037  0.00  0.00     0.132 C 
ATOM      2  N   UNL d   1       0.831  -0.770   0.138  0.00  0.00    -0.240 N 
ATOM      3  N   UNL d   1       0.888   0.574   0.349  0.00  0.00    -0.291 N 
ATOM      4  HN  UNL d   1       1.697   1.120   0.645  1.00  0.00     0.187 HD
ATOM      5  C   UNL d   1      -1.229  -0.054  -0.160  0.00  0.00     0.082 C 
ATOM      6  C   UNL d   1      -0.348   1.028   0.083  0.00  0.00     0.062 C 
ENDROOT
BRANCH   6   7
ATOM      7  C   UNL d   1      -0.677   2.460   0.120  0.00  0.00    -0.008 A 
ATOM      8  C   UNL d   1       0.162   3.371   0.776  0.00  0.00     0.016 A 
ATOM      9  C   UNL d   1      -0.149   4.737   0.834  0.00  0.00     0.038 A 
ATOM     10  C   UNL d   1      -1.281   5.226   0.190  0.00  0.00     0.078 A 
ATOM     11  C   UNL d   1      -2.138   4.317  -0.451  0.00  0.00     0.038 A 
ATOM     12  C   UNL d   1      -1.841   2.955  -0.488  0.00  0.00     0.016 A 
BRANCH  10  13
ATOM     13  O   UNL d   1      -1.690   6.524   0.137  0.00  0.00    -0.255 OA
BRANCH  13  14
ATOM     14  C   UNL d   1      -0.738   7.572   0.241  0.00  0.00     0.530 C 
ATOM     15  F   UNL d   1       0.545   7.177   0.117  0.00  0.00    -0.144 F 
ATOM     16  F   UNL d   1      -0.988   8.465  -0.746  0.00  0.00    -0.144 F 
ATOM     17  F   UNL d   1      -0.890   8.204   1.424  0.00  0.00    -0.144 F 
ENDBRANCH  13  14
ENDBRANCH  10  13
ENDBRANCH   6   7
BRANCH   1  18
ATOM     18  N   UNL d   1      -0.897  -2.532  -0.067  0.00  0.00    -0.311 N 
ATOM     19  C   UNL d   1      -1.706  -2.940  -1.116  0.00  0.00     0.227 C 
ATOM     20  O   UNL d   1      -2.095  -2.164  -2.003  0.00  0.00    -0.273 OA
ATOM     21  H   UNL d   1      -0.347  -3.227   0.425  0.00  0.00     0.170 HD
BRANCH  19  22
ATOM     22  C   UNL d   1      -2.034  -4.439  -1.208  0.00  0.00     0.078 C 
ATOM     23  C   UNL d   1      -3.558  -4.750  -1.264  0.00  0.00     0.014 C 
ATOM     24  C   UNL d   1      -3.235  -6.110  -0.630  0.00  0.00     0.002 C 
ATOM     25  C   UNL d   1      -1.982  -5.435  -0.020  0.00  0.00     0.014 C 
ENDBRANCH  19  22
ENDBRANCH   1  18
BRANCH   2  26
ATOM     26  C   UNL d   1       2.033  -1.532   0.048  0.00  0.00     0.059 A 
ATOM     27  C   UNL d   1       2.076  -2.737  -0.671  0.00  0.00     0.039 A 
ATOM     28  C   UNL d   1       3.250  -3.505  -0.734  0.00  0.00    -0.054 A 
ATOM     29  C   UNL d   1       3.250  -4.786  -1.524  0.00  0.00     0.049 C 
ATOM     30  C   UNL d   1       4.404  -3.049  -0.070  0.00  0.00    -0.056 A 
ATOM     31  C   UNL d   1       4.367  -1.819   0.606  0.00  0.00     0.009 A 
ATOM     32  C   UNL d   1       5.683  -3.841  -0.091  0.00  0.00     0.049 C 
ATOM     33  C   UNL d   1       3.198  -1.057   0.652  0.00  0.00     0.032 A 
ENDBRANCH   2  26
TORSDOF 6
