REMARK  7 active torsions:
REMARK  status: ('A' for Active; 'I' for Inactive)
REMARK    1  A    between atoms: C_9  and  C_3 
REMARK    2  A    between atoms: O_18  and  C_4 
REMARK    3  A    between atoms: S_12  and  C_5 
REMARK    4  A    between atoms: C_8  and  C_9 
REMARK    5  A    between atoms: C_11  and  C_16 
REMARK    6  A    between atoms: C_13  and  C_11 
REMARK    7  A    between atoms: C_16  and  S_12 
ROOT
ATOM      1  N   UNL d   1      -0.682   1.258  -0.073  0.00  0.00    -0.317 N 
ATOM      2  HN  UNL d   1      -1.160   2.159  -0.090  1.00  0.00     0.170 HD
ATOM      3  C   UNL d   1      -0.781  -1.175   0.010  0.00  0.00     0.019 A 
ATOM      4  C   UNL d   1      -1.350   0.097   0.004  0.00  0.00     0.150 A 
ATOM      5  C   UNL d   1       0.647   1.159  -0.124  0.00  0.00     0.146 A 
ATOM      6  N   UNL d   1       1.316  -0.001  -0.067  0.00  0.00    -0.340 N 
ATOM      7  HN  UNL d   1       2.336  -0.015  -0.072  1.00  0.00     0.167 HD
ATOM      8  C   UNL d   1       0.609  -1.151  -0.002  0.00  0.00     0.018 A 
ATOM      9  C   UNL d   1       1.455  -2.389   0.002  0.00  0.00     0.069 C 
ENDROOT
BRANCH   3  10
ATOM     10  C   UNL d   1      -1.586  -2.455  -0.056  0.00  0.00     0.088 C 
BRANCH  10  11
ATOM     11  C   UNL d   1      -1.829  -3.149   1.268  0.00  0.00     0.007 A 
ATOM     12  C   UNL d   1      -2.696  -2.555   2.195  0.00  0.00     0.124 A 
ATOM     13  F   UNL d   1      -3.360  -1.439   1.858  0.00  0.00    -0.205 F 
ATOM     14  C   UNL d   1      -2.921  -3.087   3.462  0.00  0.00     0.043 A 
ATOM     15  C   UNL d   1      -2.281  -4.261   3.835  0.00  0.00     0.005 A 
ATOM     16  C   UNL d   1      -1.463  -4.914   2.916  0.00  0.00     0.024 A 
ATOM     17  C   UNL d   1      -1.255  -4.377   1.637  0.00  0.00     0.043 A 
ATOM     18 CL   UNL d   1      -0.313  -5.331   0.545  0.00  0.00    -0.084 Cl
ENDBRANCH  10  11
ENDBRANCH   3  10
BRANCH   4  19
ATOM     19  O   UNL d   1      -2.708   0.264   0.019  0.00  0.00    -0.346 OA
ATOM     20  H   UNL d   1      -3.068  -0.345   0.691  0.00  0.00     0.219 HD
ENDBRANCH   4  19
BRANCH   5  21
ATOM     21  S   UNL d   1       1.647   2.582  -0.474  0.00  0.00    -0.086 SA
BRANCH  21  22
ATOM     22  C   UNL d   1       0.627   3.932   0.181  0.00  0.00     0.161 C 
BRANCH  22  23
ATOM     23  C   UNL d   1       1.453   5.213   0.137  0.00  0.00     0.144 C 
ATOM     24  O   UNL d   1       2.223   5.473   1.071  0.00  0.00    -0.296 OA
BRANCH  23  25
ATOM     25  C   UNL d   1       1.280   6.214  -1.031  0.00  0.00     0.010 C 
ATOM     26  C   UNL d   1       0.162   7.192  -0.646  0.00  0.00     0.022 C 
ATOM     27  C   UNL d   1       2.596   6.998  -1.212  0.00  0.00     0.022 C 
ATOM     28  C   UNL d   1       0.942   5.555  -2.374  0.00  0.00     0.022 C 
ENDBRANCH  23  25
ENDBRANCH  22  23
ENDBRANCH  21  22
ENDBRANCH   5  21
TORSDOF 7
