REMARK  2 active torsions:
REMARK  status: ('A' for Active; 'I' for Inactive)
REMARK    1  A    between atoms: N_5  and  C_1 
REMARK    2  A    between atoms: C_8  and  C_4 
REMARK       I    between atoms: C_7  and  N_5 
REMARK       I    between atoms: N_15  and  C_7 
ROOT
ATOM      1  C   UNL d   1       0.236  -1.174  -0.364  0.00  0.00     0.151 A 
ATOM      2  N   UNL d   1       1.409  -0.583  -0.400  0.00  0.00    -0.335 N 
ATOM      3  HN  UNL d   1       2.272  -1.032  -0.706  1.00  0.00     0.168 HD
ATOM      4  C   UNL d   1       1.317   0.728   0.032  0.00  0.00     0.051 A 
ATOM      5  S   UNL d   1      -1.027  -0.214   0.310  0.00  0.00    -0.063 SA
ATOM      6  C   UNL d   1       0.065   1.097   0.480  0.00  0.00     0.083 A 
ENDROOT
BRANCH   1   7
ATOM      7  N   UNL d   1      -0.021  -2.419  -0.823  0.00  0.00    -0.313 N 
ATOM      8  C   UNL d   1       0.821  -3.213  -1.528  0.00  0.00     0.150 C 
ATOM      9  N   UNL d   1       2.055  -3.000  -1.828  0.00  0.00    -0.376 N 
ATOM     10  N   UNL d   1       0.252  -4.362  -1.959  0.00  0.00    -0.274 NA
ATOM     11  H   UNL d   1       2.305  -2.085  -1.412  0.00  0.00     0.158 HD
ATOM     12  HN  UNL d   1       2.666  -3.612  -2.368  1.00  0.00     0.158 HD
ATOM     13  H   UNL d   1      -0.145  -4.914  -1.208  0.00  0.00     0.127 HD
ATOM     14  H   UNL d   1       0.974  -4.910  -2.423  0.00  0.00     0.127 HD
ATOM     15  H   UNL d   1      -0.991  -2.693  -0.866  0.00  0.00     0.170 HD
ENDBRANCH   1   7
BRANCH   4  16
ATOM     16  C   UNL d   1       2.472   1.625  -0.010  0.00  0.00    -0.003 A 
ATOM     17  C   UNL d   1       3.384   1.617  -1.088  0.00  0.00    -0.049 A 
ATOM     18  C   UNL d   1       4.506   2.467  -1.042  0.00  0.00     0.014 A 
ATOM     19  C   UNL d   1       3.260   0.714  -2.288  0.00  0.00     0.049 C 
ATOM     20  C   UNL d   1       4.720   3.345   0.026  0.00  0.00    -0.061 A 
ATOM     21  C   UNL d   1       3.799   3.368   1.073  0.00  0.00     0.007 A 
ATOM     22  C   UNL d   1       5.931   4.228   0.034  0.00  0.00     0.048 C 
ATOM     23  C   UNL d   1       2.692   2.514   1.057  0.00  0.00     0.015 A 
ENDBRANCH   4  16
TORSDOF 2
