REMARK  4 active torsions:
REMARK  status: ('A' for Active; 'I' for Inactive)
REMARK    1  A    between atoms: C_3  and  C_1 
REMARK    2  A    between atoms: N_2  and  C_4 
REMARK    3  A    between atoms: O_10  and  C_9 
REMARK    4  A    between atoms: C_15  and  O_10 
ROOT
ATOM      1  C   UNL d   1       1.358  -0.286   0.112  0.00  0.00     0.083 A 
ATOM      2  C   UNL d   1       0.501  -1.376  -0.088  0.00  0.00     0.118 A 
ATOM      3  C   UNL d   1       0.770   0.993   0.182  0.00  0.00     0.056 A 
ATOM      4  C   UNL d   1      -0.883  -1.217  -0.247  0.00  0.00     0.039 A 
ATOM      5  C   UNL d   1      -0.615   1.164   0.066  0.00  0.00     0.077 A 
ATOM      6  C   UNL d   1      -1.433   0.063  -0.199  0.00  0.00     0.040 A 
ENDROOT
BRANCH   5   7
ATOM      7  O   UNL d   1      -1.068   2.460   0.168  0.00  0.00    -0.311 OA
BRANCH   7   8
ATOM      8  C   UNL d   1      -2.304   2.712   0.721  0.00  0.00     0.076 A 
ATOM      9  C   UNL d   1      -2.875   1.962   1.754  0.00  0.00     0.039 A 
ATOM     10  C   UNL d   1      -4.154   2.273   2.220  0.00  0.00     0.026 A 
ATOM     11  C   UNL d   1      -4.836   3.368   1.693  0.00  0.00     0.034 A 
ATOM     12  C   UNL d   1      -4.243   4.163   0.714  0.00  0.00     0.026 A 
ATOM     13 CL   UNL d   1      -6.416   3.742   2.258  0.00  0.00    -0.084 Cl
ATOM     14  C   UNL d   1      -2.975   3.834   0.229  0.00  0.00     0.039 A 
ENDBRANCH   7   8
ENDBRANCH   5   7
BRANCH   1  15
ATOM     15  C   UNL d   1       2.852  -0.398   0.247  0.00  0.00     0.419 C 
ATOM     16  F   UNL d   1       3.329  -1.658   0.392  0.00  0.00    -0.166 F 
ATOM     17  F   UNL d   1       3.501   0.138  -0.822  0.00  0.00    -0.166 F 
ATOM     18  F   UNL d   1       3.309   0.286   1.335  0.00  0.00    -0.166 F 
ENDBRANCH   1  15
BRANCH   2  19
ATOM     19  N   UNL d   1       1.011  -2.731  -0.165  0.00  0.00    -0.115 N 
ATOM     20  O   UNL d   1       1.628  -3.034  -1.195  0.00  0.00    -0.532 OA
ATOM     21  O   UNL d   1       0.754  -3.479   0.784  0.00  0.00    -0.532 OA
ENDBRANCH   2  19
TORSDOF 4
