REMARK  6 active torsions:
REMARK  status: ('A' for Active; 'I' for Inactive)
REMARK    1  A    between atoms: N_4  and  S_1 
REMARK    2  A    between atoms: C_10  and  S_1 
REMARK    3  A    between atoms: S_2  and  N_7 
REMARK    4  A    between atoms: C_11  and  S_2 
REMARK    5  A    between atoms: C_3  and  N_4 
REMARK    6  A    between atoms: N_7  and  C_21 
ROOT
ATOM      1  C   UNL d   1       0.410   0.314  -1.703  0.00  0.00     0.075 A 
ATOM      2  C   UNL d   1      -0.200  -0.691  -2.462  0.00  0.00     0.027 A 
ATOM      3  C   UNL d   1       0.460   1.630  -2.173  0.00  0.00     0.027 A 
ATOM      4  C   UNL d   1      -0.609   0.915  -4.222  0.00  0.00     0.042 A 
ATOM      5  C   UNL d   1      -0.707  -0.387  -3.729  0.00  0.00     0.031 A 
ATOM      6  C   UNL d   1      -0.038   1.923  -3.444  0.00  0.00     0.031 A 
ENDROOT
BRANCH   1   7
ATOM      7  S   UNL d   1       1.122  -0.083  -0.119  0.00  0.00     0.247 S 
ATOM      8  O   UNL d   1       1.141   1.127   0.671  0.00  0.00    -0.205 OA
ATOM      9  O   UNL d   1       0.502  -1.306   0.346  0.00  0.00    -0.205 OA
BRANCH   7  10
ATOM     10  N   UNL d   1       2.754  -0.389  -0.578  0.00  0.00    -0.165 NA
ATOM     11  H   UNL d   1       3.190   0.535  -0.504  0.00  0.00     0.147 HD
BRANCH  10  12
ATOM     12  C   UNL d   1       3.419  -1.289   0.331  0.00  0.00     0.111 A 
ATOM     13  N   UNL d   1       3.514  -2.656   0.268  0.00  0.00    -0.285 N 
ATOM     14  N   UNL d   1       4.263  -3.176   1.265  0.00  0.00    -0.309 N 
ATOM     15  C   UNL d   1       3.030  -3.534  -0.768  0.00  0.00     0.179 C 
ATOM     16  C   UNL d   1       4.637  -2.107   1.972  0.00  0.00     0.110 A 
ATOM     17  HN  UNL d   1       4.490  -4.155   1.437  1.00  0.00     0.186 HD
ATOM     18  C   UNL d   1       4.154  -0.903   1.427  0.00  0.00     0.063 A 
ENDBRANCH  10  12
ENDBRANCH   7  10
ENDBRANCH   1   7
BRANCH   4  19
ATOM     19  N   UNL d   1      -0.961   1.208  -5.556  0.00  0.00    -0.281 N 
ATOM     20  H   UNL d   1      -0.266   1.151  -6.298  0.00  0.00     0.179 HD
BRANCH  19  21
ATOM     21  S   UNL d   1      -2.525   1.557  -6.017  0.00  0.00     0.263 S 
ATOM     22  O   UNL d   1      -2.470   1.854  -7.432  0.00  0.00    -0.200 OA
ATOM     23  O   UNL d   1      -3.411   0.536  -5.500  0.00  0.00    -0.200 OA
BRANCH  21  24
ATOM     24  C   UNL d   1      -2.873   3.082  -5.168  0.00  0.00     0.080 A 
ATOM     25  C   UNL d   1      -2.515   4.305  -5.748  0.00  0.00     0.027 A 
ATOM     26  C   UNL d   1      -2.844   5.498  -5.096  0.00  0.00     0.025 A 
ATOM     27  C   UNL d   1      -3.533   5.461  -3.883  0.00  0.00     0.034 A 
ATOM     28  C   UNL d   1      -3.895   4.241  -3.309  0.00  0.00     0.025 A 
ATOM     29 CL   UNL d   1      -3.951   6.931  -3.092  0.00  0.00    -0.084 Cl
ATOM     30  C   UNL d   1      -3.570   3.047  -3.955  0.00  0.00     0.027 A 
ENDBRANCH  21  24
ENDBRANCH  19  21
ENDBRANCH   4  19
TORSDOF 6
