REMARK  5 active torsions:
REMARK  status: ('A' for Active; 'I' for Inactive)
REMARK    1  A    between atoms: C_8  and  N_1 
REMARK    2  A    between atoms: S_10  and  C_2 
REMARK    3  A    between atoms: O_16  and  C_5 
REMARK    4  A    between atoms: C_9  and  C_11 
REMARK    5  A    between atoms: C_18  and  S_10 
ROOT
ATOM      1  N   UNL d   1      -0.250  -1.301   0.044  0.00  0.00    -0.255 N 
ATOM      2  C   UNL d   1       1.026  -0.746   0.105  0.00  0.00     0.169 A 
ATOM      3  N   UNL d   1       0.971   0.544  -0.152  0.00  0.00    -0.276 N 
ATOM      4  HN  UNL d   1       1.769   1.179  -0.190  1.00  0.00     0.189 HD
ATOM      5  C   UNL d   1      -1.060  -0.196  -0.212  0.00  0.00     0.245 A 
ATOM      6  N   UNL d   1      -0.335   0.888  -0.359  0.00  0.00    -0.263 N 
ATOM      7  HN  UNL d   1      -0.683   1.820  -0.586  1.00  0.00     0.190 HD
ENDROOT
BRANCH   1   8
ATOM      8  C   UNL d   1      -0.710  -2.643   0.231  0.00  0.00     0.046 A 
ATOM      9  C   UNL d   1      -1.885  -3.074  -0.413  0.00  0.00     0.046 A 
ATOM     10  C   UNL d   1      -2.455  -4.329  -0.130  0.00  0.00     0.050 A 
ATOM     11  C   UNL d   1      -1.793  -5.183   0.760  0.00  0.00     0.016 A 
ATOM     12  C   UNL d   1      -0.599  -4.788   1.359  0.00  0.00     0.003 A 
ATOM     13  C   UNL d   1      -0.063  -3.522   1.106  0.00  0.00     0.030 A 
BRANCH  10  14
ATOM     14  C   UNL d   1      -3.776  -4.746  -0.734  0.00  0.00     0.417 C 
ATOM     15  F   UNL d   1      -4.329  -3.789  -1.531  0.00  0.00    -0.166 F 
ATOM     16  F   UNL d   1      -3.680  -5.867  -1.497  0.00  0.00    -0.166 F 
ATOM     17  F   UNL d   1      -4.710  -5.015   0.220  0.00  0.00    -0.166 F 
ENDBRANCH  10  14
ENDBRANCH   1   8
BRANCH   2  18
ATOM     18  S   UNL d   1       2.518  -1.612   0.331  0.00  0.00    -0.088 SA
BRANCH  18  19
ATOM     19  C   UNL d   1       3.781  -0.286   0.226  0.00  0.00     0.047 C 
ATOM     20  C   UNL d   1       3.756   0.627   1.451  0.00  0.00     0.021 C 
ATOM     21  C   UNL d   1       5.158  -0.946   0.117  0.00  0.00     0.021 C 
ENDBRANCH  18  19
ENDBRANCH   2  18
BRANCH   5  22
ATOM     22  O   UNL d   1      -2.385  -0.152  -0.215  0.00  0.00    -0.331 OA
ATOM     23  H   UNL d   1      -2.721  -0.867   0.348  0.00  0.00     0.221 HD
ENDBRANCH   5  22
TORSDOF 5
