REMARK  6 active torsions:
REMARK  status: ('A' for Active; 'I' for Inactive)
REMARK    1  A    between atoms: C_2  and  C_1 
REMARK       I    between atoms: N_5  and  C_1 
REMARK    2  A    between atoms: C_3  and  C_4 
REMARK    3  A    between atoms: O_10  and  C_3 
REMARK    4  A    between atoms: C_8  and  N_5 
REMARK    5  A    between atoms: C_9  and  C_8 
REMARK    6  A    between atoms: O_16  and  C_11 
ROOT
ATOM      1  C   UNL d   1       1.113   0.697  -0.013  0.00  0.00     0.241 C 
ATOM      2  N   UNL d   1       0.164   0.774  -0.996  0.00  0.00    -0.353 N 
ATOM      3  O   UNL d   1       0.912   0.915   1.173  0.00  0.00    -0.269 OA
ATOM      4  H   UNL d   1       0.404   0.578  -1.959  0.00  0.00     0.163 HD
ENDROOT
BRANCH   2   5
ATOM      5  C   UNL d   1      -1.218   1.098  -0.711  0.00  0.00     0.161 C 
BRANCH   5   6
ATOM      6  C   UNL d   1      -1.679   2.304  -1.491  0.00  0.00    -0.040 A 
ATOM      7  C   UNL d   1      -2.699   2.203  -2.447  0.00  0.00     0.011 A 
ATOM      8  C   UNL d   1      -3.140   3.334  -3.149  0.00  0.00     0.037 A 
ATOM      9  C   UNL d   1      -2.562   4.579  -2.903  0.00  0.00     0.068 A 
ATOM     10  C   UNL d   1      -1.564   4.690  -1.934  0.00  0.00     0.037 A 
ATOM     11  C   UNL d   1      -1.119   3.563  -1.239  0.00  0.00     0.011 A 
BRANCH   9  12
ATOM     12  O   UNL d   1      -2.924   5.751  -3.508  0.00  0.00    -0.356 OA
ATOM     13  C   UNL d   1      -3.418   5.632  -4.837  0.00  0.00     0.210 C 
ENDBRANCH   9  12
ENDBRANCH   5   6
ENDBRANCH   2   5
BRANCH   1  14
ATOM     14  C   UNL d   1       2.451   0.312  -0.521  0.00  0.00     0.080 C 
ATOM     15  C   UNL d   1       3.477   0.219   0.341  0.00  0.00     0.086 C 
BRANCH  15  16
ATOM     16  C   UNL d   1       4.801  -0.164  -0.173  0.00  0.00     0.165 C 
ATOM     17  O   UNL d   1       5.036  -0.418  -1.343  0.00  0.00    -0.647 OA
BRANCH  16  18
ATOM     18  O   UNL d   1       5.734  -0.206   0.796  0.00  0.00    -0.773 OA
ATOM     19  H   UNL d   1       5.426   0.019   1.693  0.00  0.00     0.167 HD
ENDBRANCH  16  18
ENDBRANCH  15  16
ENDBRANCH   1  14
TORSDOF 6
