REMARK  5 active torsions:
REMARK  status: ('A' for Active; 'I' for Inactive)
REMARK    1  A    between atoms: C_7  and  N_1 
REMARK    2  A    between atoms: S_11  and  C_2 
REMARK    3  A    between atoms: C_10  and  C_12 
REMARK    4  A    between atoms: C_16  and  S_11 
REMARK    5  A    between atoms: C_12  and  C_16 
ROOT
ATOM      1  N   UNL d   1      -0.240  -1.265  -0.033  0.00  0.00    -0.218 N 
ATOM      2  C   UNL d   1      -0.905  -0.138  -0.499  0.00  0.00     0.177 A 
ATOM      3  N   UNL d   1      -0.109   0.905  -0.406  0.00  0.00    -0.264 N 
ATOM      4  HN  UNL d   1      -0.321   1.863  -0.686  1.00  0.00     0.186 HD
ATOM      5  N   UNL d   1       0.988  -0.845   0.388  0.00  0.00     0.001 NA
ATOM      6  N   UNL d   1       1.054   0.452   0.142  0.00  0.00    -0.006 NA
ENDROOT
BRANCH   1   7
ATOM      7  C   UNL d   1      -0.549  -2.656  -0.006  0.00  0.00     0.068 A 
ATOM      8  C   UNL d   1      -1.095  -3.322  -1.131  0.00  0.00    -0.033 A 
ATOM      9  C   UNL d   1      -1.288  -4.719  -1.073  0.00  0.00     0.015 A 
ATOM     10  C   UNL d   1      -1.425  -2.696  -2.460  0.00  0.00     0.050 C 
ATOM     11  C   UNL d   1      -0.887  -5.476   0.031  0.00  0.00    -0.061 A 
ATOM     12  C   UNL d   1      -0.341  -4.817   1.129  0.00  0.00     0.015 A 
ATOM     13  C   UNL d   1      -1.033  -6.967   0.012  0.00  0.00     0.048 C 
ATOM     14  C   UNL d   1      -0.181  -3.418   1.141  0.00  0.00    -0.033 A 
ATOM     15  C   UNL d   1       0.389  -2.845   2.420  0.00  0.00     0.050 C 
ENDBRANCH   1   7
BRANCH   2  16
ATOM     16  S   UNL d   1      -2.568  -0.017  -0.984  0.00  0.00    -0.084 SA
BRANCH  16  17
ATOM     17  C   UNL d   1      -2.463   1.524  -1.963  0.00  0.00     0.166 C 
BRANCH  17  18
ATOM     18  C   UNL d   1      -3.686   1.768  -2.845  0.00  0.00     0.175 C 
ATOM     19  O   UNL d   1      -4.529   0.891  -3.040  0.00  0.00    -0.291 OA
BRANCH  18  20
ATOM     20  C   UNL d   1      -3.796   3.075  -3.506  0.00  0.00     0.051 A 
ATOM     21  S   UNL d   1      -2.635   4.321  -3.305  0.00  0.00    -0.098 SA
ATOM     22  C   UNL d   1      -3.483   5.389  -4.334  0.00  0.00     0.050 A 
ATOM     23  C   UNL d   1      -4.626   4.815  -4.839  0.00  0.00     0.009 A 
ATOM     24  C   UNL d   1      -4.805   3.481  -4.365  0.00  0.00     0.023 A 
ENDBRANCH  18  20
ENDBRANCH  17  18
ENDBRANCH  16  17
ENDBRANCH   2  16
TORSDOF 5
