REMARK  6 active torsions:
REMARK  status: ('A' for Active; 'I' for Inactive)
REMARK    1  A    between atoms: C_2  and  S_1 
REMARK    2  A    between atoms: C_8  and  S_1 
REMARK    3  A    between atoms: C_13  and  C_3 
REMARK    4  A    between atoms: C_12  and  C_18 
REMARK    5  A    between atoms: O_14  and  C_17 
REMARK    6  A    between atoms: C_18  and  O_14 
ROOT
ATOM      1  C   UNL d   1       0.990  -1.631  -1.496  0.00  0.00     0.144 C 
ATOM      2  C   UNL d   1      -0.326  -1.879  -1.322  0.00  0.00     0.046 C 
ATOM      3  C   UNL d   1       1.988  -1.862  -0.505  0.00  0.00     0.112 C 
ATOM      4  N   UNL d   1       2.785  -2.074   0.308  0.00  0.00    -0.191 NA
ENDROOT
BRANCH   1   5
ATOM      5  S   UNL d   1       1.461  -0.881  -2.994  0.00  0.00     0.216 S 
ATOM      6  O   UNL d   1       2.012   0.433  -2.716  0.00  0.00    -0.216 OA
ATOM      7  O   UNL d   1       0.393  -1.004  -3.975  0.00  0.00    -0.216 OA
BRANCH   5   8
ATOM      8  C   UNL d   1       2.794  -1.890  -3.616  0.00  0.00     0.065 A 
ATOM      9  C   UNL d   1       2.508  -2.995  -4.427  0.00  0.00     0.024 A 
ATOM     10  C   UNL d   1       3.557  -3.706  -5.013  0.00  0.00     0.002 A 
ATOM     11  C   UNL d   1       4.877  -3.306  -4.800  0.00  0.00     0.000 A 
ATOM     12  C   UNL d   1       5.154  -2.198  -3.998  0.00  0.00     0.002 A 
ATOM     13  C   UNL d   1       4.114  -1.482  -3.407  0.00  0.00     0.024 A 
ENDBRANCH   5   8
ENDBRANCH   1   5
BRANCH   2  14
ATOM     14  C   UNL d   1      -0.893  -2.444  -0.101  0.00  0.00    -0.034 A 
ATOM     15  C   UNL d   1      -1.347  -1.605   0.921  0.00  0.00     0.014 A 
ATOM     16  C   UNL d   1      -1.810  -2.154   2.120  0.00  0.00     0.037 A 
ATOM     17  C   UNL d   1      -1.817  -3.537   2.309  0.00  0.00     0.069 A 
ATOM     18  C   UNL d   1      -1.417  -4.372   1.263  0.00  0.00     0.037 A 
ATOM     19  C   UNL d   1      -0.947  -3.828   0.066  0.00  0.00     0.014 A 
BRANCH  17  20
ATOM     20  O   UNL d   1      -2.228  -3.964   3.544  0.00  0.00    -0.347 OA
BRANCH  20  21
ATOM     21  C   UNL d   1      -1.803  -5.278   3.908  0.00  0.00     0.214 C 
BRANCH  21  22
ATOM     22  C   UNL d   1      -1.851  -5.431   5.407  0.00  0.00    -0.028 A 
ATOM     23  C   UNL d   1      -3.067  -5.372   6.102  0.00  0.00     0.051 A 
ATOM     24  C   UNL d   1      -3.088  -5.533   7.487  0.00  0.00     0.119 A 
ATOM     25  F   UNL d   1      -4.257  -5.478   8.137  0.00  0.00    -0.206 F 
ATOM     26  C   UNL d   1      -1.920  -5.753   8.204  0.00  0.00     0.084 A 
ATOM     27  C   UNL d   1      -0.718  -5.812   7.516  0.00  0.00     0.119 A 
ATOM     28  C   UNL d   1      -0.671  -5.653   6.133  0.00  0.00     0.051 A 
ATOM     29  F   UNL d   1       0.419  -6.029   8.189  0.00  0.00    -0.206 F 
ENDBRANCH  21  22
ENDBRANCH  20  21
ENDBRANCH  17  20
ENDBRANCH   2  14
TORSDOF 6
