REMARK  6 active torsions:
REMARK  status: ('A' for Active; 'I' for Inactive)
REMARK    1  A    between atoms: N_3  and  C_1 
REMARK    2  A    between atoms: N_4  and  C_2 
REMARK    3  A    between atoms: C_5  and  C_11 
REMARK    4  A    between atoms: C_6  and  C_12 
REMARK    5  A    between atoms: O_13  and  C_7 
REMARK    6  A    between atoms: C_8  and  O_13 
ROOT
ATOM      1  O   UNL d   1       1.152  -2.425  -0.437  0.00  0.00    -0.306 OA
ENDROOT
BRANCH   1   2
ATOM      2  C   UNL d   1       2.352  -2.832   0.109  0.00  0.00     0.109 A 
ATOM      3  C   UNL d   1       2.914  -4.050  -0.314  0.00  0.00     0.137 A 
ATOM      4  C   UNL d   1       4.167  -4.472   0.182  0.00  0.00     0.055 A 
ATOM      5  C   UNL d   1       4.869  -3.690   1.112  0.00  0.00     0.050 A 
ATOM      6  C   UNL d   1       4.291  -2.492   1.550  0.00  0.00     0.019 A 
ATOM      7  C   UNL d   1       3.041  -2.081   1.075  0.00  0.00     0.040 A 
BRANCH   3   8
ATOM      8  N   UNL d   1       2.220  -4.942  -1.261  0.00  0.00    -0.113 N 
ATOM      9  O   UNL d   1       1.015  -4.764  -1.478  0.00  0.00    -0.532 OA
ATOM     10  O   UNL d   1       2.884  -5.863  -1.760  0.00  0.00    -0.532 OA
ENDBRANCH   3   8
BRANCH   5  11
ATOM     11  C   UNL d   1       6.214  -4.119   1.651  0.00  0.00     0.417 C 
ATOM     12  F   UNL d   1       6.585  -5.365   1.254  0.00  0.00    -0.166 F 
ATOM     13  F   UNL d   1       7.217  -3.283   1.269  0.00  0.00    -0.166 F 
ATOM     14  F   UNL d   1       6.238  -4.138   3.012  0.00  0.00    -0.166 F 
ENDBRANCH   5  11
ENDBRANCH   1   2
BRANCH   1  15
ATOM     15  C   UNL d   1       0.709  -1.139  -0.274  0.00  0.00     0.109 A 
ATOM     16  C   UNL d   1       1.357   0.004  -0.754  0.00  0.00     0.137 A 
ATOM     17  C   UNL d   1       0.842   1.287  -0.509  0.00  0.00     0.055 A 
ATOM     18  C   UNL d   1      -0.368   1.432   0.189  0.00  0.00     0.050 A 
ATOM     19  C   UNL d   1      -1.055   0.282   0.602  0.00  0.00     0.019 A 
ATOM     20  C   UNL d   1      -0.522  -0.992   0.371  0.00  0.00     0.040 A 
BRANCH  16  21
ATOM     21  N   UNL d   1       2.600  -0.098  -1.494  0.00  0.00    -0.113 N 
ATOM     22  O   UNL d   1       2.636  -0.878  -2.454  0.00  0.00    -0.532 OA
ATOM     23  O   UNL d   1       3.540   0.610  -1.105  0.00  0.00    -0.532 OA
ENDBRANCH  16  21
BRANCH  18  24
ATOM     24  C   UNL d   1      -0.939   2.804   0.481  0.00  0.00     0.417 C 
ATOM     25  F   UNL d   1      -0.118   3.821   0.102  0.00  0.00    -0.166 F 
ATOM     26  F   UNL d   1      -2.125   3.020  -0.149  0.00  0.00    -0.166 F 
ATOM     27  F   UNL d   1      -1.175   2.988   1.809  0.00  0.00    -0.166 F 
ENDBRANCH  18  24
ENDBRANCH   1  15
TORSDOF 6
