REMARK  6 active torsions:
REMARK  status: ('A' for Active; 'I' for Inactive)
REMARK    1  A    between atoms: C_2  and  C_1 
REMARK    2  A    between atoms: C_3  and  C_1 
REMARK    3  A    between atoms: N_6  and  C_1 
REMARK    4  A    between atoms: O_8  and  C_2 
REMARK    5  A    between atoms: C_5  and  C_3 
REMARK    6  A    between atoms: O_10  and  C_9 
ROOT
ATOM      1  C   UNL d   1       0.966  -0.028   0.155  0.00  0.00     0.239 C 
ATOM      2  C   UNL d   1       2.476  -0.186   0.361  0.00  0.00     0.061 C 
ENDROOT
BRANCH   1   3
ATOM      3  C   UNL d   1       0.487   1.449   0.114  0.00  0.00     0.179 C 
ATOM      4  O   UNL d   1      -0.632   1.790   0.497  0.00  0.00    -0.648 OA
BRANCH   3   5
ATOM      5  O   UNL d   1       1.354   2.355  -0.382  0.00  0.00    -0.774 OA
ATOM      6  H   UNL d   1       2.184   1.996  -0.744  0.00  0.00     0.167 HD
ENDBRANCH   3   5
ENDBRANCH   1   3
BRANCH   1   7
ATOM      7  C   UNL d   1       0.449  -0.783  -1.094  0.00  0.00     0.091 C 
BRANCH   7   8
ATOM      8  C   UNL d   1       0.928  -0.273  -2.436  0.00  0.00    -0.052 A 
ATOM      9  C   UNL d   1       0.187   0.692  -3.135  0.00  0.00     0.043 A 
ATOM     10  C   UNL d   1       0.611   1.120  -4.391  0.00  0.00     0.066 A 
ATOM     11  C   UNL d   1       1.772   0.615  -4.961  0.00  0.00     0.036 A 
ATOM     12  C   UNL d   1       2.517  -0.341  -4.276  0.00  0.00     0.003 A 
ATOM     13  C   UNL d   1       2.095  -0.785  -3.022  0.00  0.00     0.007 A 
BRANCH  10  14
ATOM     14  O   UNL d   1      -0.101   2.037  -5.106  0.00  0.00    -0.361 OA
ATOM     15  H   UNL d   1      -0.914   2.250  -4.619  0.00  0.00     0.217 HD
ENDBRANCH  10  14
ENDBRANCH   7   8
ENDBRANCH   1   7
BRANCH   1  16
ATOM     16  N   UNL d   1       0.333  -0.666   1.353  0.00  0.00     0.098 N 
ATOM     17  H   UNL d   1      -0.679  -0.511   1.284  0.00  0.00     0.314 HD
ATOM     18  H   UNL d   1       0.597  -0.133   2.186  0.00  0.00     0.314 HD
ENDBRANCH   1  16
TORSDOF 6
