REMARK  6 active torsions:
REMARK  status: ('A' for Active; 'I' for Inactive)
REMARK    1  A    between atoms: C_8  and  C_1 
REMARK    2  A    between atoms: N_6  and  C_2 
REMARK    3  A    between atoms: C_9  and  C_4 
REMARK       I    between atoms: C_7  and  N_6 
REMARK    4  A    between atoms: C_10  and  C_7 
REMARK       I    between atoms: N_17  and  C_8 
REMARK    5  A    between atoms: C_24  and  C_19 
REMARK    6  A    between atoms: C_26  and  C_24 
ROOT
ATOM      1  C   UNL d   1      -0.013   1.225  -0.373  0.00  0.00     0.100 C 
ATOM      2  C   UNL d   1       1.314   0.891  -0.137  0.00  0.00     0.059 C 
ATOM      3  S   UNL d   1      -1.047  -0.136  -0.155  0.00  0.00    -0.082 SA
ATOM      4  C   UNL d   1       0.257  -1.228  -0.038  0.00  0.00     0.018 C 
ATOM      5  C   UNL d   1       1.453  -0.538  -0.007  0.00  0.00     0.051 C 
ENDROOT
BRANCH   2   6
ATOM      6  N   UNL d   1       2.459   1.690  -0.048  0.00  0.00    -0.321 N 
ATOM      7  C   UNL d   1       2.522   3.053   0.187  0.00  0.00     0.256 C 
ATOM      8  O   UNL d   1       1.582   3.823   0.290  0.00  0.00    -0.267 OA
ATOM      9  H   UNL d   1       3.314   1.168   0.099  0.00  0.00     0.169 HD
BRANCH   7  10
ATOM     10  C   UNL d   1       3.908   3.574   0.396  0.00  0.00     0.032 A 
ATOM     11  C   UNL d   1       5.003   3.048  -0.304  0.00  0.00     0.018 A 
ATOM     12  C   UNL d   1       6.298   3.480  -0.002  0.00  0.00     0.025 A 
ATOM     13  C   UNL d   1       6.497   4.447   0.982  0.00  0.00     0.034 A 
ATOM     14  C   UNL d   1       5.409   5.020   1.640  0.00  0.00     0.025 A 
ATOM     15 CL   UNL d   1       8.097   4.925   1.396  0.00  0.00    -0.084 Cl
ATOM     16  C   UNL d   1       4.112   4.589   1.342  0.00  0.00     0.018 A 
ENDBRANCH   7  10
ENDBRANCH   2   6
BRANCH   1  17
ATOM     17  C   UNL d   1      -0.678   2.431  -0.830  0.00  0.00     0.258 C 
ATOM     18  O   UNL d   1      -1.785   2.819  -0.461  0.00  0.00    -0.267 OA
ATOM     19  N   UNL d   1      -0.047   3.097  -1.847  0.00  0.00    -0.365 N 
ATOM     20  H   UNL d   1       0.950   2.990  -1.939  0.00  0.00     0.159 HD
ATOM     21  H   UNL d   1      -0.427   4.013  -2.035  0.00  0.00     0.159 HD
ENDBRANCH   1  17
BRANCH   4  22
ATOM     22  C   UNL d   1       0.023  -2.680  -0.011  0.00  0.00    -0.019 A 
ATOM     23  C   UNL d   1       0.869  -3.538  -0.728  0.00  0.00     0.013 A 
ATOM     24  C   UNL d   1       0.662  -4.922  -0.727  0.00  0.00     0.008 A 
ATOM     25  C   UNL d   1      -0.398  -5.484  -0.006  0.00  0.00    -0.058 A 
ATOM     26  C   UNL d   1      -1.245  -4.632   0.712  0.00  0.00     0.008 A 
ATOM     27  C   UNL d   1      -1.038  -3.248   0.707  0.00  0.00     0.013 A 
BRANCH  25  28
ATOM     28  C   UNL d   1      -0.591  -6.983   0.027  0.00  0.00     0.042 C 
BRANCH  28  29
ATOM     29  C   UNL d   1      -1.966  -7.478  -0.465  0.00  0.00    -0.019 C 
ATOM     30  C   UNL d   1      -2.204  -7.150  -1.941  0.00  0.00     0.010 C 
ATOM     31  C   UNL d   1      -2.077  -8.991  -0.251  0.00  0.00     0.010 C 
ENDBRANCH  28  29
ENDBRANCH  25  28
ENDBRANCH   4  22
TORSDOF 6
