REMARK  2 active torsions:
REMARK  status: ('A' for Active; 'I' for Inactive)
REMARK    1  A    between atoms: C_6  and  C_3 
REMARK    2  A    between atoms: O_24  and  C_10 
ROOT
ATOM      1  C   UNL d   1      -1.258   0.680   0.032  0.00  0.00     0.031 A 
ATOM      2  C   UNL d   1       1.253   0.673   0.016  0.00  0.00     0.031 A 
ATOM      3  C   UNL d   1      -0.001   1.507  -0.203  0.00  0.00     0.100 A 
ATOM      4  C   UNL d   1      -1.202  -0.639   0.297  0.00  0.00     0.065 A 
ATOM      5  C   UNL d   1       1.196  -0.640   0.303  0.00  0.00     0.065 A 
ATOM      6  O   UNL d   1      -0.004  -1.320   0.418  0.00  0.00    -0.318 OA
ATOM      7  C   UNL d   1       2.599   1.316  -0.091  0.00  0.00     0.159 C 
ATOM      8  C   UNL d   1      -2.605   1.326  -0.049  0.00  0.00     0.159 C 
ATOM      9  C   UNL d   1       2.391  -1.529   0.513  0.00  0.00     0.075 C 
ATOM     10  C   UNL d   1      -2.398  -1.535   0.468  0.00  0.00     0.075 C 
ATOM     11  C   UNL d   1      -3.695  -0.954  -0.124  0.00  0.00    -0.035 C 
ATOM     12  C   UNL d   1       3.697  -0.956  -0.067  0.00  0.00    -0.035 C 
ATOM     13  C   UNL d   1      -3.828   0.508   0.323  0.00  0.00     0.092 C 
ATOM     14  C   UNL d   1       3.813   0.518   0.347  0.00  0.00     0.092 C 
ATOM     15  O   UNL d   1      -2.721   2.506  -0.367  0.00  0.00    -0.293 OA
ATOM     16  O   UNL d   1       2.716   2.469  -0.493  0.00  0.00    -0.293 OA
ATOM     17  C   UNL d   1      -4.892  -1.767   0.397  0.00  0.00     0.015 C 
ATOM     18  C   UNL d   1      -3.688  -1.040  -1.666  0.00  0.00     0.015 C 
ATOM     19  C   UNL d   1       3.716  -1.081  -1.605  0.00  0.00     0.015 C 
ATOM     20  C   UNL d   1       4.888  -1.750   0.494  0.00  0.00     0.015 C 
ENDROOT
BRANCH   3  21
ATOM     21  C   UNL d   1       0.012   2.808   0.598  0.00  0.00    -0.008 A 
ATOM     22  C   UNL d   1       0.073   2.888   1.998  0.00  0.00     0.094 A 
ATOM     23  C   UNL d   1       0.085   4.141   2.630  0.00  0.00     0.069 A 
ATOM     24 CL   UNL d   1       0.163   4.273   4.355  0.00  0.00    -0.081 Cl
ATOM     25  C   UNL d   1       0.024   5.324   1.887  0.00  0.00     0.050 A 
ATOM     26  C   UNL d   1      -0.038   5.252   0.505  0.00  0.00     0.036 A 
ATOM     27  C   UNL d   1      -0.041   4.016  -0.136  0.00  0.00     0.035 A 
ATOM     28 CL   UNL d   1      -0.113   6.700  -0.426  0.00  0.00    -0.084 Cl
BRANCH  22  29
ATOM     29  O   UNL d   1       0.134   1.774   2.796  0.00  0.00    -0.358 OA
ATOM     30  H   UNL d   1       0.049   0.964   2.278  0.00  0.00     0.217 HD
ENDBRANCH  22  29
ENDBRANCH   3  21
TORSDOF 2
