REMARK  4 active torsions:
REMARK  status: ('A' for Active; 'I' for Inactive)
REMARK    1  A    between atoms: C_3  and  C_1 
REMARK    2  A    between atoms: C_9  and  C_2 
REMARK    3  A    between atoms: C_16  and  C_8 
REMARK    4  A    between atoms: C_14  and  C_17 
ROOT
ATOM      1  C   UNL d   1       0.533  -2.613  -0.173  0.00  0.00     0.187 A 
ATOM      2  N   UNL d   1      -0.130  -3.639  -0.664  0.00  0.00    -0.318 N 
ATOM      3  HN  UNL d   1      -1.096  -3.674  -0.989  1.00  0.00     0.169 HD
ATOM      4  C   UNL d   1       0.802  -4.652  -0.633  0.00  0.00     0.138 A 
ATOM      5  N   UNL d   1       1.991  -4.288  -0.130  0.00  0.00    -0.242 N 
ATOM      6  HN  UNL d   1       2.818  -4.867   0.018  1.00  0.00     0.196 HD
ATOM      7  O   UNL d   1       1.828  -2.937   0.140  0.00  0.00    -0.217 OA
ENDROOT
BRANCH   1   8
ATOM      8  C   UNL d   1      -0.020  -1.255   0.025  0.00  0.00     0.078 A 
ATOM      9  C   UNL d   1      -1.369  -0.806   0.067  0.00  0.00     0.087 A 
ATOM     10  N   UNL d   1      -1.399   0.519   0.295  0.00  0.00    -0.259 N 
ATOM     11  O   UNL d   1      -0.089   0.938   0.371  0.00  0.00    -0.241 OA
ATOM     12  HN  UNL d   1      -2.231   1.101   0.393  1.00  0.00     0.195 HD
ATOM     13  C   UNL d   1       0.740  -0.126   0.216  0.00  0.00     0.089 A 
ATOM     14  C   UNL d   1       2.187   0.163   0.245  0.00  0.00     0.080 C 
BRANCH   9  15
ATOM     15  C   UNL d   1      -2.611  -1.570  -0.005  0.00  0.00     0.054 A 
ATOM     16  C   UNL d   1      -3.676  -1.223  -0.852  0.00  0.00     0.049 A 
ATOM     17 CL   UNL d   1      -3.601   0.097  -1.970  0.00  0.00    -0.083 Cl
ATOM     18  C   UNL d   1      -4.864  -1.970  -0.846  0.00  0.00     0.025 A 
ATOM     19  C   UNL d   1      -5.001  -3.078  -0.009  0.00  0.00     0.005 A 
ATOM     20  C   UNL d   1      -3.954  -3.433   0.833  0.00  0.00     0.043 A 
ATOM     21  C   UNL d   1      -2.783  -2.676   0.840  0.00  0.00     0.130 A 
ATOM     22  F   UNL d   1      -1.818  -3.026   1.706  0.00  0.00    -0.205 F 
ENDBRANCH   9  15
ENDBRANCH   1   8
BRANCH   4  23
ATOM     23  C   UNL d   1       0.553  -5.974  -1.185  0.00  0.00     0.010 A 
ATOM     24  C   UNL d   1      -0.228  -6.115  -2.341  0.00  0.00     0.016 A 
ATOM     25  C   UNL d   1      -0.383  -7.369  -2.940  0.00  0.00     0.017 A 
ATOM     26  C   UNL d   1       0.227  -8.506  -2.388  0.00  0.00     0.048 A 
ATOM     27  C   UNL d   1       0.973  -8.367  -1.206  0.00  0.00     0.017 A 
ATOM     28  C   UNL d   1       1.139  -7.110  -0.615  0.00  0.00     0.016 A 
BRANCH  26  29
ATOM     29  C   UNL d   1       0.107  -9.858  -3.047  0.00  0.00     0.417 C 
ATOM     30  F   UNL d   1      -0.589  -9.834  -4.218  0.00  0.00    -0.166 F 
ATOM     31  F   UNL d   1       1.321 -10.399  -3.348  0.00  0.00    -0.166 F 
ATOM     32  F   UNL d   1      -0.523 -10.771  -2.257  0.00  0.00    -0.166 F 
ENDBRANCH  26  29
ENDBRANCH   4  23
TORSDOF 4
