REMARK  2 active torsions:
REMARK  status: ('A' for Active; 'I' for Inactive)
REMARK    1  A    between atoms: C_5  and  C_1 
REMARK    2  A    between atoms: N_6  and  C_2 
REMARK       I    between atoms: C_7  and  N_6 
REMARK       I    between atoms: N_10  and  C_7 
ROOT
ATOM      1  C   UNL d   1      -1.448  -0.740   0.217  0.00  0.00     0.097 A 
ATOM      2  C   UNL d   1      -0.043  -0.917  -0.019  0.00  0.00     0.097 A 
ATOM      3  N   UNL d   1      -1.693   0.533   0.582  0.00  0.00    -0.258 N 
ATOM      4  HN  UNL d   1      -2.596   0.926   0.848  1.00  0.00     0.195 HD
ATOM      5  C   UNL d   1       0.490   0.340   0.180  0.00  0.00     0.101 A 
ATOM      6  O   UNL d   1      -0.496   1.200   0.529  0.00  0.00    -0.240 OA
ATOM      7  C   UNL d   1       1.835   0.935   0.073  0.00  0.00     0.081 C 
ENDROOT
BRANCH   1   8
ATOM      8  C   UNL d   1      -2.567  -1.684   0.191  0.00  0.00     0.038 A 
ATOM      9  C   UNL d   1      -2.598  -2.820   1.022  0.00  0.00     0.048 A 
ATOM     10 CL   UNL d   1      -1.341  -3.194   2.159  0.00  0.00    -0.083 Cl
ATOM     11  C   UNL d   1      -3.696  -3.694   1.004  0.00  0.00     0.025 A 
ATOM     12  C   UNL d   1      -4.796  -3.433   0.194  0.00  0.00     0.003 A 
ATOM     13  C   UNL d   1      -4.796  -2.302  -0.615  0.00  0.00     0.025 A 
ATOM     14  C   UNL d   1      -3.689  -1.442  -0.631  0.00  0.00     0.048 A 
ATOM     15 CL   UNL d   1      -3.793  -0.092  -1.718  0.00  0.00    -0.083 Cl
ENDBRANCH   1   8
BRANCH   2  16
ATOM     16  N   UNL d   1       0.747  -2.015  -0.327  0.00  0.00    -0.304 N 
ATOM     17  C   UNL d   1       0.320  -3.212  -0.856  0.00  0.00     0.322 C 
ATOM     18  N   UNL d   1       1.256  -4.237  -0.708  0.00  0.00    -0.343 N 
ATOM     19  O   UNL d   1      -0.748  -3.365  -1.436  0.00  0.00    -0.247 OA
ATOM     20  C   UNL d   1       1.070  -5.474  -1.444  0.00  0.00     0.154 C 
ATOM     21  C   UNL d   1       2.317  -4.237   0.293  0.00  0.00     0.154 C 
ATOM     22  H   UNL d   1       1.742  -1.867  -0.361  0.00  0.00     0.171 HD
ENDBRANCH   2  16
TORSDOF 2
