REMARK  5 active torsions:
REMARK  status: ('A' for Active; 'I' for Inactive)
REMARK       I    between atoms: N_2  and  C_1 
REMARK    1  A    between atoms: O_3  and  C_1 
REMARK    2  A    between atoms: C_6  and  N_2 
REMARK    3  A    between atoms: C_4  and  O_3 
REMARK    4  A    between atoms: O_15  and  C_9 
REMARK    5  A    between atoms: C_18  and  O_15 
ROOT
ATOM      1  C   UNL d   1      -0.246  -1.446  -0.390  0.00  0.00     0.370 C 
ATOM      2  N   UNL d   1       0.383  -0.947   0.721  0.00  0.00    -0.300 N 
ATOM      3  O   UNL d   1      -0.879  -0.699  -1.133  0.00  0.00    -0.238 OA
ATOM      4  H   UNL d   1       0.375   0.060   0.766  0.00  0.00     0.171 HD
ENDROOT
BRANCH   1   5
ATOM      5  O   UNL d   1      -0.032  -2.804  -0.610  0.00  0.00    -0.260 OA
BRANCH   5   6
ATOM      6  C   UNL d   1      -0.934  -3.674  -1.269  0.00  0.00     0.102 A 
ATOM      7  C   UNL d   1      -0.804  -5.044  -0.984  0.00  0.00     0.070 A 
ATOM      8  C   UNL d   1      -1.773  -5.942  -1.420  0.00  0.00     0.069 A 
ATOM      9 CL   UNL d   1       0.525  -5.668  -0.072  0.00  0.00    -0.081 Cl
ATOM     10  C   UNL d   1      -2.841  -5.471  -2.171  0.00  0.00     0.118 A 
ATOM     11  C   UNL d   1      -2.939  -4.129  -2.521  0.00  0.00     0.045 A 
ATOM     12  F   UNL d   1      -3.794  -6.325  -2.564  0.00  0.00    -0.206 F 
ATOM     13  C   UNL d   1      -1.980  -3.221  -2.073  0.00  0.00     0.042 A 
ENDBRANCH   5   6
ENDBRANCH   1   5
BRANCH   2  14
ATOM     14  C   UNL d   1       1.004  -1.639   1.778  0.00  0.00     0.070 A 
ATOM     15  C   UNL d   1       2.014  -1.032   2.545  0.00  0.00     0.095 A 
ATOM     16  C   UNL d   1       2.557  -1.719   3.639  0.00  0.00     0.039 A 
ATOM     17  C   UNL d   1       2.120  -3.002   3.975  0.00  0.00     0.003 A 
ATOM     18  C   UNL d   1       1.107  -3.595   3.236  0.00  0.00     0.002 A 
ATOM     19  C   UNL d   1       0.548  -2.910   2.158  0.00  0.00     0.032 A 
BRANCH  15  20
ATOM     20  O   UNL d   1       2.534   0.227   2.376  0.00  0.00    -0.349 OA
BRANCH  20  21
ATOM     21  C   UNL d   1       2.787   0.668   1.041  0.00  0.00     0.171 C 
ATOM     22  C   UNL d   1       4.014   1.562   1.048  0.00  0.00     0.034 C 
ENDBRANCH  20  21
ENDBRANCH  15  20
ENDBRANCH   2  14
TORSDOF 5
