REMARK  3 active torsions:
REMARK  status: ('A' for Active; 'I' for Inactive)
REMARK    1  A    between atoms: N_5  and  C_3 
REMARK    2  A    between atoms: N_12  and  C_4 
REMARK    3  A    between atoms: C_10  and  N_12 
ROOT
ATOM      1  N   UNL d   1      -0.620  -1.174   0.172  0.00  0.00    -0.021 N 
ATOM      2  HN  UNL d   1      -1.090  -2.054   0.381  1.00  0.00     0.203 HD
ATOM      3  C   UNL d   1      -1.302  -0.046  -0.041  0.00  0.00     0.703 A 
ATOM      4  C   UNL d   1       0.704  -1.088   0.096  0.00  0.00     0.698 A 
ATOM      5  N   UNL d   1      -0.742   1.143  -0.271  0.00  0.00    -0.186 N 
ATOM      6  HN  UNL d   1      -1.285   1.997  -0.403  1.00  0.00     0.185 HD
ATOM      7  N   UNL d   1       1.355   0.040  -0.164  0.00  0.00    -0.187 N 
ATOM      8  HN  UNL d   1       2.372   0.079  -0.245  1.00  0.00     0.185 HD
ATOM      9  C   UNL d   1       0.585   1.116  -0.313  0.00  0.00     0.215 A 
ENDROOT
BRANCH   4  10
ATOM     10  N   UNL d   1       1.473  -2.242   0.233  0.00  0.00    -0.191 N 
ATOM     11  H   UNL d   1       2.432  -2.088  -0.047  0.00  0.00     0.184 HD
BRANCH  10  12
ATOM     12  C   UNL d   1       1.141  -3.480   0.796  0.00  0.00     0.052 A 
ATOM     13  C   UNL d   1       1.729  -4.647   0.290  0.00  0.00     0.054 A 
ATOM     14  C   UNL d   1       1.355  -5.901   0.783  0.00  0.00     0.037 A 
ATOM     15 CL   UNL d   1       2.070  -7.321   0.122  0.00  0.00    -0.084 Cl
ATOM     16  C   UNL d   1       0.404  -6.017   1.791  0.00  0.00     0.048 A 
ATOM     17  C   UNL d   1      -0.184  -4.864   2.296  0.00  0.00     0.037 A 
ATOM     18  C   UNL d   1       0.167  -3.610   1.795  0.00  0.00     0.054 A 
ATOM     19 CL   UNL d   1      -1.357  -4.981   3.551  0.00  0.00    -0.084 Cl
ENDBRANCH  10  12
ENDBRANCH   4  10
BRANCH   3  20
ATOM     20  N   UNL d   1      -2.727  -0.144  -0.052  0.00  0.00    -0.168 N 
ATOM     21  C   UNL d   1      -3.619   0.888  -0.272  0.00  0.00     0.114 A 
ATOM     22  C   UNL d   1      -4.901   0.384  -0.238  0.00  0.00     0.020 A 
ATOM     23  C   UNL d   1      -4.802  -1.003   0.016  0.00  0.00     0.020 A 
ATOM     24  C   UNL d   1      -3.462  -1.302   0.130  0.00  0.00     0.114 A 
ENDBRANCH   3  20
TORSDOF 3
