REMARK  5 active torsions:
REMARK  status: ('A' for Active; 'I' for Inactive)
REMARK    1  A    between atoms: N_4  and  S_1 
REMARK    2  A    between atoms: C_6  and  S_1 
REMARK    3  A    between atoms: C_3  and  C_2 
REMARK    4  A    between atoms: C_5  and  N_4 
REMARK    5  A    between atoms: N_19  and  C_17 
ROOT
ATOM      1  N   UNL d   1       0.472  -1.394  -0.779  0.00  0.00    -0.181 NA
ATOM      2  H   UNL d   1      -0.527  -1.492  -0.586  0.00  0.00     0.146 HD
ENDROOT
BRANCH   1   3
ATOM      3  S   UNL d   1       0.988   0.097  -0.108  0.00  0.00     0.245 S 
ATOM      4  O   UNL d   1       0.126   1.113  -0.676  0.00  0.00    -0.206 OA
ATOM      5  O   UNL d   1       2.428   0.178  -0.196  0.00  0.00    -0.206 OA
BRANCH   3   6
ATOM      6  C   UNL d   1       0.541  -0.101   1.598  0.00  0.00     0.074 A 
ATOM      7  C   UNL d   1       1.096  -1.141   2.344  0.00  0.00     0.026 A 
ATOM      8  C   UNL d   1       0.742  -1.285   3.690  0.00  0.00     0.025 A 
ATOM      9  C   UNL d   1      -0.189  -0.425   4.285  0.00  0.00     0.005 A 
ATOM     10  C   UNL d   1      -0.689   0.644   3.538  0.00  0.00     0.025 A 
ATOM     11  C   UNL d   1      -0.347   0.799   2.192  0.00  0.00     0.026 A 
BRANCH   9  12
ATOM     12  N   UNL d   1      -0.429  -0.491   5.662  0.00  0.00    -0.303 NA
ATOM     13  H   UNL d   1      -1.298  -0.056   5.958  0.00  0.00     0.124 HD
ATOM     14  H   UNL d   1      -0.301  -1.412   6.068  0.00  0.00     0.124 HD
ENDBRANCH   9  12
ENDBRANCH   3   6
ENDBRANCH   1   3
BRANCH   1  15
ATOM     15  C   UNL d   1       0.776  -1.538  -2.175  0.00  0.00     0.038 A 
ATOM     16  C   UNL d   1       1.976  -2.102  -2.626  0.00  0.00     0.071 A 
ATOM     17  C   UNL d   1       2.212  -2.156  -4.020  0.00  0.00     0.041 A 
ATOM     18  C   UNL d   1       1.280  -1.654  -4.926  0.00  0.00     0.035 A 
ATOM     19  C   UNL d   1       0.100  -1.081  -4.468  0.00  0.00     0.026 A 
ATOM     20 CL   UNL d   1       1.589  -1.746  -6.614  0.00  0.00    -0.084 Cl
ATOM     21  C   UNL d   1      -0.147  -1.019  -3.096  0.00  0.00     0.027 A 
BRANCH  16  22
ATOM     22  C   UNL d   1       3.030  -2.698  -1.727  0.00  0.00     0.419 C 
ATOM     23  F   UNL d   1       2.756  -2.697  -0.395  0.00  0.00    -0.166 F 
ATOM     24  F   UNL d   1       3.256  -4.011  -2.039  0.00  0.00    -0.166 F 
ATOM     25  F   UNL d   1       4.239  -2.087  -1.869  0.00  0.00    -0.166 F 
ENDBRANCH  16  22
ENDBRANCH   1  15
TORSDOF 5
