REMARK  2 active torsions:
REMARK  status: ('A' for Active; 'I' for Inactive)
REMARK    1  A    between atoms: C_4  and  C_1 
REMARK       I    between atoms: N_8  and  C_4 
REMARK    2  A    between atoms: N_10  and  N_8 
ROOT
ATOM      1  C   UNL d   1       2.618  -0.841  -0.018  0.00  0.00     0.103 A 
ATOM      2  C   UNL d   1       1.274  -1.186   0.020  0.00  0.00     0.055 A 
ATOM      3  N   UNL d   1       2.671   0.540  -0.006  0.00  0.00    -0.360 N 
ATOM      4  C   UNL d   1       0.533   0.011   0.044  0.00  0.00     0.028 A 
ATOM      5  C   UNL d   1       1.406   1.066   0.029  0.00  0.00     0.107 A 
ATOM      6 BR   UNL d   1      -1.337   0.092   0.077  0.00  0.00    -0.050 Br
ATOM      7  H   UNL d   1       3.536   1.069  -0.029  0.00  0.00     0.165 HD
ENDROOT
BRANCH   1   8
ATOM      8  C   UNL d   1       3.823  -1.641  -0.080  0.00  0.00     0.282 C 
ATOM      9  O   UNL d   1       4.941  -1.143  -0.192  0.00  0.00    -0.265 OA
ATOM     10  N   UNL d   1       3.630  -3.017  -0.009  0.00  0.00    -0.288 N 
ATOM     11  H   UNL d   1       2.714  -3.393   0.216  0.00  0.00     0.183 HD
BRANCH  10  12
ATOM     12  N   UNL d   1       4.739  -3.894  -0.021  0.00  0.00    -0.247 NA
ATOM     13  H   UNL d   1       5.581  -3.313   0.098  0.00  0.00     0.143 HD
ATOM     14  H   UNL d   1       4.829  -4.269  -0.969  0.00  0.00     0.143 HD
ENDBRANCH  10  12
ENDBRANCH   1   8
TORSDOF 2
