REMARK  5 active torsions:
REMARK  status: ('A' for Active; 'I' for Inactive)
REMARK    1  A    between atoms: C_9  and  N_1 
REMARK    2  A    between atoms: S_8  and  C_2 
REMARK    3  A    between atoms: C_14  and  S_8 
REMARK    4  A    between atoms: C_12  and  C_14 
REMARK    5  A    between atoms: C_13  and  C_12 
ROOT
ATOM      1  N   UNL d   1       2.341  -0.890  -0.133  0.00  0.00    -0.258 N 
ATOM      2  C   UNL d   1       2.310   0.504  -0.180  0.00  0.00     0.155 A 
ATOM      3  C   UNL d   1       1.149  -1.615   0.006  0.00  0.00     0.266 A 
ATOM      4  C   UNL d   1      -0.098  -0.843   0.022  0.00  0.00     0.060 A 
ATOM      5  N   UNL d   1       1.220   1.204  -0.110  0.00  0.00    -0.335 N 
ATOM      6  HN  UNL d   1       1.257   2.224  -0.120  1.00  0.00     0.168 HD
ATOM      7  C   UNL d   1      -0.006   0.540  -0.022  0.00  0.00     0.050 A 
ATOM      8  O   UNL d   1       1.058  -2.834   0.152  0.00  0.00    -0.267 OA
ATOM      9  C   UNL d   1      -1.338  -1.493   0.078  0.00  0.00     0.026 A 
ATOM     10  C   UNL d   1      -1.185   1.285  -0.018  0.00  0.00     0.031 A 
ATOM     11  C   UNL d   1      -2.519  -0.747   0.076  0.00  0.00    -0.061 A 
ATOM     12  C   UNL d   1      -2.434   0.649   0.026  0.00  0.00     0.009 A 
ATOM     13  C   UNL d   1      -3.852  -1.433   0.083  0.00  0.00     0.048 C 
ENDROOT
BRANCH   2  14
ATOM     14  S   UNL d   1       3.807   1.397  -0.449  0.00  0.00    -0.086 SA
BRANCH  14  15
ATOM     15  C   UNL d   1       3.153   3.067  -0.785  0.00  0.00     0.161 C 
BRANCH  15  16
ATOM     16  C   UNL d   1       4.188   4.010  -1.394  0.00  0.00     0.144 C 
ATOM     17  O   UNL d   1       5.301   3.624  -1.764  0.00  0.00    -0.296 OA
BRANCH  16  18
ATOM     18  C   UNL d   1       3.817   5.513  -1.508  0.00  0.00     0.010 C 
ATOM     19  C   UNL d   1       4.242   6.211  -0.210  0.00  0.00     0.022 C 
ATOM     20  C   UNL d   1       4.583   6.135  -2.691  0.00  0.00     0.022 C 
ATOM     21  C   UNL d   1       2.317   5.738  -1.747  0.00  0.00     0.022 C 
ENDBRANCH  16  18
ENDBRANCH  15  16
ENDBRANCH  14  15
ENDBRANCH   2  14
BRANCH   1  22
ATOM     22  C   UNL d   1       3.534  -1.679  -0.089  0.00  0.00     0.044 A 
ATOM     23  C   UNL d   1       3.686  -2.739  -0.996  0.00  0.00     0.031 A 
ATOM     24  C   UNL d   1       4.676  -3.705  -0.808  0.00  0.00     0.009 A 
ATOM     25  C   UNL d   1       5.528  -3.633   0.297  0.00  0.00    -0.062 A 
ATOM     26  C   UNL d   1       5.411  -2.549   1.177  0.00  0.00     0.009 A 
ATOM     27  C   UNL d   1       6.468  -4.768   0.580  0.00  0.00     0.048 C 
ATOM     28  C   UNL d   1       4.428  -1.570   0.983  0.00  0.00     0.031 A 
ENDBRANCH   1  22
TORSDOF 5
