REMARK  2 active torsions:
REMARK  status: ('A' for Active; 'I' for Inactive)
REMARK    1  A    between atoms: C_3  and  C_1 
REMARK       I    between atoms: N_7  and  C_3 
REMARK    2  A    between atoms: N_8  and  N_7 
ROOT
ATOM      1  C   UNL d   1      -0.155  -1.356  -0.165  0.00  0.00     0.171 C 
ATOM      2  C   UNL d   1      -0.942  -0.067  -0.033  0.00  0.00     0.230 C 
ATOM      3  N   UNL d   1      -0.270   1.120  -0.075  0.00  0.00    -0.360 N 
ATOM      4  O   UNL d   1      -2.174  -0.076   0.019  0.00  0.00    -0.273 OA
ATOM      5  C   UNL d   1       1.314  -1.206   0.245  0.00  0.00     0.025 C 
ATOM      6  C   UNL d   1       1.152   1.266   0.135  0.00  0.00     0.122 C 
ATOM      7  C   UNL d   1       1.931   0.056  -0.347  0.00  0.00     0.021 C 
ATOM      8  H   UNL d   1      -0.863   1.935   0.042  0.00  0.00     0.162 HD
ENDROOT
BRANCH   1   9
ATOM      9  C   UNL d   1      -0.315  -1.948  -1.558  0.00  0.00     0.244 C 
ATOM     10  O   UNL d   1       0.627  -2.195  -2.309  0.00  0.00    -0.271 OA
ATOM     11  N   UNL d   1      -1.632  -2.240  -1.899  0.00  0.00    -0.293 N 
ATOM     12  H   UNL d   1      -2.402  -1.958  -1.286  0.00  0.00     0.183 HD
BRANCH  11  13
ATOM     13  N   UNL d   1      -1.912  -2.838  -3.144  0.00  0.00    -0.247 NA
ATOM     14  H   UNL d   1      -1.012  -3.158  -3.530  0.00  0.00     0.143 HD
ATOM     15  H   UNL d   1      -2.210  -2.102  -3.789  0.00  0.00     0.143 HD
ENDBRANCH  11  13
ENDBRANCH   1   9
TORSDOF 2
