REMARK  10 active torsions:
REMARK  status: ('A' for Active; 'I' for Inactive)
REMARK    1  A    between atoms: C_11  and  C_1 
REMARK    2  A    between atoms: C_12  and  C_2 
REMARK    3  A    between atoms: C_13  and  N_3 
REMARK    4  A    between atoms: C_14  and  N_4 
REMARK    5  A    between atoms: N_9  and  C_16 
REMARK    6  A    between atoms: N_10  and  C_15 
REMARK    7  A    between atoms: O_31  and  C_11 
REMARK    8  A    between atoms: O_32  and  C_12 
REMARK    9  A    between atoms: C_33  and  O_31 
REMARK   10  A    between atoms: C_34  and  O_32 
ROOT
ATOM      1  C   UNL d   1      -0.704   1.109   0.028  0.00  0.00     0.219 C 
ATOM      2  C   UNL d   1       0.780  -1.065  -0.037  0.00  0.00     0.219 C 
ATOM      3  N   UNL d   1       0.685   1.175  -0.151  0.00  0.00    -0.232 N 
ATOM      4  N   UNL d   1      -0.603  -1.108  -0.273  0.00  0.00    -0.232 N 
ATOM      5  N   UNL d   1       1.475   0.048   0.015  0.00  0.00    -0.270 N 
ATOM      6  HN  UNL d   1       2.484   0.079   0.162  1.00  0.00     0.189 HD
ATOM      7  N   UNL d   1      -1.404   0.001  -0.042  0.00  0.00    -0.270 N 
ATOM      8  HN  UNL d   1      -2.418  -0.041   0.061  1.00  0.00     0.189 HD
ENDROOT
BRANCH   3   9
ATOM      9  C   UNL d   1       1.262   2.124  -1.047  0.00  0.00     0.059 A 
ATOM     10  C   UNL d   1       2.565   2.605  -0.824  0.00  0.00     0.034 A 
ATOM     11  C   UNL d   1       3.171   3.483  -1.729  0.00  0.00     0.038 A 
ATOM     12  C   UNL d   1       2.481   3.868  -2.885  0.00  0.00     0.103 A 
ATOM     13  C   UNL d   1       1.185   3.397  -3.127  0.00  0.00     0.038 A 
ATOM     14  C   UNL d   1       0.582   2.537  -2.207  0.00  0.00     0.034 A 
BRANCH  12  15
ATOM     15  N   UNL d   1       3.124   4.753  -3.862  0.00  0.00    -0.116 N 
ATOM     16  O   UNL d   1       4.253   5.189  -3.592  0.00  0.00    -0.532 OA
ATOM     17  O   UNL d   1       2.503   5.007  -4.903  0.00  0.00    -0.532 OA
ENDBRANCH  12  15
ENDBRANCH   3   9
BRANCH   1  18
ATOM     18  C   UNL d   1      -1.433   2.387   0.461  0.00  0.00     0.331 C 
ATOM     19  O   UNL d   1      -0.879   3.247   1.128  0.00  0.00    -0.256 OA
BRANCH  18  20
ATOM     20  O   UNL d   1      -2.742   2.316   0.139  0.00  0.00    -0.316 OA
BRANCH  20  21
ATOM     21  C   UNL d   1      -3.598   3.123   0.956  0.00  0.00     0.175 C 
ATOM     22  C   UNL d   1      -4.002   2.300   2.168  0.00  0.00     0.034 C 
ENDBRANCH  20  21
ENDBRANCH  18  20
ENDBRANCH   1  18
BRANCH   2  23
ATOM     23  C   UNL d   1       1.532  -2.357   0.311  0.00  0.00     0.331 C 
ATOM     24  O   UNL d   1       1.006  -3.268   0.926  0.00  0.00    -0.256 OA
BRANCH  23  25
ATOM     25  O   UNL d   1       2.830  -2.251  -0.039  0.00  0.00    -0.316 OA
BRANCH  25  26
ATOM     26  C   UNL d   1       3.714  -3.130   0.668  0.00  0.00     0.175 C 
ATOM     27  C   UNL d   1       4.102  -2.470   1.982  0.00  0.00     0.034 C 
ENDBRANCH  25  26
ENDBRANCH  23  25
ENDBRANCH   2  23
BRANCH   4  28
ATOM     28  C   UNL d   1      -1.243  -2.196  -0.933  0.00  0.00     0.059 A 
ATOM     29  C   UNL d   1      -2.558  -2.569  -0.607  0.00  0.00     0.034 A 
ATOM     30  C   UNL d   1      -3.171  -3.670  -1.219  0.00  0.00     0.038 A 
ATOM     31  C   UNL d   1      -2.473  -4.396  -2.191  0.00  0.00     0.103 A 
ATOM     32  C   UNL d   1      -1.185  -4.009  -2.573  0.00  0.00     0.038 A 
ATOM     33  C   UNL d   1      -0.582  -2.914  -1.948  0.00  0.00     0.034 A 
BRANCH  31  34
ATOM     34  N   UNL d   1      -3.088  -5.575  -2.812  0.00  0.00    -0.116 N 
ATOM     35  O   UNL d   1      -2.433  -6.181  -3.672  0.00  0.00    -0.532 OA
ATOM     36  O   UNL d   1      -4.224  -5.898  -2.438  0.00  0.00    -0.532 OA
ENDBRANCH  31  34
ENDBRANCH   4  28
TORSDOF 10
