REMARK  7 active torsions:
REMARK  status: ('A' for Active; 'I' for Inactive)
REMARK    1  A    between atoms: N_2  and  S_1 
REMARK    2  A    between atoms: C_5  and  S_1 
REMARK    3  A    between atoms: C_4  and  N_2 
REMARK       I    between atoms: C_3  and  N_7 
REMARK    4  A    between atoms: C_13  and  C_3 
REMARK    5  A    between atoms: O_6  and  C_9 
REMARK    6  A    between atoms: C_8  and  O_6 
REMARK    7  A    between atoms: N_7  and  C_19 
ROOT
ATOM      1  S   UNL d   1      -0.472   0.123   0.087  0.00  0.00     0.245 S 
ATOM      2  O   UNL d   1      -1.751   0.788   0.159  0.00  0.00    -0.206 OA
ATOM      3  O   UNL d   1       0.124  -0.497   1.258  0.00  0.00    -0.206 OA
ENDROOT
BRANCH   1   4
ATOM      4  N   UNL d   1       0.732   1.154  -0.515  0.00  0.00    -0.179 NA
ATOM      5  H   UNL d   1       1.530   1.125   0.125  0.00  0.00     0.146 HD
BRANCH   4   6
ATOM      6  C   UNL d   1       0.324   2.490  -0.845  0.00  0.00     0.056 A 
ATOM      7  C   UNL d   1       0.189   2.917  -2.172  0.00  0.00     0.098 A 
ATOM      8  C   UNL d   1      -0.362   4.181  -2.430  0.00  0.00     0.039 A 
ATOM      9  C   UNL d   1      -0.692   5.045  -1.387  0.00  0.00     0.003 A 
ATOM     10  C   UNL d   1      -0.467   4.655  -0.071  0.00  0.00     0.002 A 
ATOM     11  C   UNL d   1       0.038   3.381   0.200  0.00  0.00     0.027 A 
BRANCH   7  12
ATOM     12  O   UNL d   1       0.452   2.195  -3.306  0.00  0.00    -0.307 OA
BRANCH  12  13
ATOM     13  C   UNL d   1       1.572   1.419  -3.483  0.00  0.00     0.098 A 
ATOM     14  C   UNL d   1       2.850   1.540  -2.923  0.00  0.00     0.069 A 
ATOM     15  C   UNL d   1       3.848   0.606  -3.248  0.00  0.00     0.050 A 
ATOM     16 CL   UNL d   1       3.351   2.843  -1.903  0.00  0.00    -0.081 Cl
ATOM     17  C   UNL d   1       3.595  -0.406  -4.172  0.00  0.00     0.035 A 
ATOM     18  C   UNL d   1       2.359  -0.490  -4.795  0.00  0.00     0.026 A 
ATOM     19 CL   UNL d   1       4.830  -1.534  -4.572  0.00  0.00    -0.084 Cl
ATOM     20  C   UNL d   1       1.363   0.424  -4.455  0.00  0.00     0.041 A 
ENDBRANCH  12  13
ENDBRANCH   7  12
ENDBRANCH   4   6
ENDBRANCH   1   4
BRANCH   1  21
ATOM     21  C   UNL d   1      -0.572  -1.117  -1.179  0.00  0.00     0.075 A 
ATOM     22  C   UNL d   1      -0.118  -2.409  -0.920  0.00  0.00     0.027 A 
ATOM     23  C   UNL d   1      -0.098  -3.354  -1.953  0.00  0.00     0.031 A 
ATOM     24  C   UNL d   1      -0.531  -3.022  -3.243  0.00  0.00     0.034 A 
ATOM     25  C   UNL d   1      -1.068  -1.743  -3.458  0.00  0.00     0.031 A 
ATOM     26  C   UNL d   1      -1.096  -0.795  -2.429  0.00  0.00     0.027 A 
BRANCH  24  27
ATOM     27  N   UNL d   1      -0.373  -4.015  -4.244  0.00  0.00    -0.327 N 
ATOM     28  C   UNL d   1      -0.613  -3.892  -5.602  0.00  0.00     0.229 C 
ATOM     29  O   UNL d   1      -0.976  -2.853  -6.150  0.00  0.00    -0.272 OA
ATOM     30  H   UNL d   1       0.019  -4.892  -3.928  0.00  0.00     0.169 HD
BRANCH  28  31
ATOM     31  C   UNL d   1      -0.341  -5.176  -6.437  0.00  0.00     0.030 C 
ATOM     32  C   UNL d   1      -1.164  -6.369  -5.923  0.00  0.00     0.025 C 
ATOM     33  C   UNL d   1      -0.737  -4.913  -7.904  0.00  0.00     0.025 C 
ATOM     34  C   UNL d   1       1.152  -5.548  -6.404  0.00  0.00     0.025 C 
ENDBRANCH  28  31
ENDBRANCH  24  27
ENDBRANCH   1  21
TORSDOF 7
