REMARK  7 active torsions:
REMARK  status: ('A' for Active; 'I' for Inactive)
REMARK    1  A    between atoms: S_9  and  C_2 
REMARK    2  A    between atoms: C_8  and  C_14 
REMARK       I    between atoms: N_11  and  C_8 
REMARK    3  A    between atoms: C_14  and  S_9 
REMARK    4  A    between atoms: C_10  and  C_15 
REMARK    5  A    between atoms: O_16  and  C_10 
REMARK    6  A    between atoms: C_15  and  N_11 
REMARK    7  A    between atoms: C_18  and  O_16 
ROOT
ATOM      1  C   UNL d   1       5.820  -0.019  -0.121  0.00  0.00     0.227 C 
ATOM      2  N   UNL d   1       5.973   1.328   0.113  0.00  0.00    -0.351 N 
ATOM      3  O   UNL d   1       6.786  -0.781  -0.187  0.00  0.00    -0.273 OA
ATOM      4  H   UNL d   1       5.177   1.927  -0.073  0.00  0.00     0.163 HD
ENDROOT
BRANCH   1   5
ATOM      5  C   UNL d   1       4.396  -0.552  -0.150  0.00  0.00     0.184 C 
BRANCH   5   6
ATOM      6  S   UNL d   1       3.135   0.677  -0.586  0.00  0.00    -0.094 SA
BRANCH   6   7
ATOM      7  C   UNL d   1       3.438   0.914  -2.290  0.00  0.00     0.128 A 
ATOM      8  S   UNL d   1       2.779   2.241  -3.153  0.00  0.00    -0.050 SA
ATOM      9  C   UNL d   1       3.622   1.663  -4.532  0.00  0.00     0.065 A 
ATOM     10  N   UNL d   1       4.296   0.551  -4.323  0.00  0.00    -0.297 N 
ATOM     11  C   UNL d   1       3.581   2.412  -5.812  0.00  0.00     0.078 C 
ATOM     12  N   UNL d   1       4.188   0.116  -3.014  0.00  0.00    -0.287 N 
ATOM     13  HN  UNL d   1       4.834   0.068  -5.042  1.00  0.00     0.187 HD
ATOM     14  HN  UNL d   1       4.639  -0.725  -2.654  1.00  0.00     0.188 HD
ENDBRANCH   6   7
ENDBRANCH   5   6
ENDBRANCH   1   5
BRANCH   2  15
ATOM     15  C   UNL d   1       7.294   1.944   0.150  0.00  0.00     0.233 C 
BRANCH  15  16
ATOM     16  C   UNL d   1       7.840   2.422  -1.192  0.00  0.00     0.276 C 
ATOM     17  O   UNL d   1       8.905   3.022  -1.311  0.00  0.00    -0.263 OA
BRANCH  16  18
ATOM     18  O   UNL d   1       6.961   2.189  -2.206  0.00  0.00    -0.321 OA
BRANCH  18  19
ATOM     19  C   UNL d   1       7.268   2.810  -3.461  0.00  0.00     0.174 C 
ATOM     20  C   UNL d   1       6.573   4.158  -3.490  0.00  0.00     0.034 C 
ENDBRANCH  18  19
ENDBRANCH  16  18
ENDBRANCH  15  16
ENDBRANCH   2  15
TORSDOF 7
