REMARK  6 active torsions:
REMARK  status: ('A' for Active; 'I' for Inactive)
REMARK    1  A    between atoms: C_9  and  C_3 
REMARK    2  A    between atoms: O_14  and  C_4 
REMARK    3  A    between atoms: S_13  and  C_5 
REMARK    4  A    between atoms: C_8  and  C_9 
REMARK    5  A    between atoms: C_17  and  C_10 
REMARK    6  A    between atoms: O_18  and  C_17 
ROOT
ATOM      1  N   UNL d   1      -0.572   1.269   0.093  0.00  0.00    -0.317 N 
ATOM      2  HN  UNL d   1      -1.027   2.181   0.099  1.00  0.00     0.170 HD
ATOM      3  C   UNL d   1      -0.725  -1.152   0.068  0.00  0.00     0.022 A 
ATOM      4  C   UNL d   1      -1.267   0.125   0.083  0.00  0.00     0.150 A 
ATOM      5  C   UNL d   1       0.751   1.138   0.095  0.00  0.00     0.143 A 
ATOM      6  N   UNL d   1       1.406  -0.029   0.085  0.00  0.00    -0.338 N 
ATOM      7  HN  UNL d   1       2.426  -0.063   0.095  1.00  0.00     0.168 HD
ATOM      8  C   UNL d   1       0.667  -1.167   0.060  0.00  0.00     0.045 A 
ENDROOT
BRANCH   3   9
ATOM      9  C   UNL d   1      -1.592  -2.389  -0.023  0.00  0.00     0.088 C 
BRANCH   9  10
ATOM     10  C   UNL d   1      -1.870  -3.119   1.276  0.00  0.00     0.007 A 
ATOM     11  C   UNL d   1      -2.633  -2.487   2.269  0.00  0.00     0.124 A 
ATOM     12  F   UNL d   1      -3.088  -1.242   2.069  0.00  0.00    -0.205 F 
ATOM     13  C   UNL d   1      -2.983  -3.117   3.463  0.00  0.00     0.043 A 
ATOM     14  C   UNL d   1      -2.574  -4.423   3.696  0.00  0.00     0.005 A 
ATOM     15  C   UNL d   1      -1.827  -5.086   2.727  0.00  0.00     0.024 A 
ATOM     16  C   UNL d   1      -1.487  -4.448   1.524  0.00  0.00     0.043 A 
ATOM     17 CL   UNL d   1      -0.632  -5.408   0.370  0.00  0.00    -0.084 Cl
ENDBRANCH   9  10
ENDBRANCH   3   9
BRANCH   4  18
ATOM     18  O   UNL d   1      -2.616   0.321   0.049  0.00  0.00    -0.346 OA
ATOM     19  H   UNL d   1      -2.972  -0.150   0.823  0.00  0.00     0.219 HD
ENDBRANCH   4  18
BRANCH   8  20
ATOM     20  C   UNL d   1       1.487  -2.434  -0.041  0.00  0.00     0.224 C 
BRANCH  20  21
ATOM     21  O   UNL d   1       1.195  -3.208  -1.206  0.00  0.00    -0.390 OA
ATOM     22  C   UNL d   1       1.616  -2.589  -2.415  0.00  0.00     0.201 C 
ENDBRANCH  20  21
ENDBRANCH   8  20
BRANCH   5  23
ATOM     23  S   UNL d   1       1.707   2.623   0.093  0.00  0.00    -0.107 SA
ATOM     24  H   UNL d   1       0.629   3.413   0.040  0.00  0.00     0.110 HD
ENDBRANCH   5  23
TORSDOF 6
