REMARK  5 active torsions:
REMARK  status: ('A' for Active; 'I' for Inactive)
REMARK    1  A    between atoms: C_2  and  C_1 
REMARK    2  A    between atoms: C_5  and  O_10 
REMARK       I    between atoms: N_12  and  C_5 
REMARK    3  A    between atoms: O_10  and  C_13 
REMARK    4  A    between atoms: C_20  and  N_12 
REMARK    5  A    between atoms: C_21  and  N_12 
ROOT
ATOM      1  C   UNL d   1      -0.307  -2.055   0.023  0.00  0.00     0.066 A 
ATOM      2  C   UNL d   1       0.356   0.312   0.137  0.00  0.00     0.093 A 
ATOM      3  C   UNL d   1       0.748  -1.025  -0.005  0.00  0.00     0.013 A 
ATOM      4  O   UNL d   1      -0.991   0.690   0.288  0.00  0.00    -0.275 OA
ATOM      5  C   UNL d   1      -2.000  -0.246   0.247  0.00  0.00     0.289 A 
ATOM      6  C   UNL d   1      -1.585  -1.647   0.134  0.00  0.00     0.099 A 
ATOM      7  C   UNL d   1       1.261   1.369   0.115  0.00  0.00     0.075 A 
ATOM      8  C   UNL d   1       2.123  -1.261  -0.173  0.00  0.00     0.018 A 
ATOM      9  C   UNL d   1       2.611   1.104  -0.075  0.00  0.00     0.083 A 
ATOM     10  O   UNL d   1      -3.185   0.055   0.313  0.00  0.00    -0.260 OA
ATOM     11  C   UNL d   1       3.056  -0.204  -0.207  0.00  0.00     0.038 A 
ENDROOT
BRANCH   9  12
ATOM     12  O   UNL d   1       3.422   2.260  -0.117  0.00  0.00    -0.261 OA
BRANCH  12  13
ATOM     13  C   UNL d   1       4.763   2.407  -0.480  0.00  0.00     0.368 C 
ATOM     14  N   UNL d   1       5.162   3.744  -0.431  0.00  0.00    -0.328 N 
ATOM     15  O   UNL d   1       5.491   1.475  -0.806  0.00  0.00    -0.238 OA
BRANCH  14  16
ATOM     16  C   UNL d   1       4.240   4.801  -0.002  0.00  0.00     0.123 C 
ATOM     17  C   UNL d   1       3.356   5.298  -1.139  0.00  0.00     0.026 C 
ENDBRANCH  14  16
BRANCH  14  18
ATOM     18  C   UNL d   1       6.552   4.099  -0.708  0.00  0.00     0.123 C 
ATOM     19  C   UNL d   1       6.714   5.165  -1.781  0.00  0.00     0.026 C 
ENDBRANCH  14  18
ENDBRANCH  12  13
ENDBRANCH   9  12
BRANCH   1  20
ATOM     20  C   UNL d   1      -0.052  -3.530  -0.069  0.00  0.00     0.418 C 
ATOM     21  F   UNL d   1       1.240  -3.907   0.065  0.00  0.00    -0.166 F 
ATOM     22  F   UNL d   1      -0.741  -4.201   0.895  0.00  0.00    -0.166 F 
ATOM     23  F   UNL d   1      -0.485  -4.024  -1.258  0.00  0.00    -0.166 F 
ENDBRANCH   1  20
TORSDOF 5
