REMARK  10 active torsions:
REMARK  status: ('A' for Active; 'I' for Inactive)
REMARK    1  A    between atoms: N_4  and  C_1 
REMARK    2  A    between atoms: N_5  and  C_2 
REMARK    3  A    between atoms: O_10  and  C_3 
REMARK    4  A    between atoms: C_6  and  C_7 
REMARK    5  A    between atoms: C_20  and  O_10 
REMARK    6  A    between atoms: C_15  and  C_21 
REMARK    7  A    between atoms: O_23  and  C_15 
REMARK    8  A    between atoms: C_21  and  C_24 
REMARK    9  A    between atoms: C_24  and  C_22 
REMARK   10  A    between atoms: C_29  and  O_23 
ROOT
ATOM      1  C   UNL d   1      -0.698  -1.251   0.842  0.00  0.00     0.140 A 
ATOM      2  C   UNL d   1       1.419  -0.204   0.547  0.00  0.00     0.140 A 
ATOM      3  C   UNL d   1       0.645  -1.371   0.452  0.00  0.00     0.142 A 
ATOM      4  C   UNL d   1      -0.425   1.069   1.522  0.00  0.00     0.052 A 
ATOM      5  C   UNL d   1       0.906   0.991   1.095  0.00  0.00     0.055 A 
ATOM      6  C   UNL d   1      -1.236  -0.063   1.375  0.00  0.00     0.055 A 
ENDROOT
BRANCH   3   7
ATOM      7  O   UNL d   1       1.034  -2.606  -0.012  0.00  0.00    -0.306 OA
BRANCH   7   8
ATOM      8  C   UNL d   1       2.324  -3.038   0.158  0.00  0.00     0.076 C 
ATOM      9  C   UNL d   1       3.033  -2.908   1.351  0.00  0.00     0.038 C 
ATOM     10  C   UNL d   1       4.401  -3.190   1.367  0.00  0.00     0.010 C 
ATOM     11  C   UNL d   1       5.048  -3.655   0.213  0.00  0.00    -0.058 C 
ATOM     12  C   UNL d   1       4.285  -3.926  -0.930  0.00  0.00     0.010 C 
ATOM     13  C   UNL d   1       2.927  -3.616  -0.957  0.00  0.00     0.038 C 
BRANCH  11  14
ATOM     14  C   UNL d   1       6.547  -3.841   0.204  0.00  0.00     0.048 C 
BRANCH  14  15
ATOM     15  C   UNL d   1       7.227  -3.058  -0.922  0.00  0.00     0.116 C 
BRANCH  15  16
ATOM     16  C   UNL d   1       8.726  -3.102  -0.788  0.00  0.00     0.259 C 
ATOM     17  O   UNL d   1       9.342  -3.686   0.091  0.00  0.00    -0.265 OA
BRANCH  16  18
ATOM     18  O   UNL d   1       9.285  -2.338  -1.769  0.00  0.00    -0.322 OA
BRANCH  18  19
ATOM     19  C   UNL d   1      10.676  -2.033  -1.598  0.00  0.00     0.174 C 
ATOM     20  C   UNL d   1      10.787  -0.759  -0.781  0.00  0.00     0.034 C 
ENDBRANCH  18  19
ENDBRANCH  16  18
ENDBRANCH  15  16
ENDBRANCH  14  15
ENDBRANCH  11  14
ENDBRANCH   7   8
ENDBRANCH   3   7
BRANCH   2  21
ATOM     21  N   UNL d   1       2.765  -0.108   0.015  0.00  0.00    -0.113 N 
ATOM     22  O   UNL d   1       2.904  -0.266  -1.206  0.00  0.00    -0.532 OA
ATOM     23  O   UNL d   1       3.656   0.223   0.807  0.00  0.00    -0.532 OA
ENDBRANCH   2  21
BRANCH   1  24
ATOM     24  N   UNL d   1      -1.609  -2.372   0.673  0.00  0.00    -0.113 N 
ATOM     25  O   UNL d   1      -1.760  -2.813  -0.471  0.00  0.00    -0.532 OA
ATOM     26  O   UNL d   1      -2.210  -2.755   1.685  0.00  0.00    -0.532 OA
ENDBRANCH   1  24
BRANCH   4  27
ATOM     27  C   UNL d   1      -0.991   2.353   2.087  0.00  0.00     0.417 C 
ATOM     28  F   UNL d   1      -0.058   3.333   2.228  0.00  0.00    -0.166 F 
ATOM     29  F   UNL d   1      -1.968   2.871   1.298  0.00  0.00    -0.166 F 
ATOM     30  F   UNL d   1      -1.543   2.175   3.316  0.00  0.00    -0.166 F 
ENDBRANCH   4  27
TORSDOF 10
