REMARK  9 active torsions:
REMARK  status: ('A' for Active; 'I' for Inactive)
REMARK    1  A    between atoms: C_6  and  C_1 
REMARK    2  A    between atoms: C_19  and  C_1 
REMARK    3  A    between atoms: C_11  and  N_2 
REMARK    4  A    between atoms: C_12  and  N_3 
REMARK    5  A    between atoms: C_8  and  C_6 
REMARK    6  A    between atoms: C_10  and  C_6 
REMARK    7  A    between atoms: N_7  and  C_10 
REMARK    8  A    between atoms: C_28  and  C_19 
REMARK    9  A    between atoms: C_29  and  C_28 
ROOT
ATOM      1  C   UNL d   1      -0.075  -1.056  -0.293  0.00  0.00     0.135 C 
ATOM      2  N   UNL d   1      -0.630   1.204   0.160  0.00  0.00    -0.213 N 
ATOM      3  N   UNL d   1       0.659   1.182  -0.388  0.00  0.00    -0.213 N 
ATOM      4  C   UNL d   1      -1.192  -0.080   0.082  0.00  0.00     0.262 C 
ATOM      5  C   UNL d   1       1.117  -0.129  -0.518  0.00  0.00     0.262 C 
ATOM      6  O   UNL d   1      -2.372  -0.378   0.210  0.00  0.00    -0.270 OA
ATOM      7  O   UNL d   1       2.246  -0.509  -0.798  0.00  0.00    -0.270 OA
ENDROOT
BRANCH   1   8
ATOM      8  C   UNL d   1       0.183  -2.059   0.902  0.00  0.00     0.070 C 
BRANCH   8   9
ATOM      9  C   UNL d   1      -1.014  -3.002   1.160  0.00  0.00    -0.044 A 
ATOM     10  C   UNL d   1      -1.996  -2.751   2.152  0.00  0.00    -0.054 A 
ATOM     11  C   UNL d   1      -3.053  -3.672   2.331  0.00  0.00     0.031 A 
ATOM     12  C   UNL d   1      -2.046  -1.537   3.045  0.00  0.00     0.049 C 
ATOM     13  C   UNL d   1      -3.144  -4.827   1.562  0.00  0.00     0.034 A 
ATOM     14  C   UNL d   1      -2.190  -5.087   0.593  0.00  0.00     0.024 A 
ATOM     15 CL   UNL d   1      -4.440  -5.929   1.812  0.00  0.00    -0.084 Cl
ATOM     16  C   UNL d   1      -1.143  -4.183   0.392  0.00  0.00     0.010 A 
ENDBRANCH   8   9
BRANCH   8  17
ATOM     17  C   UNL d   1       1.524  -2.837   0.772  0.00  0.00     0.212 C 
BRANCH  17  18
ATOM     18  N   UNL d   1       1.703  -3.796   1.921  0.00  0.00    -0.155 N 
ATOM     19  O   UNL d   1       1.744  -3.314   3.061  0.00  0.00    -0.537 OA
ATOM     20  O   UNL d   1       1.839  -4.993   1.635  0.00  0.00    -0.537 OA
ENDBRANCH  17  18
ENDBRANCH   8  17
ENDBRANCH   1   8
BRANCH   1  21
ATOM     21  C   UNL d   1      -0.376  -1.741  -1.652  0.00  0.00     0.030 C 
BRANCH  21  22
ATOM     22  C   UNL d   1      -0.478  -0.781  -2.852  0.00  0.00     0.001 C 
BRANCH  22  23
ATOM     23  C   UNL d   1      -0.671  -1.544  -4.162  0.00  0.00    -0.005 C 
ATOM     24  C   UNL d   1      -0.764  -0.586  -5.337  0.00  0.00     0.005 C 
ENDBRANCH  22  23
ENDBRANCH  21  22
ENDBRANCH   1  21
BRANCH   2  25
ATOM     25  C   UNL d   1      -1.466   2.354   0.194  0.00  0.00     0.060 A 
ATOM     26  C   UNL d   1      -2.391   2.490   1.237  0.00  0.00     0.031 A 
ATOM     27  C   UNL d   1      -3.139   3.663   1.374  0.00  0.00     0.002 A 
ATOM     28  C   UNL d   1      -2.995   4.695   0.450  0.00  0.00     0.000 A 
ATOM     29  C   UNL d   1      -2.115   4.551  -0.620  0.00  0.00     0.002 A 
ATOM     30  C   UNL d   1      -1.352   3.388  -0.746  0.00  0.00     0.031 A 
ENDBRANCH   2  25
BRANCH   3  31
ATOM     31  C   UNL d   1       1.555   2.275  -0.380  0.00  0.00     0.060 A 
ATOM     32  C   UNL d   1       2.301   2.542  -1.536  0.00  0.00     0.031 A 
ATOM     33  C   UNL d   1       3.106   3.679  -1.606  0.00  0.00     0.002 A 
ATOM     34  C   UNL d   1       3.205   4.529  -0.505  0.00  0.00     0.000 A 
ATOM     35  C   UNL d   1       2.487   4.252   0.658  0.00  0.00     0.002 A 
ATOM     36  C   UNL d   1       1.648   3.139   0.715  0.00  0.00     0.031 A 
ENDBRANCH   3  31
TORSDOF 9
