REMARK  5 active torsions:
REMARK  status: ('A' for Active; 'I' for Inactive)
REMARK    1  A    between atoms: N_2  and  C_1 
REMARK    2  A    between atoms: C_3  and  C_4 
REMARK    3  A    between atoms: C_4  and  O_9 
REMARK    4  A    between atoms: C_5  and  C_10 
REMARK    5  A    between atoms: O_9  and  C_6 
ROOT
ATOM      1  C   UNL d   1       1.216   0.195  -0.270  0.00  0.00     0.137 A 
ATOM      2  C   UNL d   1       0.665  -1.085  -0.358  0.00  0.00     0.112 A 
ATOM      3  C   UNL d   1       0.427   1.334  -0.087  0.00  0.00     0.055 A 
ATOM      4  C   UNL d   1      -0.966   1.190  -0.004  0.00  0.00     0.050 A 
ATOM      5  C   UNL d   1      -0.715  -1.235  -0.267  0.00  0.00     0.041 A 
ATOM      6  C   UNL d   1      -1.523  -0.103  -0.083  0.00  0.00     0.019 A 
ENDROOT
BRANCH   2   7
ATOM      7  O   UNL d   1       1.534  -2.161  -0.625  0.00  0.00    -0.272 OA
BRANCH   7   8
ATOM      8  C   UNL d   1       1.401  -3.396  -0.002  0.00  0.00     0.300 C 
ATOM      9  O   UNL d   1       0.517  -3.744   0.755  0.00  0.00    -0.259 OA
BRANCH   8  10
ATOM     10  C   UNL d   1       2.581  -4.208  -0.398  0.00  0.00     0.061 A 
ATOM     11  C   UNL d   1       2.477  -5.572  -0.700  0.00  0.00     0.051 A 
ATOM     12  C   UNL d   1       3.624  -6.302  -1.042  0.00  0.00     0.048 A 
ATOM     13 CL   UNL d   1       0.971  -6.416  -0.727  0.00  0.00    -0.083 Cl
ATOM     14  C   UNL d   1       4.867  -5.673  -1.085  0.00  0.00     0.035 A 
ATOM     15  C   UNL d   1       4.983  -4.319  -0.786  0.00  0.00     0.025 A 
ATOM     16 CL   UNL d   1       6.269  -6.572  -1.514  0.00  0.00    -0.084 Cl
ATOM     17  C   UNL d   1       3.845  -3.589  -0.437  0.00  0.00     0.021 A 
ENDBRANCH   8  10
ENDBRANCH   7   8
ENDBRANCH   2   7
BRANCH   1  18
ATOM     18  N   UNL d   1       2.648   0.355  -0.354  0.00  0.00    -0.113 N 
ATOM     19  O   UNL d   1       3.256   0.521   0.710  0.00  0.00    -0.532 OA
ATOM     20  O   UNL d   1       3.156   0.304  -1.481  0.00  0.00    -0.532 OA
ENDBRANCH   1  18
BRANCH   4  21
ATOM     21  C   UNL d   1      -1.861   2.396   0.173  0.00  0.00     0.417 C 
ATOM     22  F   UNL d   1      -1.208   3.577  -0.006  0.00  0.00    -0.166 F 
ATOM     23  F   UNL d   1      -2.899   2.407  -0.706  0.00  0.00    -0.166 F 
ATOM     24  F   UNL d   1      -2.413   2.454   1.414  0.00  0.00    -0.166 F 
ENDBRANCH   4  21
TORSDOF 5
