REMARK  1 active torsions:
REMARK  status: ('A' for Active; 'I' for Inactive)
REMARK    1  A    between atoms: C_8  and  C_7 
ROOT
ATOM      1  C   UNL d   1       1.627   0.016   0.478  0.00  0.00     0.102 C 
ATOM      2  N   UNL d   1      -0.325   1.428   0.704  0.00  0.00    -0.299 N 
ATOM      3  N   UNL d   1      -0.417  -0.748   1.505  0.00  0.00    -0.299 N 
ATOM      4  C   UNL d   1       0.970   1.336   0.265  0.00  0.00     0.263 C 
ATOM      5  C   UNL d   1       0.812  -1.107   1.014  0.00  0.00     0.263 C 
ATOM      6  C   UNL d   1      -1.030   0.454   1.338  0.00  0.00     0.181 C 
ATOM      7  C   UNL d   1       2.944  -0.042   0.196  0.00  0.00     0.052 C 
ATOM      8  S   UNL d   1      -2.581   0.717   1.872  0.00  0.00    -0.040 SA
ATOM      9  O   UNL d   1       1.525   2.299  -0.253  0.00  0.00    -0.267 OA
ATOM     10  O   UNL d   1       1.135  -2.289   0.983  0.00  0.00    -0.267 OA
ATOM     11  H   UNL d   1      -0.772   2.326   0.569  0.00  0.00     0.171 HD
ATOM     12  H   UNL d   1      -0.964  -1.505   1.897  0.00  0.00     0.171 HD
ENDROOT
BRANCH   7  13
ATOM     13  C   UNL d   1       3.766  -1.166   0.449  0.00  0.00     0.039 A 
ATOM     14  N   UNL d   1       3.897  -2.128  -0.524  0.00  0.00    -0.359 N 
ATOM     15  C   UNL d   1       4.722  -3.134  -0.081  0.00  0.00     0.006 A 
ATOM     16  H   UNL d   1       3.421  -2.124  -1.416  0.00  0.00     0.166 HD
ATOM     17  C   UNL d   1       4.995  -4.347  -0.891  0.00  0.00     0.068 C 
ATOM     18  C   UNL d   1       5.154  -2.783   1.181  0.00  0.00     0.033 A 
ATOM     19  C   UNL d   1       4.559  -1.535   1.522  0.00  0.00    -0.033 A 
ATOM     20  C   UNL d   1       4.747  -0.808   2.804  0.00  0.00     0.050 C 
ENDBRANCH   7  13
TORSDOF 1
