REMARK  8 active torsions:
REMARK  status: ('A' for Active; 'I' for Inactive)
REMARK    1  A    between atoms: C_5  and  C_1 
REMARK    2  A    between atoms: C_2  and  N_13 
REMARK    3  A    between atoms: S_20  and  C_2 
REMARK    4  A    between atoms: N_3  and  N_6 
REMARK    5  A    between atoms: O_22  and  C_5 
REMARK    6  A    between atoms: N_13  and  C_8 
REMARK    7  A    between atoms: C_11  and  C_15 
REMARK    8  A    between atoms: C_26  and  O_22 
ROOT
ATOM      1  C   UNL d   1      -3.368   0.041  -0.600  0.00  0.00     0.135 C 
ATOM      2  C   UNL d   1      -2.024   0.077  -0.622  0.00  0.00     0.119 C 
ATOM      3  C   UNL d   1      -4.141  -1.031  -1.147  0.00  0.00     0.107 C 
ATOM      4  N   UNL d   1      -4.739  -1.923  -1.607  0.00  0.00    -0.191 NA
ENDROOT
BRANCH   1   5
ATOM      5  C   UNL d   1      -4.011   1.196   0.091  0.00  0.00     0.305 C 
ATOM      6  O   UNL d   1      -3.406   2.153   0.558  0.00  0.00    -0.258 OA
BRANCH   5   7
ATOM      7  O   UNL d   1      -5.348   1.000   0.203  0.00  0.00    -0.317 OA
BRANCH   7   8
ATOM      8  C   UNL d   1      -6.001   1.818   1.185  0.00  0.00     0.174 C 
ATOM      9  C   UNL d   1      -5.895   1.104   2.521  0.00  0.00     0.034 C 
ENDBRANCH   7   8
ENDBRANCH   5   7
ENDBRANCH   1   5
BRANCH   2  10
ATOM     10  N   UNL d   1      -1.094  -0.786  -1.168  0.00  0.00    -0.344 N 
ATOM     11  H   UNL d   1      -1.441  -1.506  -1.797  0.00  0.00     0.167 HD
BRANCH  10  12
ATOM     12  C   UNL d   1       0.289  -0.756  -1.166  0.00  0.00     0.158 C 
ATOM     13  N   UNL d   1       1.036  -1.419  -2.006  0.00  0.00    -0.280 N 
ATOM     14  HN  UNL d   1       2.055  -1.399  -1.998  1.00  0.00     0.189 HD
BRANCH  13  15
ATOM     15  N   UNL d   1       0.279  -2.162  -2.921  0.00  0.00    -0.302 N 
ATOM     16  C   UNL d   1       0.964  -2.695  -3.894  0.00  0.00     0.032 C 
ATOM     17  C   UNL d   1       2.455  -2.504  -4.087  0.00  0.00     0.070 C 
ATOM     18  HN  UNL d   1      -0.731  -2.278  -2.833  1.00  0.00     0.186 HD
BRANCH  16  19
ATOM     19  C   UNL d   1       0.224  -3.548  -4.871  0.00  0.00    -0.011 A 
ATOM     20  C   UNL d   1      -1.100  -3.211  -5.182  0.00  0.00     0.039 A 
ATOM     21  C   UNL d   1      -1.863  -4.037  -6.011  0.00  0.00     0.056 A 
ATOM     22 CL   UNL d   1      -3.492  -3.562  -6.334  0.00  0.00    -0.083 Cl
ATOM     23  C   UNL d   1      -1.304  -5.208  -6.534  0.00  0.00     0.055 A 
ATOM     24  C   UNL d   1       0.024  -5.536  -6.237  0.00  0.00     0.026 A 
ATOM     25 CL   UNL d   1      -2.199  -6.296  -7.533  0.00  0.00    -0.083 Cl
ATOM     26  C   UNL d   1       0.789  -4.709  -5.407  0.00  0.00     0.015 A 
ENDBRANCH  16  19
ENDBRANCH  13  15
BRANCH  12  27
ATOM     27  S   UNL d   1       1.068   0.210   0.093  0.00  0.00    -0.097 SA
ATOM     28  C   UNL d   1       2.811   0.035  -0.300  0.00  0.00     0.099 C 
ENDBRANCH  12  27
ENDBRANCH  10  12
ENDBRANCH   2  10
TORSDOF 8
