REMARK  1 active torsions:
REMARK  status: ('A' for Active; 'I' for Inactive)
REMARK    1  A    between atoms: C_7  and  C_4 
ROOT
ATOM      1  C   UNL d   1       1.218  -1.400   0.038  0.00  0.00     0.189 C 
ATOM      2  C   UNL d   1       2.249  -0.685  -0.759  0.00  0.00    -0.006 C 
ATOM      3  C   UNL d   1      -0.136  -0.791   0.063  0.00  0.00     0.021 A 
ATOM      4  C   UNL d   1       2.589  -1.279  -1.918  0.00  0.00     0.022 C 
ATOM      5  O   UNL d   1       1.431  -2.505   0.524  0.00  0.00    -0.287 OA
ATOM      6  C   UNL d   1      -0.373   0.560   0.370  0.00  0.00    -0.044 A 
ATOM      7  C   UNL d   1       2.817   0.583  -0.197  0.00  0.00     0.043 C 
ATOM      8  C   UNL d   1      -1.203  -1.638  -0.275  0.00  0.00     0.016 A 
ATOM      9  C   UNL d   1       1.815   1.731  -0.169  0.00  0.00     0.009 C 
ATOM     10  C   UNL d   1       0.705   1.498   0.850  0.00  0.00     0.040 C 
ATOM     11  C   UNL d   1      -1.692   1.042   0.290  0.00  0.00     0.008 A 
ATOM     12  C   UNL d   1      -2.503  -1.140  -0.348  0.00  0.00     0.001 A 
ATOM     13  C   UNL d   1      -2.745   0.202  -0.075  0.00  0.00     0.001 A 
ENDROOT
BRANCH   4  14
ATOM     14  C   UNL d   1       3.518  -0.667  -2.866  0.00  0.00    -0.035 A 
ATOM     15  C   UNL d   1       4.899  -0.857  -2.742  0.00  0.00     0.014 A 
ATOM     16  C   UNL d   1       5.774  -0.163  -3.579  0.00  0.00     0.043 A 
ATOM     17  C   UNL d   1       5.263   0.710  -4.536  0.00  0.00     0.116 A 
ATOM     18  C   UNL d   1       3.892   0.892  -4.681  0.00  0.00     0.043 A 
ATOM     19  F   UNL d   1       6.104   1.396  -5.319  0.00  0.00    -0.206 F 
ATOM     20  C   UNL d   1       3.016   0.202  -3.845  0.00  0.00     0.014 A 
ENDBRANCH   4  14
TORSDOF 1
