REMARK  4 active torsions:
REMARK  status: ('A' for Active; 'I' for Inactive)
REMARK    1  A    between atoms: C_3  and  N_1 
REMARK    2  A    between atoms: C_2  and  C_4 
REMARK    3  A    between atoms: N_12  and  C_2 
REMARK    4  A    between atoms: O_13  and  N_6 
ROOT
ATOM      1  C   UNL d   1      -3.197  -1.689  -4.168  0.00  0.00     0.039 A 
ATOM      2  C   UNL d   1      -2.903  -3.958  -3.313  0.00  0.00     0.006 A 
ATOM      3  C   UNL d   1      -2.634  -2.581  -3.239  0.00  0.00     0.044 A 
ATOM      4  C   UNL d   1      -3.990  -2.203  -5.205  0.00  0.00     0.030 A 
ATOM      5  C   UNL d   1      -3.696  -4.449  -4.356  0.00  0.00     0.015 A 
ATOM      6  C   UNL d   1      -4.229  -3.576  -5.302  0.00  0.00     0.003 A 
ENDROOT
BRANCH   2   7
ATOM      7  C   UNL d   1      -2.383  -4.905  -2.270  0.00  0.00     0.108 C 
ATOM      8  N   UNL d   1      -2.656  -6.176  -2.386  0.00  0.00    -0.258 N 
ATOM      9  HN  UNL d   1      -3.170  -6.587  -3.166  1.00  0.00     0.195 HD
BRANCH   8  10
ATOM     10  O   UNL d   1      -2.149  -6.905  -1.297  0.00  0.00    -0.289 OA
ATOM     11  H   UNL d   1      -2.415  -7.815  -1.525  0.00  0.00     0.244 HD
ENDBRANCH   8  10
BRANCH   7  12
ATOM     12  N   UNL d   1      -1.657  -4.426  -1.203  0.00  0.00    -0.287 NA
ATOM     13  H   UNL d   1      -2.038  -3.600  -0.759  0.00  0.00     0.125 HD
ATOM     14  H   UNL d   1      -1.538  -5.180  -0.529  0.00  0.00     0.125 HD
ENDBRANCH   7  12
ENDBRANCH   2   7
BRANCH   1  15
ATOM     15  N   UNL d   1      -2.999  -0.278  -4.036  0.00  0.00    -0.333 N 
ATOM     16  C   UNL d   1      -2.224   0.365  -3.084  0.00  0.00     0.096 A 
ATOM     17  C   UNL d   1      -2.339   1.730  -3.243  0.00  0.00     0.019 A 
ATOM     18  C   UNL d   1      -3.196   1.950  -4.335  0.00  0.00     0.019 A 
ATOM     19  C   UNL d   1      -3.575   0.714  -4.811  0.00  0.00     0.096 A 
ENDBRANCH   1  15
TORSDOF 4
