REMARK  5 active torsions:
REMARK  status: ('A' for Active; 'I' for Inactive)
REMARK    1  A    between atoms: C_4  and  C_1 
REMARK    2  A    between atoms: C_11  and  C_5 
REMARK    3  A    between atoms: O_12  and  C_11 
REMARK    4  A    between atoms: C_13  and  O_12 
REMARK    5  A    between atoms: O_21  and  C_16 
ROOT
ATOM      1  C   UNL d   1       1.289   0.771   0.066  0.00  0.00     0.050 A 
ATOM      2  N   UNL d   1       1.392  -0.606   0.174  0.00  0.00    -0.351 N 
ATOM      3  HN  UNL d   1       2.270  -1.117   0.268  1.00  0.00     0.166 HD
ATOM      4  C   UNL d   1       0.202  -1.162   0.138  0.00  0.00     0.075 A 
ATOM      5  C   UNL d   1      -0.009   1.241   0.010  0.00  0.00     0.082 A 
ATOM      6  S   UNL d   1      -1.120  -0.063   0.070  0.00  0.00    -0.084 SA
ENDROOT
BRANCH   4   7
ATOM      7  C   UNL d   1      -0.034  -2.637   0.065  0.00  0.00     0.240 C 
BRANCH   7   8
ATOM      8  O   UNL d   1      -0.115  -3.134   1.401  0.00  0.00    -0.345 OA
BRANCH   8   9
ATOM      9  C   UNL d   1      -0.270  -4.489   1.524  0.00  0.00     0.069 A 
ATOM     10  C   UNL d   1      -0.433  -5.392   0.472  0.00  0.00     0.039 A 
ATOM     11  C   UNL d   1      -0.605  -6.756   0.730  0.00  0.00     0.039 A 
ATOM     12  C   UNL d   1      -0.619  -7.231   2.041  0.00  0.00     0.068 A 
ATOM     13  C   UNL d   1      -0.441  -6.329   3.091  0.00  0.00     0.039 A 
ATOM     14  C   UNL d   1      -0.269  -4.966   2.835  0.00  0.00     0.039 A 
BRANCH  12  15
ATOM     15  O   UNL d   1      -0.797  -8.534   2.419  0.00  0.00    -0.356 OA
ATOM     16  C   UNL d   1      -1.049  -9.469   1.377  0.00  0.00     0.210 C 
ENDBRANCH  12  15
ENDBRANCH   8   9
ENDBRANCH   7   8
ENDBRANCH   4   7
BRANCH   1  17
ATOM     17  C   UNL d   1       2.474   1.630   0.010  0.00  0.00    -0.003 A 
ATOM     18  C   UNL d   1       3.661   1.248  -0.651  0.00  0.00    -0.049 A 
ATOM     19  C   UNL d   1       4.767   2.124  -0.632  0.00  0.00     0.014 A 
ATOM     20  C   UNL d   1       3.859  -0.055  -1.381  0.00  0.00     0.049 C 
ATOM     21  C   UNL d   1       4.710   3.370   0.002  0.00  0.00    -0.061 A 
ATOM     22  C   UNL d   1       3.530   3.748   0.636  0.00  0.00     0.007 A 
ATOM     23  C   UNL d   1       5.910   4.268  -0.005  0.00  0.00     0.048 C 
ATOM     24  C   UNL d   1       2.429   2.885   0.646  0.00  0.00     0.015 A 
ENDBRANCH   1  17
TORSDOF 5
