REMARK  9 active torsions:
REMARK  status: ('A' for Active; 'I' for Inactive)
REMARK    1  A    between atoms: N_6  and  S_1 
REMARK    2  A    between atoms: C_15  and  S_1 
REMARK    3  A    between atoms: C_11  and  C_2 
REMARK    4  A    between atoms: C_5  and  C_3 
REMARK    5  A    between atoms: N_4  and  C_16 
REMARK    6  A    between atoms: N_10  and  N_6 
REMARK    7  A    between atoms: C_9  and  N_10 
REMARK    8  A    between atoms: O_29  and  C_11 
REMARK    9  A    between atoms: C_30  and  O_29 
ROOT
ATOM      1  C   UNL d   1      -0.231   5.291  -3.846  0.00  0.00     0.087 A 
ATOM      2  C   UNL d   1       1.053   5.244  -3.328  0.00  0.00     0.150 A 
ATOM      3  N   UNL d   1       1.409   4.253  -2.449  0.00  0.00    -0.184 N 
ATOM      4  HN  UNL d   1       2.334   4.260  -2.018  1.00  0.00     0.184 HD
ATOM      5  C   UNL d   1       0.544   3.279  -2.158  0.00  0.00     0.697 A 
ATOM      6  N   UNL d   1      -0.699   3.231  -2.652  0.00  0.00    -0.199 N 
ATOM      7  HN  UNL d   1      -1.339   2.471  -2.424  1.00  0.00     0.183 HD
ATOM      8  C   UNL d   1      -1.060   4.247  -3.470  0.00  0.00     0.126 A 
ENDROOT
BRANCH   5   9
ATOM      9  N   UNL d   1       1.007   2.296  -1.295  0.00  0.00    -0.122 N 
ATOM     10  H   UNL d   1       1.959   2.458  -0.978  0.00  0.00     0.206 HD
BRANCH   9  11
ATOM     11  N   UNL d   1       0.432   0.980  -1.083  0.00  0.00    -0.208 N 
ATOM     12  H   UNL d   1      -0.400   0.671  -1.592  0.00  0.00     0.201 HD
BRANCH  11  13
ATOM     13  S   UNL d   1       1.237  -0.141  -0.119  0.00  0.00     0.276 S 
ATOM     14  O   UNL d   1       2.655  -0.016  -0.377  0.00  0.00    -0.199 OA
ATOM     15  O   UNL d   1       0.544  -1.407  -0.232  0.00  0.00    -0.199 OA
BRANCH  13  16
ATOM     16  C   UNL d   1       0.924   0.517   1.505  0.00  0.00     0.081 A 
ATOM     17  C   UNL d   1      -0.242   0.149   2.185  0.00  0.00     0.028 A 
ATOM     18  C   UNL d   1      -0.456   0.609   3.488  0.00  0.00     0.037 A 
ATOM     19  C   UNL d   1       0.504   1.429   4.101  0.00  0.00     0.102 A 
ATOM     20  C   UNL d   1       1.667   1.808   3.413  0.00  0.00     0.037 A 
ATOM     21  C   UNL d   1       1.878   1.344   2.112  0.00  0.00     0.028 A 
BRANCH  19  22
ATOM     22  N   UNL d   1       0.301   1.877   5.486  0.00  0.00    -0.116 N 
ATOM     23  O   UNL d   1      -0.728   1.503   6.066  0.00  0.00    -0.532 OA
ATOM     24  O   UNL d   1       1.172   2.598   5.992  0.00  0.00    -0.532 OA
ENDBRANCH  19  22
ENDBRANCH  13  16
ENDBRANCH  11  13
ENDBRANCH   9  11
ENDBRANCH   5   9
BRANCH   2  25
ATOM     25  C   UNL d   1       2.182   6.180  -3.695  0.00  0.00     0.434 C 
ATOM     26  F   UNL d   1       1.959   7.054  -4.711  0.00  0.00    -0.165 F 
ATOM     27  F   UNL d   1       2.592   6.933  -2.633  0.00  0.00    -0.165 F 
ATOM     28  F   UNL d   1       3.291   5.486  -4.096  0.00  0.00    -0.165 F 
ENDBRANCH   2  25
BRANCH   1  29
ATOM     29  C   UNL d   1      -0.809   6.286  -4.764  0.00  0.00     0.296 C 
ATOM     30  O   UNL d   1      -1.665   5.992  -5.579  0.00  0.00    -0.259 OA
BRANCH  29  31
ATOM     31  O   UNL d   1      -0.337   7.525  -4.513  0.00  0.00    -0.318 OA
BRANCH  31  32
ATOM     32  C   UNL d   1      -0.809   8.560  -5.398  0.00  0.00     0.174 C 
ATOM     33  C   UNL d   1      -0.151   8.470  -6.768  0.00  0.00     0.034 C 
ENDBRANCH  31  32
ENDBRANCH  29  31
ENDBRANCH   1  29
TORSDOF 9
