REMARK  4 active torsions:
REMARK  status: ('A' for Active; 'I' for Inactive)
REMARK    1  A    between atoms: C_2  and  C_1 
REMARK    2  A    between atoms: C_9  and  C_2 
REMARK       I    between atoms: C_3  and  N_4 
REMARK    3  A    between atoms: C_6  and  C_3 
REMARK    4  A    between atoms: N_4  and  C_5 
ROOT
ATOM      1  C   UNL d   1       0.914  -0.525   0.709  0.00  0.00     0.042 C 
ATOM      2  C   UNL d   1       0.369  -1.278  -0.353  0.00  0.00     0.049 C 
ATOM      3  C   UNL d   1       0.287   0.648   1.127  0.00  0.00     0.018 C 
ATOM      4  C   UNL d   1      -0.955  -1.060  -0.738  0.00  0.00     0.030 C 
ATOM      5  C   UNL d   1      -0.957   0.977   0.585  0.00  0.00     0.001 C 
ATOM      6  C   UNL d   1      -1.612   0.082  -0.266  0.00  0.00     0.002 C 
ENDROOT
BRANCH   2   7
ATOM      7  N   UNL d   1       1.202  -2.043  -1.226  0.00  0.00    -0.322 N 
ATOM      8  C   UNL d   1       2.405  -1.457  -1.626  0.00  0.00     0.256 C 
ATOM      9  O   UNL d   1       2.772  -0.353  -1.227  0.00  0.00    -0.267 OA
ATOM     10  H   UNL d   1       0.752  -2.693  -1.856  0.00  0.00     0.169 HD
BRANCH   8  11
ATOM     11  C   UNL d   1       3.276  -2.096  -2.643  0.00  0.00     0.032 A 
ATOM     12  C   UNL d   1       2.937  -3.202  -3.432  0.00  0.00     0.018 A 
ATOM     13  C   UNL d   1       3.860  -3.682  -4.375  0.00  0.00     0.025 A 
ATOM     14  C   UNL d   1       5.110  -3.066  -4.531  0.00  0.00     0.034 A 
ATOM     15  C   UNL d   1       5.448  -1.963  -3.762  0.00  0.00     0.025 A 
ATOM     16 CL   UNL d   1       6.240  -3.674  -5.673  0.00  0.00    -0.084 Cl
ATOM     17  C   UNL d   1       4.531  -1.486  -2.825  0.00  0.00     0.018 A 
ENDBRANCH   8  11
ENDBRANCH   2   7
BRANCH   1  18
ATOM     18  C   UNL d   1       1.971  -1.167   1.540  0.00  0.00     0.194 C 
ATOM     19  O   UNL d   1       1.775  -2.347   1.854  0.00  0.00    -0.287 OA
BRANCH  18  20
ATOM     20  C   UNL d   1       3.188  -0.498   2.064  0.00  0.00     0.015 A 
ATOM     21  C   UNL d   1       3.905  -1.155   3.083  0.00  0.00     0.015 A 
ATOM     22  C   UNL d   1       5.104  -0.635   3.567  0.00  0.00     0.001 A 
ATOM     23  C   UNL d   1       5.605   0.557   3.037  0.00  0.00     0.000 A 
ATOM     24  C   UNL d   1       4.898   1.216   2.033  0.00  0.00     0.001 A 
ATOM     25  C   UNL d   1       3.694   0.697   1.547  0.00  0.00     0.015 A 
ENDBRANCH  18  20
ENDBRANCH   1  18
TORSDOF 4
