REMARK  4 active torsions:
REMARK  status: ('A' for Active; 'I' for Inactive)
REMARK    1  A    between atoms: C_2  and  C_1 
REMARK    2  A    between atoms: C_6  and  C_2 
REMARK    3  A    between atoms: C_7  and  C_6 
REMARK    4  A    between atoms: C_12  and  C_7 
ROOT
ATOM      1  N   UNL d   1      -2.105   0.530   2.184  0.00  0.00    -0.197 NA
ATOM      2  C   UNL d   1      -2.320   1.148   1.225  0.00  0.00     0.069 C 
ATOM      3  C   UNL d   1      -2.574   1.983   0.025  0.00  0.00     0.133 C 
ENDROOT
BRANCH   3   4
ATOM      4  C   UNL d   1      -1.487   3.066  -0.107  0.00  0.00     0.108 C 
BRANCH   4   5
ATOM      5  C   UNL d   1      -0.115   2.455  -0.374  0.00  0.00     0.168 C 
ATOM      6  O   UNL d   1      -0.047   1.351  -0.919  0.00  0.00    -0.292 OA
BRANCH   5   7
ATOM      7  C   UNL d   1       1.093   3.213  -0.046  0.00  0.00     0.050 A 
ATOM      8  S   UNL d   1       1.059   4.760   0.687  0.00  0.00    -0.098 SA
ATOM      9  C   UNL d   1       2.764   4.886   0.686  0.00  0.00     0.050 A 
ATOM     10  C   UNL d   1       3.360   3.775   0.134  0.00  0.00     0.009 A 
ATOM     11  C   UNL d   1       2.397   2.810  -0.280  0.00  0.00     0.023 A 
ENDBRANCH   5   7
ENDBRANCH   4   5
ENDBRANCH   3   4
BRANCH   3  12
ATOM     12  C   UNL d   1      -3.968   2.603   0.087  0.00  0.00    -0.040 A 
ATOM     13  C   UNL d   1      -4.343   3.451   1.143  0.00  0.00     0.008 A 
ATOM     14  C   UNL d   1      -5.639   3.965   1.222  0.00  0.00     0.001 A 
ATOM     15  C   UNL d   1      -6.573   3.650   0.243  0.00  0.00     0.000 A 
ATOM     16  C   UNL d   1      -6.216   2.822  -0.819  0.00  0.00     0.001 A 
ATOM     17  C   UNL d   1      -4.921   2.303  -0.897  0.00  0.00     0.008 A 
ENDBRANCH   3  12
TORSDOF 4
