REMARK  5 active torsions:
REMARK  status: ('A' for Active; 'I' for Inactive)
REMARK    1  A    between atoms: C_8  and  C_1 
REMARK    2  A    between atoms: C_7  and  C_2 
REMARK    3  A    between atoms: C_9  and  C_3 
REMARK    4  A    between atoms: O_12  and  C_7 
REMARK    5  A    between atoms: O_13  and  C_8 
ROOT
ATOM      1  C   UNL d   1      -1.294  -1.002   0.107  0.00  0.00     0.052 C 
ATOM      2  C   UNL d   1       1.276  -1.015   0.110  0.00  0.00     0.052 C 
ATOM      3  C   UNL d   1      -0.005  -1.833  -0.075  0.00  0.00     0.100 C 
ATOM      4  C   UNL d   1      -1.232   0.355   0.032  0.00  0.00     0.018 C 
ATOM      5  C   UNL d   1       1.227   0.336   0.037  0.00  0.00     0.018 C 
ATOM      6  N   UNL d   1       0.006   0.968  -0.130  0.00  0.00    -0.362 N 
ATOM      7  C   UNL d   1      -2.364   1.350   0.129  0.00  0.00     0.069 C 
ATOM      8  C   UNL d   1       2.427   1.245   0.133  0.00  0.00     0.069 C 
ATOM      9  H   UNL d   1       0.014   1.985  -0.116  0.00  0.00     0.165 HD
ENDROOT
BRANCH   3  10
ATOM     10  C   UNL d   1      -0.012  -2.495  -1.463  0.00  0.00    -0.045 A 
ATOM     11  C   UNL d   1      -0.061  -3.890  -1.593  0.00  0.00     0.008 A 
ATOM     12  C   UNL d   1      -0.091  -4.482  -2.860  0.00  0.00     0.001 A 
ATOM     13  C   UNL d   1      -0.074  -3.691  -4.008  0.00  0.00     0.000 A 
ATOM     14  C   UNL d   1      -0.022  -2.306  -3.895  0.00  0.00     0.001 A 
ATOM     15  C   UNL d   1       0.010  -1.713  -2.634  0.00  0.00     0.008 A 
ENDBRANCH   3  10
BRANCH   2  16
ATOM     16  C   UNL d   1       2.566  -1.721   0.343  0.00  0.00     0.291 C 
ATOM     17  O   UNL d   1       3.670  -1.244   0.122  0.00  0.00    -0.260 OA
BRANCH  16  18
ATOM     18  O   UNL d   1       2.360  -2.948   0.888  0.00  0.00    -0.323 OA
ATOM     19  C   UNL d   1       3.573  -3.638   1.204  0.00  0.00     0.213 C 
ENDBRANCH  16  18
ENDBRANCH   2  16
BRANCH   1  20
ATOM     20  C   UNL d   1      -2.499  -1.832   0.393  0.00  0.00     0.291 C 
ATOM     21  O   UNL d   1      -2.436  -2.952   0.879  0.00  0.00    -0.260 OA
BRANCH  20  22
ATOM     22  O   UNL d   1      -3.649  -1.205   0.053  0.00  0.00    -0.323 OA
ATOM     23  C   UNL d   1      -4.848  -1.887   0.425  0.00  0.00     0.213 C 
ENDBRANCH  20  22
ENDBRANCH   1  20
TORSDOF 5
