REMARK  5 active torsions:
REMARK  status: ('A' for Active; 'I' for Inactive)
REMARK    1  A    between atoms: C_13  and  C_6 
REMARK    2  A    between atoms: N_7  and  C_9 
REMARK    3  A    between atoms: N_8  and  C_15 
REMARK       I    between atoms: N_21  and  C_13 
REMARK    4  A    between atoms: C_28  and  N_21 
REMARK    5  A    between atoms: C_29  and  C_28 
ROOT
ATOM      1  C   UNL d   1      -1.605   0.442   0.214  0.00  0.00     0.002 C 
ATOM      2  C   UNL d   1       0.726   0.050   0.111  0.00  0.00     0.018 C 
ATOM      3  C   UNL d   1      -0.343   1.111   0.142  0.00  0.00    -0.008 C 
ATOM      4  C   UNL d   1       0.030  -1.267   0.305  0.00  0.00    -0.009 C 
ATOM      5  C   UNL d   1      -1.347  -0.974   0.477  0.00  0.00    -0.013 C 
ATOM      6  C   UNL d   1      -2.790   1.169   0.047  0.00  0.00     0.046 C 
ATOM      7  C   UNL d   1      -1.456   3.230   0.138  0.00  0.00     0.104 C 
ATOM      8  C   UNL d   1       2.060   0.246  -0.054  0.00  0.00     0.136 C 
ATOM      9  C   UNL d   1      -0.265   2.499   0.160  0.00  0.00     0.049 C 
ATOM     10  C   UNL d   1      -2.694   2.581   0.032  0.00  0.00     0.054 C 
ATOM     11  C   UNL d   1       0.484  -2.579   0.366  0.00  0.00     0.049 C 
ATOM     12  C   UNL d   1      -0.423  -3.583   0.732  0.00  0.00     0.103 C 
ATOM     13  C   UNL d   1       2.641   1.522  -0.294  0.00  0.00     0.111 C 
ATOM     14  C   UNL d   1       3.015  -0.809  -0.011  0.00  0.00     0.111 C 
ATOM     15  N   UNL d   1       3.126   2.561  -0.498  0.00  0.00    -0.191 NA
ATOM     16  N   UNL d   1       3.804  -1.661   0.029  0.00  0.00    -0.191 NA
ATOM     17  C   UNL d   1      -2.208  -1.955   0.959  0.00  0.00     0.015 C 
ATOM     18  C   UNL d   1      -1.745  -3.268   1.088  0.00  0.00     0.037 C 
ENDROOT
BRANCH   6  19
ATOM     19  C   UNL d   1      -4.179   0.641  -0.164  0.00  0.00     0.252 C 
ATOM     20  N   UNL d   1      -4.375  -0.563  -0.824  0.00  0.00    -0.353 N 
ATOM     21  H   UNL d   1      -3.590  -1.056  -1.223  0.00  0.00     0.163 HD
ATOM     22  O   UNL d   1      -5.120   1.357   0.170  0.00  0.00    -0.268 OA
BRANCH  20  23
ATOM     23  C   UNL d   1      -5.687  -0.847  -1.403  0.00  0.00     0.161 C 
BRANCH  23  24
ATOM     24  C   UNL d   1      -6.135  -2.290  -1.334  0.00  0.00    -0.041 A 
ATOM     25  C   UNL d   1      -6.072  -3.018  -0.138  0.00  0.00     0.009 A 
ATOM     26  C   UNL d   1      -6.631  -4.298  -0.049  0.00  0.00     0.001 A 
ATOM     27  C   UNL d   1      -7.272  -4.864  -1.149  0.00  0.00     0.000 A 
ATOM     28  C   UNL d   1      -7.351  -4.153  -2.343  0.00  0.00     0.001 A 
ATOM     29  C   UNL d   1      -6.790  -2.874  -2.434  0.00  0.00     0.009 A 
ENDBRANCH  23  24
ENDBRANCH  20  23
ENDBRANCH   6  19
BRANCH   7  30
ATOM     30  N   UNL d   1      -1.399   4.699   0.225  0.00  0.00    -0.116 N 
ATOM     31  O   UNL d   1      -0.288   5.223   0.378  0.00  0.00    -0.532 OA
ATOM     32  O   UNL d   1      -2.469   5.320   0.152  0.00  0.00    -0.532 OA
ENDBRANCH   7  30
BRANCH  12  33
ATOM     33  N   UNL d   1       0.018  -4.986   0.736  0.00  0.00    -0.116 N 
ATOM     34  O   UNL d   1       1.147  -5.234   0.296  0.00  0.00    -0.532 OA
ATOM     35  O   UNL d   1      -0.780  -5.837   1.154  0.00  0.00    -0.532 OA
ENDBRANCH  12  33
TORSDOF 5
