REMARK  7 active torsions:
REMARK  status: ('A' for Active; 'I' for Inactive)
REMARK    1  A    between atoms: C_3  and  C_1 
REMARK    2  A    between atoms: N_4  and  C_2 
REMARK       I    between atoms: C_6  and  N_4 
REMARK    3  A    between atoms: C_19  and  C_6 
REMARK    4  A    between atoms: C_8  and  C_20 
REMARK    5  A    between atoms: O_18  and  C_8 
REMARK    6  A    between atoms: S_16  and  C_19 
REMARK    7  A    between atoms: C_20  and  S_16 
ROOT
ATOM      1  C   UNL d   1       0.552  -4.136   0.203  0.00  0.00     0.057 A 
ATOM      2  C   UNL d   1      -1.296  -3.289   1.569  0.00  0.00     0.050 A 
ATOM      3  C   UNL d   1      -0.555  -4.356   1.032  0.00  0.00     0.047 A 
ATOM      4  C   UNL d   1       0.934  -2.808  -0.056  0.00  0.00     0.060 A 
ATOM      5  C   UNL d   1      -0.903  -1.976   1.282  0.00  0.00     0.018 A 
ATOM      6  C   UNL d   1       0.211  -1.736   0.477  0.00  0.00     0.027 A 
ATOM      7 CL   UNL d   1       2.296  -2.454  -1.063  0.00  0.00    -0.082 Cl
ENDROOT
BRANCH   1   8
ATOM      8  N   UNL d   1       1.297  -5.199  -0.370  0.00  0.00    -0.325 N 
ATOM      9  C   UNL d   1       0.968  -6.539  -0.368  0.00  0.00     0.231 C 
ATOM     10  O   UNL d   1      -0.062  -7.030   0.104  0.00  0.00    -0.272 OA
ATOM     11  H   UNL d   1       2.131  -4.911  -0.875  0.00  0.00     0.169 HD
BRANCH   9  12
ATOM     12  C   UNL d   1       2.019  -7.454  -0.967  0.00  0.00     0.177 C 
BRANCH  12  13
ATOM     13  S   UNL d   1       3.062  -8.176   0.345  0.00  0.00    -0.149 SA
BRANCH  13  14
ATOM     14  C   UNL d   1       1.815  -8.937   1.444  0.00  0.00     0.184 C 
BRANCH  14  15
ATOM     15  C   UNL d   1       0.990 -10.005   0.761  0.00  0.00     0.149 C 
ATOM     16  O   UNL d   1       1.353 -11.166   0.630  0.00  0.00    -0.649 OA
BRANCH  15  17
ATOM     17  O   UNL d   1      -0.201  -9.576   0.283  0.00  0.00    -0.776 OA
ATOM     18  H   UNL d   1      -0.369  -8.607   0.393  0.00  0.00     0.167 HD
ENDBRANCH  15  17
ENDBRANCH  14  15
ENDBRANCH  13  14
ENDBRANCH  12  13
ENDBRANCH   9  12
ENDBRANCH   1   8
BRANCH   2  19
ATOM     19  C   UNL d   1      -2.507  -3.559   2.432  0.00  0.00     0.417 C 
ATOM     20  F   UNL d   1      -2.735  -4.884   2.652  0.00  0.00    -0.166 F 
ATOM     21  F   UNL d   1      -3.652  -3.070   1.882  0.00  0.00    -0.166 F 
ATOM     22  F   UNL d   1      -2.405  -2.989   3.663  0.00  0.00    -0.166 F 
ENDBRANCH   2  19
TORSDOF 7
