REMARK  4 active torsions:
REMARK  status: ('A' for Active; 'I' for Inactive)
REMARK    1  A    between atoms: C_8  and  C_1 
REMARK    2  A    between atoms: C_7  and  C_13 
REMARK    3  A    between atoms: N_11  and  C_8 
REMARK    4  A    between atoms: C_13  and  N_11 
ROOT
ATOM      1  C   UNL d   1      -0.692  -1.438  -1.101  0.00  0.00     0.134 C 
ATOM      2  C   UNL d   1      -0.349  -1.716  -2.452  0.00  0.00     0.111 C 
ATOM      3  C   UNL d   1      -1.853  -0.659  -0.831  0.00  0.00     0.111 C 
ATOM      4  N   UNL d   1      -0.087  -1.939  -3.562  0.00  0.00    -0.191 NA
ATOM      5  N   UNL d   1      -2.791  -0.022  -0.591  0.00  0.00    -0.191 NA
ENDROOT
BRANCH   1   6
ATOM      6  C   UNL d   1       0.082  -1.861  -0.085  0.00  0.00     0.091 C 
BRANCH   6   7
ATOM      7  N   UNL d   1       1.269  -2.575  -0.143  0.00  0.00    -0.296 NA
ATOM      8  H   UNL d   1       1.938  -2.216   0.544  0.00  0.00     0.127 HD
BRANCH   7   9
ATOM      9  C   UNL d   1       1.284  -4.043  -0.018  0.00  0.00     0.137 C 
BRANCH   9  10
ATOM     10  C   UNL d   1       2.683  -4.585   0.005  0.00  0.00    -0.004 A 
ATOM     11  S   UNL d   1       3.479  -4.861   1.498  0.00  0.00    -0.105 SA
ATOM     12  C   UNL d   1       4.914  -5.358   0.712  0.00  0.00     0.050 A 
ATOM     13  C   UNL d   1       4.792  -5.321  -0.659  0.00  0.00     0.008 A 
ATOM     14  C   UNL d   1       3.502  -4.875  -1.068  0.00  0.00     0.016 A 
ENDBRANCH   9  10
ENDBRANCH   7   9
ENDBRANCH   6   7
ENDBRANCH   1   6
TORSDOF 4
