REMARK  3 active torsions:
REMARK  status: ('A' for Active; 'I' for Inactive)
REMARK    1  A    between atoms: C_9  and  C_1 
REMARK       I    between atoms: C_5  and  N_8 
REMARK    2  A    between atoms: C_10  and  C_5 
REMARK    3  A    between atoms: N_8  and  C_11 
ROOT
ATOM      1  C   UNL d   1      -3.769  -0.118  -0.250  0.00  0.00     0.010 A 
ATOM      2  C   UNL d   1      -5.740  -0.802   1.021  0.00  0.00     0.035 A 
ATOM      3  C   UNL d   1      -4.382  -0.917   0.727  0.00  0.00     0.044 A 
ATOM      4  C   UNL d   1      -4.577   0.707  -1.039  0.00  0.00     0.015 A 
ATOM      5  C   UNL d   1      -5.955   0.769  -0.815  0.00  0.00     0.003 A 
ATOM      6  C   UNL d   1      -6.529   0.035   0.227  0.00  0.00     0.029 A 
ENDROOT
BRANCH   1   7
ATOM      7  C   UNL d   1      -2.306  -0.055  -0.362  0.00  0.00     0.116 A 
ATOM      8  N   UNL d   1      -1.606   0.688  -1.203  0.00  0.00    -0.340 N 
ATOM      9  C   UNL d   1      -0.291   0.564  -0.817  0.00  0.00     0.060 A 
ATOM     10  HN  UNL d   1      -1.967   1.240  -1.981  1.00  0.00     0.167 HD
ATOM     11  C   UNL d   1       0.863   1.181  -1.321  0.00  0.00     0.032 A 
ATOM     12  C   UNL d   1      -0.171  -0.303   0.259  0.00  0.00     0.060 A 
ATOM     13  C   UNL d   1       2.096   0.896  -0.715  0.00  0.00     0.002 A 
ATOM     14  C   UNL d   1       2.180   0.012   0.365  0.00  0.00     0.002 A 
ATOM     15  C   UNL d   1       1.040  -0.612   0.879  0.00  0.00     0.032 A 
ATOM     16  N   UNL d   1      -1.454  -0.696   0.513  0.00  0.00    -0.340 N 
ATOM     17  H   UNL d   1      -1.734  -1.292   1.277  0.00  0.00     0.167 HD
ENDBRANCH   1   7
BRANCH   2  18
ATOM     18  N   UNL d   1      -6.339  -1.425   2.142  0.00  0.00    -0.323 N 
ATOM     19  C   UNL d   1      -5.692  -2.171   3.120  0.00  0.00     0.256 C 
ATOM     20  O   UNL d   1      -4.519  -2.529   3.112  0.00  0.00    -0.267 OA
ATOM     21  H   UNL d   1      -7.295  -1.148   2.322  0.00  0.00     0.169 HD
BRANCH  19  22
ATOM     22  C   UNL d   1      -6.509  -2.488   4.328  0.00  0.00     0.032 A 
ATOM     23  C   UNL d   1      -7.892  -2.678   4.273  0.00  0.00     0.017 A 
ATOM     24  C   UNL d   1      -8.616  -2.887   5.452  0.00  0.00     0.007 A 
ATOM     25  C   UNL d   1      -7.964  -2.926   6.692  0.00  0.00    -0.062 A 
ATOM     26  C   UNL d   1      -6.573  -2.781   6.738  0.00  0.00     0.007 A 
ATOM     27  C   UNL d   1      -8.761  -3.067   7.955  0.00  0.00     0.048 C 
ATOM     28  C   UNL d   1      -5.849  -2.568   5.564  0.00  0.00     0.017 A 
ENDBRANCH  19  22
ENDBRANCH   2  18
TORSDOF 3
