REMARK  5 active torsions:
REMARK  status: ('A' for Active; 'I' for Inactive)
REMARK    1  A    between atoms: C_9  and  N_1 
REMARK    2  A    between atoms: S_8  and  C_2 
REMARK    3  A    between atoms: C_13  and  S_8 
REMARK    4  A    between atoms: C_11  and  C_13 
REMARK    5  A    between atoms: C_12  and  C_11 
ROOT
ATOM      1  N   UNL d   1       2.312  -0.884  -0.115  0.00  0.00    -0.258 N 
ATOM      2  C   UNL d   1       2.277   0.512  -0.175  0.00  0.00     0.155 A 
ATOM      3  C   UNL d   1       1.123  -1.613   0.007  0.00  0.00     0.266 A 
ATOM      4  N   UNL d   1       1.185   1.210  -0.116  0.00  0.00    -0.335 N 
ATOM      5  HN  UNL d   1       1.220   2.230  -0.128  1.00  0.00     0.168 HD
ATOM      6  C   UNL d   1      -0.129  -0.843   0.011  0.00  0.00     0.059 A 
ATOM      7  C   UNL d   1      -0.039   0.542  -0.034  0.00  0.00     0.049 A 
ATOM      8  O   UNL d   1       1.029  -2.834   0.145  0.00  0.00    -0.267 OA
ATOM      9  C   UNL d   1      -1.371  -1.486   0.054  0.00  0.00     0.019 A 
ATOM     10  C   UNL d   1      -1.216   1.292  -0.043  0.00  0.00     0.030 A 
ATOM     11  C   UNL d   1      -2.541  -0.730   0.036  0.00  0.00     0.001 A 
ATOM     12  C   UNL d   1      -2.462   0.663  -0.015  0.00  0.00     0.002 A 
ENDROOT
BRANCH   2  13
ATOM     13  S   UNL d   1       3.762   1.421  -0.457  0.00  0.00    -0.086 SA
BRANCH  13  14
ATOM     14  C   UNL d   1       3.091   3.104  -0.733  0.00  0.00     0.161 C 
BRANCH  14  15
ATOM     15  C   UNL d   1       4.113   4.071  -1.331  0.00  0.00     0.144 C 
ATOM     16  O   UNL d   1       5.232   3.701  -1.703  0.00  0.00    -0.296 OA
BRANCH  15  17
ATOM     17  C   UNL d   1       3.728   5.574  -1.423  0.00  0.00     0.010 C 
ATOM     18  C   UNL d   1       4.137   6.257  -0.113  0.00  0.00     0.022 C 
ATOM     19  C   UNL d   1       4.503   6.217  -2.591  0.00  0.00     0.022 C 
ATOM     20  C   UNL d   1       2.231   5.801  -1.673  0.00  0.00     0.022 C 
ENDBRANCH  15  17
ENDBRANCH  14  15
ENDBRANCH  13  14
ENDBRANCH   2  13
BRANCH   1  21
ATOM     21  C   UNL d   1       3.511  -1.664  -0.062  0.00  0.00     0.044 A 
ATOM     22  C   UNL d   1       3.691  -2.716  -0.975  0.00  0.00     0.030 A 
ATOM     23  C   UNL d   1       4.741  -3.623  -0.825  0.00  0.00     0.002 A 
ATOM     24  C   UNL d   1       5.615  -3.496   0.252  0.00  0.00     0.000 A 
ATOM     25  C   UNL d   1       5.453  -2.450   1.160  0.00  0.00     0.002 A 
ATOM     26  C   UNL d   1       4.412  -1.529   1.002  0.00  0.00     0.030 A 
ENDBRANCH   1  21
TORSDOF 5
