REMARK  7 active torsions:
REMARK  status: ('A' for Active; 'I' for Inactive)
REMARK    1  A    between atoms: N_10  and  C_1 
REMARK    2  A    between atoms: C_12  and  C_5 
REMARK    3  A    between atoms: S_13  and  C_6 
REMARK    4  A    between atoms: C_18  and  N_10 
REMARK    5  A    between atoms: C_21  and  S_13 
REMARK    6  A    between atoms: C_14  and  C_15 
REMARK    7  A    between atoms: C_25  and  C_21 
ROOT
ATOM      1  C   UNL d   1       0.143   1.101  -0.118  0.00  0.00     0.131 A 
ATOM      2  N   UNL d   1       1.490   1.117  -0.069  0.00  0.00    -0.322 N 
ATOM      3  HN  UNL d   1       2.005   1.997  -0.064  1.00  0.00     0.169 HD
ATOM      4  C   UNL d   1      -0.574  -0.092  -0.152  0.00  0.00     0.116 A 
ATOM      5  C   UNL d   1       0.160  -1.265  -0.065  0.00  0.00     0.070 A 
ATOM      6  C   UNL d   1       2.131  -0.054  -0.027  0.00  0.00     0.146 A 
ATOM      7  N   UNL d   1       1.515  -1.242  -0.012  0.00  0.00    -0.335 N 
ATOM      8  HN  UNL d   1       2.051  -2.108   0.038  1.00  0.00     0.168 HD
ATOM      9  C   UNL d   1      -1.988  -0.068  -0.343  0.00  0.00     0.105 C 
ATOM     10  N   UNL d   1      -3.141  -0.035  -0.467  0.00  0.00    -0.191 NA
ENDROOT
BRANCH   1  11
ATOM     11  N   UNL d   1      -0.549   2.328  -0.161  0.00  0.00    -0.341 N 
ATOM     12  H   UNL d   1      -1.294   2.415   0.521  0.00  0.00     0.167 HD
BRANCH  11  13
ATOM     13  C   UNL d   1      -0.160   3.546  -0.738  0.00  0.00     0.033 A 
ATOM     14  C   UNL d   1       0.734   3.611  -1.806  0.00  0.00     0.030 A 
ATOM     15  C   UNL d   1       0.983   4.821  -2.462  0.00  0.00     0.010 A 
ATOM     16  C   UNL d   1       0.363   6.017  -2.060  0.00  0.00    -0.051 A 
ATOM     17  C   UNL d   1      -0.463   5.957  -0.928  0.00  0.00     0.010 A 
ATOM     18  C   UNL d   1      -0.724   4.741  -0.285  0.00  0.00     0.030 A 
BRANCH  16  19
ATOM     19  C   UNL d   1       0.561   7.303  -2.878  0.00  0.00    -0.024 C 
ATOM     20  C   UNL d   1      -0.207   8.519  -2.313  0.00  0.00     0.019 C 
ATOM     21  C   UNL d   1       2.056   7.679  -2.928  0.00  0.00     0.019 C 
ATOM     22  C   UNL d   1       0.050   7.072  -4.318  0.00  0.00     0.019 C 
ENDBRANCH  16  19
ENDBRANCH  11  13
ENDBRANCH   1  11
BRANCH   5  23
ATOM     23  C   UNL d   1      -0.398  -2.635  -0.010  0.00  0.00     0.008 A 
ATOM     24  C   UNL d   1       0.297  -3.712  -0.571  0.00  0.00     0.101 A 
ATOM     25  N   UNL d   1      -0.107  -5.008  -0.547  0.00  0.00    -0.374 N 
ATOM     26  C   UNL d   1      -1.272  -5.266   0.077  0.00  0.00     0.087 A 
ATOM     27  HN  UNL d   1       0.445  -5.749  -0.979  1.00  0.00     0.164 HD
ATOM     28  C   UNL d   1      -2.046  -4.290   0.674  0.00  0.00     0.018 A 
ATOM     29  C   UNL d   1      -1.597  -2.970   0.638  0.00  0.00     0.016 A 
ENDBRANCH   5  23
BRANCH   6  30
ATOM     30  S   UNL d   1       3.903  -0.014   0.039  0.00  0.00    -0.089 SA
BRANCH  30  31
ATOM     31  C   UNL d   1       4.269  -1.614  -0.739  0.00  0.00     0.121 C 
BRANCH  31  32
ATOM     32  C   UNL d   1       5.752  -1.897  -0.813  0.00  0.00    -0.049 A 
ATOM     33  C   UNL d   1       6.398  -2.568   0.233  0.00  0.00     0.008 A 
ATOM     34  C   UNL d   1       7.759  -2.867   0.158  0.00  0.00     0.001 A 
ATOM     35  C   UNL d   1       8.493  -2.486  -0.964  0.00  0.00     0.000 A 
ATOM     36  C   UNL d   1       7.867  -1.804  -2.005  0.00  0.00     0.001 A 
ATOM     37  C   UNL d   1       6.504  -1.505  -1.930  0.00  0.00     0.008 A 
ENDBRANCH  31  32
ENDBRANCH  30  31
ENDBRANCH   6  30
TORSDOF 7
