REMARK  5 active torsions:
REMARK  status: ('A' for Active; 'I' for Inactive)
REMARK    1  A    between atoms: O_8  and  N_1 
REMARK    2  A    between atoms: C_5  and  C_3 
REMARK    3  A    between atoms: N_22  and  C_3 
REMARK    4  A    between atoms: C_4  and  O_8 
REMARK    5  A    between atoms: C_6  and  C_4 
ROOT
ATOM      1  N   UNL d   1       1.038  -0.150   0.012  0.00  0.00    -0.246 N 
ATOM      2  HN  UNL d   1       2.034  -0.329   0.138  1.00  0.00     0.196 HD
ATOM      3  C   UNL d   1       0.344  -0.614  -0.982  0.00  0.00     0.109 C 
ENDROOT
BRANCH   1   4
ATOM      4  O   UNL d   1       0.264   0.630   0.903  0.00  0.00    -0.193 OA
BRANCH   4   5
ATOM      5  C   UNL d   1       1.085   1.127   1.879  0.00  0.00     0.315 C 
ATOM      6  O   UNL d   1       2.288   0.930   2.008  0.00  0.00    -0.257 OA
BRANCH   5   7
ATOM      7  C   UNL d   1       0.341   1.972   2.858  0.00  0.00     0.043 A 
ATOM      8  C   UNL d   1      -1.011   2.311   2.721  0.00  0.00     0.043 A 
ATOM      9  C   UNL d   1      -1.639   3.103   3.695  0.00  0.00     0.056 A 
ATOM     10 CL   UNL d   1      -3.311   3.479   3.466  0.00  0.00    -0.083 Cl
ATOM     11  C   UNL d   1      -0.921   3.563   4.808  0.00  0.00     0.055 A 
ATOM     12  C   UNL d   1       0.428   3.233   4.942  0.00  0.00     0.026 A 
ATOM     13 CL   UNL d   1      -1.636   4.535   6.044  0.00  0.00    -0.083 Cl
ATOM     14  C   UNL d   1       1.052   2.445   3.974  0.00  0.00     0.019 A 
ENDBRANCH   5   7
ENDBRANCH   4   5
ENDBRANCH   1   4
BRANCH   3  15
ATOM     15  C   UNL d   1       1.062  -1.440  -2.009  0.00  0.00     0.006 A 
ATOM     16  C   UNL d   1       0.597  -1.475  -3.331  0.00  0.00     0.054 A 
ATOM     17  C   UNL d   1       1.289  -2.256  -4.235  0.00  0.00     0.105 A 
ATOM     18  O   UNL d   1       0.987  -2.399  -5.554  0.00  0.00    -0.323 OA
ATOM     19  C   UNL d   1       2.396  -2.987  -3.869  0.00  0.00     0.105 A 
ATOM     20  C   UNL d   1       2.050  -3.276  -5.984  0.00  0.00     0.352 A 
ATOM     21  O   UNL d   1       2.923  -3.685  -4.911  0.00  0.00    -0.323 OA
ATOM     22  C   UNL d   1       2.880  -2.973  -2.579  0.00  0.00     0.040 A 
ATOM     23  C   UNL d   1       2.207  -2.181  -1.640  0.00  0.00     0.018 A 
ENDBRANCH   3  15
BRANCH   3  24
ATOM     24  N   UNL d   1      -1.008  -0.408  -1.134  0.00  0.00    -0.286 NA
ATOM     25  H   UNL d   1      -1.452  -0.104  -0.276  0.00  0.00     0.125 HD
ATOM     26  H   UNL d   1      -1.516  -1.165  -1.580  0.00  0.00     0.125 HD
ENDBRANCH   3  24
TORSDOF 5
