REMARK  2 active torsions:
REMARK  status: ('A' for Active; 'I' for Inactive)
REMARK    1  A    between atoms: C_6  and  C_1 
REMARK    2  A    between atoms: C_12  and  C_10 
ROOT
ATOM      1  C   UNL d   1      -1.756   1.028  -0.230  0.00  0.00     0.123 C 
ATOM      2  N   UNL d   1      -1.571  -0.412   0.123  0.00  0.00    -0.243 NA
ATOM      3  C   UNL d   1      -0.910   1.254  -1.531  0.00  0.00     0.025 C 
ATOM      4  N   UNL d   1      -1.282   1.655   1.001  0.00  0.00    -0.333 N 
ATOM      5  C   UNL d   1      -0.118  -0.499  -0.163  0.00  0.00     0.020 A 
ATOM      6  C   UNL d   1       0.303   0.505  -1.062  0.00  0.00    -0.025 A 
ATOM      7  C   UNL d   1      -1.485   0.839   2.101  0.00  0.00     0.233 C 
ATOM      8  C   UNL d   1      -1.833  -0.543   1.572  0.00  0.00     0.201 C 
ATOM      9  O   UNL d   1      -1.417   1.195   3.266  0.00  0.00    -0.272 OA
ATOM     10  C   UNL d   1      -0.694   2.720  -1.905  0.00  0.00     0.024 C 
ATOM     11  C   UNL d   1      -1.504   0.502  -2.753  0.00  0.00     0.024 C 
ATOM     12  C   UNL d   1       0.832  -1.276   0.481  0.00  0.00     0.024 A 
ATOM     13  C   UNL d   1       1.642   0.812  -1.258  0.00  0.00     0.010 A 
ATOM     14  C   UNL d   1       2.189  -0.956   0.309  0.00  0.00     0.002 A 
ATOM     15  C   UNL d   1       2.588   0.090  -0.538  0.00  0.00     0.001 A 
ATOM     16  H   UNL d   1      -1.141   2.644   1.130  0.00  0.00     0.165 HD
ENDROOT
BRANCH   1  17
ATOM     17  C   UNL d   1      -3.130   1.620  -0.344  0.00  0.00     0.023 C 
ATOM     18  C   UNL d   1      -4.393   1.200  -0.461  0.00  0.00     0.011 C 
BRANCH  18  19
ATOM     19  C   UNL d   1      -5.481   2.216  -0.414  0.00  0.00    -0.036 A 
ATOM     20  C   UNL d   1      -5.285   3.539  -0.873  0.00  0.00     0.014 A 
ATOM     21  C   UNL d   1      -6.246   4.532  -0.673  0.00  0.00     0.043 A 
ATOM     22  C   UNL d   1      -7.444   4.199  -0.065  0.00  0.00     0.116 A 
ATOM     23  C   UNL d   1      -7.697   2.890   0.331  0.00  0.00     0.043 A 
ATOM     24  F   UNL d   1      -8.364   5.149   0.142  0.00  0.00    -0.206 F 
ATOM     25  C   UNL d   1      -6.718   1.900   0.159  0.00  0.00     0.014 A 
ENDBRANCH  18  19
ENDBRANCH   1  17
TORSDOF 2
