REMARK  6 active torsions:
REMARK  status: ('A' for Active; 'I' for Inactive)
REMARK    1  A    between atoms: N_5  and  C_1 
REMARK    2  A    between atoms: C_4  and  N_5 
REMARK    3  A    between atoms: N_7  and  C_4 
REMARK    4  A    between atoms: C_16  and  C_6 
REMARK       I    between atoms: C_10  and  N_7 
REMARK    5  A    between atoms: C_13  and  C_10 
REMARK    6  A    between atoms: C_14  and  C_13 
ROOT
ATOM      1  N   UNL d   1       0.010  -2.697  -0.394  0.00  0.00    -0.313 N 
ATOM      2  H   UNL d   1      -0.854  -3.237  -0.370  0.00  0.00     0.170 HD
ENDROOT
BRANCH   1   3
ATOM      3  C   UNL d   1       1.195  -3.344  -0.135  0.00  0.00     0.180 C 
ATOM      4  S   UNL d   1       2.745  -2.864  -0.546  0.00  0.00    -0.040 SA
BRANCH   3   5
ATOM      5  N   UNL d   1       1.085  -4.520   0.583  0.00  0.00    -0.300 N 
ATOM      6  C   UNL d   1      -0.070  -4.995   1.166  0.00  0.00     0.247 C 
ATOM      7  O   UNL d   1      -1.182  -4.883   0.661  0.00  0.00    -0.268 OA
ATOM      8  H   UNL d   1       1.977  -4.844   0.931  0.00  0.00     0.171 HD
BRANCH   6   9
ATOM      9  C   UNL d   1       0.158  -5.651   2.475  0.00  0.00     0.076 C 
BRANCH   9  10
ATOM     10  C   UNL d   1      -0.850  -6.342   3.030  0.00  0.00     0.024 C 
ATOM     11  C   UNL d   1      -0.828  -6.771   4.390  0.00  0.00     0.004 A 
ATOM     12  S   UNL d   1      -2.006  -7.920   4.913  0.00  0.00    -0.102 SA
ATOM     13  C   UNL d   1      -0.044  -6.370   5.460  0.00  0.00     0.019 A 
ATOM     14  C   UNL d   1      -1.520  -7.796   6.544  0.00  0.00     0.050 A 
ATOM     15  C   UNL d   1      -0.458  -6.938   6.701  0.00  0.00     0.008 A 
ENDBRANCH   9  10
ENDBRANCH   6   9
ENDBRANCH   3   5
ENDBRANCH   1   3
BRANCH   1  16
ATOM     16  C   UNL d   1      -0.135  -1.337  -0.377  0.00  0.00     0.151 A 
ATOM     17  N   UNL d   1       0.754  -0.437  -0.052  0.00  0.00    -0.335 N 
ATOM     18  C   UNL d   1       0.170   0.822  -0.006  0.00  0.00     0.051 A 
ATOM     19  HN  UNL d   1       1.736  -0.631   0.141  1.00  0.00     0.168 HD
ATOM     20  C   UNL d   1      -1.166   0.837  -0.367  0.00  0.00     0.083 A 
ATOM     21  S   UNL d   1      -1.707  -0.766  -0.693  0.00  0.00    -0.063 SA
BRANCH  18  22
ATOM     22  C   UNL d   1       0.951   1.971   0.452  0.00  0.00    -0.009 A 
ATOM     23  C   UNL d   1       2.303   1.781   0.789  0.00  0.00     0.015 A 
ATOM     24  C   UNL d   1       3.077   2.826   1.302  0.00  0.00     0.024 A 
ATOM     25  C   UNL d   1       2.505   4.080   1.480  0.00  0.00     0.034 A 
ATOM     26  C   UNL d   1       1.173   4.299   1.134  0.00  0.00     0.024 A 
ATOM     27 CL   UNL d   1       3.443   5.363   2.138  0.00  0.00    -0.084 Cl
ATOM     28  C   UNL d   1       0.399   3.251   0.621  0.00  0.00     0.015 A 
ENDBRANCH  18  22
ENDBRANCH   1  16
TORSDOF 6
