REMARK  4 active torsions:
REMARK  status: ('A' for Active; 'I' for Inactive)
REMARK    1  A    between atoms: C_2  and  C_1 
REMARK       I    between atoms: N_5  and  C_2 
REMARK    2  A    between atoms: C_8  and  N_5 
REMARK    3  A    between atoms: N_11  and  C_8 
REMARK    4  A    between atoms: C_14  and  N_11 
ROOT
ATOM      1  C   UNL d   1      -0.434  -5.056  -0.466  0.00  0.00     0.276 C 
ATOM      2  N   UNL d   1      -0.996  -3.869  -0.017  0.00  0.00    -0.298 N 
ATOM      3  O   UNL d   1      -0.938  -5.818  -1.282  0.00  0.00    -0.266 OA
ATOM      4  H   UNL d   1      -0.364  -3.270   0.503  0.00  0.00     0.171 HD
ENDROOT
BRANCH   2   5
ATOM      5  C   UNL d   1      -2.262  -3.340  -0.176  0.00  0.00     0.179 C 
ATOM      6  S   UNL d   1      -3.685  -4.198  -0.262  0.00  0.00    -0.040 SA
BRANCH   5   7
ATOM      7  N   UNL d   1      -2.290  -1.959  -0.163  0.00  0.00    -0.333 N 
ATOM      8  H   UNL d   1      -3.182  -1.535   0.070  0.00  0.00     0.168 HD
BRANCH   7   9
ATOM      9  C   UNL d   1      -1.271  -1.096  -0.632  0.00  0.00     0.034 A 
ATOM     10  C   UNL d   1      -0.307  -1.515  -1.560  0.00  0.00     0.029 A 
ATOM     11  C   UNL d   1       0.706  -0.656  -1.975  0.00  0.00     0.002 A 
ATOM     12  C   UNL d   1       0.755   0.643  -1.480  0.00  0.00     0.000 A 
ATOM     13  C   UNL d   1      -0.228   1.084  -0.594  0.00  0.00     0.002 A 
ATOM     14  C   UNL d   1      -1.250   0.225  -0.182  0.00  0.00     0.029 A 
ENDBRANCH   7   9
ENDBRANCH   5   7
ENDBRANCH   2   5
BRANCH   1  15
ATOM     15  C   UNL d   1       0.938  -5.205   0.018  0.00  0.00     0.131 A 
ATOM     16  N   UNL d   1       1.314  -4.584   1.214  0.00  0.00    -0.288 N 
ATOM     17  N   UNL d   1       2.582  -4.801   1.510  0.00  0.00    -0.269 N 
ATOM     18  HN  UNL d   1       0.682  -4.028   1.790  1.00  0.00     0.188 HD
ATOM     19  S   UNL d   1       3.368  -5.721   0.361  0.00  0.00    -0.001 SA
ATOM     20  HN  UNL d   1       3.033  -4.444   2.353  1.00  0.00     0.195 HD
ATOM     21  C   UNL d   1       1.976  -5.854  -0.637  0.00  0.00     0.030 A 
ATOM     22  C   UNL d   1       2.048  -6.538  -1.952  0.00  0.00     0.060 C 
ENDBRANCH   1  15
TORSDOF 4
