REMARK  7 active torsions:
REMARK  status: ('A' for Active; 'I' for Inactive)
REMARK    1  A    between atoms: C_15  and  N_4 
REMARK    2  A    between atoms: C_13  and  C_6 
REMARK    3  A    between atoms: C_8  and  C_9 
REMARK    4  A    between atoms: C_9  and  O_20 
REMARK    5  A    between atoms: C_24  and  C_15 
REMARK    6  A    between atoms: O_20  and  C_24 
REMARK    7  A    between atoms: O_26  and  C_21 
ROOT
ATOM      1  N   UNL d   1      -1.724   1.455  -0.185  0.00  0.00    -0.305 N 
ATOM      2  HN  UNL d   1      -1.439   2.370  -0.535  1.00  0.00     0.186 HD
ATOM      3  C   UNL d   1      -0.965   0.440   0.096  0.00  0.00     0.043 C 
ATOM      4  N   UNL d   1      -2.982   1.027   0.093  0.00  0.00    -0.316 N 
ATOM      5  C   UNL d   1      -1.684  -0.756   0.663  0.00  0.00     0.067 C 
ATOM      6  C   UNL d   1      -3.115  -0.441   0.204  0.00  0.00     0.145 C 
ATOM      7  C   UNL d   1       0.492   0.391  -0.018  0.00  0.00    -0.005 A 
ATOM      8  C   UNL d   1      -1.040  -2.110   0.387  0.00  0.00     0.018 C 
ATOM      9  C   UNL d   1       1.076  -0.865  -0.230  0.00  0.00    -0.046 A 
ATOM     10  C   UNL d   1       0.195  -2.054  -0.517  0.00  0.00     0.040 C 
ATOM     11  C   UNL d   1       1.265   1.541   0.137  0.00  0.00     0.014 A 
ATOM     12  C   UNL d   1       2.470  -0.957  -0.267  0.00  0.00     0.008 A 
ATOM     13  C   UNL d   1       2.654   1.433   0.113  0.00  0.00     0.001 A 
ATOM     14  C   UNL d   1       3.255   0.186  -0.080  0.00  0.00     0.001 A 
ENDROOT
BRANCH   4  15
ATOM     15  C   UNL d   1      -4.152   1.806  -0.286  0.00  0.00     0.170 C 
BRANCH  15  16
ATOM     16  C   UNL d   1      -5.096   2.009   0.902  0.00  0.00     0.200 C 
BRANCH  16  17
ATOM     17  O   UNL d   1      -6.202   2.855   0.535  0.00  0.00    -0.320 OA
BRANCH  17  18
ATOM     18  C   UNL d   1      -7.308   2.206   0.086  0.00  0.00     0.263 C 
ATOM     19  O   UNL d   1      -7.426   0.996  -0.048  0.00  0.00    -0.265 OA
BRANCH  18  20
ATOM     20  C   UNL d   1      -8.433   3.122  -0.231  0.00  0.00     0.085 A 
ATOM     21  C   UNL d   1      -8.395   4.616  -0.014  0.00  0.00     0.015 A 
ATOM     22  C   UNL d   1      -9.215   3.753   0.900  0.00  0.00     0.015 A 
ENDBRANCH  18  20
ENDBRANCH  17  18
ENDBRANCH  16  17
ENDBRANCH  15  16
ENDBRANCH   4  15
BRANCH   6  23
ATOM     23  C   UNL d   1      -3.632  -1.107  -1.060  0.00  0.00    -0.033 A 
ATOM     24  C   UNL d   1      -2.979  -1.026  -2.298  0.00  0.00     0.012 A 
ATOM     25  C   UNL d   1      -3.572  -1.552  -3.453  0.00  0.00     0.037 A 
ATOM     26  C   UNL d   1      -4.831  -2.153  -3.400  0.00  0.00     0.068 A 
ATOM     27  C   UNL d   1      -5.468  -2.281  -2.169  0.00  0.00     0.037 A 
ATOM     28  C   UNL d   1      -4.876  -1.760  -1.014  0.00  0.00     0.012 A 
BRANCH  26  29
ATOM     29  O   UNL d   1      -5.338  -2.557  -4.605  0.00  0.00    -0.356 OA
ATOM     30  C   UNL d   1      -6.724  -2.889  -4.628  0.00  0.00     0.210 C 
ENDBRANCH  26  29
ENDBRANCH   6  23
TORSDOF 7
