REMARK  1 active torsions:
REMARK  status: ('A' for Active; 'I' for Inactive)
REMARK    1  A    between atoms: C_11  and  C_7 
ROOT
ATOM      1  C   UNL d   1       1.932  -5.273   1.021  0.00  0.00     0.105 A 
ATOM      2  C   UNL d   1       1.322  -5.887  -0.048  0.00  0.00     0.105 A 
ATOM      3  O   UNL d   1       2.336  -6.166   1.967  0.00  0.00    -0.323 OA
ATOM      4  C   UNL d   1       1.593  -3.140   0.021  0.00  0.00    -0.031 A 
ATOM      5  O   UNL d   1       1.267  -7.238   0.089  0.00  0.00    -0.323 OA
ATOM      6  C   UNL d   1       1.848  -7.400   1.399  0.00  0.00     0.352 A 
ATOM      7  C   UNL d   1       2.087  -3.904   1.086  0.00  0.00     0.051 A 
ATOM      8  C   UNL d   1       0.832  -5.165  -1.115  0.00  0.00     0.040 A 
ATOM      9  C   UNL d   1       0.966  -3.774  -1.075  0.00  0.00     0.014 A 
ENDROOT
BRANCH   4  10
ATOM     10  C   UNL d   1       1.706  -1.682   0.041  0.00  0.00     0.047 C 
ATOM     11  C   UNL d   1       0.782  -0.886   0.593  0.00  0.00     0.111 A 
ATOM     12  N   UNL d   1      -0.372  -1.261   1.227  0.00  0.00    -0.335 N 
ATOM     13  C   UNL d   1       0.912   0.595   0.584  0.00  0.00     0.316 A 
ATOM     14  C   UNL d   1      -0.882  -0.124   1.572  0.00  0.00     0.124 A 
ATOM     15  HN  UNL d   1      -0.738  -2.199   1.387  1.00  0.00     0.168 HD
ATOM     16  C   UNL d   1      -2.151   0.075   2.313  0.00  0.00     0.098 C 
ATOM     17  O   UNL d   1      -0.210   1.001   1.241  0.00  0.00    -0.261 OA
ATOM     18  O   UNL d   1       1.786   1.292   0.112  0.00  0.00    -0.257 OA
ENDBRANCH   4  10
TORSDOF 1
