REMARK  8 active torsions:
REMARK  status: ('A' for Active; 'I' for Inactive)
REMARK    1  A    between atoms: C_8  and  N_1 
REMARK    2  A    between atoms: N_2  and  C_7 
REMARK    3  A    between atoms: C_7  and  N_10 
REMARK    4  A    between atoms: N_9  and  C_8 
REMARK    5  A    between atoms: C_27  and  C_31 
REMARK    6  A    between atoms: C_30  and  C_28 
REMARK    7  A    between atoms: C_29  and  C_30 
REMARK    8  A    between atoms: C_31  and  C_29 
ROOT
ATOM      1  C   UNL d   1      -5.370   0.567  -1.061  0.00  0.00     0.001 C 
ENDROOT
BRANCH   1   2
ATOM      2  C   UNL d   1      -4.751   1.050   0.243  0.00  0.00     0.005 C 
BRANCH   2   3
ATOM      3  C   UNL d   1      -3.298   0.598   0.489  0.00  0.00    -0.011 C 
ATOM      4  C   UNL d   1      -3.084  -0.884   0.801  0.00  0.00     0.035 C 
ATOM      5  C   UNL d   1      -3.820  -1.299   2.067  0.00  0.00     0.275 C 
ATOM      6  N   UNL d   1      -3.348  -0.533   3.231  0.00  0.00     0.106 N 
ATOM      7  C   UNL d   1      -3.366   0.925   3.009  0.00  0.00     0.275 C 
ATOM      8  C   UNL d   1      -2.725   1.365   1.686  0.00  0.00     0.035 C 
BRANCH   6   9
ATOM      9  C   UNL d   1      -4.155  -0.911   4.402  0.00  0.00     0.407 C 
BRANCH   9  10
ATOM     10  N   UNL d   1      -3.475  -0.539   5.614  0.00  0.00    -0.261 N 
ATOM     11  C   UNL d   1      -3.757   0.586   6.324  0.00  0.00     0.228 A 
ATOM     12  C   UNL d   1      -2.890   0.620   7.546  0.00  0.00     0.112 A 
ATOM     13  O   UNL d   1      -4.581   1.452   6.048  0.00  0.00    -0.273 OA
ATOM     14  C   UNL d   1      -2.181  -0.721   7.542  0.00  0.00     0.112 A 
ATOM     15  C   UNL d   1      -2.618  -1.379   6.266  0.00  0.00     0.228 A 
ATOM     16  O   UNL d   1      -2.288  -2.507   5.941  0.00  0.00    -0.273 OA
ENDBRANCH   9  10
ENDBRANCH   6   9
ENDBRANCH   2   3
ENDBRANCH   1   2
BRANCH   1  17
ATOM     17  C   UNL d   1      -5.760  -0.906  -1.155  0.00  0.00     0.005 C 
BRANCH  17  18
ATOM     18  C   UNL d   1      -6.378  -1.417  -2.473  0.00  0.00    -0.011 C 
ATOM     19  C   UNL d   1      -5.509  -1.187  -3.714  0.00  0.00     0.035 C 
ATOM     20  C   UNL d   1      -5.599   0.224  -4.292  0.00  0.00     0.275 C 
ATOM     21  N   UNL d   1      -6.965   0.750  -4.447  0.00  0.00     0.106 N 
ATOM     22  C   UNL d   1      -7.836   0.499  -3.289  0.00  0.00     0.275 C 
ATOM     23  C   UNL d   1      -7.789  -0.920  -2.742  0.00  0.00     0.035 C 
BRANCH  21  24
ATOM     24  C   UNL d   1      -6.854   2.200  -4.726  0.00  0.00     0.407 C 
BRANCH  24  25
ATOM     25  N   UNL d   1      -8.145   2.769  -5.007  0.00  0.00    -0.261 N 
ATOM     26  C   UNL d   1      -8.950   3.329  -4.059  0.00  0.00     0.228 C 
ATOM     27  C   UNL d   1     -10.259   3.664  -4.695  0.00  0.00     0.112 C 
ATOM     28  O   UNL d   1      -8.694   3.509  -2.872  0.00  0.00    -0.273 OA
ATOM     29  C   UNL d   1      -9.931   3.689  -6.175  0.00  0.00     0.112 C 
ATOM     30  C   UNL d   1      -8.603   2.998  -6.269  0.00  0.00     0.228 C 
ATOM     31  O   UNL d   1      -8.020   2.784  -7.321  0.00  0.00    -0.273 OA
ENDBRANCH  24  25
ENDBRANCH  21  24
ENDBRANCH  17  18
ENDBRANCH   1  17
TORSDOF 8
