REMARK  8 active torsions:
REMARK  status: ('A' for Active; 'I' for Inactive)
REMARK    1  A    between atoms: C_11  and  N_7 
REMARK    2  A    between atoms: N_15  and  C_10 
REMARK    3  A    between atoms: C_14  and  C_11 
REMARK    4  A    between atoms: O_19  and  C_14 
REMARK    5  A    between atoms: C_20  and  N_15 
REMARK    6  A    between atoms: C_23  and  O_19 
REMARK    7  A    between atoms: C_22  and  C_20 
REMARK    8  A    between atoms: C_21  and  C_22 
ROOT
ATOM      1  C   UNL d   1      -0.268  -0.816   0.035  0.00  0.00     0.146 A 
ATOM      2  C   UNL d   1      -0.577   0.507  -0.013  0.00  0.00     0.151 A 
ATOM      3  N   UNL d   1      -1.366  -1.590   0.175  0.00  0.00    -0.316 N 
ATOM      4  HN  UNL d   1      -1.400  -2.607   0.250  1.00  0.00     0.170 HD
ATOM      5  N   UNL d   1       1.023  -1.276  -0.009  0.00  0.00    -0.287 N 
ATOM      6  N   UNL d   1       1.734   1.002  -0.043  0.00  0.00    -0.269 N 
ATOM      7  N   UNL d   1      -1.960   0.549   0.007  0.00  0.00    -0.306 N 
ATOM      8  C   UNL d   1       2.074  -0.363  -0.044  0.00  0.00     0.332 A 
ATOM      9  C   UNL d   1       0.428   1.516  -0.047  0.00  0.00     0.282 A 
ATOM     10  C   UNL d   1      -2.381  -0.757   0.194  0.00  0.00     0.162 A 
ATOM     11  O   UNL d   1       3.247  -0.744  -0.069  0.00  0.00    -0.246 OA
ATOM     12  O   UNL d   1       0.177   2.719  -0.058  0.00  0.00    -0.265 OA
ATOM     13  C   UNL d   1       1.322  -2.694   0.002  0.00  0.00     0.163 C 
ATOM     14  C   UNL d   1       2.814   1.970  -0.024  0.00  0.00     0.164 C 
ENDROOT
BRANCH  10  15
ATOM     15  N   UNL d   1      -3.679  -1.092   0.382  0.00  0.00    -0.264 NA
ATOM     16  H   UNL d   1      -4.310  -0.764  -0.358  0.00  0.00     0.130 HD
BRANCH  15  17
ATOM     17  C   UNL d   1      -3.917  -2.493   0.755  0.00  0.00     0.099 C 
BRANCH  17  18
ATOM     18  C   UNL d   1      -5.401  -2.853   0.676  0.00  0.00     0.053 C 
BRANCH  18  19
ATOM     19  C   UNL d   1      -5.684  -4.181   1.339  0.00  0.00    -0.057 A 
ATOM     20  C   UNL d   1      -6.000  -4.231   2.706  0.00  0.00     0.007 A 
ATOM     21  C   UNL d   1      -6.234  -5.453   3.337  0.00  0.00     0.001 A 
ATOM     22  C   UNL d   1      -6.153  -6.640   2.611  0.00  0.00     0.000 A 
ATOM     23  C   UNL d   1      -5.832  -6.604   1.255  0.00  0.00     0.001 A 
ATOM     24  C   UNL d   1      -5.595  -5.381   0.621  0.00  0.00     0.007 A 
ENDBRANCH  18  19
ENDBRANCH  17  18
ENDBRANCH  15  17
ENDBRANCH  10  15
BRANCH   7  25
ATOM     25  C   UNL d   1      -2.771   1.760   0.036  0.00  0.00     0.243 C 
BRANCH  25  26
ATOM     26  C   UNL d   1      -4.038   1.722  -0.785  0.00  0.00     0.277 C 
ATOM     27  O   UNL d   1      -4.531   0.748  -1.339  0.00  0.00    -0.263 OA
BRANCH  26  28
ATOM     28  O   UNL d   1      -4.559   2.986  -0.861  0.00  0.00    -0.321 OA
BRANCH  28  29
ATOM     29  C   UNL d   1      -5.630   3.150  -1.805  0.00  0.00     0.174 C 
ATOM     30  C   UNL d   1      -5.060   3.204  -3.212  0.00  0.00     0.034 C 
ENDBRANCH  28  29
ENDBRANCH  26  28
ENDBRANCH  25  26
ENDBRANCH   7  25
TORSDOF 8
