REMARK  3 active torsions:
REMARK  status: ('A' for Active; 'I' for Inactive)
REMARK    1  A    between atoms: C_2  and  S_1 
REMARK    2  A    between atoms: C_9  and  S_1 
REMARK    3  A    between atoms: O_10  and  N_5 
ROOT
ATOM      1  C   UNL d   1       0.491  -0.058  -1.760  0.00  0.00     0.234 C 
ATOM      2  C   UNL d   1      -0.912  -0.212  -2.030  0.00  0.00     0.132 C 
ATOM      3  N   UNL d   1      -2.050  -0.331  -2.248  0.00  0.00    -0.189 NA
ATOM      4  N   UNL d   1       1.345   0.098  -2.736  0.00  0.00    -0.248 N 
ATOM      5  HN  UNL d   1       2.350   0.206  -2.595  1.00  0.00     0.195 HD
ENDROOT
BRANCH   1   6
ATOM      6  S   UNL d   1       0.975  -0.084  -0.081  0.00  0.00     0.234 S 
ATOM      7  O   UNL d   1       0.547  -1.363   0.458  0.00  0.00    -0.215 OA
ATOM      8  O   UNL d   1       0.520   1.164   0.504  0.00  0.00    -0.215 OA
BRANCH   6   9
ATOM      9  C   UNL d   1       2.751  -0.067  -0.064  0.00  0.00     0.066 A 
ATOM     10  C   UNL d   1       3.430   1.156  -0.040  0.00  0.00     0.024 A 
ATOM     11  C   UNL d   1       4.821   1.166   0.066  0.00  0.00     0.002 A 
ATOM     12  C   UNL d   1       5.526  -0.035   0.149  0.00  0.00     0.000 A 
ATOM     13  C   UNL d   1       4.845  -1.253   0.127  0.00  0.00     0.002 A 
ATOM     14  C   UNL d   1       3.454  -1.274   0.029  0.00  0.00     0.024 A 
ENDBRANCH   6   9
ENDBRANCH   1   6
BRANCH   4  15
ATOM     15  O   UNL d   1       0.732   0.101  -3.999  0.00  0.00    -0.288 OA
ATOM     16  H   UNL d   1       1.474   0.273  -4.612  0.00  0.00     0.244 HD
ENDBRANCH   4  15
TORSDOF 3
