REMARK  4 active torsions:
REMARK  status: ('A' for Active; 'I' for Inactive)
REMARK    1  A    between atoms: C_8  and  N_1 
REMARK    2  A    between atoms: C_9  and  C_4 
REMARK    3  A    between atoms: C_10  and  C_8 
REMARK    4  A    between atoms: C_11  and  C_10 
ROOT
ATOM      1  N   UNL d   1      -0.149  -1.115  -0.210  0.00  0.00    -0.209 N 
ATOM      2  N   UNL d   1      -0.352  -0.339   0.875  0.00  0.00    -0.268 N 
ATOM      3  HN  UNL d   1      -0.339  -0.587   1.865  1.00  0.00     0.190 HD
ATOM      4  C   UNL d   1      -0.576   0.851   0.293  0.00  0.00     0.144 A 
ATOM      5  N   UNL d   1      -0.537   0.780  -1.078  0.00  0.00    -0.266 N 
ATOM      6  HN  UNL d   1      -0.672   1.553  -1.730  1.00  0.00     0.186 HD
ATOM      7  N   UNL d   1      -0.290  -0.483  -1.393  0.00  0.00    -0.002 NA
ENDROOT
BRANCH   1   8
ATOM      8  C   UNL d   1      -0.334  -2.547  -0.117  0.00  0.00     0.251 C 
BRANCH   8   9
ATOM      9  C   UNL d   1       0.955  -3.320  -0.067  0.00  0.00     0.180 C 
ATOM     10  O   UNL d   1       2.067  -2.793  -0.048  0.00  0.00    -0.290 OA
BRANCH   9  11
ATOM     11  C   UNL d   1       0.856  -4.814  -0.050  0.00  0.00     0.012 A 
ATOM     12  C   UNL d   1      -0.380  -5.477   0.038  0.00  0.00     0.017 A 
ATOM     13  C   UNL d   1      -0.436  -6.874  -0.006  0.00  0.00     0.025 A 
ATOM     14  C   UNL d   1       0.737  -7.614  -0.134  0.00  0.00     0.034 A 
ATOM     15  C   UNL d   1       1.970  -6.970  -0.198  0.00  0.00     0.025 A 
ATOM     16 CL   UNL d   1       0.656  -9.329  -0.226  0.00  0.00    -0.084 Cl
ATOM     17  C   UNL d   1       2.030  -5.573  -0.154  0.00  0.00     0.017 A 
ENDBRANCH   9  11
ENDBRANCH   8   9
ENDBRANCH   1   8
BRANCH   4  18
ATOM     18  C   UNL d   1      -0.925   2.057   1.028  0.00  0.00     0.014 A 
ATOM     19  C   UNL d   1      -0.990   2.034   2.430  0.00  0.00     0.039 A 
ATOM     20  C   UNL d   1      -1.366   3.175   3.136  0.00  0.00     0.036 A 
ATOM     21 CL   UNL d   1      -1.455   3.121   4.854  0.00  0.00    -0.084 Cl
ATOM     22  C   UNL d   1      -1.680   4.353   2.465  0.00  0.00     0.047 A 
ATOM     23  C   UNL d   1      -1.611   4.381   1.075  0.00  0.00     0.036 A 
ATOM     24  C   UNL d   1      -1.237   3.245   0.353  0.00  0.00     0.039 A 
ATOM     25 CL   UNL d   1      -2.005   5.831   0.236  0.00  0.00    -0.084 Cl
ENDBRANCH   4  18
TORSDOF 4
