REMARK  6 active torsions:
REMARK  status: ('A' for Active; 'I' for Inactive)
REMARK    1  A    between atoms: N_2  and  S_1 
REMARK    2  A    between atoms: C_5  and  S_1 
REMARK    3  A    between atoms: N_10  and  C_4 
REMARK    4  A    between atoms: S_16  and  C_4 
REMARK    5  A    between atoms: C_6  and  C_9 
REMARK    6  A    between atoms: C_7  and  C_8 
ROOT
ATOM      1  S   UNL d   1      -0.579   2.404  -1.325  0.00  0.00     0.264 S 
ATOM      2  O   UNL d   1      -0.610   3.818  -1.660  0.00  0.00    -0.200 OA
ATOM      3  O   UNL d   1      -1.794   1.686  -0.994  0.00  0.00    -0.200 OA
ENDROOT
BRANCH   1   4
ATOM      4  N   UNL d   1       0.550   2.116  -0.202  0.00  0.00    -0.260 N 
ATOM      5  C   UNL d   1       0.572   2.722   0.954  0.00  0.00     0.151 C 
ATOM      6  HN  UNL d   1       1.278   1.430  -0.406  1.00  0.00     0.181 HD
BRANCH   5   7
ATOM      7  N   UNL d   1       1.501   2.356   1.948  0.00  0.00    -0.361 N 
ATOM      8  C   UNL d   1       1.365   2.731   3.367  0.00  0.00     0.125 C 
ATOM      9  C   UNL d   1       2.425   3.763   3.753  0.00  0.00     0.020 C 
ATOM     10  C   UNL d   1       3.817   3.186   3.989  0.00  0.00     0.002 C 
ATOM     11  C   UNL d   1       4.364   2.352   2.832  0.00  0.00     0.002 C 
ATOM     12  C   UNL d   1       3.580   1.058   2.619  0.00  0.00     0.020 C 
ATOM     13  C   UNL d   1       2.373   1.196   1.686  0.00  0.00     0.125 C 
ENDBRANCH   5   7
BRANCH   5  14
ATOM     14  S   UNL d   1      -0.552   4.036   1.367  0.00  0.00    -0.098 SA
ATOM     15  C   UNL d   1       0.536   5.450   1.072  0.00  0.00     0.099 C 
ENDBRANCH   5  14
ENDBRANCH   1   4
BRANCH   1  16
ATOM     16  C   UNL d   1       0.028   1.608  -2.826  0.00  0.00     0.081 A 
ATOM     17  C   UNL d   1       0.126   0.213  -2.896  0.00  0.00     0.041 A 
ATOM     18  C   UNL d   1       0.483  -0.402  -4.111  0.00  0.00     0.050 A 
ATOM     19  C   UNL d   1       0.726   0.400  -5.243  0.00  0.00     0.032 A 
ATOM     20  C   UNL d   1       0.612   1.799  -5.185  0.00  0.00     0.050 A 
ATOM     21  C   UNL d   1       0.266   2.395  -3.964  0.00  0.00     0.041 A 
BRANCH  18  22
ATOM     22  C   UNL d   1       0.586  -1.907  -4.239  0.00  0.00     0.417 C 
ATOM     23  F   UNL d   1       0.267  -2.575  -3.098  0.00  0.00    -0.166 F 
ATOM     24  F   UNL d   1      -0.232  -2.402  -5.208  0.00  0.00    -0.166 F 
ATOM     25  F   UNL d   1       1.844  -2.309  -4.571  0.00  0.00    -0.166 F 
ENDBRANCH  18  22
BRANCH  20  26
ATOM     26  C   UNL d   1       0.831   2.631  -6.428  0.00  0.00     0.417 C 
ATOM     27  F   UNL d   1       0.609   3.962  -6.242  0.00  0.00    -0.166 F 
ATOM     28  F   UNL d   1       2.102   2.526  -6.902  0.00  0.00    -0.166 F 
ATOM     29  F   UNL d   1       0.018   2.255  -7.452  0.00  0.00    -0.166 F 
ENDBRANCH  20  26
ENDBRANCH   1  16
TORSDOF 6
