REMARK  2 active torsions:
REMARK  status: ('A' for Active; 'I' for Inactive)
REMARK    1  A    between atoms: C_3  and  C_1 
REMARK    2  A    between atoms: C_12  and  N_4 
ROOT
ATOM      1  C   UNL d   1      -2.516  -2.143  -0.039  0.00  0.00     0.101 C 
ATOM      2  N   UNL d   1      -3.675  -1.572   0.049  0.00  0.00    -0.364 N 
ATOM      3  HN  UNL d   1      -3.735  -0.557   0.128  1.00  0.00     0.165 HD
ENDROOT
BRANCH   1   4
ATOM      4  C   UNL d   1      -1.275  -1.331  -0.021  0.00  0.00     0.001 A 
ATOM      5  C   UNL d   1      -0.000  -1.913  -0.031  0.00  0.00     0.047 A 
ATOM      6  C   UNL d   1       1.140  -1.101  -0.015  0.00  0.00     0.048 A 
ATOM      7 CL   UNL d   1       0.249  -3.622  -0.051  0.00  0.00    -0.083 Cl
ATOM      8  C   UNL d   1       1.008   0.287   0.009  0.00  0.00     0.035 A 
ATOM      9  C   UNL d   1      -0.253   0.875   0.022  0.00  0.00     0.025 A 
ATOM     10 CL   UNL d   1       2.411   1.281   0.028  0.00  0.00    -0.084 Cl
ATOM     11  C   UNL d   1      -1.392   0.068   0.008  0.00  0.00     0.016 A 
ENDBRANCH   1   4
BRANCH   2  12
ATOM     12  C   UNL d   1      -4.851  -2.342   0.037  0.00  0.00     0.047 A 
ATOM     13  C   UNL d   1      -5.986  -1.836  -0.594  0.00  0.00     0.117 A 
ATOM     14  N   UNL d   1      -7.202  -2.442  -0.620  0.00  0.00    -0.373 N 
ATOM     15  C   UNL d   1      -7.294  -3.619   0.032  0.00  0.00     0.088 A 
ATOM     16  HN  UNL d   1      -7.999  -2.031  -1.106  1.00  0.00     0.164 HD
ATOM     17  C   UNL d   1      -6.233  -4.212   0.697  0.00  0.00     0.019 A 
ATOM     18  C   UNL d   1      -5.000  -3.559   0.703  0.00  0.00     0.032 A 
ENDBRANCH   2  12
TORSDOF 2
