REMARK  3 active torsions:
REMARK  status: ('A' for Active; 'I' for Inactive)
REMARK    1  A    between atoms: C_7  and  C_1 
REMARK    2  A    between atoms: C_9  and  C_3 
REMARK    3  A    between atoms: O_11  and  C_7 
ROOT
ATOM      1  C   UNL d   1       2.075   0.711   0.122  0.00  0.00     0.066 C 
ATOM      2  C   UNL d   1       1.657  -0.570   0.034  0.00  0.00     0.022 C 
ATOM      3  C   UNL d   1       1.116   1.862  -0.058  0.00  0.00     0.158 C 
ATOM      4  C   UNL d   1      -0.663   0.130  -0.133  0.00  0.00     0.172 C 
ATOM      5  N   UNL d   1       0.309  -0.818  -0.141  0.00  0.00    -0.337 N 
ATOM      6  N   UNL d   1      -0.269   1.414  -0.003  0.00  0.00    -0.354 N 
ATOM      7  S   UNL d   1      -2.271  -0.275  -0.239  0.00  0.00    -0.041 SA
ATOM      8  C   UNL d   1       2.501  -1.818   0.067  0.00  0.00     0.069 C 
ATOM      9  H   UNL d   1      -0.012  -1.779  -0.207  0.00  0.00     0.168 HD
ATOM     10  H   UNL d   1      -0.997   2.117  -0.003  0.00  0.00     0.163 HD
ENDROOT
BRANCH   3  11
ATOM     11  C   UNL d   1       1.253   3.030   0.906  0.00  0.00    -0.031 A 
ATOM     12  C   UNL d   1       1.476   4.327   0.411  0.00  0.00     0.009 A 
ATOM     13  C   UNL d   1       1.532   5.421   1.271  0.00  0.00     0.001 A 
ATOM     14  C   UNL d   1       1.361   5.237   2.641  0.00  0.00     0.000 A 
ATOM     15  C   UNL d   1       1.146   3.957   3.150  0.00  0.00     0.001 A 
ATOM     16  C   UNL d   1       1.095   2.859   2.291  0.00  0.00     0.009 A 
ENDBRANCH   3  11
BRANCH   1  17
ATOM     17  C   UNL d   1       3.504   1.037   0.357  0.00  0.00     0.293 C 
ATOM     18  O   UNL d   1       4.253   0.379   1.062  0.00  0.00    -0.259 OA
BRANCH  17  19
ATOM     19  O   UNL d   1       3.844   2.164  -0.315  0.00  0.00    -0.323 OA
ATOM     20  C   UNL d   1       5.160   2.657  -0.049  0.00  0.00     0.213 C 
ENDBRANCH  17  19
ENDBRANCH   1  17
TORSDOF 3
