REMARK  2 active torsions:
REMARK  status: ('A' for Active; 'I' for Inactive)
REMARK    1  A    between atoms: C_20  and  N_8 
REMARK    2  A    between atoms: C_19  and  C_20 
ROOT
ATOM      1  C   UNL d   1       0.064  -0.725   0.108  0.00  0.00     0.101 A 
ATOM      2  C   UNL d   1       0.057   0.615   0.160  0.00  0.00     0.077 A 
ATOM      3  N   UNL d   1       1.267  -1.395  -0.055  0.00  0.00    -0.293 N 
ATOM      4  N   UNL d   1       2.474   0.631   0.002  0.00  0.00    -0.270 N 
ATOM      5  C   UNL d   1       2.500  -0.749  -0.103  0.00  0.00     0.332 A 
ATOM      6  C   UNL d   1       1.319   1.375   0.094  0.00  0.00     0.262 A 
ATOM      7  N   UNL d   1      -1.143  -1.404   0.224  0.00  0.00    -0.252 NA
ATOM      8  N   UNL d   1      -2.418   0.673  -0.105  0.00  0.00     0.110 N 
ATOM      9  C   UNL d   1      -1.212   1.424   0.260  0.00  0.00     0.322 C 
ATOM     10  C   UNL d   1      -2.365  -0.656   0.474  0.00  0.00     0.369 C 
ATOM     11  O   UNL d   1       3.554  -1.379  -0.223  0.00  0.00    -0.246 OA
ATOM     12  O   UNL d   1       1.301   2.603   0.142  0.00  0.00    -0.267 OA
ATOM     13  C   UNL d   1       1.318  -2.850  -0.093  0.00  0.00     0.162 C 
ATOM     14  C   UNL d   1       3.728   1.360   0.013  0.00  0.00     0.164 C 
ATOM     15  H   UNL d   1      -1.262  -2.057  -0.547  0.00  0.00     0.130 HD
ENDROOT
BRANCH   8  16
ATOM     16  C   UNL d   1      -3.646   1.390   0.239  0.00  0.00     0.313 C 
BRANCH  16  17
ATOM     17  C   UNL d   1      -4.783   0.999  -0.679  0.00  0.00    -0.027 A 
ATOM     18  C   UNL d   1      -4.565   1.060  -2.067  0.00  0.00     0.048 A 
ATOM     19  C   UNL d   1      -5.621   0.814  -2.908  0.00  0.00     0.105 A 
ATOM     20  O   UNL d   1      -5.573   0.878  -4.263  0.00  0.00    -0.323 OA
ATOM     21  C   UNL d   1      -6.866   0.495  -2.428  0.00  0.00     0.105 A 
ATOM     22  C   UNL d   1      -6.931   0.531  -4.590  0.00  0.00     0.352 A 
ATOM     23  O   UNL d   1      -7.768   0.318  -3.432  0.00  0.00    -0.323 OA
ATOM     24  C   UNL d   1      -7.118   0.394  -1.075  0.00  0.00     0.040 A 
ATOM     25  C   UNL d   1      -6.062   0.654  -0.189  0.00  0.00     0.012 A 
ENDBRANCH  16  17
ENDBRANCH   8  16
TORSDOF 2
