REMARK  3 active torsions:
REMARK  status: ('A' for Active; 'I' for Inactive)
REMARK    1  A    between atoms: C_2  and  C_1 
REMARK    2  A    between atoms: C_4  and  C_3 
REMARK    3  A    between atoms: C_13  and  C_4 
ROOT
ATOM      1  C   UNL d   1       0.862  -2.480   0.050  0.00  0.00    -0.023 A 
ATOM      2  C   UNL d   1       2.208  -4.981   0.179  0.00  0.00     0.010 A 
ATOM      3  C   UNL d   1       1.718  -2.804   1.120  0.00  0.00     0.013 A 
ATOM      4  C   UNL d   1       0.718  -3.445  -0.964  0.00  0.00     0.013 A 
ATOM      5  C   UNL d   1       2.390  -4.032   1.185  0.00  0.00     0.016 A 
ATOM      6  C   UNL d   1       1.378  -4.679  -0.903  0.00  0.00     0.016 A 
ENDROOT
BRANCH   1   7
ATOM      7  C   UNL d   1       0.131  -1.189   0.001  0.00  0.00     0.013 A 
ATOM      8  C   UNL d   1       0.677   0.009   0.497  0.00  0.00     0.127 A 
ATOM      9  F   UNL d   1       1.917   0.036   1.010  0.00  0.00    -0.205 F 
ATOM     10  C   UNL d   1      -0.028   1.214   0.473  0.00  0.00     0.043 A 
ATOM     11  C   UNL d   1      -1.308   1.260  -0.068  0.00  0.00     0.003 A 
ATOM     12  C   UNL d   1      -1.876   0.099  -0.580  0.00  0.00     0.001 A 
ATOM     13  C   UNL d   1      -1.168  -1.109  -0.540  0.00  0.00     0.015 A 
ENDBRANCH   1   7
BRANCH   2  14
ATOM     14  C   UNL d   1       2.864  -6.316   0.221  0.00  0.00     0.159 C 
ATOM     15  O   UNL d   1       3.054  -6.923  -0.829  0.00  0.00    -0.292 OA
BRANCH  14  16
ATOM     16  C   UNL d   1       3.267  -6.879   1.574  0.00  0.00     0.079 C 
ATOM     17  C   UNL d   1       3.285  -8.399   1.559  0.00  0.00     0.013 C 
ENDBRANCH  14  16
ENDBRANCH   2  14
TORSDOF 3
