REMARK  7 active torsions:
REMARK  status: ('A' for Active; 'I' for Inactive)
REMARK    1  A    between atoms: N_4  and  C_1 
REMARK    2  A    between atoms: N_9  and  C_1 
REMARK    3  A    between atoms: S_2  and  C_3 
REMARK    4  A    between atoms: C_10  and  S_2 
REMARK    5  A    between atoms: C_11  and  N_4 
REMARK    6  A    between atoms: N_5  and  N_9 
REMARK    7  A    between atoms: C_7  and  C_12 
ROOT
ATOM      1  N   UNL d   1       4.993  -1.595   0.756  0.00  0.00    -0.309 N 
ATOM      2  HN  UNL d   1       5.752  -2.274   0.817  1.00  0.00     0.186 HD
ATOM      3  C   UNL d   1       4.757  -0.906  -0.317  0.00  0.00     0.120 C 
ENDROOT
BRANCH   1   4
ATOM      4  N   UNL d   1       4.141  -1.341   1.805  0.00  0.00    -0.277 N 
ATOM      5  H   UNL d   1       4.618  -1.071   2.668  0.00  0.00     0.189 HD
BRANCH   4   6
ATOM      6  C   UNL d   1       3.064  -2.183   2.070  0.00  0.00     0.187 C 
ATOM      7  S   UNL d   1       2.485  -2.270   3.625  0.00  0.00    -0.040 SA
BRANCH   6   8
ATOM      8  N   UNL d   1       2.588  -2.801   0.947  0.00  0.00    -0.358 N 
ATOM      9  H   UNL d   1       3.305  -2.797   0.233  0.00  0.00     0.162 HD
BRANCH   8  10
ATOM     10  C   UNL d   1       1.465  -3.731   0.691  0.00  0.00     0.021 C 
ATOM     11  C   UNL d   1       0.164  -3.347   1.416  0.00  0.00     0.037 C 
ATOM     12  C   UNL d   1       1.209  -3.669  -0.832  0.00  0.00     0.037 C 
ATOM     13  C   UNL d   1       1.862  -5.164   1.070  0.00  0.00     0.037 C 
ENDBRANCH   8  10
ENDBRANCH   6   8
ENDBRANCH   4   6
ENDBRANCH   1   4
BRANCH   3  14
ATOM     14  C   UNL d   1       5.582  -1.076  -1.541  0.00  0.00    -0.003 A 
ATOM     15  C   UNL d   1       5.394  -0.302  -2.693  0.00  0.00     0.013 A 
ATOM     16  C   UNL d   1       6.061  -0.678  -3.875  0.00  0.00     0.019 A 
ATOM     17  C   UNL d   1       6.965  -1.746  -3.876  0.00  0.00     0.001 A 
ATOM     18  C   UNL d   1       7.222  -2.444  -2.707  0.00  0.00     0.001 A 
ATOM     19  C   UNL d   1       6.532  -2.115  -1.535  0.00  0.00     0.014 A 
BRANCH  15  20
ATOM     20  S   UNL d   1       4.288   1.098  -2.821  0.00  0.00    -0.120 SA
BRANCH  20  21
ATOM     21  C   UNL d   1       5.273   2.508  -2.097  0.00  0.00     0.002 C 
ATOM     22  C   UNL d   1       6.660   2.647  -2.737  0.00  0.00     0.026 C 
ATOM     23  C   UNL d   1       4.452   3.773  -2.407  0.00  0.00     0.026 C 
ATOM     24  C   UNL d   1       5.408   2.371  -0.575  0.00  0.00     0.026 C 
ENDBRANCH  20  21
ENDBRANCH  15  20
ENDBRANCH   3  14
TORSDOF 7
