REMARK  4 active torsions:
REMARK  status: ('A' for Active; 'I' for Inactive)
REMARK    1  A    between atoms: C_2  and  N_1 
REMARK       I    between atoms: C_3  and  N_1 
REMARK    2  A    between atoms: O_8  and  C_2 
REMARK    3  A    between atoms: C_4  and  C_3 
REMARK    4  A    between atoms: C_9  and  C_6 
ROOT
ATOM      1  N   UNL d   1       3.352   1.076  -0.538  0.00  0.00    -0.294 N 
ATOM      2  C   UNL d   1       2.513   0.047  -0.135  0.00  0.00     0.247 C 
ATOM      3  O   UNL d   1       1.292   0.046  -0.166  0.00  0.00    -0.268 OA
ATOM      4  H   UNL d   1       4.346   0.936  -0.460  0.00  0.00     0.172 HD
ENDROOT
BRANCH   2   5
ATOM      5  C   UNL d   1       3.279  -1.124   0.379  0.00  0.00     0.075 C 
ATOM      6  C   UNL d   1       2.630  -2.204   0.844  0.00  0.00     0.017 C 
BRANCH   6   7
ATOM      7  C   UNL d   1       3.299  -3.391   1.400  0.00  0.00    -0.036 A 
ATOM      8  C   UNL d   1       4.515  -3.306   2.092  0.00  0.00     0.011 A 
ATOM      9  C   UNL d   1       5.110  -4.446   2.637  0.00  0.00     0.001 A 
ATOM     10  C   UNL d   1       4.488  -5.685   2.511  0.00  0.00     0.000 A 
ATOM     11  C   UNL d   1       3.268  -5.783   1.845  0.00  0.00     0.001 A 
ATOM     12  C   UNL d   1       2.674  -4.641   1.297  0.00  0.00     0.011 A 
ENDBRANCH   6   7
ENDBRANCH   2   5
BRANCH   1  13
ATOM     13  C   UNL d   1       3.045   2.321  -1.043  0.00  0.00     0.216 C 
ATOM     14  S   UNL d   1       1.554   2.995  -1.336  0.00  0.00    -0.033 SA
BRANCH  13  15
ATOM     15  O   UNL d   1       4.215   2.978  -1.287  0.00  0.00    -0.332 OA
ATOM     16  C   UNL d   1       4.256   4.312  -1.838  0.00  0.00     0.212 C 
ENDBRANCH  13  15
ENDBRANCH   1  13
TORSDOF 4
