REMARK  2 active torsions:
REMARK  status: ('A' for Active; 'I' for Inactive)
REMARK    1  A    between atoms: C_8  and  N_1 
REMARK    2  A    between atoms: N_9  and  C_2 
REMARK       I    between atoms: C_11  and  N_9 
ROOT
ATOM      1  C   UNL d   1      -3.292  -3.571  -2.578  0.00  0.00     0.112 A 
ATOM      2  C   UNL d   1      -2.724  -4.844  -2.024  0.00  0.00     0.315 A 
ATOM      3  O   UNL d   1      -1.684  -4.746  -1.109  0.00  0.00    -0.273 OA
ATOM      4  C   UNL d   1      -2.723  -2.400  -2.273  0.00  0.00     0.050 A 
ATOM      5  C   UNL d   1      -1.564  -2.335  -1.399  0.00  0.00     0.003 A 
ATOM      6  C   UNL d   1      -1.094  -3.506  -0.811  0.00  0.00     0.090 A 
ATOM      7  C   UNL d   1       0.190  -1.115  -0.263  0.00  0.00     0.103 A 
ATOM      8  C   UNL d   1      -0.916  -1.127  -1.127  0.00  0.00     0.050 A 
ATOM      9  O   UNL d   1      -3.196  -5.928  -2.362  0.00  0.00    -0.257 OA
ATOM     10  C   UNL d   1      -0.012  -3.503   0.069  0.00  0.00     0.041 A 
ATOM     11  C   UNL d   1       0.636  -2.299   0.347  0.00  0.00     0.039 A 
ENDROOT
BRANCH   1  12
ATOM     12  N   UNL d   1      -4.402  -3.734  -3.393  0.00  0.00    -0.322 N 
ATOM     13  C   UNL d   1      -5.178  -2.760  -3.986  0.00  0.00     0.218 C 
ATOM     14  O   UNL d   1      -5.012  -1.548  -3.883  0.00  0.00    -0.274 OA
ATOM     15  C   UNL d   1      -6.325  -3.309  -4.795  0.00  0.00     0.117 C 
ATOM     16  H   UNL d   1      -4.671  -4.708  -3.529  0.00  0.00     0.169 HD
ENDBRANCH   1  12
BRANCH   7  17
ATOM     17  N   UNL d   1       0.894   0.148  -0.007  0.00  0.00    -0.116 N 
ATOM     18  O   UNL d   1       0.483   1.163  -0.584  0.00  0.00    -0.532 OA
ATOM     19  O   UNL d   1       1.862   0.119   0.765  0.00  0.00    -0.532 OA
ENDBRANCH   7  17
TORSDOF 2
