REMARK  6 active torsions:
REMARK  status: ('A' for Active; 'I' for Inactive)
REMARK    1  A    between atoms: C_3  and  C_1 
REMARK    2  A    between atoms: C_6  and  C_1 
REMARK    3  A    between atoms: C_4  and  C_2 
REMARK    4  A    between atoms: C_8  and  C_3 
REMARK    5  A    between atoms: C_5  and  C_4 
REMARK    6  A    between atoms: O_15  and  C_12 
ROOT
ATOM      1  C   UNL d   1       0.697   0.113  -0.360  0.00  0.00     0.029 C 
ATOM      2  C   UNL d   1       0.050  -0.838   0.336  0.00  0.00     0.072 C 
ENDROOT
BRANCH   1   3
ATOM      3  C   UNL d   1       2.046  -0.089  -0.972  0.00  0.00     0.193 C 
ATOM      4  O   UNL d   1       2.999  -0.479  -0.304  0.00  0.00    -0.287 OA
BRANCH   3   5
ATOM      5  C   UNL d   1       2.228   0.218  -2.415  0.00  0.00     0.015 A 
ATOM      6  C   UNL d   1       1.905   1.461  -2.970  0.00  0.00     0.015 A 
ATOM      7  C   UNL d   1       2.100   1.699  -4.333  0.00  0.00     0.001 A 
ATOM      8  C   UNL d   1       2.651   0.706  -5.142  0.00  0.00     0.000 A 
ATOM      9  C   UNL d   1       3.011  -0.522  -4.588  0.00  0.00     0.001 A 
ATOM     10  C   UNL d   1       2.805  -0.766  -3.226  0.00  0.00     0.015 A 
ENDBRANCH   3   5
ENDBRANCH   1   3
BRANCH   1  11
ATOM     11  C   UNL d   1       0.071   1.443  -0.310  0.00  0.00    -0.022 A 
ATOM     12  C   UNL d   1       0.508   2.380   0.635  0.00  0.00     0.012 A 
ATOM     13  C   UNL d   1      -0.121   3.620   0.734  0.00  0.00     0.001 A 
ATOM     14  C   UNL d   1      -1.181   3.934  -0.116  0.00  0.00     0.000 A 
ATOM     15  C   UNL d   1      -1.622   3.008  -1.061  0.00  0.00     0.001 A 
ATOM     16  C   UNL d   1      -1.005   1.760  -1.152  0.00  0.00     0.012 A 
ENDBRANCH   1  11
BRANCH   2  17
ATOM     17  C   UNL d   1       0.428  -2.264   0.522  0.00  0.00     0.183 C 
ATOM     18  O   UNL d   1       1.280  -2.857  -0.119  0.00  0.00    -0.288 OA
BRANCH  17  19
ATOM     19  C   UNL d   1      -0.393  -2.965   1.536  0.00  0.00     0.014 A 
ATOM     20  C   UNL d   1      -1.748  -3.201   1.278  0.00  0.00     0.018 A 
ATOM     21  C   UNL d   1      -2.564  -3.741   2.277  0.00  0.00     0.037 A 
ATOM     22  C   UNL d   1      -2.029  -4.046   3.528  0.00  0.00     0.068 A 
ATOM     23  C   UNL d   1      -0.660  -3.848   3.761  0.00  0.00     0.037 A 
ATOM     24  C   UNL d   1       0.163  -3.306   2.769  0.00  0.00     0.018 A 
BRANCH  22  25
ATOM     25  O   UNL d   1      -2.730  -4.550   4.589  0.00  0.00    -0.356 OA
ATOM     26  C   UNL d   1      -4.144  -4.388   4.543  0.00  0.00     0.210 C 
ENDBRANCH  22  25
ENDBRANCH  17  19
ENDBRANCH   2  17
TORSDOF 6
