REMARK  5 active torsions:
REMARK  status: ('A' for Active; 'I' for Inactive)
REMARK    1  A    between atoms: N_4  and  C_3 
REMARK    2  A    between atoms: S_13  and  C_5 
REMARK    3  A    between atoms: N_22  and  C_6 
REMARK    4  A    between atoms: C_9  and  C_14 
REMARK    5  A    between atoms: C_11  and  S_13 
ROOT
ATOM      1  C   UNL d   1       4.404  -0.102  -1.007  0.00  0.00     0.120 A 
ATOM      2  C   UNL d   1       4.074   0.775   0.035  0.00  0.00     0.041 A 
ATOM      3  C   UNL d   1       5.549  -0.918  -0.959  0.00  0.00     0.053 A 
ATOM      4  C   UNL d   1       6.405  -0.860   0.150  0.00  0.00     0.050 A 
ATOM      5  C   UNL d   1       4.950   0.835   1.131  0.00  0.00     0.022 A 
ATOM      6  C   UNL d   1       6.097   0.032   1.188  0.00  0.00     0.017 A 
ENDROOT
BRANCH   2   7
ATOM      7  S   UNL d   1       2.641   1.843   0.070  0.00  0.00    -0.050 SA
BRANCH   7   8
ATOM      8  C   UNL d   1       1.514   0.793   0.841  0.00  0.00     0.179 A 
ATOM      9  N   UNL d   1       1.649  -0.461   1.202  0.00  0.00    -0.168 N 
ATOM     10  C   UNL d   1       0.429  -0.744   1.741  0.00  0.00     0.692 A 
ATOM     11  HN  UNL d   1       2.461  -1.070   1.105  1.00  0.00     0.186 HD
ATOM     12  N   UNL d   1      -0.437   0.266   1.770  0.00  0.00    -0.130 N 
ATOM     13  N   UNL d   1       0.270   1.234   1.164  0.00  0.00    -0.265 N 
ATOM     14  HN  UNL d   1      -1.383   0.297   2.150  1.00  0.00     0.205 HD
ATOM     15  H   UNL d   1      -0.143   2.145   1.012  0.00  0.00     0.189 HD
BRANCH  10  16
ATOM     16  N   UNL d   1       0.198  -1.966   2.204  0.00  0.00    -0.233 N 
ATOM     17  H   UNL d   1       0.979  -2.590   2.349  0.00  0.00     0.174 HD
ATOM     18  H   UNL d   1      -0.604  -2.112   2.799  0.00  0.00     0.174 HD
ENDBRANCH  10  16
ENDBRANCH   7   8
ENDBRANCH   2   7
BRANCH   1  19
ATOM     19  N   UNL d   1       3.589  -0.186  -2.205  0.00  0.00    -0.114 N 
ATOM     20  O   UNL d   1       3.424   0.854  -2.857  0.00  0.00    -0.532 OA
ATOM     21  O   UNL d   1       3.182  -1.309  -2.531  0.00  0.00    -0.532 OA
ENDBRANCH   1  19
BRANCH   4  22
ATOM     22  C   UNL d   1       7.636  -1.732   0.241  0.00  0.00     0.417 C 
ATOM     23  F   UNL d   1       7.798  -2.552  -0.833  0.00  0.00    -0.166 F 
ATOM     24  F   UNL d   1       8.781  -1.003   0.332  0.00  0.00    -0.166 F 
ATOM     25  F   UNL d   1       7.617  -2.542   1.334  0.00  0.00    -0.166 F 
ENDBRANCH   4  22
TORSDOF 5
