REMARK  2 active torsions:
REMARK  status: ('A' for Active; 'I' for Inactive)
REMARK    1  A    between atoms: N_2  and  C_1 
REMARK    2  A    between atoms: C_11  and  N_9 
ROOT
ATOM      1  N   UNL d   1      -0.013   2.570  -0.136  0.00  0.00    -0.296 N 
ATOM      2  HN  UNL d   1      -0.856   3.072  -0.414  1.00  0.00     0.187 HD
ATOM      3  N   UNL d   1       1.062   3.131   0.161  0.00  0.00    -0.297 N 
ATOM      4  HN  UNL d   1       1.913   2.631   0.416  1.00  0.00     0.187 HD
ENDROOT
BRANCH   1   5
ATOM      5  C   UNL d   1       0.068   1.177  -0.045  0.00  0.00     0.103 A 
ATOM      6  C   UNL d   1       1.032   0.327  -0.525  0.00  0.00     0.102 A 
ATOM      7  O   UNL d   1       0.667  -0.952  -0.224  0.00  0.00    -0.240 OA
ATOM      8  C   UNL d   1       2.298   0.480  -1.257  0.00  0.00     0.081 C 
ATOM      9  N   UNL d   1      -0.545  -0.948   0.447  0.00  0.00    -0.263 N 
ATOM     10  C   UNL d   1      -0.903   0.342   0.547  0.00  0.00     0.059 A 
ATOM     11  HN  UNL d   1      -1.059  -1.758   0.794  1.00  0.00     0.194 HD
ATOM     12  C   UNL d   1      -2.164   0.719   1.220  0.00  0.00     0.072 C 
ENDBRANCH   1   5
BRANCH   3  13
ATOM     13  C   UNL d   1       0.963   4.537   0.102  0.00  0.00     0.086 A 
ATOM     14  C   UNL d   1      -0.105   5.268   0.650  0.00  0.00     0.147 A 
ATOM     15  C   UNL d   1      -0.122   6.661   0.629  0.00  0.00     0.086 A 
ATOM     16  F   UNL d   1      -1.137   4.635   1.231  0.00  0.00    -0.204 F 
ATOM     17  C   UNL d   1       0.947   7.339   0.063  0.00  0.00     0.119 A 
ATOM     18  C   UNL d   1       2.024   6.649  -0.484  0.00  0.00     0.045 A 
ATOM     19  F   UNL d   1       0.949   8.677   0.053  0.00  0.00    -0.206 F 
ATOM     20  C   UNL d   1       2.030   5.251  -0.462  0.00  0.00     0.037 A 
ENDBRANCH   3  13
TORSDOF 2
