REMARK  6 active torsions:
REMARK  status: ('A' for Active; 'I' for Inactive)
REMARK    1  A    between atoms: N_2  and  S_1 
REMARK    2  A    between atoms: C_10  and  S_1 
REMARK       I    between atoms: N_5  and  C_4 
REMARK       I    between atoms: N_7  and  C_4 
REMARK    3  A    between atoms: C_6  and  N_11 
REMARK    4  A    between atoms: N_12  and  C_6 
REMARK    5  A    between atoms: N_11  and  N_7 
REMARK    6  A    between atoms: C_14  and  N_12 
ROOT
ATOM      1  N   UNL d   1       0.346  -0.108  -1.731  0.00  0.00    -0.255 N 
ATOM      2  HN  UNL d   1       0.440   0.647  -1.052  1.00  0.00     0.181 HD
ATOM      3  C   UNL d   1       1.029  -0.041  -2.828  0.00  0.00     0.180 C 
ATOM      4  N   UNL d   1       1.899   1.030  -3.037  0.00  0.00    -0.253 NA
ATOM      5  N   UNL d   1       1.088  -0.944  -3.872  0.00  0.00    -0.290 N 
ATOM      6  C   UNL d   1       3.052   1.135  -2.121  0.00  0.00     0.098 C 
ATOM      7  C   UNL d   1       1.312   2.377  -3.194  0.00  0.00     0.098 C 
ATOM      8  C   UNL d   1       2.393   3.325  -2.699  0.00  0.00     0.016 C 
ATOM      9  C   UNL d   1       2.988   2.543  -1.548  0.00  0.00     0.016 C 
ATOM     10  H   UNL d   1       0.370  -1.677  -3.907  0.00  0.00     0.183 HD
ENDROOT
BRANCH   1  11
ATOM     11  S   UNL d   1      -0.651  -1.339  -1.390  0.00  0.00     0.265 S 
ATOM     12  O   UNL d   1      -0.746  -2.255  -2.515  0.00  0.00    -0.200 OA
ATOM     13  O   UNL d   1      -1.855  -0.785  -0.804  0.00  0.00    -0.200 OA
BRANCH  11  14
ATOM     14  C   UNL d   1       0.153  -2.250  -0.080  0.00  0.00     0.079 A 
ATOM     15  C   UNL d   1       1.504  -2.045   0.211  0.00  0.00     0.025 A 
ATOM     16  C   UNL d   1       2.097  -2.732   1.271  0.00  0.00     0.002 A 
ATOM     17  C   UNL d   1       1.343  -3.624   2.032  0.00  0.00     0.000 A 
ATOM     18  C   UNL d   1      -0.005  -3.835   1.736  0.00  0.00     0.002 A 
ATOM     19  C   UNL d   1      -0.606  -3.144   0.681  0.00  0.00     0.025 A 
ENDBRANCH  11  14
ENDBRANCH   1  11
BRANCH   5  20
ATOM     20  N   UNL d   1       1.502  -0.434  -5.124  0.00  0.00    -0.178 NA
ATOM     21  H   UNL d   1       1.849   0.515  -4.997  0.00  0.00     0.155 HD
BRANCH  20  22
ATOM     22  C   UNL d   1       2.313  -1.187  -5.925  0.00  0.00     0.169 C 
ATOM     23  S   UNL d   1       2.775  -2.774  -5.627  0.00  0.00    -0.045 SA
BRANCH  22  24
ATOM     24  N   UNL d   1       2.790  -0.619  -7.074  0.00  0.00    -0.337 N 
ATOM     25  H   UNL d   1       3.437  -1.247  -7.541  0.00  0.00     0.168 HD
BRANCH  24  26
ATOM     26  C   UNL d   1       2.508   0.576  -7.776  0.00  0.00     0.036 A 
ATOM     27  C   UNL d   1       3.218   0.765  -8.970  0.00  0.00     0.071 A 
ATOM     28  C   UNL d   1       2.995   1.891  -9.759  0.00  0.00     0.118 A 
ATOM     29  F   UNL d   1       3.670   2.033 -10.908  0.00  0.00    -0.206 F 
ATOM     30  C   UNL d   1       2.081   2.861  -9.380  0.00  0.00     0.042 A 
ATOM     31  C   UNL d   1       1.367   2.688  -8.198  0.00  0.00     0.005 A 
ATOM     32  C   UNL d   1       1.568   1.544  -7.409  0.00  0.00     0.029 A 
ENDBRANCH  24  26
ENDBRANCH  22  24
ENDBRANCH  20  22
ENDBRANCH   5  20
TORSDOF 6
