REMARK  3 active torsions:
REMARK  status: ('A' for Active; 'I' for Inactive)
REMARK    1  A    between atoms: C_3  and  N_1 
REMARK    2  A    between atoms: S_9  and  C_6 
REMARK    3  A    between atoms: C_11  and  S_9 
ROOT
ATOM      1  N   UNL d   1       0.005   0.880  -0.122  0.00  0.00    -0.248 N 
ATOM      2  C   UNL d   1      -1.080   0.134   0.256  0.00  0.00     0.232 C 
ATOM      3  C   UNL d   1       1.108   0.097  -0.368  0.00  0.00     0.246 C 
ATOM      4  C   UNL d   1       0.691  -1.352  -0.348  0.00  0.00     0.157 C 
ATOM      5  C   UNL d   1      -0.750  -1.323   0.130  0.00  0.00     0.129 C 
ATOM      6  O   UNL d   1      -2.176   0.532   0.628  0.00  0.00    -0.273 OA
ATOM      7  O   UNL d   1       2.271   0.464  -0.481  0.00  0.00    -0.271 OA
ENDROOT
BRANCH   1   8
ATOM      8  C   UNL d   1       0.038   2.297  -0.145  0.00  0.00     0.087 A 
ATOM      9  C   UNL d   1       0.749   2.979  -1.147  0.00  0.00     0.185 A 
ATOM     10  C   UNL d   1       0.779   4.368  -1.185  0.00  0.00     0.195 A 
ATOM     11  F   UNL d   1       1.324   2.298  -2.151  0.00  0.00    -0.200 F 
ATOM     12  F   UNL d   1       1.428   4.999  -2.174  0.00  0.00    -0.199 F 
ATOM     13  C   UNL d   1       0.111   5.100  -0.215  0.00  0.00     0.158 A 
ATOM     14  C   UNL d   1      -0.608   4.454   0.785  0.00  0.00     0.048 A 
ATOM     15  F   UNL d   1       0.137   6.439  -0.242  0.00  0.00    -0.203 F 
ATOM     16  C   UNL d   1      -0.658   3.056   0.811  0.00  0.00     0.036 A 
ENDBRANCH   1   8
BRANCH   4  17
ATOM     17  S   UNL d   1       0.876  -2.047  -2.022  0.00  0.00    -0.078 SA
BRANCH  17  18
ATOM     18  C   UNL d   1       0.725  -3.753  -1.627  0.00  0.00     0.182 C 
ATOM     19  O   UNL d   1       0.401  -4.128  -0.506  0.00  0.00    -0.286 OA
ATOM     20  C   UNL d   1       0.945  -4.689  -2.781  0.00  0.00     0.104 C 
ENDBRANCH  17  18
ENDBRANCH   4  17
TORSDOF 3
