REMARK  1 active torsions:
REMARK  status: ('A' for Active; 'I' for Inactive)
REMARK    1  A    between atoms: C_18  and  C_15 
ROOT
ATOM      1  C   UNL d   1       0.951   0.504   0.003  0.00  0.00     0.098 A 
ATOM      2  C   UNL d   1      -0.472   0.463   0.018  0.00  0.00     0.025 A 
ATOM      3  C   UNL d   1       1.755  -0.709   0.003  0.00  0.00     0.086 A 
ATOM      4  N   UNL d   1       1.784   1.555  -0.017  0.00  0.00    -0.239 N 
ATOM      5  HN  UNL d   1       1.528   2.542  -0.023  1.00  0.00     0.197 HD
ATOM      6  O   UNL d   1       3.063   1.024  -0.027  0.00  0.00    -0.156 OA
ATOM      7  N   UNL d   1       3.046  -0.360  -0.016  0.00  0.00    -0.240 N 
ATOM      8  HN  UNL d   1       3.852  -0.985  -0.022  1.00  0.00     0.197 HD
ATOM      9  N   UNL d   1      -3.185   0.209   0.045  0.00  0.00    -0.300 N 
ATOM     10  HN  UNL d   1      -4.198   0.096   0.063  1.00  0.00     0.187 HD
ATOM     11  N   UNL d   1      -2.372  -0.926   0.059  0.00  0.00    -0.299 N 
ATOM     12  HN  UNL d   1      -2.804  -1.850   0.085  1.00  0.00     0.187 HD
ATOM     13  C   UNL d   1      -1.286   1.612   0.008  0.00  0.00     0.048 A 
ATOM     14  C   UNL d   1      -1.041  -0.828   0.040  0.00  0.00     0.060 A 
ATOM     15  C   UNL d   1      -2.660   1.454   0.009  0.00  0.00     0.059 A 
ATOM     16  C   UNL d   1       1.179  -1.988   0.019  0.00  0.00     0.036 A 
ATOM     17  C   UNL d   1      -0.234  -1.988   0.039  0.00  0.00     0.034 A 
ENDROOT
BRANCH  15  18
ATOM     18  C   UNL d   1      -3.613   2.578  -0.031  0.00  0.00    -0.008 A 
ATOM     19  C   UNL d   1      -3.310   3.782  -0.696  0.00  0.00     0.014 A 
ATOM     20  C   UNL d   1      -4.217   4.846  -0.726  0.00  0.00     0.001 A 
ATOM     21  C   UNL d   1      -5.450   4.729  -0.093  0.00  0.00     0.000 A 
ATOM     22  C   UNL d   1      -5.779   3.547   0.564  0.00  0.00     0.001 A 
ATOM     23  C   UNL d   1      -4.871   2.484   0.592  0.00  0.00     0.014 A 
ENDBRANCH  15  18
TORSDOF 1
