REMARK  3 active torsions:
REMARK  status: ('A' for Active; 'I' for Inactive)
REMARK    1  A    between atoms: C_2  and  N_1 
REMARK    2  A    between atoms: C_6  and  C_3 
REMARK    3  A    between atoms: O_10  and  C_8 
ROOT
ATOM      1  C   UNL d   1      -1.805  -0.123  -0.011  0.00  0.00    -0.032 A 
ATOM      2  C   UNL d   1      -1.457  -0.968  -1.075  0.00  0.00     0.048 A 
ATOM      3  C   UNL d   1      -2.194  -0.949  -2.260  0.00  0.00     0.069 A 
ATOM      4  C   UNL d   1      -3.639   0.756  -1.313  0.00  0.00     0.004 A 
ATOM      5  C   UNL d   1      -2.898   0.738  -0.132  0.00  0.00     0.011 A 
ATOM      6  C   UNL d   1      -3.285  -0.084  -2.370  0.00  0.00     0.037 A 
ENDROOT
BRANCH   1   7
ATOM      7  C   UNL d   1      -1.006  -0.148   1.216  0.00  0.00     0.042 C 
ATOM      8  C   UNL d   1       0.091   0.611   1.385  0.00  0.00     0.077 C 
ATOM      9  C   UNL d   1       0.659   1.637   0.461  0.00  0.00     0.075 C 
BRANCH   8  10
ATOM     10  N   UNL d   1       0.849   0.401   2.617  0.00  0.00    -0.120 N 
ATOM     11  O   UNL d   1       0.235   0.001   3.618  0.00  0.00    -0.532 OA
ATOM     12  O   UNL d   1       2.062   0.632   2.579  0.00  0.00    -0.532 OA
ENDBRANCH   8  10
ENDBRANCH   1   7
BRANCH   3  13
ATOM     13  O   UNL d   1      -1.952  -1.712  -3.369  0.00  0.00    -0.356 OA
ATOM     14  C   UNL d   1      -0.849  -2.609  -3.307  0.00  0.00     0.210 C 
ENDBRANCH   3  13
TORSDOF 3
