REMARK  2 active torsions:
REMARK  status: ('A' for Active; 'I' for Inactive)
REMARK    1  A    between atoms: C_2  and  S_1 
REMARK    2  A    between atoms: C_3  and  S_1 
ROOT
ATOM      1  C   UNL d   1       0.452   1.062   1.393  0.00  0.00     0.065 A 
ATOM      2  C   UNL d   1      -0.106   0.514   2.553  0.00  0.00     0.025 A 
ATOM      3  C   UNL d   1       0.677   2.440   1.291  0.00  0.00     0.025 A 
ATOM      4  C   UNL d   1      -0.203   2.727   3.524  0.00  0.00     0.034 A 
ATOM      5  C   UNL d   1       0.340   3.273   2.360  0.00  0.00     0.025 A 
ATOM      6  C   UNL d   1      -0.433   1.354   3.622  0.00  0.00     0.025 A 
ATOM      7 CL   UNL d   1      -0.568   3.752   4.856  0.00  0.00    -0.084 Cl
ENDROOT
BRANCH   1   8
ATOM      8  S   UNL d   1       1.004  -0.008   0.076  0.00  0.00     0.236 S 
ATOM      9  O   UNL d   1       2.401   0.321  -0.146  0.00  0.00    -0.217 OA
ATOM     10  O   UNL d   1       0.638  -1.367   0.448  0.00  0.00    -0.217 OA
BRANCH   8  11
ATOM     11  C   UNL d   1       0.033   0.485  -1.352  0.00  0.00     0.478 C 
ATOM     12  F   UNL d   1      -1.307   0.327  -1.163  0.00  0.00    -0.197 F 
ATOM     13  F   UNL d   1       0.216   1.795  -1.690  0.00  0.00    -0.197 F 
ENDBRANCH   8  11
ENDBRANCH   1   8
TORSDOF 2
