REMARK  9 active torsions:
REMARK  status: ('A' for Active; 'I' for Inactive)
REMARK    1  A    between atoms: C_7  and  N_1 
REMARK    2  A    between atoms: C_2  and  C_8 
REMARK       I    between atoms: C_3  and  N_5 
REMARK    3  A    between atoms: C_10  and  C_3 
REMARK    4  A    between atoms: C_4  and  C_12 
REMARK       I    between atoms: N_6  and  C_4 
REMARK    5  A    between atoms: N_5  and  N_6 
REMARK    6  A    between atoms: O_13  and  C_10 
REMARK    7  A    between atoms: C_26  and  O_13 
REMARK    8  A    between atoms: O_23  and  C_28 
REMARK    9  A    between atoms: C_27  and  O_23 
ROOT
ATOM      1  C   UNL d   1      -6.000  -4.788   3.123  0.00  0.00     0.218 C 
ATOM      2  C   UNL d   1      -5.545  -4.864   4.578  0.00  0.00     0.050 C 
ENDROOT
BRANCH   1   3
ATOM      3  C   UNL d   1      -5.160  -3.741   2.373  0.00  0.00     0.265 C 
ATOM      4  N   UNL d   1      -3.822  -4.024   2.201  0.00  0.00    -0.265 N 
ATOM      5  H   UNL d   1      -3.425  -4.954   2.341  0.00  0.00     0.190 HD
ATOM      6  O   UNL d   1      -5.651  -2.686   1.960  0.00  0.00    -0.269 OA
BRANCH   4   7
ATOM      7  N   UNL d   1      -3.084  -3.126   1.407  0.00  0.00    -0.263 N 
ATOM      8  C   UNL d   1      -1.736  -3.337   1.201  0.00  0.00     0.270 C 
ATOM      9  O   UNL d   1      -1.139  -4.288   1.698  0.00  0.00    -0.266 OA
ATOM     10  H   UNL d   1      -3.593  -2.293   1.118  0.00  0.00     0.190 HD
BRANCH   8  11
ATOM     11  C   UNL d   1      -1.012  -2.360   0.321  0.00  0.00     0.033 A 
ATOM     12  C   UNL d   1      -1.666  -1.393  -0.460  0.00  0.00     0.019 A 
ATOM     13  C   UNL d   1      -0.937  -0.547  -1.309  0.00  0.00     0.037 A 
ATOM     14  C   UNL d   1       0.457  -0.666  -1.384  0.00  0.00     0.102 A 
ATOM     15  C   UNL d   1       1.125  -1.620  -0.606  0.00  0.00     0.037 A 
ATOM     16  C   UNL d   1       0.388  -2.460   0.241  0.00  0.00     0.019 A 
BRANCH  14  17
ATOM     17  N   UNL d   1       1.220   0.201  -2.294  0.00  0.00    -0.116 N 
ATOM     18  O   UNL d   1       2.451   0.084  -2.306  0.00  0.00    -0.532 OA
ATOM     19  O   UNL d   1       0.579   0.998  -2.998  0.00  0.00    -0.532 OA
ENDBRANCH  14  17
ENDBRANCH   8  11
ENDBRANCH   4   7
ENDBRANCH   1   3
BRANCH   1  20
ATOM     20  O   UNL d   1      -5.921  -6.104   2.569  0.00  0.00    -0.337 OA
BRANCH  20  21
ATOM     21  C   UNL d   1      -6.872  -6.407   1.628  0.00  0.00     0.070 A 
ATOM     22  C   UNL d   1      -7.345  -5.505   0.674  0.00  0.00     0.039 A 
ATOM     23  C   UNL d   1      -8.296  -5.905  -0.269  0.00  0.00     0.040 A 
ATOM     24  C   UNL d   1      -8.820  -7.199  -0.238  0.00  0.00     0.076 A 
ATOM     25  C   UNL d   1      -8.312  -8.117   0.682  0.00  0.00     0.040 A 
ATOM     26  C   UNL d   1      -7.336  -7.724   1.607  0.00  0.00     0.039 A 
BRANCH  24  27
ATOM     27  O   UNL d   1      -9.777  -7.665  -1.113  0.00  0.00    -0.311 OA
BRANCH  27  28
ATOM     28  C   UNL d   1     -10.731  -6.799  -1.599  0.00  0.00     0.076 A 
ATOM     29  C   UNL d   1     -11.145  -7.003  -2.917  0.00  0.00     0.038 A 
ATOM     30  C   UNL d   1     -12.112  -6.171  -3.490  0.00  0.00     0.019 A 
ATOM     31  C   UNL d   1     -12.679  -5.123  -2.749  0.00  0.00     0.048 A 
ATOM     32  C   UNL d   1     -12.281  -4.947  -1.415  0.00  0.00     0.019 A 
ATOM     33  C   UNL d   1     -11.333  -5.795  -0.836  0.00  0.00     0.038 A 
BRANCH  31  34
ATOM     34  C   UNL d   1     -13.705  -4.196  -3.353  0.00  0.00     0.417 C 
ATOM     35  F   UNL d   1     -14.035  -4.505  -4.638  0.00  0.00    -0.166 F 
ATOM     36  F   UNL d   1     -14.876  -4.190  -2.658  0.00  0.00    -0.166 F 
ATOM     37  F   UNL d   1     -13.281  -2.901  -3.380  0.00  0.00    -0.166 F 
ENDBRANCH  31  34
ENDBRANCH  27  28
ENDBRANCH  24  27
ENDBRANCH  20  21
ENDBRANCH   1  20
TORSDOF 9
