REMARK  6 active torsions:
REMARK  status: ('A' for Active; 'I' for Inactive)
REMARK    1  A    between atoms: N_9  and  C_2 
REMARK    2  A    between atoms: C_5  and  O_15 
REMARK    3  A    between atoms: C_16  and  N_9 
REMARK    4  A    between atoms: O_21  and  C_10 
REMARK    5  A    between atoms: O_22  and  C_11 
REMARK    6  A    between atoms: O_15  and  C_20 
ROOT
ATOM      1  C   UNL d   1       0.181   0.705   0.185  0.00  0.00     0.038 A 
ATOM      2  C   UNL d   1      -1.104   1.297   0.217  0.00  0.00     0.119 A 
ATOM      3  C   UNL d   1       0.221  -0.666  -0.073  0.00  0.00     0.050 A 
ATOM      4  C   UNL d   1       1.397   1.409   0.362  0.00  0.00     0.057 A 
ATOM      5  N   UNL d   1      -2.223   0.565   0.088  0.00  0.00    -0.338 N 
ATOM      6  HN  UNL d   1      -3.150   0.987   0.143  1.00  0.00     0.168 HD
ATOM      7  C   UNL d   1       1.467  -1.274  -0.223  0.00  0.00     0.070 A 
ATOM      8  C   UNL d   1       2.645   0.799   0.194  0.00  0.00     0.102 A 
ATOM      9  C   UNL d   1       2.673  -0.560  -0.110  0.00  0.00     0.103 A 
ATOM     10  N   UNL d   1      -0.893  -1.395  -0.216  0.00  0.00    -0.351 N 
ATOM     11  HN  UNL d   1      -0.854  -2.399  -0.392  1.00  0.00     0.166 HD
ATOM     12  C   UNL d   1      -2.058  -0.748  -0.116  0.00  0.00     0.182 A 
ENDROOT
BRANCH   2  13
ATOM     13  N   UNL d   1      -1.191   2.712   0.342  0.00  0.00    -0.342 N 
ATOM     14  H   UNL d   1      -0.544   3.131  -0.318  0.00  0.00     0.167 HD
BRANCH  13  15
ATOM     15  C   UNL d   1      -2.319   3.543   0.521  0.00  0.00     0.033 A 
ATOM     16  C   UNL d   1      -3.513   3.115   1.107  0.00  0.00     0.032 A 
ATOM     17  C   UNL d   1      -4.567   4.009   1.359  0.00  0.00     0.039 A 
ATOM     18  C   UNL d   1      -4.423   5.364   1.073  0.00  0.00     0.078 A 
ATOM     19  C   UNL d   1      -3.235   5.805   0.489  0.00  0.00     0.039 A 
ATOM     20  C   UNL d   1      -2.192   4.910   0.231  0.00  0.00     0.032 A 
BRANCH  18  21
ATOM     21  O   UNL d   1      -5.326   6.354   1.322  0.00  0.00    -0.255 OA
BRANCH  21  22
ATOM     22  C   UNL d   1      -6.462   6.041   2.109  0.00  0.00     0.530 C 
ATOM     23  F   UNL d   1      -6.135   5.357   3.227  0.00  0.00    -0.144 F 
ATOM     24  F   UNL d   1      -7.051   7.197   2.491  0.00  0.00    -0.144 F 
ATOM     25  F   UNL d   1      -7.356   5.330   1.390  0.00  0.00    -0.144 F 
ENDBRANCH  21  22
ENDBRANCH  18  21
ENDBRANCH  13  15
ENDBRANCH   2  13
BRANCH   8  26
ATOM     26  O   UNL d   1       3.667   1.691   0.334  0.00  0.00    -0.353 OA
ATOM     27  C   UNL d   1       4.995   1.302   0.033  0.00  0.00     0.210 C 
ENDBRANCH   8  26
BRANCH   9  28
ATOM     28  O   UNL d   1       3.814  -1.225  -0.468  0.00  0.00    -0.353 OA
ATOM     29  C   UNL d   1       4.505  -1.791   0.645  0.00  0.00     0.210 C 
ENDBRANCH   9  28
TORSDOF 6
