REMARK  7 active torsions:
REMARK  status: ('A' for Active; 'I' for Inactive)
REMARK    1  A    between atoms: C_2  and  S_1 
REMARK    2  A    between atoms: O_7  and  S_1 
REMARK    3  A    between atoms: C_5  and  C_20 
REMARK    4  A    between atoms: O_17  and  C_6 
REMARK    5  A    between atoms: C_18  and  O_7 
REMARK    6  A    between atoms: O_19  and  C_12 
REMARK    7  A    between atoms: C_20  and  C_18 
ROOT
ATOM      1  C   UNL d   1       3.402  -0.731   0.598  0.00  0.00     0.195 C 
ENDROOT
BRANCH   1   2
ATOM      2  O   UNL d   1       3.192  -0.456  -0.792  0.00  0.00    -0.272 OA
BRANCH   2   3
ATOM      3  S   UNL d   1       3.362  -1.670  -1.863  0.00  0.00     0.298 S 
ATOM      4  O   UNL d   1       4.751  -1.700  -2.281  0.00  0.00    -0.193 OA
ATOM      5  O   UNL d   1       2.727  -2.847  -1.309  0.00  0.00    -0.193 OA
BRANCH   3   6
ATOM      6  C   UNL d   1       2.411  -1.208  -3.305  0.00  0.00     0.086 A 
ATOM      7  C   UNL d   1       1.977  -2.228  -4.161  0.00  0.00     0.026 A 
ATOM      8  C   UNL d   1       1.172  -1.921  -5.260  0.00  0.00     0.008 A 
ATOM      9  C   UNL d   1       0.788  -0.598  -5.512  0.00  0.00    -0.062 A 
ATOM     10  C   UNL d   1       1.256   0.420  -4.666  0.00  0.00     0.008 A 
ATOM     11  C   UNL d   1      -0.133  -0.300  -6.662  0.00  0.00     0.048 C 
ATOM     12  C   UNL d   1       2.063   0.119  -3.558  0.00  0.00     0.026 A 
ENDBRANCH   3   6
ENDBRANCH   2   3
ENDBRANCH   1   2
BRANCH   1  13
ATOM     13  C   UNL d   1       4.886  -0.874   0.964  0.00  0.00     0.069 C 
BRANCH  13  14
ATOM     14  C   UNL d   1       5.134  -0.938   2.459  0.00  0.00    -0.020 A 
ATOM     15  C   UNL d   1       5.278  -2.081   3.260  0.00  0.00     0.074 A 
ATOM     16  C   UNL d   1       5.459  -1.922   4.647  0.00  0.00     0.040 A 
ATOM     17  C   UNL d   1       5.511  -0.673   5.265  0.00  0.00     0.039 A 
ATOM     18  C   UNL d   1       5.390   0.468   4.494  0.00  0.00     0.068 A 
ATOM     19  C   UNL d   1       5.203   0.327   3.111  0.00  0.00     0.046 A 
BRANCH  15  20
ATOM     20  O   UNL d   1       5.298  -3.412   2.972  0.00  0.00    -0.355 OA
ATOM     21  C   UNL d   1       5.138  -3.953   1.682  0.00  0.00     0.210 C 
ENDBRANCH  15  20
BRANCH  18  22
ATOM     22  O   UNL d   1       5.433   1.752   4.964  0.00  0.00    -0.356 OA
ATOM     23  C   UNL d   1       5.607   1.905   6.369  0.00  0.00     0.210 C 
ENDBRANCH  18  22
ENDBRANCH  13  14
ENDBRANCH   1  13
TORSDOF 7
