REMARK  5 active torsions:
REMARK  status: ('A' for Active; 'I' for Inactive)
REMARK    1  A    between atoms: C_13  and  N_3 
REMARK    2  A    between atoms: C_8  and  C_4 
REMARK    3  A    between atoms: O_12  and  C_8 
REMARK       I    between atoms: C_9  and  N_11 
REMARK    4  A    between atoms: C_10  and  C_9 
REMARK    5  A    between atoms: N_11  and  O_12 
ROOT
ATOM      1  N   UNL d   1      -0.241  -0.984   0.032  0.00  0.00    -0.272 N 
ATOM      2  HN  UNL d   1      -0.517  -1.962  -0.053  1.00  0.00     0.189 HD
ATOM      3  N   UNL d   1       1.005  -0.464   0.168  0.00  0.00    -0.196 N 
ATOM      4  C   UNL d   1      -1.024   0.117   0.036  0.00  0.00     0.150 C 
ATOM      5  N   UNL d   1       1.067   0.870   0.391  0.00  0.00    -0.281 N 
ATOM      6  HN  UNL d   1       1.880   1.439   0.627  1.00  0.00     0.189 HD
ATOM      7  C   UNL d   1      -0.201   1.256   0.225  0.00  0.00     0.058 C 
ATOM      8  C   UNL d   1      -0.505   2.704   0.187  0.00  0.00     0.072 C 
ENDROOT
BRANCH   4   9
ATOM      9  C   UNL d   1      -2.467   0.077  -0.203  0.00  0.00     0.335 C 
ATOM     10  O   UNL d   1      -3.211   1.041  -0.063  0.00  0.00    -0.255 OA
BRANCH   9  11
ATOM     11  O   UNL d   1      -2.881  -1.150  -0.685  0.00  0.00    -0.191 OA
BRANCH  11  12
ATOM     12  N   UNL d   1      -3.995  -1.047  -1.567  0.00  0.00    -0.219 N 
ATOM     13  C   UNL d   1      -3.638  -0.548  -2.808  0.00  0.00     0.299 C 
ATOM     14  O   UNL d   1      -2.586   0.065  -2.993  0.00  0.00    -0.263 OA
ATOM     15  H   UNL d   1      -4.718  -1.751  -1.481  0.00  0.00     0.198 HD
BRANCH  13  16
ATOM     16  C   UNL d   1      -4.565  -0.819  -3.880  0.00  0.00     0.144 A 
ATOM     17  O   UNL d   1      -5.558  -1.750  -3.731  0.00  0.00    -0.317 OA
ATOM     18  C   UNL d   1      -6.201  -1.828  -4.928  0.00  0.00     0.143 A 
ATOM     19  C   UNL d   1      -5.660  -0.943  -5.832  0.00  0.00     0.027 A 
ATOM     20  C   UNL d   1      -4.604  -0.294  -5.157  0.00  0.00     0.045 A 
ENDBRANCH  13  16
ENDBRANCH  11  12
ENDBRANCH   9  11
ENDBRANCH   4   9
BRANCH   3  21
ATOM     21  C   UNL d   1       2.188  -1.234   0.024  0.00  0.00     0.074 A 
ATOM     22  C   UNL d   1       2.132  -2.576  -0.370  0.00  0.00     0.033 A 
ATOM     23  C   UNL d   1       3.321  -3.286  -0.563  0.00  0.00     0.002 A 
ATOM     24  C   UNL d   1       4.555  -2.668  -0.351  0.00  0.00     0.000 A 
ATOM     25  C   UNL d   1       4.611  -1.336   0.055  0.00  0.00     0.002 A 
ATOM     26  C   UNL d   1       3.431  -0.618   0.238  0.00  0.00     0.033 A 
ENDBRANCH   3  21
TORSDOF 5
