REMARK  4 active torsions:
REMARK  status: ('A' for Active; 'I' for Inactive)
REMARK    1  A    between atoms: C_9  and  C_3 
REMARK    2  A    between atoms: C_8  and  C_7 
REMARK    3  A    between atoms: O_18  and  C_11 
REMARK    4  A    between atoms: C_21  and  O_18 
ROOT
ATOM      1  N   UNL d   1       1.595  -0.059   0.463  0.00  0.00    -0.331 N 
ATOM      2  HN  UNL d   1       2.540  -0.440   0.439  1.00  0.00     0.168 HD
ATOM      3  C   UNL d   1       1.220   1.179   0.424  0.00  0.00     0.162 A 
ATOM      4  C   UNL d   1       0.401  -0.731   0.544  0.00  0.00     0.111 A 
ATOM      5  O   UNL d   1      -0.097   1.445   0.575  0.00  0.00    -0.256 OA
ATOM      6  C   UNL d   1      -0.724   0.240   0.698  0.00  0.00     0.316 A 
ATOM      7  C   UNL d   1       0.303  -2.047   0.331  0.00  0.00     0.050 C 
ATOM      8  O   UNL d   1      -1.909   0.059   0.882  0.00  0.00    -0.257 OA
ENDROOT
BRANCH   7   9
ATOM      9  C   UNL d   1      -0.943  -2.775   0.082  0.00  0.00    -0.000 A 
ATOM     10  C   UNL d   1      -1.720  -3.449   1.036  0.00  0.00     0.079 A 
ATOM     11  C   UNL d   1      -2.915  -4.063   0.626  0.00  0.00     0.037 A 
ATOM     12  C   UNL d   1      -3.325  -4.041  -0.708  0.00  0.00     0.003 A 
ATOM     13  C   UNL d   1      -2.551  -3.387  -1.657  0.00  0.00     0.001 A 
ATOM     14  C   UNL d   1      -1.371  -2.758  -1.263  0.00  0.00     0.014 A 
BRANCH  10  15
ATOM     15  O   UNL d   1      -1.499  -3.575   2.381  0.00  0.00    -0.351 OA
BRANCH  15  16
ATOM     16  C   UNL d   1      -0.155  -3.562   2.848  0.00  0.00     0.171 C 
ATOM     17  C   UNL d   1      -0.106  -4.316   4.165  0.00  0.00     0.034 C 
ENDBRANCH  15  16
ENDBRANCH  10  15
ENDBRANCH   7   9
BRANCH   3  18
ATOM     18  C   UNL d   1       2.080   2.344   0.163  0.00  0.00     0.015 A 
ATOM     19  C   UNL d   1       3.454   2.135  -0.024  0.00  0.00     0.017 A 
ATOM     20  C   UNL d   1       4.281   3.199  -0.392  0.00  0.00     0.025 A 
ATOM     21  C   UNL d   1       3.736   4.469  -0.572  0.00  0.00     0.034 A 
ATOM     22  C   UNL d   1       2.374   4.688  -0.372  0.00  0.00     0.025 A 
ATOM     23 CL   UNL d   1       4.748   5.769  -1.066  0.00  0.00    -0.084 Cl
ATOM     24  C   UNL d   1       1.543   3.626  -0.003  0.00  0.00     0.017 A 
ENDBRANCH   3  18
TORSDOF 4
