REMARK  3 active torsions:
REMARK  status: ('A' for Active; 'I' for Inactive)
REMARK    1  A    between atoms: C_4  and  N_1 
REMARK    2  A    between atoms: C_5  and  C_8 
REMARK    3  A    between atoms: C_6  and  C_7 
ROOT
ATOM      1  C   UNL d   1      -1.671  -1.988  -0.685  0.00  0.00     0.046 A 
ATOM      2  C   UNL d   1      -3.467  -2.856  -2.123  0.00  0.00     0.050 A 
ATOM      3  C   UNL d   1      -2.559  -4.252  -0.347  0.00  0.00     0.050 A 
ATOM      4  C   UNL d   1      -1.671  -3.215  -0.002  0.00  0.00     0.046 A 
ATOM      5  C   UNL d   1      -2.587  -1.831  -1.740  0.00  0.00     0.046 A 
ATOM      6  C   UNL d   1      -3.447  -4.063  -1.415  0.00  0.00     0.032 A 
ENDROOT
BRANCH   1   7
ATOM      7  N   UNL d   1      -0.749  -0.947  -0.372  0.00  0.00    -0.252 N 
ATOM      8  C   UNL d   1       0.441  -1.117   0.301  0.00  0.00     0.232 C 
ATOM      9  C   UNL d   1       1.120   0.219   0.424  0.00  0.00     0.117 C 
ATOM     10  O   UNL d   1       0.932  -2.139   0.758  0.00  0.00    -0.273 OA
ATOM     11  C   UNL d   1       0.371   1.100  -0.557  0.00  0.00     0.083 C 
ATOM     12  C   UNL d   1      -0.935   0.375  -0.713  0.00  0.00     0.235 C 
ATOM     13  C   UNL d   1       1.051   1.183  -1.918  0.00  0.00     0.020 C 
ATOM     14  O   UNL d   1      -1.953   0.932  -1.104  0.00  0.00    -0.272 OA
ENDBRANCH   1   7
BRANCH   3  15
ATOM     15  C   UNL d   1      -2.564  -5.561   0.409  0.00  0.00     0.417 C 
ATOM     16  F   UNL d   1      -1.687  -5.603   1.448  0.00  0.00    -0.166 F 
ATOM     17  F   UNL d   1      -3.787  -5.840   0.941  0.00  0.00    -0.166 F 
ATOM     18  F   UNL d   1      -2.255  -6.619  -0.390  0.00  0.00    -0.166 F 
ENDBRANCH   3  15
BRANCH   2  19
ATOM     19  C   UNL d   1      -4.401  -2.677  -3.298  0.00  0.00     0.417 C 
ATOM     20  F   UNL d   1      -4.329  -1.446  -3.875  0.00  0.00    -0.166 F 
ATOM     21  F   UNL d   1      -4.145  -3.570  -4.294  0.00  0.00    -0.166 F 
ATOM     22  F   UNL d   1      -5.706  -2.858  -2.958  0.00  0.00    -0.166 F 
ENDBRANCH   2  19
TORSDOF 3
