REMARK  3 active torsions:
REMARK  status: ('A' for Active; 'I' for Inactive)
REMARK    1  A    between atoms: C_2  and  S_1 
REMARK    2  A    between atoms: C_10  and  S_1 
REMARK    3  A    between atoms: N_4  and  C_3 
REMARK       I    between atoms: C_11  and  N_4 
ROOT
ATOM      1  C   UNL d   1       0.389  -0.819  -1.238  0.00  0.00     0.098 A 
ATOM      2  C   UNL d   1      -0.544  -0.111  -2.070  0.00  0.00     0.063 A 
ATOM      3  S   UNL d   1      -0.278  -2.459  -3.112  0.00  0.00    -0.110 SA
ATOM      4  C   UNL d   1       0.621  -2.101  -1.710  0.00  0.00     0.075 A 
ATOM      5  C   UNL d   1      -1.032  -0.929  -3.072  0.00  0.00     0.080 A 
ENDROOT
BRANCH   1   6
ATOM      6  S   UNL d   1       1.056  -0.305   0.288  0.00  0.00     0.209 S 
ATOM      7  O   UNL d   1       1.208  -1.543   1.037  0.00  0.00    -0.217 OA
ATOM      8  O   UNL d   1       0.174   0.743   0.766  0.00  0.00    -0.217 OA
BRANCH   6   9
ATOM      9  C   UNL d   1       2.681   0.339   0.046  0.00  0.00     0.064 A 
ATOM     10  C   UNL d   1       3.135   1.347   0.906  0.00  0.00     0.024 A 
ATOM     11  C   UNL d   1       4.441   1.822   0.785  0.00  0.00     0.002 A 
ATOM     12  C   UNL d   1       5.287   1.297  -0.193  0.00  0.00     0.000 A 
ATOM     13  C   UNL d   1       4.828   0.302  -1.057  0.00  0.00     0.002 A 
ATOM     14  C   UNL d   1       3.524  -0.181  -0.941  0.00  0.00     0.024 A 
ENDBRANCH   6   9
ENDBRANCH   1   6
BRANCH   2  15
ATOM     15  N   UNL d   1      -1.018   1.194  -1.973  0.00  0.00    -0.326 N 
ATOM     16  C   UNL d   1      -0.161   2.268  -1.811  0.00  0.00     0.218 C 
ATOM     17  O   UNL d   1       1.061   2.193  -1.769  0.00  0.00    -0.274 OA
ATOM     18  C   UNL d   1      -0.888   3.586  -1.740  0.00  0.00     0.117 C 
ATOM     19  H   UNL d   1      -1.903   1.393  -2.422  0.00  0.00     0.169 HD
ENDBRANCH   2  15
TORSDOF 3
