REMARK  8 active torsions:
REMARK  status: ('A' for Active; 'I' for Inactive)
REMARK    1  A    between atoms: C_2  and  C_1 
REMARK    2  A    between atoms: N_3  and  C_1 
REMARK    3  A    between atoms: C_4  and  C_1 
REMARK    4  A    between atoms: O_5  and  C_1 
REMARK       I    between atoms: C_6  and  N_3 
REMARK    5  A    between atoms: O_13  and  C_4 
REMARK    6  A    between atoms: C_12  and  O_5 
REMARK    7  A    between atoms: C_14  and  C_12 
REMARK    8  A    between atoms: C_16  and  O_13 
ROOT
ATOM      1  C   UNL d   1       0.988  -0.034  -0.129  0.00  0.00     0.327 C 
ENDROOT
BRANCH   1   2
ATOM      2  C   UNL d   1       0.529   1.314   0.527  0.00  0.00     0.448 C 
ATOM      3  F   UNL d   1      -0.074   2.132  -0.380  0.00  0.00    -0.166 F 
ATOM      4  F   UNL d   1      -0.333   1.170   1.559  0.00  0.00    -0.166 F 
ATOM      5  F   UNL d   1       1.588   2.023   1.003  0.00  0.00    -0.166 F 
ENDBRANCH   1   2
BRANCH   1   6
ATOM      6  N   UNL d   1       0.433  -0.264  -1.476  0.00  0.00    -0.314 N 
ATOM      7  C   UNL d   1      -0.923  -0.289  -1.688  0.00  0.00     0.216 C 
ATOM      8  O   UNL d   1      -1.738  -0.137  -0.791  0.00  0.00    -0.274 OA
ATOM      9  C   UNL d   1      -1.306  -0.530  -3.123  0.00  0.00     0.117 C 
ATOM     10  H   UNL d   1       1.002   0.071  -2.240  0.00  0.00     0.166 HD
ENDBRANCH   1   6
BRANCH   1  11
ATOM     11  C   UNL d   1       0.581  -1.153   0.873  0.00  0.00     0.325 C 
ATOM     12  O   UNL d   1      -0.073  -2.147   0.576  0.00  0.00    -0.259 OA
BRANCH  11  13
ATOM     13  O   UNL d   1       1.183  -0.982   2.088  0.00  0.00    -0.318 OA
BRANCH  13  14
ATOM     14  C   UNL d   1       0.884  -1.988   3.069  0.00  0.00     0.174 C 
ATOM     15  C   UNL d   1       1.741  -3.222   2.856  0.00  0.00     0.034 C 
ENDBRANCH  13  14
ENDBRANCH  11  13
ENDBRANCH   1  11
BRANCH   1  16
ATOM     16  O   UNL d   1       2.432  -0.050  -0.334  0.00  0.00    -0.341 OA
BRANCH  16  17
ATOM     17  C   UNL d   1       2.925  -1.302  -0.827  0.00  0.00     0.210 C 
BRANCH  17  18
ATOM     18  C   UNL d   1       4.428  -1.413  -0.791  0.00  0.00    -0.035 A 
ATOM     19  C   UNL d   1       4.995  -2.699  -0.832  0.00  0.00     0.009 A 
ATOM     20  C   UNL d   1       6.378  -2.875  -0.885  0.00  0.00     0.001 A 
ATOM     21  C   UNL d   1       7.214  -1.760  -0.905  0.00  0.00     0.000 A 
ATOM     22  C   UNL d   1       6.665  -0.478  -0.869  0.00  0.00     0.001 A 
ATOM     23  C   UNL d   1       5.279  -0.302  -0.816  0.00  0.00     0.009 A 
ENDBRANCH  17  18
ENDBRANCH  16  17
ENDBRANCH   1  16
TORSDOF 8
