REMARK  2 active torsions:
REMARK  status: ('A' for Active; 'I' for Inactive)
REMARK    1  A    between atoms: C_6  and  C_3 
REMARK       I    between atoms: N_11  and  C_6 
REMARK    2  A    between atoms: N_13  and  N_11 
ROOT
ATOM      1  C   UNL d   1      -0.795   0.139  -0.059  0.00  0.00     0.023 A 
ATOM      2  S   UNL d   1      -1.953   1.377   0.091  0.00  0.00    -0.083 SA
ATOM      3  C   UNL d   1      -3.263   0.277  -0.053  0.00  0.00     0.075 A 
ATOM      4  C   UNL d   1      -1.388  -1.103  -0.201  0.00  0.00    -0.038 A 
ATOM      5  C   UNL d   1      -2.808  -1.021  -0.202  0.00  0.00     0.033 A 
ATOM      6  C   UNL d   1       0.665   0.323  -0.020  0.00  0.00    -0.012 A 
ATOM      7  C   UNL d   1      -0.547  -2.332  -0.356  0.00  0.00     0.044 C 
ATOM      8  C   UNL d   1       1.454  -0.841   0.169  0.00  0.00    -0.046 A 
ATOM      9  C   UNL d   1       0.782  -2.185   0.406  0.00  0.00     0.044 C 
ATOM     10  C   UNL d   1       1.303   1.556  -0.198  0.00  0.00     0.013 A 
ATOM     11  C   UNL d   1       2.851  -0.744   0.204  0.00  0.00     0.008 A 
ATOM     12  C   UNL d   1       2.699   1.637  -0.181  0.00  0.00     0.001 A 
ATOM     13  C   UNL d   1       3.470   0.492   0.022  0.00  0.00     0.001 A 
ENDROOT
BRANCH   3  14
ATOM     14  C   UNL d   1      -4.657   0.697  -0.030  0.00  0.00     0.272 C 
ATOM     15  O   UNL d   1      -5.597  -0.084  -0.194  0.00  0.00    -0.266 OA
ATOM     16  N   UNL d   1      -4.894   2.054   0.191  0.00  0.00    -0.289 N 
ATOM     17  H   UNL d   1      -4.115   2.663   0.432  0.00  0.00     0.183 HD
BRANCH  16  18
ATOM     18  N   UNL d   1      -6.221   2.537   0.295  0.00  0.00    -0.247 NA
ATOM     19  H   UNL d   1      -6.828   1.710   0.395  0.00  0.00     0.143 HD
ATOM     20  H   UNL d   1      -6.484   2.919  -0.618  0.00  0.00     0.143 HD
ENDBRANCH  16  18
ENDBRANCH   3  14
TORSDOF 2
