REMARK  7 active torsions:
REMARK  status: ('A' for Active; 'I' for Inactive)
REMARK    1  A    between atoms: N_2  and  C_1 
REMARK    2  A    between atoms: C_5  and  C_1 
REMARK    3  A    between atoms: C_6  and  C_1 
REMARK    4  A    between atoms: C_12  and  C_5 
REMARK    5  A    between atoms: C_7  and  C_12 
REMARK    6  A    between atoms: O_16  and  C_7 
REMARK    7  A    between atoms: C_22  and  O_16 
ROOT
ATOM      1  C   UNL d   1       1.054   0.113  -0.254  0.00  0.00     0.274 C 
ATOM      2  C   UNL d   1       0.479   0.888  -1.404  0.00  0.00     0.107 C 
ATOM      3  N   UNL d   1       0.033   1.470  -2.302  0.00  0.00    -0.194 NA
ENDROOT
BRANCH   1   4
ATOM      4  N   UNL d   1       0.743   0.746   1.073  0.00  0.00     0.120 N 
ATOM      5  C   UNL d   1      -0.693   0.846   1.445  0.00  0.00     0.301 C 
ATOM      6  C   UNL d   1      -1.434   2.107   0.961  0.00  0.00     0.198 C 
ATOM      7  O   UNL d   1      -0.739   3.296   1.347  0.00  0.00    -0.388 OA
ATOM      8  C   UNL d   1       0.592   3.293   0.829  0.00  0.00     0.198 C 
ATOM      9  C   UNL d   1       1.373   2.067   1.324  0.00  0.00     0.301 C 
ENDBRANCH   1   4
BRANCH   1  10
ATOM     10  C   UNL d   1       0.437  -1.329  -0.352  0.00  0.00     0.072 C 
BRANCH  10  11
ATOM     11  C   UNL d   1       0.844  -2.305   0.761  0.00  0.00     0.115 C 
BRANCH  11  12
ATOM     12  C   UNL d   1       0.035  -3.573   0.685  0.00  0.00     0.258 C 
ATOM     13  O   UNL d   1      -0.836  -3.802  -0.141  0.00  0.00    -0.265 OA
BRANCH  12  14
ATOM     14  O   UNL d   1       0.370  -4.383   1.727  0.00  0.00    -0.322 OA
BRANCH  14  15
ATOM     15  C   UNL d   1      -0.562  -5.439   1.998  0.00  0.00     0.174 C 
ATOM     16  C   UNL d   1      -1.627  -4.892   2.931  0.00  0.00     0.034 C 
ENDBRANCH  14  15
ENDBRANCH  12  14
ENDBRANCH  11  12
ENDBRANCH  10  11
ENDBRANCH   1  10
BRANCH   1  17
ATOM     17  C   UNL d   1       2.588  -0.113  -0.470  0.00  0.00    -0.005 A 
ATOM     18  C   UNL d   1       3.461  -0.329   0.617  0.00  0.00     0.012 A 
ATOM     19  C   UNL d   1       4.806  -0.661   0.416  0.00  0.00     0.024 A 
ATOM     20  C   UNL d   1       5.299  -0.795  -0.877  0.00  0.00     0.034 A 
ATOM     21  C   UNL d   1       4.469  -0.580  -1.970  0.00  0.00     0.024 A 
ATOM     22 CL   UNL d   1       6.935  -1.263  -1.126  0.00  0.00    -0.084 Cl
ATOM     23  C   UNL d   1       3.127  -0.246  -1.771  0.00  0.00     0.012 A 
ENDBRANCH   1  17
TORSDOF 7
