REMARK  1 active torsions:
REMARK  status: ('A' for Active; 'I' for Inactive)
REMARK    1  A    between atoms: C_6  and  N_1 
ROOT
ATOM      1  N   UNL d   1       2.502   0.011   0.076  0.00  0.00    -0.252 N 
ATOM      2  C   UNL d   1       1.700  -1.124   0.041  0.00  0.00     0.236 C 
ATOM      3  C   UNL d   1       1.719   1.161   0.111  0.00  0.00     0.236 C 
ATOM      4  C   UNL d   1       0.328  -0.637  -0.319  0.00  0.00     0.092 C 
ATOM      5  C   UNL d   1       0.315   0.699   0.391  0.00  0.00     0.092 C 
ATOM      6  C   UNL d   1      -0.857   1.539  -0.077  0.00  0.00     0.015 C 
ATOM      7  O   UNL d   1       1.988  -2.297   0.214  0.00  0.00    -0.272 OA
ATOM      8  O   UNL d   1       2.036   2.332  -0.027  0.00  0.00    -0.272 OA
ATOM      9  C   UNL d   1      -0.897  -1.446   0.053  0.00  0.00     0.019 C 
ATOM     10  C   UNL d   1      -2.163   0.773   0.197  0.00  0.00     0.005 C 
ATOM     11  C   UNL d   1      -2.171  -0.671  -0.361  0.00  0.00    -0.018 C 
ATOM     12  C   UNL d   1      -2.351  -0.661  -1.885  0.00  0.00     0.010 C 
ENDROOT
BRANCH   1  13
ATOM     13  C   UNL d   1       3.925  -0.003   0.047  0.00  0.00     0.045 A 
ATOM     14  C   UNL d   1       4.628  -1.143  -0.377  0.00  0.00     0.031 A 
ATOM     15  C   UNL d   1       6.027  -1.155  -0.424  0.00  0.00     0.020 A 
ATOM     16  C   UNL d   1       6.747  -0.032  -0.034  0.00  0.00     0.006 A 
ATOM     17  C   UNL d   1       6.074   1.109   0.393  0.00  0.00     0.020 A 
ATOM     18  I   UNL d   1       8.822  -0.055  -0.088  0.00  0.00    -0.045 I 
ATOM     19  C   UNL d   1       4.673   1.122   0.426  0.00  0.00     0.031 A 
ENDBRANCH   1  13
TORSDOF 1
