REMARK  4 active torsions:
REMARK  status: ('A' for Active; 'I' for Inactive)
REMARK    1  A    between atoms: C_4  and  N_1 
REMARK    2  A    between atoms: C_5  and  C_3 
REMARK    3  A    between atoms: O_16  and  C_6 
REMARK    4  A    between atoms: O_17  and  C_7 
ROOT
ATOM      1  N   UNL d   1       1.018   0.139   0.153  0.00  0.00    -0.365 N 
ATOM      2  HN  UNL d   1       0.563  -0.699   0.515  1.00  0.00     0.165 HD
ATOM      3  C   UNL d   1       0.308   1.153  -0.220  0.00  0.00     0.099 C 
ENDROOT
BRANCH   1   4
ATOM      4  C   UNL d   1       2.420   0.191   0.058  0.00  0.00     0.032 A 
ATOM      5  C   UNL d   1       3.177   1.340   0.326  0.00  0.00     0.032 A 
ATOM      6  C   UNL d   1       4.578   1.309   0.287  0.00  0.00     0.039 A 
ATOM      7  C   UNL d   1       5.245   0.119   0.003  0.00  0.00     0.068 A 
ATOM      8  C   UNL d   1       4.499  -1.035  -0.241  0.00  0.00     0.039 A 
ATOM      9  C   UNL d   1       3.102  -0.995  -0.222  0.00  0.00     0.032 A 
BRANCH   7  10
ATOM     10  O   UNL d   1       6.600  -0.050  -0.007  0.00  0.00    -0.356 OA
ATOM     11  C   UNL d   1       7.372   1.111  -0.292  0.00  0.00     0.210 C 
ENDBRANCH   7  10
ENDBRANCH   1   4
BRANCH   3  12
ATOM     12  C   UNL d   1      -1.164   1.158  -0.091  0.00  0.00    -0.021 A 
ATOM     13  C   UNL d   1      -1.859   0.018   0.321  0.00  0.00     0.015 A 
ATOM     14  C   UNL d   1      -3.252   0.054   0.449  0.00  0.00     0.037 A 
ATOM     15  C   UNL d   1      -3.949   1.231   0.172  0.00  0.00     0.068 A 
ATOM     16  C   UNL d   1      -3.246   2.374  -0.217  0.00  0.00     0.037 A 
ATOM     17  C   UNL d   1      -1.857   2.341  -0.361  0.00  0.00     0.015 A 
BRANCH  15  18
ATOM     18  O   UNL d   1      -5.302   1.396   0.286  0.00  0.00    -0.356 OA
ATOM     19  C   UNL d   1      -6.086   0.223   0.107  0.00  0.00     0.210 C 
ENDBRANCH  15  18
ENDBRANCH   3  12
TORSDOF 4
