REMARK  3 active torsions:
REMARK  status: ('A' for Active; 'I' for Inactive)
REMARK    1  A    between atoms: O_3  and  C_1 
REMARK       I    between atoms: N_4  and  C_1 
REMARK    2  A    between atoms: C_2  and  C_8 
REMARK    3  A    between atoms: C_11  and  O_3 
ROOT
ATOM      1  C   UNL d   1      -3.888  -0.036   1.400  0.00  0.00    -0.035 A 
ATOM      2  C   UNL d   1      -3.163  -1.059   0.761  0.00  0.00     0.012 A 
ATOM      3  C   UNL d   1      -3.171   1.036   1.961  0.00  0.00     0.012 A 
ATOM      4  C   UNL d   1      -1.084   0.076   1.212  0.00  0.00     0.081 A 
ATOM      5  C   UNL d   1      -1.778   1.095   1.864  0.00  0.00     0.038 A 
ATOM      6  C   UNL d   1      -1.768  -1.001   0.657  0.00  0.00     0.038 A 
ENDROOT
BRANCH   4   7
ATOM      7  O   UNL d   1       0.306   0.278   1.060  0.00  0.00    -0.261 OA
BRANCH   7   8
ATOM      8  C   UNL d   1       1.232  -0.766   0.997  0.00  0.00     0.367 C 
ATOM      9  N   UNL d   1       2.521  -0.320   0.724  0.00  0.00    -0.336 N 
ATOM     10  C   UNL d   1       3.580  -1.292   0.517  0.00  0.00     0.154 C 
ATOM     11  C   UNL d   1       2.840   1.065   0.429  0.00  0.00     0.154 C 
ATOM     12  O   UNL d   1       0.949  -1.949   1.159  0.00  0.00    -0.238 OA
ENDBRANCH   7   8
ENDBRANCH   4   7
BRANCH   1  13
ATOM     13  C   UNL d   1      -5.405  -0.026   1.441  0.00  0.00     0.141 C 
ATOM     14  S   UNL d   1      -6.120  -1.517   2.207  0.00  0.00    -0.148 SA
ATOM     15  C   UNL d   1      -7.473  -1.731   1.024  0.00  0.00     0.085 C 
ATOM     16  C   UNL d   1      -6.935  -1.386  -0.349  0.00  0.00     0.085 C 
ATOM     17  S   UNL d   1      -6.120   0.224  -0.223  0.00  0.00    -0.148 SA
ENDBRANCH   1  13
TORSDOF 3
