REMARK  3 active torsions:
REMARK  status: ('A' for Active; 'I' for Inactive)
REMARK    1  A    between atoms: N_8  and  C_3 
REMARK    2  A    between atoms: C_15  and  C_7 
REMARK    3  A    between atoms: C_16  and  N_13 
ROOT
ATOM      1  C   UNL d   1       0.093  -1.448   0.542  0.00  0.00    -0.017 C 
ATOM      2  C   UNL d   1      -0.591  -1.063  -0.698  0.00  0.00     0.009 C 
ATOM      3  C   UNL d   1      -1.008   0.209  -0.494  0.00  0.00     0.060 C 
ATOM      4  C   UNL d   1       1.008  -2.426   0.663  0.00  0.00     0.020 C 
ATOM      5  C   UNL d   1      -0.263  -0.473   1.566  0.00  0.00    -0.049 C 
ATOM      6  C   UNL d   1      -0.829   0.559   0.911  0.00  0.00     0.039 C 
ATOM      7  C   UNL d   1       1.649  -3.165  -0.437  0.00  0.00    -0.054 C 
ATOM      8  C   UNL d   1      -1.000  -1.976  -1.749  0.00  0.00    -0.049 C 
ATOM      9  C   UNL d   1       1.047  -3.413  -1.619  0.00  0.00     0.008 C 
ATOM     10  C   UNL d   1      -0.275  -3.063  -2.079  0.00  0.00     0.008 C 
ATOM     11  C   UNL d   1      -0.068  -0.613   3.029  0.00  0.00     0.049 C 
ATOM     12  C   UNL d   1      -2.387  -1.800  -2.313  0.00  0.00     0.049 C 
ENDROOT
BRANCH   3  13
ATOM     13  N   UNL d   1      -1.687   1.083  -1.294  0.00  0.00    -0.300 N 
ATOM     14  N   UNL d   1      -1.071   1.391  -2.342  0.00  0.00    -0.300 N 
ATOM     15  HN  UNL d   1      -0.202   0.952  -2.645  1.00  0.00     0.187 HD
ATOM     16  HN  UNL d   1      -2.610   1.450  -1.061  1.00  0.00     0.187 HD
BRANCH  14  17
ATOM     17  C   UNL d   1      -1.726   2.417  -3.046  0.00  0.00     0.048 A 
ATOM     18  C   UNL d   1      -1.915   3.688  -2.485  0.00  0.00     0.031 A 
ATOM     19  C   UNL d   1      -2.496   4.718  -3.228  0.00  0.00     0.002 A 
ATOM     20  C   UNL d   1      -2.888   4.490  -4.546  0.00  0.00     0.000 A 
ATOM     21  C   UNL d   1      -2.697   3.236  -5.121  0.00  0.00     0.002 A 
ATOM     22  C   UNL d   1      -2.113   2.206  -4.375  0.00  0.00     0.031 A 
ENDBRANCH  14  17
ENDBRANCH   3  13
BRANCH   7  23
ATOM     23  C   UNL d   1       3.097  -3.646  -0.156  0.00  0.00     0.010 C 
ATOM     24  C   UNL d   1       3.873  -4.142  -1.394  0.00  0.00     0.015 C 
ATOM     25  C   UNL d   1       3.985  -2.584   0.524  0.00  0.00     0.015 C 
ENDBRANCH   7  23
TORSDOF 3
