REMARK  6 active torsions:
REMARK  status: ('A' for Active; 'I' for Inactive)
REMARK    1  A    between atoms: N_2  and  C_1 
REMARK    2  A    between atoms: N_4  and  C_3 
REMARK       I    between atoms: C_6  and  N_4 
REMARK    3  A    between atoms: C_7  and  C_6 
REMARK    4  A    between atoms: C_8  and  C_10 
REMARK    5  A    between atoms: O_16  and  C_8 
REMARK    6  A    between atoms: O_18  and  C_15 
ROOT
ATOM      1  C   UNL d   1       1.175  -0.159   0.712  0.00  0.00     0.132 A 
ATOM      2  C   UNL d   1       0.566  -1.268   0.098  0.00  0.00     0.068 A 
ATOM      3  C   UNL d   1       0.524   1.084   0.773  0.00  0.00     0.075 A 
ATOM      4  C   UNL d   1      -0.760  -1.126  -0.337  0.00  0.00     0.035 A 
ATOM      5  C   UNL d   1      -0.773   1.221   0.281  0.00  0.00     0.070 A 
ATOM      6  C   UNL d   1      -1.421   0.109  -0.255  0.00  0.00     0.039 A 
ENDROOT
BRANCH   2   7
ATOM      7  N   UNL d   1       1.173  -2.521  -0.164  0.00  0.00    -0.321 N 
ATOM      8  C   UNL d   1       2.513  -2.678  -0.456  0.00  0.00     0.246 C 
ATOM      9  O   UNL d   1       3.310  -1.764  -0.622  0.00  0.00    -0.268 OA
ATOM     10  H   UNL d   1       0.560  -3.301  -0.364  0.00  0.00     0.169 HD
BRANCH   8  11
ATOM     11  C   UNL d   1       2.905  -4.094  -0.635  0.00  0.00     0.081 C 
ATOM     12  C   UNL d   1       4.200  -4.379  -0.838  0.00  0.00     0.086 C 
BRANCH  12  13
ATOM     13  C   UNL d   1       4.607  -5.776  -0.978  0.00  0.00     0.165 C 
ATOM     14  O   UNL d   1       3.877  -6.749  -1.022  0.00  0.00    -0.647 OA
BRANCH  13  15
ATOM     15  O   UNL d   1       5.942  -5.871  -1.039  0.00  0.00    -0.773 OA
ATOM     16  H   UNL d   1       6.118  -6.832  -1.104  0.00  0.00     0.167 HD
ENDBRANCH  13  15
ENDBRANCH  12  13
ENDBRANCH   8  11
ENDBRANCH   2   7
BRANCH   1  17
ATOM     17  N   UNL d   1       2.384  -0.291   1.522  0.00  0.00    -0.113 N 
ATOM     18  O   UNL d   1       2.468  -1.286   2.259  0.00  0.00    -0.532 OA
ATOM     19  O   UNL d   1       3.189   0.653   1.508  0.00  0.00    -0.532 OA
ENDBRANCH   1  17
BRANCH   5  20
ATOM     20  O   UNL d   1      -1.291   2.480   0.387  0.00  0.00    -0.356 OA
ATOM     21  C   UNL d   1      -2.700   2.608   0.248  0.00  0.00     0.210 C 
ENDBRANCH   5  20
TORSDOF 6
