REMARK  4 active torsions:
REMARK  status: ('A' for Active; 'I' for Inactive)
REMARK    1  A    between atoms: C_2  and  N_1 
REMARK    2  A    between atoms: C_6  and  C_3 
REMARK    3  A    between atoms: C_14  and  N_4 
REMARK    4  A    between atoms: C_8  and  C_9 
ROOT
ATOM      1  C   UNL d   1      -3.019   0.025   0.821  0.00  0.00     0.042 A 
ATOM      2  C   UNL d   1      -3.297  -0.645   2.031  0.00  0.00     0.006 A 
ATOM      3  C   UNL d   1      -4.113   0.689   0.227  0.00  0.00     0.030 A 
ATOM      4  C   UNL d   1      -4.580  -0.617   2.618  0.00  0.00     0.015 A 
ATOM      5  C   UNL d   1      -5.384   0.733   0.819  0.00  0.00     0.002 A 
ATOM      6  C   UNL d   1      -5.616   0.087   2.021  0.00  0.00     0.001 A 
ENDROOT
BRANCH   2   7
ATOM      7  C   UNL d   1      -2.245  -1.280   2.853  0.00  0.00     0.102 C 
ATOM      8  N   UNL d   1      -2.545  -2.283   3.619  0.00  0.00    -0.365 N 
ATOM      9  HN  UNL d   1      -3.481  -2.684   3.562  1.00  0.00     0.165 HD
BRANCH   8  10
ATOM     10  C   UNL d   1      -1.630  -2.832   4.516  0.00  0.00     0.031 A 
ATOM     11  C   UNL d   1      -2.175  -3.446   5.644  0.00  0.00     0.030 A 
ATOM     12  C   UNL d   1      -1.364  -3.995   6.636  0.00  0.00     0.010 A 
ATOM     13  C   UNL d   1       0.038  -3.961   6.535  0.00  0.00    -0.051 A 
ATOM     14  C   UNL d   1       0.579  -3.365   5.383  0.00  0.00     0.010 A 
ATOM     15  C   UNL d   1      -0.242  -2.817   4.385  0.00  0.00     0.030 A 
BRANCH  13  16
ATOM     16  C   UNL d   1       0.899  -4.556   7.659  0.00  0.00    -0.024 C 
ATOM     17  C   UNL d   1       2.415  -4.512   7.368  0.00  0.00     0.019 C 
ATOM     18  C   UNL d   1       0.656  -3.768   8.966  0.00  0.00     0.019 C 
ATOM     19  C   UNL d   1       0.520  -6.036   7.882  0.00  0.00     0.019 C 
ENDBRANCH  13  16
ENDBRANCH   8  10
ENDBRANCH   2   7
BRANCH   1  20
ATOM     20  N   UNL d   1      -1.745   0.119   0.270  0.00  0.00    -0.377 N 
ATOM     21  C   UNL d   1      -1.409   1.219  -0.653  0.00  0.00     0.153 C 
ATOM     22  C   UNL d   1       0.085   1.568  -0.486  0.00  0.00     0.291 C 
ATOM     23  N   UNL d   1       0.987   0.416  -0.712  0.00  0.00     0.087 N 
ATOM     24  C   UNL d   1       0.564  -0.736   0.123  0.00  0.00     0.291 C 
ATOM     25  C   UNL d   1       2.362   0.803  -0.397  0.00  0.00     0.310 C 
ATOM     26  C   UNL d   1      -0.943  -1.089  -0.015  0.00  0.00     0.153 C 
ENDBRANCH   1  20
TORSDOF 4
