REMARK  2 active torsions:
REMARK  status: ('A' for Active; 'I' for Inactive)
REMARK    1  A    between atoms: N_8  and  C_1 
REMARK       I    between atoms: C_9  and  N_8 
REMARK    2  A    between atoms: C_15  and  C_9 
ROOT
ATOM      1  C   UNL d   1       2.260   0.522   0.007  0.00  0.00     0.155 A 
ATOM      2  C   UNL d   1      -0.210  -0.771  -0.141  0.00  0.00     0.089 A 
ATOM      3  S   UNL d   1       0.954   1.667   0.025  0.00  0.00    -0.010 SA
ATOM      4  C   UNL d   1      -0.458   0.636  -0.134  0.00  0.00     0.235 A 
ATOM      5  N   UNL d   1       2.229  -0.762  -0.026  0.00  0.00    -0.335 N 
ATOM      6  HN  UNL d   1       3.094  -1.304  -0.008  1.00  0.00     0.168 HD
ATOM      7  C   UNL d   1       1.001  -1.396  -0.086  0.00  0.00     0.056 A 
ATOM      8  S   UNL d   1      -1.485  -1.910  -0.231  0.00  0.00    -0.095 SA
ATOM      9  C   UNL d   1       0.917  -2.809  -0.117  0.00  0.00     0.038 A 
ATOM     10  C   UNL d   1      -0.391  -3.232  -0.196  0.00  0.00     0.053 A 
ATOM     11  O   UNL d   1      -1.562   1.163  -0.219  0.00  0.00    -0.279 OA
ENDROOT
BRANCH   1  12
ATOM     12  N   UNL d   1       3.460   1.204   0.051  0.00  0.00    -0.303 N 
ATOM     13  C   UNL d   1       4.720   0.627   0.008  0.00  0.00     0.257 C 
ATOM     14  O   UNL d   1       4.941  -0.562  -0.208  0.00  0.00    -0.267 OA
ATOM     15  H   UNL d   1       3.379   2.208   0.087  0.00  0.00     0.171 HD
BRANCH  13  16
ATOM     16  C   UNL d   1       5.894   1.530   0.184  0.00  0.00     0.032 A 
ATOM     17  C   UNL d   1       5.829   2.772   0.828  0.00  0.00     0.017 A 
ATOM     18  C   UNL d   1       6.994   3.530   0.999  0.00  0.00     0.001 A 
ATOM     19  C   UNL d   1       8.222   3.052   0.538  0.00  0.00     0.000 A 
ATOM     20  C   UNL d   1       8.294   1.818  -0.100  0.00  0.00     0.001 A 
ATOM     21  C   UNL d   1       7.136   1.062  -0.276  0.00  0.00     0.017 A 
ENDBRANCH  13  16
ENDBRANCH   1  12
TORSDOF 2
