REMARK  3 active torsions:
REMARK  status: ('A' for Active; 'I' for Inactive)
REMARK    1  A    between atoms: C_2  and  S_1 
REMARK    2  A    between atoms: C_8  and  S_1 
REMARK    3  A    between atoms: N_10  and  C_3 
ROOT
ATOM      1  S   UNL d   1       0.943  -0.017  -0.036  0.00  0.00     0.209 S 
ATOM      2  O   UNL d   1       0.524  -0.936   1.007  0.00  0.00    -0.217 OA
ATOM      3  O   UNL d   1       0.412   1.329  -0.128  0.00  0.00    -0.217 OA
ENDROOT
BRANCH   1   4
ATOM      4  C   UNL d   1       0.487  -0.769  -1.529  0.00  0.00     0.097 A 
ATOM      5  C   UNL d   1       0.384  -2.174  -1.753  0.00  0.00     0.054 A 
ATOM      6  C   UNL d   1       0.032  -2.468  -3.050  0.00  0.00     0.080 A 
ATOM      7  S   UNL d   1      -0.225  -1.058  -3.986  0.00  0.00    -0.110 SA
ATOM      8  C   UNL d   1       0.159  -0.046  -2.661  0.00  0.00     0.075 A 
BRANCH   5   9
ATOM      9  N   UNL d   1       0.591  -3.139  -0.829  0.00  0.00    -0.397 N 
ATOM     10  H   UNL d   1       0.488  -2.895   0.163  0.00  0.00     0.156 HD
ATOM     11  H   UNL d   1       0.282  -4.093  -1.003  0.00  0.00     0.156 HD
ENDBRANCH   5   9
ENDBRANCH   1   4
BRANCH   1  12
ATOM     12  C   UNL d   1       2.714   0.067  -0.023  0.00  0.00     0.064 A 
ATOM     13  C   UNL d   1       3.349   1.312   0.037  0.00  0.00     0.024 A 
ATOM     14  C   UNL d   1       4.741   1.372   0.125  0.00  0.00     0.002 A 
ATOM     15  C   UNL d   1       5.492   0.197   0.153  0.00  0.00     0.000 A 
ATOM     16  C   UNL d   1       4.856  -1.044   0.092  0.00  0.00     0.002 A 
ATOM     17  C   UNL d   1       3.465  -1.113   0.009  0.00  0.00     0.024 A 
ENDBRANCH   1  12
TORSDOF 3
