REMARK  5 active torsions:
REMARK  status: ('A' for Active; 'I' for Inactive)
REMARK    1  A    between atoms: C_9  and  C_1 
REMARK    2  A    between atoms: C_4  and  C_9 
REMARK    3  A    between atoms: O_13  and  C_7 
REMARK    4  A    between atoms: C_18  and  C_10 
REMARK    5  A    between atoms: O_16  and  C_18 
ROOT
ATOM      1  C   UNL d   1       1.056  -1.114  -0.033  0.00  0.00     0.087 A 
ATOM      2  N   UNL d   1      -0.288  -1.146  -0.048  0.00  0.00    -0.326 N 
ATOM      3  HN  UNL d   1      -0.814  -2.020  -0.042  1.00  0.00     0.169 HD
ATOM      4  N   UNL d   1       1.790   0.018  -0.061  0.00  0.00    -0.347 N 
ATOM      5  HN  UNL d   1       2.809  -0.014  -0.069  1.00  0.00     0.167 HD
ATOM      6  C   UNL d   1      -0.886   0.048  -0.071  0.00  0.00     0.143 A 
ATOM      7  C   UNL d   1      -0.252   1.260  -0.081  0.00  0.00     0.083 A 
ATOM      8  C   UNL d   1       1.123   1.198  -0.077  0.00  0.00     0.038 A 
ENDROOT
BRANCH   1   9
ATOM      9  C   UNL d   1       1.796  -2.425   0.105  0.00  0.00     0.118 C 
BRANCH   9  10
ATOM     10  C   UNL d   1       2.054  -3.157  -1.197  0.00  0.00    -0.008 A 
ATOM     11  C   UNL d   1       3.213  -2.908  -1.958  0.00  0.00     0.042 A 
ATOM     12 CL   UNL d   1       4.399  -1.739  -1.487  0.00  0.00    -0.084 Cl
ATOM     13  C   UNL d   1       3.473  -3.618  -3.138  0.00  0.00     0.024 A 
ATOM     14  C   UNL d   1       2.580  -4.583  -3.590  0.00  0.00     0.003 A 
ATOM     15  C   UNL d   1       1.417  -4.828  -2.869  0.00  0.00     0.024 A 
ATOM     16  C   UNL d   1       1.151  -4.120  -1.689  0.00  0.00     0.042 A 
ATOM     17 CL   UNL d   1      -0.323  -4.513  -0.870  0.00  0.00    -0.084 Cl
ENDBRANCH   9  10
ENDBRANCH   1   9
BRANCH   6  18
ATOM     18  O   UNL d   1      -2.242  -0.013  -0.072  0.00  0.00    -0.346 OA
ATOM     19  H   UNL d   1      -2.370  -0.979  -0.044  0.00  0.00     0.219 HD
ENDBRANCH   6  18
BRANCH   8  20
ATOM     20  C   UNL d   1       1.944   2.463  -0.079  0.00  0.00     0.224 C 
BRANCH  20  21
ATOM     21  O   UNL d   1       1.677   3.212   1.109  0.00  0.00    -0.390 OA
ATOM     22  C   UNL d   1       2.520   4.351   1.207  0.00  0.00     0.201 C 
ENDBRANCH  20  21
ENDBRANCH   8  20
TORSDOF 5
