REMARK  4 active torsions:
REMARK  status: ('A' for Active; 'I' for Inactive)
REMARK    1  A    between atoms: N_2  and  C_1 
REMARK    2  A    between atoms: N_3  and  C_1 
REMARK    3  A    between atoms: C_7  and  N_2 
REMARK    4  A    between atoms: C_9  and  N_3 
ROOT
ATOM      1  N   UNL d   1       0.558   0.509   1.156  0.00  0.00    -0.333 N 
ATOM      2  H   UNL d   1      -0.326   0.122   1.443  0.00  0.00     0.168 HD
ENDROOT
BRANCH   1   3
ATOM      3  C   UNL d   1       1.064  -0.108   0.049  0.00  0.00     0.172 C 
ATOM      4  S   UNL d   1       2.631  -0.137  -0.524  0.00  0.00    -0.041 SA
BRANCH   3   5
ATOM      5  N   UNL d   1       0.149  -0.776  -0.721  0.00  0.00    -0.359 N 
ATOM      6  H   UNL d   1       0.602  -1.217  -1.516  0.00  0.00     0.162 HD
BRANCH   5   7
ATOM      7  C   UNL d   1      -1.329  -0.889  -0.692  0.00  0.00     0.021 C 
ATOM      8  C   UNL d   1      -2.018   0.479  -0.537  0.00  0.00     0.037 C 
ATOM      9  C   UNL d   1      -1.772  -1.469  -2.052  0.00  0.00     0.037 C 
ATOM     10  C   UNL d   1      -1.785  -1.858   0.408  0.00  0.00     0.037 C 
ENDBRANCH   5   7
ENDBRANCH   3   5
ENDBRANCH   1   3
BRANCH   1  11
ATOM     11  C   UNL d   1       0.989   1.595   1.947  0.00  0.00     0.036 A 
ATOM     12  C   UNL d   1       0.074   2.040   2.923  0.00  0.00     0.056 A 
ATOM     13  C   UNL d   1       0.338   3.177   3.686  0.00  0.00     0.074 A 
ATOM     14 CL   UNL d   1      -0.840   3.723   4.817  0.00  0.00    -0.081 Cl
ATOM     15  C   UNL d   1       1.527   3.870   3.508  0.00  0.00     0.138 A 
ATOM     16  C   UNL d   1       2.455   3.432   2.570  0.00  0.00     0.046 A 
ATOM     17  F   UNL d   1       1.796   4.972   4.220  0.00  0.00    -0.204 F 
ATOM     18  C   UNL d   1       2.182   2.303   1.787  0.00  0.00     0.032 A 
ENDBRANCH   1  11
TORSDOF 4
