REMARK  6 active torsions:
REMARK  status: ('A' for Active; 'I' for Inactive)
REMARK       I    between atoms: N_2  and  C_1 
REMARK    1  A    between atoms: C_5  and  C_1 
REMARK    2  A    between atoms: C_3  and  N_2 
REMARK    3  A    between atoms: O_17  and  C_4 
REMARK    4  A    between atoms: S_8  and  C_15 
REMARK    5  A    between atoms: C_12  and  S_8 
REMARK    6  A    between atoms: C_15  and  C_16 
ROOT
ATOM      1  C   UNL d   1       0.429  -1.046  -0.942  0.00  0.00     0.032 A 
ATOM      2  C   UNL d   1       0.901  -2.365  -0.901  0.00  0.00     0.017 A 
ATOM      3  C   UNL d   1      -0.767  -0.781  -1.619  0.00  0.00     0.017 A 
ATOM      4  C   UNL d   1      -0.926  -3.117  -2.314  0.00  0.00    -0.049 A 
ATOM      5  C   UNL d   1      -1.439  -1.811  -2.289  0.00  0.00     0.009 A 
ATOM      6  C   UNL d   1       0.233  -3.390  -1.579  0.00  0.00     0.009 A 
ENDROOT
BRANCH   1   7
ATOM      7  C   UNL d   1       1.249   0.004  -0.250  0.00  0.00     0.256 C 
ATOM      8  N   UNL d   1       0.902   1.323  -0.483  0.00  0.00    -0.321 N 
ATOM      9  H   UNL d   1       0.106   1.543  -1.060  0.00  0.00     0.169 HD
ATOM     10  O   UNL d   1       2.148  -0.366   0.498  0.00  0.00    -0.267 OA
BRANCH   8  11
ATOM     11  C   UNL d   1       1.567   2.455   0.043  0.00  0.00     0.068 A 
ATOM     12  C   UNL d   1       0.858   3.661   0.106  0.00  0.00     0.092 A 
ATOM     13  C   UNL d   1       1.437   4.822   0.608  0.00  0.00     0.045 A 
ATOM     14  C   UNL d   1       2.757   4.794   1.065  0.00  0.00    -0.059 A 
ATOM     15  C   UNL d   1       3.484   3.597   0.985  0.00  0.00     0.009 A 
ATOM     16  C   UNL d   1       3.363   6.012   1.698  0.00  0.00     0.048 C 
ATOM     17  C   UNL d   1       2.892   2.437   0.478  0.00  0.00     0.033 A 
BRANCH  12  18
ATOM     18  O   UNL d   1      -0.469   3.707  -0.233  0.00  0.00    -0.358 OA
ATOM     19  H   UNL d   1      -0.870   2.937   0.208  0.00  0.00     0.217 HD
ENDBRANCH  12  18
ENDBRANCH   8  11
ENDBRANCH   1   7
BRANCH   4  20
ATOM     20  C   UNL d   1      -1.607  -4.210  -3.110  0.00  0.00     0.117 C 
BRANCH  20  21
ATOM     21  S   UNL d   1      -1.789  -3.732  -4.870  0.00  0.00    -0.125 SA
BRANCH  21  22
ATOM     22  C   UNL d   1      -2.751  -5.080  -5.523  0.00  0.00     0.001 A 
ATOM     23  C   UNL d   1      -3.856  -4.779  -6.331  0.00  0.00     0.020 A 
ATOM     24  C   UNL d   1      -4.584  -5.799  -6.950  0.00  0.00     0.025 A 
ATOM     25  C   UNL d   1      -4.204  -7.126  -6.766  0.00  0.00     0.034 A 
ATOM     26  C   UNL d   1      -3.110  -7.439  -5.961  0.00  0.00     0.025 A 
ATOM     27 CL   UNL d   1      -5.073  -8.382  -7.556  0.00  0.00    -0.084 Cl
ATOM     28  C   UNL d   1      -2.384  -6.417  -5.343  0.00  0.00     0.020 A 
ENDBRANCH  21  22
ENDBRANCH  20  21
ENDBRANCH   4  20
TORSDOF 6
