REMARK  4 active torsions:
REMARK  status: ('A' for Active; 'I' for Inactive)
REMARK    1  A    between atoms: N_2  and  C_1 
REMARK    2  A    between atoms: C_3  and  N_2 
REMARK    3  A    between atoms: C_6  and  C_15 
REMARK    4  A    between atoms: C_15  and  N_9 
ROOT
ATOM      1  C   UNL d   1       1.077  -0.121   0.048  0.00  0.00     0.172 C 
ATOM      2  S   UNL d   1       0.232   0.134   1.467  0.00  0.00    -0.041 SA
ATOM      3  N   UNL d   1       2.432  -0.266   0.130  0.00  0.00    -0.362 N 
ATOM      4  H   UNL d   1       2.779  -0.118   1.074  0.00  0.00     0.162 HD
ENDROOT
BRANCH   1   5
ATOM      5  N   UNL d   1       0.550  -0.259  -1.210  0.00  0.00    -0.331 N 
ATOM      6  H   UNL d   1       0.842  -1.105  -1.691  0.00  0.00     0.168 HD
BRANCH   5   7
ATOM      7  C   UNL d   1      -0.607   0.362  -1.726  0.00  0.00     0.073 A 
ATOM      8  C   UNL d   1      -1.349  -0.303  -2.709  0.00  0.00     0.145 A 
ATOM      9  C   UNL d   1      -2.466   0.286  -3.293  0.00  0.00     0.086 A 
ATOM     10  F   UNL d   1      -0.991  -1.539  -3.090  0.00  0.00    -0.204 F 
ATOM     11  C   UNL d   1      -2.820   1.571  -2.908  0.00  0.00     0.119 A 
ATOM     12  C   UNL d   1      -2.087   2.264  -1.952  0.00  0.00     0.044 A 
ATOM     13  F   UNL d   1      -3.879   2.160  -3.479  0.00  0.00    -0.206 F 
ATOM     14  C   UNL d   1      -0.979   1.661  -1.356  0.00  0.00     0.036 A 
ENDBRANCH   5   7
ENDBRANCH   1   5
BRANCH   3  15
ATOM     15  C   UNL d   1       3.347   0.106  -0.933  0.00  0.00     0.168 C 
BRANCH  15  16
ATOM     16  C   UNL d   1       4.736   0.029  -0.391  0.00  0.00     0.000 A 
ATOM     17  S   UNL d   1       5.426   1.385   0.402  0.00  0.00    -0.105 SA
ATOM     18  C   UNL d   1       6.863   0.529   0.754  0.00  0.00     0.050 A 
ATOM     19  C   UNL d   1       6.831  -0.757   0.263  0.00  0.00     0.008 A 
ATOM     20  C   UNL d   1       5.604  -1.046  -0.402  0.00  0.00     0.017 A 
ENDBRANCH  15  16
ENDBRANCH   3  15
TORSDOF 4
