REMARK  4 active torsions:
REMARK  status: ('A' for Active; 'I' for Inactive)
REMARK    1  A    between atoms: C_2  and  N_1 
REMARK    2  A    between atoms: C_6  and  N_1 
REMARK    3  A    between atoms: C_7  and  C_3 
REMARK    4  A    between atoms: C_9  and  C_6 
ROOT
ATOM      1  N   UNL d   1       3.152  -2.491   0.962  0.00  0.00    -0.195 NA
ATOM      2  C   UNL d   1       2.843  -1.443   0.563  0.00  0.00     0.084 C 
ATOM      3  C   UNL d   1       2.473  -0.089   0.058  0.00  0.00     0.201 C 
ENDROOT
BRANCH   3   4
ATOM      4  N   UNL d   1       1.068   0.298   0.309  0.00  0.00    -0.271 NA
ATOM      5  H   UNL d   1       0.446  -0.080  -0.419  0.00  0.00     0.129 HD
BRANCH   4   6
ATOM      6  C   UNL d   1       0.468   0.131   1.570  0.00  0.00     0.023 A 
ATOM      7  C   UNL d   1      -0.930  -0.091   1.688  0.00  0.00     0.030 A 
ATOM      8  C   UNL d   1      -1.535  -0.204   2.954  0.00  0.00     0.017 A 
ATOM      9  C   UNL d   1      -0.773  -0.065   4.110  0.00  0.00     0.001 A 
ATOM     10  C   UNL d   1       0.588   0.198   4.012  0.00  0.00     0.002 A 
ATOM     11  C   UNL d   1       1.196   0.309   2.757  0.00  0.00     0.024 A 
BRANCH   7  12
ATOM     12  C   UNL d   1      -1.780  -0.263   0.465  0.00  0.00     0.157 C 
ATOM     13  O   UNL d   1      -1.268  -0.638  -0.591  0.00  0.00    -0.293 OA
ATOM     14  C   UNL d   1      -3.259   0.011   0.561  0.00  0.00     0.097 C 
ENDBRANCH   7  12
ENDBRANCH   4   6
ENDBRANCH   3   4
BRANCH   3  15
ATOM     15  C   UNL d   1       2.741  -0.009  -1.446  0.00  0.00    -0.027 A 
ATOM     16  C   UNL d   1       2.067  -0.869  -2.336  0.00  0.00     0.010 A 
ATOM     17  C   UNL d   1       2.343  -0.844  -3.702  0.00  0.00     0.001 A 
ATOM     18  C   UNL d   1       3.293   0.040  -4.204  0.00  0.00     0.000 A 
ATOM     19  C   UNL d   1       3.962   0.906  -3.341  0.00  0.00     0.001 A 
ATOM     20  C   UNL d   1       3.688   0.886  -1.970  0.00  0.00     0.010 A 
ENDBRANCH   3  15
TORSDOF 4
