REMARK  7 active torsions:
REMARK  status: ('A' for Active; 'I' for Inactive)
REMARK    1  A    between atoms: N_4  and  C_1 
REMARK       I    between atoms: C_9  and  N_4 
REMARK    2  A    between atoms: C_7  and  C_5 
REMARK    3  A    between atoms: C_10  and  C_7 
REMARK    4  A    between atoms: C_16  and  C_9 
REMARK    5  A    between atoms: O_15  and  C_10 
REMARK    6  A    between atoms: C_13  and  C_16 
REMARK    7  A    between atoms: C_18  and  O_15 
ROOT
ATOM      1  C   UNL d   1       0.364  -1.259  -0.017  0.00  0.00     0.151 A 
ATOM      2  N   UNL d   1       1.506  -0.633   0.009  0.00  0.00    -0.339 N 
ATOM      3  HN  UNL d   1       2.418  -1.089   0.036  1.00  0.00     0.168 HD
ATOM      4  C   UNL d   1       1.310   0.734  -0.005  0.00  0.00     0.027 A 
ATOM      5  S   UNL d   1      -1.029  -0.279  -0.097  0.00  0.00    -0.064 SA
ATOM      6  C   UNL d   1      -0.021   1.117  -0.018  0.00  0.00     0.078 A 
ENDROOT
BRANCH   1   7
ATOM      7  N   UNL d   1       0.148  -2.610   0.013  0.00  0.00    -0.307 N 
ATOM      8  C   UNL d   1       1.176  -3.467   0.367  0.00  0.00     0.227 C 
ATOM      9  O   UNL d   1       2.300  -3.140   0.740  0.00  0.00    -0.273 OA
ATOM     10  H   UNL d   1      -0.796  -2.941  -0.090  0.00  0.00     0.171 HD
BRANCH   8  11
ATOM     11  C   UNL d   1       0.790  -4.934   0.338  0.00  0.00     0.130 C 
BRANCH  11  12
ATOM     12  C   UNL d   1       0.307  -5.349   1.697  0.00  0.00    -0.022 C 
ATOM     13  C   UNL d   1      -0.882  -5.921   1.939  0.00  0.00    -0.034 C 
ATOM     14  C   UNL d   1      -1.333  -6.336   3.303  0.00  0.00     0.036 C 
ENDBRANCH  11  12
ENDBRANCH   8  11
ENDBRANCH   1   7
BRANCH   4  15
ATOM     15  C   UNL d   1       2.529   1.596   0.021  0.00  0.00     0.168 C 
BRANCH  15  16
ATOM     16  C   UNL d   1       2.663   2.460  -1.207  0.00  0.00     0.264 C 
ATOM     17  O   UNL d   1       1.830   2.583  -2.100  0.00  0.00    -0.265 OA
BRANCH  16  18
ATOM     18  O   UNL d   1       3.888   3.055  -1.202  0.00  0.00    -0.322 OA
BRANCH  18  19
ATOM     19  C   UNL d   1       4.347   3.511  -2.482  0.00  0.00     0.174 C 
ATOM     20  C   UNL d   1       5.069   2.352  -3.146  0.00  0.00     0.034 C 
ENDBRANCH  18  19
ENDBRANCH  16  18
ENDBRANCH  15  16
ENDBRANCH   4  15
TORSDOF 7
