REMARK  3 active torsions:
REMARK  status: ('A' for Active; 'I' for Inactive)
REMARK    1  A    between atoms: C_3  and  C_1 
REMARK    2  A    between atoms: C_6  and  C_2 
REMARK    3  A    between atoms: O_9  and  C_3 
ROOT
ATOM      1  C   UNL d   1       0.959   0.831   1.296  0.00  0.00     0.120 C 
ATOM      2  C   UNL d   1       0.119   0.806   0.240  0.00  0.00     0.040 C 
ATOM      3  C   UNL d   1       0.491   1.023   2.626  0.00  0.00     0.105 C 
ATOM      4  N   UNL d   1       0.089   1.179   3.706  0.00  0.00    -0.191 NA
ENDROOT
BRANCH   1   5
ATOM      5  C   UNL d   1       2.432   0.682   1.140  0.00  0.00     0.303 C 
ATOM      6  O   UNL d   1       3.205   0.616   2.085  0.00  0.00    -0.258 OA
BRANCH   5   7
ATOM      7  O   UNL d   1       2.817   0.679  -0.166  0.00  0.00    -0.322 OA
ATOM      8  C   UNL d   1       4.236   0.620  -0.353  0.00  0.00     0.213 C 
ENDBRANCH   5   7
ENDBRANCH   1   5
BRANCH   2   9
ATOM      9  C   UNL d   1      -1.325   1.097   0.306  0.00  0.00    -0.029 A 
ATOM     10  C   UNL d   1      -2.323   0.107   0.374  0.00  0.00    -0.052 A 
ATOM     11  C   UNL d   1      -2.022  -1.364   0.446  0.00  0.00     0.049 C 
ATOM     12  C   UNL d   1      -3.674   0.501   0.331  0.00  0.00     0.007 A 
ATOM     13  C   UNL d   1      -4.031   1.848   0.281  0.00  0.00     0.001 A 
ATOM     14  C   UNL d   1      -3.044   2.825   0.269  0.00  0.00     0.001 A 
ATOM     15  C   UNL d   1      -1.700   2.452   0.274  0.00  0.00     0.012 A 
ENDBRANCH   2   9
TORSDOF 3
