REMARK  3 active torsions:
REMARK  status: ('A' for Active; 'I' for Inactive)
REMARK    1  A    between atoms: N_5  and  C_1 
REMARK    2  A    between atoms: C_9  and  C_4 
REMARK       I    between atoms: C_8  and  N_5 
REMARK    3  A    between atoms: C_13  and  C_8 
ROOT
ATOM      1  C   UNL d   1      -1.621   0.181  -0.014  0.00  0.00     0.152 A 
ATOM      2  N   UNL d   1      -1.467  -1.114  -0.001  0.00  0.00    -0.335 N 
ATOM      3  HN  UNL d   1      -2.231  -1.790  -0.001  1.00  0.00     0.168 HD
ATOM      4  C   UNL d   1      -0.124  -1.446   0.013  0.00  0.00     0.057 A 
ATOM      5  S   UNL d   1      -0.190   1.100  -0.078  0.00  0.00    -0.057 SA
ATOM      6  C   UNL d   1       0.740  -0.359  -0.016  0.00  0.00     0.010 A 
ATOM      7  C   UNL d   1       2.228  -0.289  -0.035  0.00  0.00     0.059 C 
ENDROOT
BRANCH   1   8
ATOM      8  N   UNL d   1      -2.786   0.905   0.014  0.00  0.00    -0.303 N 
ATOM      9  C   UNL d   1      -3.981   0.283   0.304  0.00  0.00     0.257 C 
ATOM     10  O   UNL d   1      -4.128  -0.901   0.610  0.00  0.00    -0.267 OA
ATOM     11  H   UNL d   1      -2.711   1.906  -0.063  0.00  0.00     0.171 HD
BRANCH   9  12
ATOM     12  C   UNL d   1      -5.207   1.130   0.297  0.00  0.00     0.032 A 
ATOM     13  C   UNL d   1      -5.366   2.236  -0.545  0.00  0.00     0.017 A 
ATOM     14  C   UNL d   1      -6.591   2.914  -0.574  0.00  0.00     0.001 A 
ATOM     15  C   UNL d   1      -7.652   2.495   0.231  0.00  0.00     0.000 A 
ATOM     16  C   UNL d   1      -7.493   1.403   1.081  0.00  0.00     0.001 A 
ATOM     17  C   UNL d   1      -6.276   0.724   1.113  0.00  0.00     0.017 A 
ENDBRANCH   9  12
ENDBRANCH   1   8
BRANCH   4  18
ATOM     18  C   UNL d   1       0.257  -2.859   0.019  0.00  0.00    -0.007 A 
ATOM     19  C   UNL d   1      -0.542  -3.782  -0.669  0.00  0.00     0.038 A 
ATOM     20  C   UNL d   1      -0.220  -5.145  -0.676  0.00  0.00     0.040 A 
ATOM     21 CL   UNL d   1      -1.254  -6.222  -1.546  0.00  0.00    -0.084 Cl
ATOM     22  C   UNL d   1       0.911  -5.615   0.009  0.00  0.00    -0.040 A 
ATOM     23  C   UNL d   1       1.698  -4.692   0.708  0.00  0.00     0.009 A 
ATOM     24  C   UNL d   1       1.284  -7.070   0.036  0.00  0.00     0.050 C 
ATOM     25  C   UNL d   1       1.366  -3.334   0.724  0.00  0.00     0.014 A 
ENDBRANCH   4  18
TORSDOF 3
