REMARK  4 active torsions:
REMARK  status: ('A' for Active; 'I' for Inactive)
REMARK    1  A    between atoms: N_4  and  C_1 
REMARK    2  A    between atoms: N_5  and  C_1 
REMARK    3  A    between atoms: N_2  and  N_4 
REMARK    4  A    between atoms: C_7  and  N_5 
ROOT
ATOM      1  C   UNL d   1       0.883   0.101  -0.150  0.00  0.00     0.191 C 
ATOM      2  S   UNL d   1       2.417  -0.195   0.456  0.00  0.00    -0.039 SA
ENDROOT
BRANCH   1   3
ATOM      3  N   UNL d   1       0.262   1.325  -0.177  0.00  0.00    -0.276 N 
ATOM      4  H   UNL d   1      -0.747   1.333  -0.185  0.00  0.00     0.189 HD
BRANCH   3   5
ATOM      5  N   UNL d   1       0.969   2.478  -0.271  0.00  0.00    -0.307 N 
ATOM      6  C   UNL d   1       0.368   3.623  -0.391  0.00  0.00     0.004 C 
ATOM      7  C   UNL d   1       1.277   4.835  -0.553  0.00  0.00     0.054 C 
ATOM      8  C   UNL d   1      -1.131   3.875  -0.384  0.00  0.00     0.054 C 
ATOM      9  C   UNL d   1       1.254   5.314  -2.000  0.00  0.00     0.006 C 
ATOM     10  C   UNL d   1       0.160   6.339  -2.295  0.00  0.00     0.000 C 
ATOM     11  C   UNL d   1      -1.204   6.088  -1.653  0.00  0.00     0.000 C 
ATOM     12  C   UNL d   1      -1.638   4.623  -1.618  0.00  0.00     0.006 C 
ATOM     13  HN  UNL d   1       1.988   2.446  -0.247  1.00  0.00     0.186 HD
ENDBRANCH   3   5
ENDBRANCH   1   3
BRANCH   1  14
ATOM     14  N   UNL d   1       0.167  -0.968  -0.628  0.00  0.00    -0.332 N 
ATOM     15  H   UNL d   1       0.583  -1.860  -0.375  0.00  0.00     0.168 HD
BRANCH  14  16
ATOM     16  C   UNL d   1      -0.866  -1.020  -1.591  0.00  0.00     0.037 A 
ATOM     17  C   UNL d   1      -1.282   0.072  -2.356  0.00  0.00     0.071 A 
ATOM     18  C   UNL d   1      -2.301  -0.077  -3.292  0.00  0.00     0.118 A 
ATOM     19  F   UNL d   1      -2.701   0.989  -3.998  0.00  0.00    -0.206 F 
ATOM     20  C   UNL d   1      -2.897  -1.308  -3.517  0.00  0.00     0.042 A 
ATOM     21  C   UNL d   1      -2.459  -2.416  -2.796  0.00  0.00     0.005 A 
ATOM     22  C   UNL d   1      -1.448  -2.271  -1.839  0.00  0.00     0.029 A 
ENDBRANCH  14  16
ENDBRANCH   1  14
TORSDOF 4
