REMARK  0 active torsions:
REMARK  status: ('A' for Active; 'I' for Inactive)
ROOT
ATOM      1  C   UNL d   1      -1.970  -0.660  -0.319  0.00  0.00     0.045 C 
ATOM      2  C   UNL d   1      -2.937  -0.775  -2.767  0.00  0.00     0.023 A 
ATOM      3  N   UNL d   1      -1.117   0.567  -0.541  0.00  0.00    -0.268 NA
ATOM      4  N   UNL d   1      -1.939  -0.137  -3.497  0.00  0.00    -0.348 N 
ATOM      5  C   UNL d   1      -2.954  -0.999  -1.440  0.00  0.00     0.025 C 
ATOM      6  C   UNL d   1      -0.990  -1.865   0.094  0.00  0.00     0.005 C 
ATOM      7  C   UNL d   1      -4.038  -1.269  -3.758  0.00  0.00     0.024 A 
ATOM      8  C   UNL d   1       0.014   0.282   0.336  0.00  0.00     0.018 A 
ATOM      9  C   UNL d   1      -2.187  -0.270  -4.871  0.00  0.00     0.042 A 
ATOM     10  C   UNL d   1       0.224  -1.082   0.534  0.00  0.00    -0.026 A 
ATOM     11  C   UNL d   1      -3.386  -0.955  -5.101  0.00  0.00    -0.017 A 
ATOM     12  C   UNL d   1      -0.417   0.772  -1.841  0.00  0.00     0.117 C 
ATOM     13  C   UNL d   1      -1.308   1.085  -3.025  0.00  0.00     0.144 C 
ATOM     14  C   UNL d   1      -2.913  -0.252   0.869  0.00  0.00     0.038 C 
ATOM     15  C   UNL d   1      -0.646  -2.801  -1.079  0.00  0.00     0.022 C 
ATOM     16  C   UNL d   1      -1.490  -2.734   1.263  0.00  0.00     0.022 C 
ATOM     17  C   UNL d   1      -5.315  -0.429  -3.598  0.00  0.00     0.027 C 
ATOM     18  C   UNL d   1      -4.341  -2.763  -3.628  0.00  0.00     0.027 C 
ATOM     19  C   UNL d   1       0.962   1.232   0.702  0.00  0.00     0.024 A 
ATOM     20  C   UNL d   1      -1.391   0.120  -5.938  0.00  0.00     0.030 A 
ATOM     21  C   UNL d   1       1.465  -1.529   0.967  0.00  0.00     0.010 A 
ATOM     22  C   UNL d   1      -3.830  -1.225  -6.388  0.00  0.00     0.010 A 
ATOM     23  C   UNL d   1       2.200   0.788   1.155  0.00  0.00     0.002 A 
ATOM     24  C   UNL d   1       2.461  -0.587   1.249  0.00  0.00     0.001 A 
ATOM     25  C   UNL d   1      -1.818  -0.154  -7.234  0.00  0.00     0.002 A 
ATOM     26  C   UNL d   1      -3.037  -0.818  -7.462  0.00  0.00     0.001 A 
ENDROOT
TORSDOF 0
