REMARK  1 active torsions:
REMARK  status: ('A' for Active; 'I' for Inactive)
REMARK    1  A    between atoms: C_13  and  C_4 
ROOT
ATOM      1  N   UNL d   1      -0.494   0.524   0.985  0.00  0.00    -0.317 N 
ATOM      2  HN  UNL d   1      -0.929   0.974   1.791  1.00  0.00     0.169 HD
ATOM      3  C   UNL d   1      -0.540  -0.744   0.631  0.00  0.00     0.208 A 
ATOM      4  C   UNL d   1       0.286   1.095   0.001  0.00  0.00     0.138 A 
ATOM      5  C   UNL d   1      -1.244  -1.753   1.353  0.00  0.00     0.153 A 
ATOM      6  N   UNL d   1       0.705   0.223  -0.929  0.00  0.00    -0.242 N 
ATOM      7  HN  UNL d   1       1.285   0.406  -1.748  1.00  0.00     0.196 HD
ATOM      8  O   UNL d   1       0.164  -0.991  -0.515  0.00  0.00    -0.215 OA
ATOM      9  N   UNL d   1      -2.015  -3.811   1.863  0.00  0.00    -0.272 N 
ATOM     10  HN  UNL d   1      -2.197  -4.814   1.833  1.00  0.00     0.194 HD
ATOM     11  O   UNL d   1      -1.250  -3.069   0.978  0.00  0.00    -0.234 OA
ATOM     12  C   UNL d   1      -2.012  -1.632   2.494  0.00  0.00     0.063 A 
ATOM     13  C   UNL d   1      -2.464  -2.934   2.761  0.00  0.00     0.117 A 
ENDROOT
BRANCH   4  14
ATOM     14  C   UNL d   1       0.617   2.517  -0.005  0.00  0.00     0.010 A 
ATOM     15  C   UNL d   1       0.166   3.353   1.026  0.00  0.00     0.016 A 
ATOM     16  C   UNL d   1       0.488   4.714   1.033  0.00  0.00     0.007 A 
ATOM     17  C   UNL d   1       1.265   5.265   0.008  0.00  0.00    -0.062 A 
ATOM     18  C   UNL d   1       1.715   4.436  -1.024  0.00  0.00     0.007 A 
ATOM     19  C   UNL d   1       1.615   6.723   0.034  0.00  0.00     0.048 C 
ATOM     20  C   UNL d   1       1.393   3.074  -1.031  0.00  0.00     0.016 A 
ENDBRANCH   4  14
TORSDOF 1
