REMARK  4 active torsions:
REMARK  status: ('A' for Active; 'I' for Inactive)
REMARK    1  A    between atoms: C_2  and  C_1 
REMARK       I    between atoms: N_7  and  C_2 
REMARK    2  A    between atoms: C_9  and  C_5 
REMARK    3  A    between atoms: C_13  and  N_8 
REMARK    4  A    between atoms: C_23  and  C_13 
ROOT
ATOM      1  C   UNL d   1       0.112  -2.650   0.139  0.00  0.00     0.256 C 
ATOM      2  N   UNL d   1      -0.937  -3.552  -0.018  0.00  0.00    -0.345 N 
ATOM      3  N   UNL d   1      -3.545  -4.890   0.240  0.00  0.00     0.095 N 
ATOM      4  O   UNL d   1       1.017  -2.852   0.950  0.00  0.00    -0.267 OA
ATOM      5  C   UNL d   1      -1.883  -3.604  -1.138  0.00  0.00     0.156 C 
ATOM      6  C   UNL d   1      -1.062  -4.686   0.900  0.00  0.00     0.156 C 
ATOM      7  C   UNL d   1      -2.535  -4.915   1.332  0.00  0.00     0.292 C 
ATOM      8  C   UNL d   1      -3.316  -3.684  -0.587  0.00  0.00     0.292 C 
ENDROOT
BRANCH   1   9
ATOM      9  C   UNL d   1       0.112  -1.438  -0.679  0.00  0.00     0.064 C 
ATOM     10  C   UNL d   1      -0.996  -0.660  -1.122  0.00  0.00     0.057 C 
ATOM     11  C   UNL d   1      -0.513   0.317  -1.959  0.00  0.00     0.087 C 
ATOM     12  O   UNL d   1       0.849   0.289  -1.942  0.00  0.00    -0.314 OA
ATOM     13  C   UNL d   1       1.224  -0.730  -1.109  0.00  0.00     0.065 C 
ATOM     14  C   UNL d   1       2.679  -0.836  -0.863  0.00  0.00     0.077 C 
BRANCH  11  15
ATOM     15  C   UNL d   1      -1.162   1.344  -2.763  0.00  0.00    -0.002 A 
ATOM     16  C   UNL d   1      -2.482   1.718  -2.467  0.00  0.00     0.016 A 
ATOM     17  C   UNL d   1      -3.121   2.729  -3.190  0.00  0.00     0.024 A 
ATOM     18  C   UNL d   1      -2.446   3.361  -4.228  0.00  0.00     0.034 A 
ATOM     19  C   UNL d   1      -1.150   2.975  -4.564  0.00  0.00     0.024 A 
ATOM     20 CL   UNL d   1      -3.217   4.635  -5.088  0.00  0.00    -0.084 Cl
ATOM     21  C   UNL d   1      -0.510   1.967  -3.834  0.00  0.00     0.016 A 
ENDBRANCH  11  15
ENDBRANCH   1   9
BRANCH   3  22
ATOM     22  C   UNL d   1      -3.495  -6.138  -0.547  0.00  0.00     0.311 C 
BRANCH  22  23
ATOM     23  C   UNL d   1      -4.483  -6.188  -1.698  0.00  0.00    -0.030 A 
ATOM     24  C   UNL d   1      -4.029  -6.218  -3.029  0.00  0.00     0.009 A 
ATOM     25  C   UNL d   1      -4.937  -6.274  -4.085  0.00  0.00     0.001 A 
ATOM     26  C   UNL d   1      -6.307  -6.299  -3.830  0.00  0.00     0.000 A 
ATOM     27  C   UNL d   1      -6.770  -6.259  -2.512  0.00  0.00     0.001 A 
ATOM     28  C   UNL d   1      -5.862  -6.199  -1.457  0.00  0.00     0.009 A 
ENDBRANCH  22  23
ENDBRANCH   3  22
TORSDOF 4
