REMARK  0 active torsions:
REMARK  status: ('A' for Active; 'I' for Inactive)
ROOT
ATOM      1  N   UNL d   1       1.247  -1.363  -0.042  0.00  0.00    -0.367 N 
ATOM      2  HN  UNL d   1       1.248  -2.382  -0.080  1.00  0.00     0.165 HD
ATOM      3  N   UNL d   1       4.745   1.950   0.090  0.00  0.00    -0.191 NA
ATOM      4  C   UNL d   1       3.727   1.395   0.064  0.00  0.00     0.101 C 
ATOM      5  C   UNL d   1       0.051   0.738   0.015  0.00  0.00    -0.034 A 
ATOM      6  C   UNL d   1       0.086  -0.662  -0.010  0.00  0.00     0.015 A 
ATOM      7  C   UNL d   1       2.468   0.721   0.033  0.00  0.00     0.060 A 
ATOM      8  C   UNL d   1       1.268   1.429   0.056  0.00  0.00     0.033 A 
ATOM      9  C   UNL d   1       2.406  -0.661  -0.021  0.00  0.00     0.110 A 
ATOM     10  C   UNL d   1      -1.246   1.502   0.063  0.00  0.00     0.040 C 
ATOM     11  C   UNL d   1      -1.184  -1.475  -0.062  0.00  0.00     0.057 C 
ATOM     12  C   UNL d   1      -2.445   0.658  -0.362  0.00  0.00     0.005 C 
ATOM     13  C   UNL d   1      -2.418  -0.682   0.364  0.00  0.00     0.006 C 
ENDROOT
TORSDOF 0
