REMARK  8 active torsions:
REMARK  status: ('A' for Active; 'I' for Inactive)
REMARK    1  A    between atoms: S_11  and  C_1 
REMARK    2  A    between atoms: C_18  and  N_2 
REMARK    3  A    between atoms: C_3  and  S_11 
REMARK    4  A    between atoms: N_9  and  C_4 
REMARK    5  A    between atoms: N_10  and  C_5 
REMARK    6  A    between atoms: C_13  and  C_15 
REMARK    7  A    between atoms: C_27  and  C_18 
REMARK    8  A    between atoms: C_29  and  C_27 
ROOT
ATOM      1  C   UNL d   1       2.213  -0.827   0.400  0.00  0.00     0.155 A 
ATOM      2  N   UNL d   1       2.300   0.531   0.128  0.00  0.00    -0.293 N 
ATOM      3  C   UNL d   1       1.136   1.297   0.035  0.00  0.00     0.262 A 
ATOM      4  N   UNL d   1       1.110  -1.488   0.514  0.00  0.00    -0.335 N 
ATOM      5  HN  UNL d   1       1.117  -2.482   0.742  1.00  0.00     0.168 HD
ATOM      6  C   UNL d   1      -0.144   0.570   0.110  0.00  0.00     0.059 A 
ATOM      7  C   UNL d   1      -0.096  -0.805   0.317  0.00  0.00     0.049 A 
ATOM      8  O   UNL d   1       1.119   2.518  -0.099  0.00  0.00    -0.267 OA
ATOM      9  C   UNL d   1      -1.370   1.233  -0.056  0.00  0.00     0.019 A 
ATOM     10  C   UNL d   1      -1.293  -1.529   0.311  0.00  0.00     0.030 A 
ATOM     11  C   UNL d   1      -2.559   0.502  -0.050  0.00  0.00     0.001 A 
ATOM     12  C   UNL d   1      -2.519  -0.882   0.121  0.00  0.00     0.002 A 
ENDROOT
BRANCH   1  13
ATOM     13  S   UNL d   1       3.707  -1.744   0.559  0.00  0.00    -0.049 SA
BRANCH  13  14
ATOM     14  C   UNL d   1       3.403  -2.816   1.954  0.00  0.00     0.074 A 
ATOM     15  C   UNL d   1       2.710  -4.037   1.865  0.00  0.00     0.123 A 
ATOM     16  C   UNL d   1       2.535  -4.888   2.979  0.00  0.00     0.053 A 
ATOM     17  C   UNL d   1       3.069  -4.549   4.231  0.00  0.00     0.052 A 
ATOM     18  C   UNL d   1       3.766  -3.342   4.349  0.00  0.00     0.053 A 
ATOM     19  C   UNL d   1       3.926  -2.510   3.224  0.00  0.00     0.123 A 
BRANCH  15  20
ATOM     20  N   UNL d   1       2.185  -4.528   0.596  0.00  0.00    -0.114 N 
ATOM     21  O   UNL d   1       2.990  -4.665  -0.337  0.00  0.00    -0.532 OA
ATOM     22  O   UNL d   1       0.996  -4.874   0.583  0.00  0.00    -0.532 OA
ENDBRANCH  15  20
BRANCH  17  23
ATOM     23  C   UNL d   1       2.917  -5.489   5.407  0.00  0.00     0.417 C 
ATOM     24  F   UNL d   1       3.510  -5.029   6.541  0.00  0.00    -0.166 F 
ATOM     25  F   UNL d   1       1.615  -5.715   5.721  0.00  0.00    -0.166 F 
ATOM     26  F   UNL d   1       3.469  -6.707   5.158  0.00  0.00    -0.166 F 
ENDBRANCH  17  23
BRANCH  19  27
ATOM     27  N   UNL d   1       4.715  -1.312   3.428  0.00  0.00    -0.114 N 
ATOM     28  O   UNL d   1       5.885  -1.336   3.039  0.00  0.00    -0.532 OA
ATOM     29  O   UNL d   1       4.156  -0.377   4.018  0.00  0.00    -0.532 OA
ENDBRANCH  19  27
ENDBRANCH  13  14
ENDBRANCH   1  13
BRANCH   2  30
ATOM     30  C   UNL d   1       3.588   1.252   0.029  0.00  0.00     0.139 C 
BRANCH  30  31
ATOM     31  C   UNL d   1       4.359   0.965  -1.275  0.00  0.00     0.059 C 
BRANCH  31  32
ATOM     32  C   UNL d   1       5.846   1.204  -1.137  0.00  0.00    -0.057 A 
ATOM     33  C   UNL d   1       6.756   0.146  -1.286  0.00  0.00     0.007 A 
ATOM     34  C   UNL d   1       8.131   0.366  -1.172  0.00  0.00     0.001 A 
ATOM     35  C   UNL d   1       8.613   1.646  -0.905  0.00  0.00     0.000 A 
ATOM     36  C   UNL d   1       7.720   2.703  -0.748  0.00  0.00     0.001 A 
ATOM     37  C   UNL d   1       6.344   2.486  -0.865  0.00  0.00     0.007 A 
ENDBRANCH  31  32
ENDBRANCH  30  31
ENDBRANCH   2  30
TORSDOF 8
