REMARK  0 active torsions:
REMARK  status: ('A' for Active; 'I' for Inactive)
ROOT
ATOM      1  C   UNL d   1       0.249  -0.729  -0.000  0.00  0.00     0.069 A 
ATOM      2  C   UNL d   1       0.207   0.679   0.001  0.00  0.00     0.021 A 
ATOM      3  C   UNL d   1       1.579  -1.109   0.001  0.00  0.00     0.022 A 
ATOM      4  C   UNL d   1      -0.977  -1.506  -0.002  0.00  0.00     0.274 A 
ATOM      5  N   UNL d   1       2.326   0.050   0.004  0.00  0.00    -0.362 N 
ATOM      6  C   UNL d   1       1.500   1.155   0.006  0.00  0.00     0.018 A 
ATOM      7  N   UNL d   1      -2.169   0.696  -0.002  0.00  0.00    -0.306 N 
ATOM      8  HN  UNL d   1      -3.062   1.189  -0.003  1.00  0.00     0.186 HD
ATOM      9  N   UNL d   1      -2.139  -0.707  -0.001  0.00  0.00    -0.262 N 
ATOM     10  C   UNL d   1      -1.054   1.366  -0.001  0.00  0.00     0.121 A 
ATOM     11  O   UNL d   1      -0.991  -2.733  -0.002  0.00  0.00    -0.266 OA
ATOM     12  C   UNL d   1       2.221  -2.447  -0.000  0.00  0.00     0.069 C 
ATOM     13  C   UNL d   1       2.049   2.534   0.013  0.00  0.00     0.069 C 
ATOM     14  C   UNL d   1      -3.422  -1.376   0.001  0.00  0.00     0.181 C 
ATOM     15  H   UNL d   1       3.338   0.081   0.006  0.00  0.00     0.165 HD
ENDROOT
TORSDOF 0
