REMARK  4 active torsions:
REMARK  status: ('A' for Active; 'I' for Inactive)
REMARK    1  A    between atoms: C_8  and  C_1 
REMARK    2  A    between atoms: N_6  and  C_2 
REMARK       I    between atoms: C_7  and  N_6 
REMARK    3  A    between atoms: C_10  and  C_7 
REMARK    4  A    between atoms: O_21  and  C_8 
ROOT
ATOM      1  C   UNL d   1      -0.153   1.049  -0.236  0.00  0.00     0.107 A 
ATOM      2  C   UNL d   1       1.189   0.715  -0.289  0.00  0.00     0.059 A 
ATOM      3  S   UNL d   1      -1.135  -0.364  -0.046  0.00  0.00    -0.081 SA
ATOM      4  C   UNL d   1       0.192  -1.421  -0.106  0.00  0.00     0.025 A 
ATOM      5  C   UNL d   1       1.368  -0.713  -0.213  0.00  0.00     0.051 A 
ATOM      6  C   UNL d   1       0.011  -2.850  -0.047  0.00  0.00     0.022 A 
ATOM      7  S   UNL d   1       1.152  -3.873   0.726  0.00  0.00    -0.101 SA
ATOM      8  C   UNL d   1      -1.042  -3.584  -0.563  0.00  0.00     0.021 A 
ATOM      9  C   UNL d   1       0.228  -5.271   0.394  0.00  0.00     0.050 A 
ATOM     10  C   UNL d   1      -0.918  -4.980  -0.308  0.00  0.00     0.008 A 
ENDROOT
BRANCH   2  11
ATOM     11  N   UNL d   1       2.326   1.502  -0.426  0.00  0.00    -0.320 N 
ATOM     12  C   UNL d   1       2.488   2.861  -0.283  0.00  0.00     0.280 C 
ATOM     13  O   UNL d   1       1.621   3.650   0.076  0.00  0.00    -0.265 OA
ATOM     14  H   UNL d   1       3.197   1.001  -0.575  0.00  0.00     0.169 HD
BRANCH  12  15
ATOM     15  C   UNL d   1       3.868   3.252  -0.554  0.00  0.00     0.142 A 
ATOM     16  O   UNL d   1       4.792   2.260  -0.791  0.00  0.00    -0.317 OA
ATOM     17  C   UNL d   1       5.989   2.860  -1.006  0.00  0.00     0.143 A 
ATOM     18  C   UNL d   1       5.862   4.225  -0.920  0.00  0.00     0.027 A 
ATOM     19  C   UNL d   1       4.497   4.478  -0.624  0.00  0.00     0.045 A 
ENDBRANCH  12  15
ENDBRANCH   2  11
BRANCH   1  20
ATOM     20  C   UNL d   1      -0.887   2.281  -0.464  0.00  0.00     0.302 C 
ATOM     21  O   UNL d   1      -0.740   3.033  -1.424  0.00  0.00    -0.259 OA
BRANCH  20  22
ATOM     22  O   UNL d   1      -1.922   2.362   0.429  0.00  0.00    -0.322 OA
ATOM     23  C   UNL d   1      -3.040   3.131  -0.012  0.00  0.00     0.213 C 
ENDBRANCH  20  22
ENDBRANCH   1  20
TORSDOF 4
