REMARK  11 active torsions:
REMARK  status: ('A' for Active; 'I' for Inactive)
REMARK    1  A    between atoms: C_2  and  C_1 
REMARK    2  A    between atoms: C_3  and  C_1 
REMARK    3  A    between atoms: C_1  and  O_6 
REMARK    4  A    between atoms: C_2  and  O_7 
REMARK    5  A    between atoms: C_3  and  O_8 
REMARK    6  A    between atoms: C_13  and  C_3 
REMARK    7  A    between atoms: C_9  and  O_6 
REMARK    8  A    between atoms: C_10  and  O_7 
REMARK    9  A    between atoms: C_11  and  O_8 
REMARK   10  A    between atoms: C_12  and  O_14 
REMARK   11  A    between atoms: O_14  and  C_13 
ROOT
ATOM      1  C   UNL d   1       0.375  -1.423   0.763  0.00  0.00     0.270 C 
ATOM      2  N   UNL d   1      -2.228  -1.356   0.354  0.00  0.00    -0.194 NA
ATOM      3  C   UNL d   1      -1.083  -1.375   0.558  0.00  0.00     0.094 C 
ENDROOT
BRANCH   1   4
ATOM      4  C   UNL d   1       1.066  -0.247   0.024  0.00  0.00     0.207 C 
BRANCH   4   5
ATOM      5  C   UNL d   1       0.658   1.157   0.554  0.00  0.00     0.189 C 
BRANCH   5   6
ATOM      6  O   UNL d   1       1.155   1.343   1.909  0.00  0.00    -0.311 OA
BRANCH   6   7
ATOM      7  C   UNL d   1       0.300   1.077   2.929  0.00  0.00     0.255 C 
ATOM      8  O   UNL d   1      -0.837   0.654   2.790  0.00  0.00    -0.266 OA
ATOM      9  C   UNL d   1       0.976   1.258   4.250  0.00  0.00     0.126 C 
ENDBRANCH   6   7
ENDBRANCH   5   6
BRANCH   5  10
ATOM     10  C   UNL d   1       1.304   2.266  -0.299  0.00  0.00     0.213 C 
BRANCH  10  11
ATOM     11  O   UNL d   1       0.861   3.574   0.121  0.00  0.00    -0.319 OA
BRANCH  11  12
ATOM     12  C   UNL d   1      -0.293   4.015  -0.447  0.00  0.00     0.254 C 
ATOM     13  O   UNL d   1      -0.985   3.363  -1.216  0.00  0.00    -0.266 OA
ATOM     14  C   UNL d   1      -0.610   5.414  -0.007  0.00  0.00     0.126 C 
ENDBRANCH  11  12
ENDBRANCH  10  11
ENDBRANCH   5  10
ENDBRANCH   4   5
BRANCH   4  15
ATOM     15  O   UNL d   1       2.514  -0.350   0.186  0.00  0.00    -0.310 OA
BRANCH  15  16
ATOM     16  C   UNL d   1       3.199  -1.070  -0.742  0.00  0.00     0.255 C 
ATOM     17  O   UNL d   1       2.700  -1.645  -1.696  0.00  0.00    -0.266 OA
ATOM     18  C   UNL d   1       4.655  -1.117  -0.394  0.00  0.00     0.126 C 
ENDBRANCH  15  16
ENDBRANCH   4  15
ENDBRANCH   1   4
BRANCH   1  19
ATOM     19  O   UNL d   1       0.830  -2.682   0.210  0.00  0.00    -0.299 OA
BRANCH  19  20
ATOM     20  C   UNL d   1       1.633  -3.447   0.986  0.00  0.00     0.256 C 
ATOM     21  O   UNL d   1       2.031  -3.147   2.102  0.00  0.00    -0.266 OA
ATOM     22  C   UNL d   1       1.967  -4.734   0.292  0.00  0.00     0.126 C 
ENDBRANCH  19  20
ENDBRANCH   1  19
TORSDOF 11
