REMARK  5 active torsions:
REMARK  status: ('A' for Active; 'I' for Inactive)
REMARK    1  A    between atoms: C_4  and  N_1 
REMARK    2  A    between atoms: C_2  and  O_6 
REMARK    3  A    between atoms: C_3  and  C_2 
REMARK    4  A    between atoms: O_12  and  C_3 
REMARK    5  A    between atoms: O_6  and  C_11 
ROOT
ATOM      1  C   UNL d   1       0.214   1.104  -0.410  0.00  0.00     0.103 A 
ATOM      2  C   UNL d   1       0.938   2.068  -1.125  0.00  0.00     0.039 A 
ATOM      3  C   UNL d   1      -1.160   1.264  -0.203  0.00  0.00     0.039 A 
ATOM      4  C   UNL d   1      -1.102   3.319  -1.502  0.00  0.00     0.070 A 
ATOM      5  C   UNL d   1       0.278   3.184  -1.654  0.00  0.00     0.039 A 
ATOM      6  C   UNL d   1      -1.808   2.376  -0.747  0.00  0.00     0.039 A 
ENDROOT
BRANCH   4   7
ATOM      7  O   UNL d   1      -1.872   4.329  -2.001  0.00  0.00    -0.330 OA
BRANCH   7   8
ATOM      8  C   UNL d   1      -1.517   5.013  -3.217  0.00  0.00     0.145 C 
ATOM      9  C   UNL d   1      -1.113   4.080  -4.369  0.00  0.00     0.058 C 
ATOM     10  C   UNL d   1      -2.805   5.739  -3.640  0.00  0.00     0.058 C 
BRANCH   8  11
ATOM     11  C   UNL d   1      -0.469   6.107  -2.957  0.00  0.00     0.175 C 
ATOM     12  O   UNL d   1       0.334   6.519  -3.780  0.00  0.00    -0.648 OA
BRANCH  11  13
ATOM     13  O   UNL d   1      -0.533   6.604  -1.695  0.00  0.00    -0.774 OA
ATOM     14  H   UNL d   1      -1.209   6.130  -1.165  0.00  0.00     0.167 HD
ENDBRANCH  11  13
ENDBRANCH   8  11
ENDBRANCH   7   8
ENDBRANCH   4   7
BRANCH   1  15
ATOM     15  N   UNL d   1       0.898  -0.083   0.119  0.00  0.00    -0.116 N 
ATOM     16  O   UNL d   1       2.102  -0.216  -0.138  0.00  0.00    -0.532 OA
ATOM     17  O   UNL d   1       0.226  -0.884   0.785  0.00  0.00    -0.532 OA
ENDBRANCH   1  15
TORSDOF 5
