REMARK  6 active torsions:
REMARK  status: ('A' for Active; 'I' for Inactive)
REMARK    1  A    between atoms: C_5  and  N_1 
REMARK    2  A    between atoms: N_2  and  C_8 
REMARK    3  A    between atoms: C_7  and  C_3 
REMARK    4  A    between atoms: O_10  and  C_4 
REMARK    5  A    between atoms: O_19  and  C_7 
REMARK    6  A    between atoms: C_16  and  O_10 
ROOT
ATOM      1  C   UNL d   1      -0.958   3.745   0.574  0.00  0.00     0.071 A 
ATOM      2  C   UNL d   1      -1.609   2.579   1.010  0.00  0.00     0.095 A 
ATOM      3  C   UNL d   1       0.186   1.248   0.048  0.00  0.00     0.105 A 
ATOM      4  C   UNL d   1      -1.013   1.331   0.771  0.00  0.00     0.074 A 
ATOM      5  C   UNL d   1       0.204   3.645  -0.209  0.00  0.00     0.024 A 
ATOM      6  C   UNL d   1       0.780   2.402  -0.474  0.00  0.00     0.037 A 
ENDROOT
BRANCH   2   7
ATOM      7  O   UNL d   1      -2.772   2.505   1.749  0.00  0.00    -0.310 OA
BRANCH   7   8
ATOM      8  C   UNL d   1      -3.830   3.345   1.486  0.00  0.00     0.078 A 
ATOM      9  C   UNL d   1      -4.131   3.885   0.234  0.00  0.00     0.073 A 
ATOM     10  C   UNL d   1      -5.128   4.867   0.142  0.00  0.00     0.105 A 
ATOM     11  C   UNL d   1      -5.879   5.237   1.267  0.00  0.00     0.036 A 
ATOM     12  C   UNL d   1      -5.636   4.615   2.491  0.00  0.00     0.005 A 
ATOM     13  C   UNL d   1      -4.615   3.671   2.598  0.00  0.00     0.037 A 
BRANCH  10  14
ATOM     14  N   UNL d   1      -5.357   5.546  -1.139  0.00  0.00    -0.116 N 
ATOM     15  O   UNL d   1      -4.705   5.159  -2.120  0.00  0.00    -0.532 OA
ATOM     16  O   UNL d   1      -6.198   6.456  -1.167  0.00  0.00    -0.532 OA
ENDBRANCH  10  14
ENDBRANCH   7   8
ENDBRANCH   2   7
BRANCH   1  17
ATOM     17  C   UNL d   1      -1.385   5.127   0.901  0.00  0.00     0.179 C 
ATOM     18  O   UNL d   1      -1.389   6.023   0.079  0.00  0.00    -0.646 OA
BRANCH  17  19
ATOM     19  O   UNL d   1      -1.676   5.307   2.204  0.00  0.00    -0.773 OA
ATOM     20  H   UNL d   1      -1.650   4.501   2.753  0.00  0.00     0.167 HD
ENDBRANCH  17  19
ENDBRANCH   1  17
BRANCH   3  21
ATOM     21  N   UNL d   1       0.843  -0.054  -0.132  0.00  0.00    -0.116 N 
ATOM     22  O   UNL d   1       0.339  -1.032   0.438  0.00  0.00    -0.532 OA
ATOM     23  O   UNL d   1       1.871  -0.089  -0.820  0.00  0.00    -0.532 OA
ENDBRANCH   3  21
TORSDOF 6
