REMARK  3 active torsions:
REMARK  status: ('A' for Active; 'I' for Inactive)
REMARK    1  A    between atoms: O_4  and  C_2 
REMARK    2  A    between atoms: C_5  and  O_4 
REMARK       I    between atoms: N_13  and  C_5 
REMARK    3  A    between atoms: C_16  and  C_12 
ROOT
ATOM      1  C   UNL d   1       0.111   0.878   0.127  0.00  0.00     0.050 A 
ATOM      2  C   UNL d   1       1.495   1.101   0.229  0.00  0.00     0.167 A 
ATOM      3  C   UNL d   1      -0.256  -0.461   0.074  0.00  0.00     0.089 A 
ATOM      4  S   UNL d   1      -1.935  -0.699  -0.052  0.00  0.00    -0.076 SA
ATOM      5  C   UNL d   1      -1.066   1.706   0.087  0.00  0.00     0.033 A 
ATOM      6  N   UNL d   1       0.559  -1.528   0.130  0.00  0.00    -0.346 N 
ATOM      7  HN  UNL d   1       0.233  -2.493   0.077  1.00  0.00     0.167 HD
ATOM      8  N   UNL d   1       2.346   0.052   0.331  0.00  0.00    -0.332 N 
ATOM      9  HN  UNL d   1       3.347   0.201   0.454  1.00  0.00     0.168 HD
ATOM     10  C   UNL d   1      -2.242   0.982  -0.017  0.00  0.00    -0.015 A 
ATOM     11  C   UNL d   1       1.839  -1.185   0.264  0.00  0.00     0.183 A 
ENDROOT
BRANCH   2  12
ATOM     12  O   UNL d   1       2.139   2.351   0.423  0.00  0.00    -0.243 OA
BRANCH  12  13
ATOM     13  C   UNL d   1       1.887   3.458  -0.379  0.00  0.00     0.368 C 
ATOM     14  N   UNL d   1       2.786   4.491  -0.133  0.00  0.00    -0.336 N 
ATOM     15  C   UNL d   1       2.587   5.792  -0.739  0.00  0.00     0.154 C 
ATOM     16  C   UNL d   1       3.854   4.376   0.850  0.00  0.00     0.154 C 
ATOM     17  O   UNL d   1       0.987   3.516  -1.205  0.00  0.00    -0.238 OA
ENDBRANCH  12  13
ENDBRANCH   2  12
BRANCH  10  18
ATOM     18  C   UNL d   1      -3.653   1.483  -0.108  0.00  0.00     0.042 C 
ATOM     19  C   UNL d   1      -4.303   1.602   1.263  0.00  0.00     0.010 C 
ENDBRANCH  10  18
TORSDOF 3
