REMARK  3 active torsions:
REMARK  status: ('A' for Active; 'I' for Inactive)
REMARK    1  A    between atoms: C_2  and  C_1 
REMARK    2  A    between atoms: C_3  and  C_1 
REMARK    3  A    between atoms: C_8  and  C_3 
ROOT
ATOM      1  C   UNL d   1       0.859  -0.189   0.223  0.00  0.00     0.163 C 
ATOM      2  O   UNL d   1       1.119   0.439   1.249  0.00  0.00    -0.292 OA
ENDROOT
BRANCH   1   3
ATOM      3  C   UNL d   1       1.251  -1.620   0.133  0.00  0.00     0.010 A 
ATOM      4  C   UNL d   1       2.444  -2.028   0.746  0.00  0.00     0.016 A 
ATOM      5  C   UNL d   1       2.868  -3.354   0.641  0.00  0.00     0.020 A 
ATOM      6  C   UNL d   1       2.091  -4.271  -0.062  0.00  0.00     0.011 A 
ATOM      7  C   UNL d   1       0.890  -3.881  -0.654  0.00  0.00     0.020 A 
ATOM      8 BR   UNL d   1       2.670  -6.066  -0.221  0.00  0.00    -0.051 Br
ATOM      9  C   UNL d   1       0.468  -2.552  -0.556  0.00  0.00     0.016 A 
ENDBRANCH   1   3
BRANCH   1  10
ATOM     10  C   UNL d   1       0.227   0.464  -0.992  0.00  0.00     0.122 C 
BRANCH  10  11
ATOM     11  C   UNL d   1      -1.275   0.579  -0.948  0.00  0.00    -0.051 A 
ATOM     12  C   UNL d   1      -1.915   1.259   0.098  0.00  0.00     0.007 A 
ATOM     13  C   UNL d   1      -3.299   1.442   0.083  0.00  0.00     0.001 A 
ATOM     14  C   UNL d   1      -4.059   0.945  -0.974  0.00  0.00     0.000 A 
ATOM     15  C   UNL d   1      -3.438   0.258  -2.013  0.00  0.00     0.001 A 
ATOM     16  C   UNL d   1      -2.053   0.078  -2.002  0.00  0.00     0.007 A 
ENDBRANCH  10  11
ENDBRANCH   1  10
TORSDOF 3
