REMARK  5 active torsions:
REMARK  status: ('A' for Active; 'I' for Inactive)
REMARK    1  A    between atoms: O_3  and  C_1 
REMARK    2  A    between atoms: C_5  and  C_1 
REMARK    3  A    between atoms: C_4  and  C_7 
REMARK    4  A    between atoms: C_6  and  C_5 
REMARK    5  A    between atoms: C_7  and  C_6 
ROOT
ATOM      1  C   UNL d   1       4.487   1.465  -0.369  0.00  0.00     0.039 C 
ENDROOT
BRANCH   1   2
ATOM      2  C   UNL d   1       4.996   2.845  -0.708  0.00  0.00    -0.058 A 
ATOM      3  C   UNL d   1       4.675   3.951   0.091  0.00  0.00     0.007 A 
ATOM      4  C   UNL d   1       5.166   5.220  -0.221  0.00  0.00     0.001 A 
ATOM      5  C   UNL d   1       5.992   5.396  -1.329  0.00  0.00     0.000 A 
ATOM      6  C   UNL d   1       6.329   4.303  -2.124  0.00  0.00     0.001 A 
ATOM      7  C   UNL d   1       5.835   3.034  -1.815  0.00  0.00     0.007 A 
ENDBRANCH   1   2
BRANCH   1   8
ATOM      8  C   UNL d   1       2.962   1.346  -0.281  0.00  0.00     0.015 C 
BRANCH   8   9
ATOM      9  C   UNL d   1       2.246   1.663  -1.595  0.00  0.00     0.110 C 
BRANCH   9  10
ATOM     10  C   UNL d   1       0.748   1.505  -1.453  0.00  0.00     0.139 C 
ATOM     11  O   UNL d   1       0.167   1.148  -0.441  0.00  0.00    -0.650 OA
BRANCH  10  12
ATOM     12  O   UNL d   1       0.089   1.802  -2.597  0.00  0.00    -0.776 OA
ATOM     13  H   UNL d   1       0.674   2.083  -3.325  0.00  0.00     0.167 HD
ENDBRANCH  10  12
ENDBRANCH   9  10
ENDBRANCH   8   9
ENDBRANCH   1   8
TORSDOF 5
