REMARK  2 active torsions:
REMARK  status: ('A' for Active; 'I' for Inactive)
REMARK    1  A    between atoms: C_2  and  S_1 
REMARK    2  A    between atoms: C_4  and  S_1 
ROOT
ATOM      1  N   UNL d   1      -2.058  -0.317   1.861  0.00  0.00    -0.196 NA
ATOM      2  C   UNL d   1       0.542  -0.471   1.658  0.00  0.00     0.269 C 
ATOM      3  C   UNL d   1      -0.906  -0.396   1.749  0.00  0.00     0.074 C 
ENDROOT
BRANCH   2   4
ATOM      4  S   UNL d   1       1.012   0.006   0.021  0.00  0.00     0.187 S 
ATOM      5  O   UNL d   1       2.463   0.058  -0.008  0.00  0.00    -0.222 OA
ATOM      6  O   UNL d   1       0.304  -0.816  -0.943  0.00  0.00    -0.222 OA
BRANCH   4   7
ATOM      7  C   UNL d   1       0.443   1.681  -0.175  0.00  0.00     0.061 A 
ATOM      8  C   UNL d   1       1.301   2.739   0.138  0.00  0.00     0.047 A 
ATOM      9  C   UNL d   1       0.859   4.047  -0.051  0.00  0.00     0.035 A 
ATOM     10 CL   UNL d   1       1.897   5.362   0.337  0.00  0.00    -0.084 Cl
ATOM     11  C   UNL d   1      -0.418   4.300  -0.553  0.00  0.00     0.024 A 
ATOM     12  C   UNL d   1      -1.261   3.236  -0.882  0.00  0.00     0.003 A 
ATOM     13  C   UNL d   1      -0.829   1.922  -0.704  0.00  0.00     0.023 A 
ENDBRANCH   4   7
ENDBRANCH   2   4
TORSDOF 2
