REMARK  2 active torsions:
REMARK  status: ('A' for Active; 'I' for Inactive)
REMARK    1  A    between atoms: C_8  and  C_3 
REMARK    2  A    between atoms: C_10  and  C_7 
ROOT
ATOM      1  N   UNL d   1      -0.782   0.041   0.028  0.00  0.00    -0.331 N 
ATOM      2  HN  UNL d   1      -1.767  -0.221   0.067  1.00  0.00     0.168 HD
ATOM      3  C   UNL d   1      -0.262   1.222  -0.041  0.00  0.00     0.162 A 
ATOM      4  C   UNL d   1       0.318  -0.770   0.037  0.00  0.00     0.111 A 
ATOM      5  O   UNL d   1       1.089   1.315  -0.090  0.00  0.00    -0.256 OA
ATOM      6  C   UNL d   1       1.562   0.036  -0.029  0.00  0.00     0.316 A 
ATOM      7  C   UNL d   1       0.322  -2.107   0.068  0.00  0.00     0.047 C 
ATOM      8  O   UNL d   1       2.726  -0.321  -0.038  0.00  0.00    -0.257 OA
ENDROOT
BRANCH   7   9
ATOM      9  C   UNL d   1      -0.915  -2.890   0.043  0.00  0.00    -0.034 A 
ATOM     10  C   UNL d   1      -1.479  -3.249  -1.188  0.00  0.00     0.013 A 
ATOM     11  C   UNL d   1      -2.666  -3.983  -1.233  0.00  0.00     0.020 A 
ATOM     12  C   UNL d   1      -3.288  -4.362  -0.046  0.00  0.00     0.011 A 
ATOM     13  C   UNL d   1      -2.736  -4.011   1.185  0.00  0.00     0.020 A 
ATOM     14 BR   UNL d   1      -4.899  -5.350  -0.106  0.00  0.00    -0.051 Br
ATOM     15  C   UNL d   1      -1.554  -3.264   1.229  0.00  0.00     0.013 A 
ENDBRANCH   7   9
BRANCH   3  16
ATOM     16  C   UNL d   1      -1.000   2.490  -0.026  0.00  0.00     0.015 A 
ATOM     17  C   UNL d   1      -2.399   2.456   0.054  0.00  0.00     0.016 A 
ATOM     18  C   UNL d   1      -3.116   3.644   0.187  0.00  0.00     0.001 A 
ATOM     19  C   UNL d   1      -2.438   4.862   0.238  0.00  0.00     0.000 A 
ATOM     20  C   UNL d   1      -1.047   4.898   0.133  0.00  0.00     0.001 A 
ATOM     21  C   UNL d   1      -0.325   3.714  -0.009  0.00  0.00     0.016 A 
ENDBRANCH   3  16
TORSDOF 2
