REMARK  5 active torsions:
REMARK  status: ('A' for Active; 'I' for Inactive)
REMARK    1  A    between atoms: N_5  and  C_1 
REMARK    2  A    between atoms: C_9  and  C_4 
REMARK       I    between atoms: C_7  and  N_5 
REMARK    3  A    between atoms: C_10  and  C_7 
REMARK    4  A    between atoms: C_12  and  C_9 
REMARK    5  A    between atoms: O_18  and  C_12 
ROOT
ATOM      1  C   UNL d   1      -1.553   0.197  -0.081  0.00  0.00     0.152 A 
ATOM      2  N   UNL d   1      -1.302  -1.081  -0.159  0.00  0.00    -0.339 N 
ATOM      3  HN  UNL d   1      -2.008  -1.809  -0.268  1.00  0.00     0.168 HD
ATOM      4  C   UNL d   1       0.070  -1.306  -0.072  0.00  0.00     0.033 A 
ATOM      5  S   UNL d   1      -0.204   1.223   0.057  0.00  0.00    -0.057 SA
ATOM      6  C   UNL d   1       0.835  -0.145  -0.019  0.00  0.00     0.005 A 
ATOM      7  C   UNL d   1       2.311   0.052   0.012  0.00  0.00     0.058 C 
ENDROOT
BRANCH   1   8
ATOM      8  N   UNL d   1      -2.744   0.858  -0.086  0.00  0.00    -0.302 N 
ATOM      9  C   UNL d   1      -3.944   0.255  -0.390  0.00  0.00     0.264 C 
ATOM     10  O   UNL d   1      -4.076  -0.910  -0.743  0.00  0.00    -0.267 OA
ATOM     11  H   UNL d   1      -2.719   1.849   0.093  0.00  0.00     0.171 HD
BRANCH   9  12
ATOM     12  C   UNL d   1      -5.098   1.159  -0.322  0.00  0.00     0.072 A 
ATOM     13  S   UNL d   1      -4.977   2.776   0.242  0.00  0.00    -0.097 SA
ATOM     14  C   UNL d   1      -6.629   3.085  -0.067  0.00  0.00     0.050 A 
ATOM     15  C   UNL d   1      -7.277   1.977  -0.562  0.00  0.00     0.009 A 
ATOM     16  C   UNL d   1      -6.400   0.861  -0.689  0.00  0.00     0.025 A 
ENDBRANCH   9  12
ENDBRANCH   1   8
BRANCH   4  17
ATOM     17  C   UNL d   1       0.519  -2.739  -0.104  0.00  0.00     0.169 C 
BRANCH  17  18
ATOM     18  C   UNL d   1       1.234  -3.181   1.153  0.00  0.00     0.264 C 
ATOM     19  O   UNL d   1       1.616  -2.467   2.066  0.00  0.00    -0.265 OA
BRANCH  18  20
ATOM     20  O   UNL d   1       1.438  -4.536   1.104  0.00  0.00    -0.326 OA
ATOM     21  C   UNL d   1       2.105  -5.069   2.253  0.00  0.00     0.213 C 
ENDBRANCH  18  20
ENDBRANCH  17  18
ENDBRANCH   4  17
TORSDOF 5
