REMARK  3 active torsions:
REMARK  status: ('A' for Active; 'I' for Inactive)
REMARK    1  A    between atoms: C_2  and  C_1 
REMARK       I    between atoms: N_8  and  C_2 
REMARK    2  A    between atoms: C_15  and  N_8 
REMARK    3  A    between atoms: C_16  and  N_8 
ROOT
ATOM      1  N   UNL d   1      -0.428  -5.477   2.262  0.00  0.00    -0.196 NA
ATOM      2  C   UNL d   1      -0.858  -5.125   1.239  0.00  0.00     0.079 C 
ATOM      3  C   UNL d   1      -1.366  -4.609  -0.049  0.00  0.00     0.251 C 
ENDROOT
BRANCH   3   4
ATOM      4  N   UNL d   1      -2.484  -3.662   0.116  0.00  0.00    -0.323 N 
ATOM      5  C   UNL d   1      -2.406  -2.260   0.103  0.00  0.00     0.257 C 
ATOM      6  O   UNL d   1      -3.438  -1.591   0.181  0.00  0.00    -0.267 OA
BRANCH   5   7
ATOM      7  C   UNL d   1      -1.120  -1.504   0.005  0.00  0.00     0.054 A 
ATOM      8  C   UNL d   1      -1.036  -0.312  -0.750  0.00  0.00     0.051 A 
ATOM      9  C   UNL d   1       0.139   0.455  -0.754  0.00  0.00     0.048 A 
ATOM     10 CL   UNL d   1      -2.319   0.286  -1.748  0.00  0.00    -0.083 Cl
ATOM     11  C   UNL d   1       1.249   0.030  -0.034  0.00  0.00     0.035 A 
ATOM     12  C   UNL d   1       1.188  -1.139   0.715  0.00  0.00     0.025 A 
ATOM     13 CL   UNL d   1       2.695   0.960  -0.056  0.00  0.00    -0.084 Cl
ATOM     14  C   UNL d   1      -0.001  -1.878   0.764  0.00  0.00     0.020 A 
ENDBRANCH   5   7
BRANCH   4  15
ATOM     15  C   UNL d   1      -3.854  -4.220   0.049  0.00  0.00     0.251 C 
ATOM     16  C   UNL d   1      -4.049  -5.516   0.720  0.00  0.00     0.079 C 
ATOM     17  N   UNL d   1      -4.176  -6.562   1.208  0.00  0.00    -0.196 NA
ENDBRANCH   4  15
ENDBRANCH   3   4
TORSDOF 3
