REMARK  3 active torsions:
REMARK  status: ('A' for Active; 'I' for Inactive)
REMARK    1  A    between atoms: C_2  and  N_1 
REMARK    2  A    between atoms: O_8  and  C_3 
REMARK    3  A    between atoms: C_4  and  O_8 
ROOT
ATOM      1  C   UNL d   1       0.209   2.429   0.293  0.00  0.00     0.092 A 
ATOM      2  C   UNL d   1       1.601   2.393   0.520  0.00  0.00     0.026 A 
ATOM      3  N   UNL d   1       1.188   1.803   2.821  0.00  0.00    -0.359 N 
ATOM      4  HN  UNL d   1       1.537   1.538   3.742  1.00  0.00     0.166 HD
ATOM      5  C   UNL d   1       2.037   2.012   1.802  0.00  0.00     0.045 A 
ATOM      6  C   UNL d   1      -0.671   2.209   1.348  0.00  0.00     0.062 A 
ATOM      7  C   UNL d   1      -0.140   1.950   2.603  0.00  0.00     0.008 A 
ATOM      8  C   UNL d   1       2.555   2.712  -0.474  0.00  0.00     0.040 A 
ATOM      9  C   UNL d   1       3.400   1.845   2.015  0.00  0.00     0.032 A 
ATOM     10  C   UNL d   1       3.915   2.588  -0.214  0.00  0.00     0.035 A 
ATOM     11  C   UNL d   1       4.344   2.120   1.018  0.00  0.00     0.026 A 
ATOM     12 CL   UNL d   1       5.061   3.018  -1.421  0.00  0.00    -0.084 Cl
ATOM     13  C   UNL d   1      -1.044   1.786   3.790  0.00  0.00     0.068 C 
ENDROOT
BRANCH   1  14
ATOM     14  O   UNL d   1      -0.168   2.582  -1.026  0.00  0.00    -0.290 OA
BRANCH  14  15
ATOM     15  C   UNL d   1      -1.487   2.815  -1.342  0.00  0.00     0.181 A 
ATOM     16  C   UNL d   1      -2.111   2.019  -2.293  0.00  0.00     0.154 A 
ATOM     17  C   UNL d   1      -3.366   2.379  -2.784  0.00  0.00     0.042 A 
ATOM     18  C   UNL d   1      -3.955   3.540  -2.297  0.00  0.00     0.020 A 
ATOM     19  C   UNL d   1      -3.269   4.281  -1.345  0.00  0.00     0.090 A 
ATOM     20  N   UNL d   1      -2.049   3.947  -0.862  0.00  0.00    -0.345 N 
ATOM     21  HN  UNL d   1      -1.575   4.524  -0.166  1.00  0.00     0.167 HD
BRANCH  16  22
ATOM     22  N   UNL d   1      -1.474   0.820  -2.769  0.00  0.00    -0.111 N 
ATOM     23  O   UNL d   1      -1.150  -0.023  -1.926  0.00  0.00    -0.532 OA
ATOM     24  O   UNL d   1      -1.349   0.702  -3.995  0.00  0.00    -0.532 OA
ENDBRANCH  16  22
ENDBRANCH  14  15
ENDBRANCH   1  14
TORSDOF 3
