REMARK  11 active torsions:
REMARK  status: ('A' for Active; 'I' for Inactive)
REMARK    1  A    between atoms: C_2  and  C_1 
REMARK    2  A    between atoms: O_14  and  C_3 
REMARK    3  A    between atoms: O_13  and  C_4 
REMARK    4  A    between atoms: O_15  and  C_7 
REMARK    5  A    between atoms: O_16  and  C_8 
REMARK    6  A    between atoms: O_25  and  C_11 
REMARK    7  A    between atoms: O_26  and  C_12 
REMARK    8  A    between atoms: C_17  and  O_13 
REMARK    9  A    between atoms: C_18  and  O_14 
REMARK   10  A    between atoms: C_19  and  O_15 
REMARK   11  A    between atoms: C_20  and  O_16 
ROOT
ATOM      1  C   UNL d   1       1.376  -0.202   0.355  0.00  0.00     0.014 A 
ATOM      2  C   UNL d   1       0.701   0.916   0.902  0.00  0.00     0.093 A 
ATOM      3  C   UNL d   1       0.610  -1.365   0.175  0.00  0.00     0.055 A 
ATOM      4  C   UNL d   1      -0.735  -1.423   0.528  0.00  0.00     0.113 A 
ATOM      5  C   UNL d   1      -0.632   0.830   1.349  0.00  0.00     0.077 A 
ATOM      6  C   UNL d   1      -1.354  -0.352   1.180  0.00  0.00     0.104 A 
ENDROOT
BRANCH   1   7
ATOM      7  C   UNL d   1       2.846  -0.288   0.155  0.00  0.00     0.014 A 
ATOM      8  C   UNL d   1       3.480  -1.025  -0.873  0.00  0.00     0.093 A 
ATOM      9  C   UNL d   1       4.855  -1.319  -0.837  0.00  0.00     0.077 A 
ATOM     10  C   UNL d   1       5.654  -0.806   0.186  0.00  0.00     0.104 A 
ATOM     11  C   UNL d   1       5.061   0.025   1.141  0.00  0.00     0.113 A 
ATOM     12  C   UNL d   1       3.683   0.234   1.153  0.00  0.00     0.055 A 
BRANCH   8  13
ATOM     13  O   UNL d   1       2.653  -1.599  -1.882  0.00  0.00    -0.278 OA
BRANCH  13  14
ATOM     14  C   UNL d   1       3.072  -1.891  -3.187  0.00  0.00     0.260 C 
ATOM     15  O   UNL d   1       4.157  -1.612  -3.678  0.00  0.00    -0.265 OA
ATOM     16  C   UNL d   1       1.971  -2.624  -3.901  0.00  0.00     0.126 C 
ENDBRANCH  13  14
ENDBRANCH   8  13
BRANCH  10  17
ATOM     17  O   UNL d   1       6.978  -1.091   0.383  0.00  0.00    -0.353 OA
ATOM     18  C   UNL d   1       7.658  -1.782  -0.656  0.00  0.00     0.210 C 
ENDBRANCH  10  17
BRANCH  11  19
ATOM     19  O   UNL d   1       5.870   0.550   2.172  0.00  0.00    -0.276 OA
BRANCH  19  20
ATOM     20  C   UNL d   1       5.649   1.861   2.594  0.00  0.00     0.260 C 
ATOM     21  O   UNL d   1       4.839   2.658   2.144  0.00  0.00    -0.265 OA
ATOM     22  C   UNL d   1       6.601   2.189   3.703  0.00  0.00     0.126 C 
ENDBRANCH  19  20
ENDBRANCH  11  19
ENDBRANCH   1   7
BRANCH   2  23
ATOM     23  O   UNL d   1       1.458   2.101   1.136  0.00  0.00    -0.278 OA
BRANCH  23  24
ATOM     24  C   UNL d   1       0.929   3.393   1.166  0.00  0.00     0.260 C 
ATOM     25  O   UNL d   1      -0.225   3.711   0.903  0.00  0.00    -0.265 OA
ATOM     26  C   UNL d   1       2.002   4.355   1.586  0.00  0.00     0.126 C 
ENDBRANCH  23  24
ENDBRANCH   2  23
BRANCH   4  27
ATOM     27  O   UNL d   1      -1.469  -2.618   0.351  0.00  0.00    -0.276 OA
BRANCH  27  28
ATOM     28  C   UNL d   1      -1.309  -3.332  -0.836  0.00  0.00     0.260 C 
ATOM     29  O   UNL d   1      -0.628  -3.023  -1.802  0.00  0.00    -0.265 OA
ATOM     30  C   UNL d   1      -2.148  -4.575  -0.781  0.00  0.00     0.126 C 
ENDBRANCH  27  28
ENDBRANCH   4  27
BRANCH   6  31
ATOM     31  O   UNL d   1      -2.618  -0.587   1.648  0.00  0.00    -0.353 OA
ATOM     32  C   UNL d   1      -3.341   0.524   2.164  0.00  0.00     0.210 C 
ENDBRANCH   6  31
TORSDOF 11
