REMARK  2 active torsions:
REMARK  status: ('A' for Active; 'I' for Inactive)
REMARK    1  A    between atoms: C_14  and  N_4 
REMARK    2  A    between atoms: O_13  and  C_5 
ROOT
ATOM      1  C   UNL d   1       1.448   0.846  -0.027  0.00  0.00     0.100 A 
ATOM      2  C   UNL d   1       0.714   2.147  -0.034  0.00  0.00     0.264 A 
ATOM      3  C   UNL d   1       0.762  -0.304  -0.021  0.00  0.00     0.110 A 
ATOM      4  N   UNL d   1      -0.677   2.122  -0.010  0.00  0.00    -0.313 N 
ATOM      5  C   UNL d   1       2.897   0.773  -0.016  0.00  0.00     0.090 A 
ATOM      6  C   UNL d   1      -0.704  -0.327  -0.021  0.00  0.00     0.026 A 
ATOM      7  C   UNL d   1       3.527  -0.404  -0.006  0.00  0.00     0.120 A 
ATOM      8  C   UNL d   1      -1.409   0.892  -0.025  0.00  0.00     0.050 A 
ATOM      9  O   UNL d   1       1.408  -1.564  -0.011  0.00  0.00    -0.273 OA
ATOM     10  C   UNL d   1       2.772  -1.663  -0.004  0.00  0.00     0.290 A 
ATOM     11  O   UNL d   1       1.374   3.191  -0.048  0.00  0.00    -0.267 OA
ATOM     12  O   UNL d   1       3.353  -2.742   0.003  0.00  0.00    -0.260 OA
ATOM     13  C   UNL d   1      -1.411  -1.542  -0.010  0.00  0.00     0.016 A 
ATOM     14  C   UNL d   1      -2.813   0.856  -0.031  0.00  0.00     0.031 A 
ATOM     15  C   UNL d   1      -2.804  -1.557  -0.004  0.00  0.00     0.001 A 
ATOM     16  C   UNL d   1      -3.504  -0.358  -0.016  0.00  0.00     0.002 A 
ENDROOT
BRANCH   4  17
ATOM     17  C   UNL d   1      -1.373   3.411   0.044  0.00  0.00     0.128 C 
ATOM     18  C   UNL d   1      -1.712   3.964  -1.333  0.00  0.00     0.027 C 
ENDBRANCH   4  17
BRANCH   5  19
ATOM     19  O   UNL d   1       3.635   1.941  -0.010  0.00  0.00    -0.359 OA
ATOM     20  H   UNL d   1       3.020   2.709  -0.016  0.00  0.00     0.217 HD
ENDBRANCH   5  19
TORSDOF 2
