REMARK  6 active torsions:
REMARK  status: ('A' for Active; 'I' for Inactive)
REMARK    1  A    between atoms: N_2  and  C_1 
REMARK       I    between atoms: C_3  and  N_2 
REMARK    2  A    between atoms: C_15  and  C_3 
REMARK    3  A    between atoms: C_6  and  C_16 
REMARK    4  A    between atoms: O_14  and  C_6 
REMARK    5  A    between atoms: C_17  and  C_15 
REMARK    6  A    between atoms: C_16  and  C_17 
ROOT
ATOM      1  N   UNL d   1      -0.239  -3.560  -0.047  0.00  0.00    -0.327 N 
ATOM      2  C   UNL d   1      -1.392  -4.317   0.047  0.00  0.00     0.222 C 
ATOM      3  O   UNL d   1      -2.541  -3.888   0.143  0.00  0.00    -0.273 OA
ATOM      4  H   UNL d   1       0.613  -4.046  -0.321  0.00  0.00     0.169 HD
ENDROOT
BRANCH   1   5
ATOM      5  C   UNL d   1      -0.168  -2.147   0.018  0.00  0.00     0.037 A 
ATOM      6  C   UNL d   1      -1.239  -1.345   0.425  0.00  0.00     0.053 A 
ATOM      7  C   UNL d   1      -1.124   0.046   0.424  0.00  0.00     0.037 A 
ATOM      8 CL   UNL d   1      -2.465   1.011   0.908  0.00  0.00    -0.084 Cl
ATOM      9  C   UNL d   1       0.060   0.659   0.032  0.00  0.00     0.048 A 
ATOM     10  C   UNL d   1       1.137  -0.136  -0.346  0.00  0.00     0.037 A 
ATOM     11  C   UNL d   1       1.034  -1.532  -0.348  0.00  0.00     0.053 A 
ATOM     12 CL   UNL d   1       2.610   0.614  -0.832  0.00  0.00    -0.084 Cl
ENDBRANCH   1   5
BRANCH   2  13
ATOM     13  C   UNL d   1      -1.159  -5.812  -0.041  0.00  0.00     0.103 C 
BRANCH  13  14
ATOM     14  C   UNL d   1      -1.833  -6.398  -1.286  0.00  0.00     0.019 C 
BRANCH  14  15
ATOM     15  C   UNL d   1      -1.264  -5.875  -2.603  0.00  0.00     0.110 C 
BRANCH  15  16
ATOM     16  C   UNL d   1       0.193  -6.227  -2.739  0.00  0.00     0.139 C 
ATOM     17  O   UNL d   1       1.094  -5.545  -2.266  0.00  0.00    -0.650 OA
BRANCH  16  18
ATOM     18  O   UNL d   1       0.414  -7.406  -3.356  0.00  0.00    -0.776 OA
ATOM     19  H   UNL d   1      -0.397  -7.861  -3.655  0.00  0.00     0.167 HD
ENDBRANCH  16  18
ENDBRANCH  15  16
ENDBRANCH  14  15
ENDBRANCH  13  14
ENDBRANCH   2  13
TORSDOF 6
