REMARK  4 active torsions:
REMARK  status: ('A' for Active; 'I' for Inactive)
REMARK    1  A    between atoms: N_8  and  C_2 
REMARK    2  A    between atoms: C_5  and  N_8 
REMARK    3  A    between atoms: N_10  and  C_5 
REMARK    4  A    between atoms: C_14  and  N_10 
ROOT
ATOM      1  N   UNL d   1       2.793   2.284  -2.527  0.00  0.00    -0.362 N 
ATOM      2  H   UNL d   1       3.786   2.229  -2.713  0.00  0.00     0.162 HD
ENDROOT
BRANCH   1   3
ATOM      3  C   UNL d   1       2.110   2.679  -3.628  0.00  0.00     0.172 C 
ATOM      4  S   UNL d   1       0.488   2.469  -3.913  0.00  0.00    -0.041 SA
BRANCH   3   5
ATOM      5  N   UNL d   1       2.862   3.241  -4.635  0.00  0.00    -0.333 N 
ATOM      6  H   UNL d   1       2.372   3.234  -5.524  0.00  0.00     0.168 HD
BRANCH   5   7
ATOM      7  C   UNL d   1       4.049   4.007  -4.619  0.00  0.00     0.034 A 
ATOM      8  C   UNL d   1       4.653   4.288  -5.860  0.00  0.00     0.032 A 
ATOM      9  C   UNL d   1       5.790   5.096  -5.946  0.00  0.00     0.044 A 
ATOM     10  C   UNL d   1       6.324   5.649  -4.794  0.00  0.00     0.116 A 
ATOM     11  C   UNL d   1       5.744   5.400  -3.559  0.00  0.00     0.044 A 
ATOM     12  F   UNL d   1       7.402   6.443  -4.875  0.00  0.00    -0.206 F 
ATOM     13  C   UNL d   1       4.609   4.580  -3.469  0.00  0.00     0.032 A 
ENDBRANCH   5   7
ENDBRANCH   3   5
ENDBRANCH   1   3
BRANCH   1  14
ATOM     14  C   UNL d   1       2.429   1.869  -1.183  0.00  0.00     0.089 C 
ATOM     15  C   UNL d   1       2.064   0.427  -0.750  0.00  0.00     0.017 C 
ATOM     16  C   UNL d   1       0.573  -0.025  -0.593  0.00  0.00     0.018 C 
ATOM     17  C   UNL d   1       2.318   0.675   0.771  0.00  0.00     0.012 C 
ATOM     18  C   UNL d   1       0.007   0.878   0.534  0.00  0.00     0.001 C 
ATOM     19  C   UNL d   1      -0.510  -0.002  -1.612  0.00  0.00    -0.025 C 
ATOM     20  C   UNL d   1      -1.288   1.508   0.030  0.00  0.00     0.032 C 
ATOM     21  C   UNL d   1       1.215   1.760   0.874  0.00  0.00    -0.007 C 
ATOM     22  C   UNL d   1      -1.546   0.756  -1.230  0.00  0.00    -0.030 C 
ATOM     23  C   UNL d   1       1.568   2.748  -0.278  0.00  0.00     0.030 C 
ENDBRANCH   1  14
TORSDOF 4
