REMARK  7 active torsions:
REMARK  status: ('A' for Active; 'I' for Inactive)
REMARK    1  A    between atoms: N_2  and  C_1 
REMARK    2  A    between atoms: N_3  and  C_1 
REMARK    3  A    between atoms: C_4  and  C_1 
REMARK    4  A    between atoms: C_5  and  C_1 
REMARK       I    between atoms: C_7  and  N_2 
REMARK    5  A    between atoms: C_6  and  N_3 
REMARK    6  A    between atoms: O_13  and  C_7 
REMARK    7  A    between atoms: C_21  and  O_13 
ROOT
ATOM      1  C   UNL d   1       0.936   0.105   0.072  0.00  0.00     0.309 C 
ENDROOT
BRANCH   1   2
ATOM      2  N   UNL d   1       0.443   1.478  -0.106  0.00  0.00    -0.295 N 
ATOM      3  C   UNL d   1       0.790   2.461   0.750  0.00  0.00     0.363 C 
ATOM      4  O   UNL d   1       1.450   2.249   1.764  0.00  0.00    -0.238 OA
ATOM      5  H   UNL d   1       0.122   1.751  -1.031  0.00  0.00     0.168 HD
BRANCH   3   6
ATOM      6  O   UNL d   1       0.329   3.655   0.329  0.00  0.00    -0.299 OA
BRANCH   6   7
ATOM      7  C   UNL d   1       0.664   4.781   1.159  0.00  0.00     0.125 C 
ATOM      8  C   UNL d   1       2.042   5.300   0.767  0.00  0.00     0.040 C 
ATOM      9  C   UNL d   1      -0.393   5.863   0.968  0.00  0.00     0.040 C 
ENDBRANCH   6   7
ENDBRANCH   3   6
ENDBRANCH   1   2
BRANCH   1  10
ATOM     10  N   UNL d   1       0.261  -0.633  -1.064  0.00  0.00    -0.329 N 
ATOM     11  H   UNL d   1       0.078  -1.613  -0.850  0.00  0.00     0.164 HD
BRANCH  10  12
ATOM     12  C   UNL d   1       0.473  -0.334  -2.364  0.00  0.00     0.146 A 
ATOM     13  N   UNL d   1       0.811   0.850  -2.817  0.00  0.00    -0.346 N 
ATOM     14  C   UNL d   1       0.834   0.838  -4.202  0.00  0.00     0.097 A 
ATOM     15  HN  UNL d   1       1.025   1.660  -2.236  1.00  0.00     0.167 HD
ATOM     16  C   UNL d   1       0.538  -0.370  -4.794  0.00  0.00     0.070 A 
ATOM     17  S   UNL d   1       0.209  -1.530  -3.579  0.00  0.00    -0.065 SA
ENDBRANCH  10  12
ENDBRANCH   1  10
BRANCH   1  18
ATOM     18  C   UNL d   1       0.425  -0.534   1.431  0.00  0.00     0.441 C 
ATOM     19  F   UNL d   1      -0.536   0.225   2.023  0.00  0.00    -0.166 F 
ATOM     20  F   UNL d   1      -0.188  -1.730   1.158  0.00  0.00    -0.166 F 
ATOM     21  F   UNL d   1       1.339  -0.805   2.377  0.00  0.00    -0.166 F 
ENDBRANCH   1  18
BRANCH   1  22
ATOM     22  C   UNL d   1       2.510  -0.040   0.044  0.00  0.00     0.441 C 
ATOM     23  F   UNL d   1       3.126   1.138  -0.236  0.00  0.00    -0.166 F 
ATOM     24  F   UNL d   1       3.085  -0.507   1.171  0.00  0.00    -0.166 F 
ATOM     25  F   UNL d   1       2.906  -0.902  -0.936  0.00  0.00    -0.166 F 
ENDBRANCH   1  22
TORSDOF 7
