REMARK  4 active torsions:
REMARK  status: ('A' for Active; 'I' for Inactive)
REMARK    1  A    between atoms: C_2  and  C_1 
REMARK       I    between atoms: N_3  and  C_1 
REMARK    2  A    between atoms: C_4  and  N_3 
REMARK    3  A    between atoms: O_17  and  C_10 
REMARK    4  A    between atoms: O_16  and  C_11 
ROOT
ATOM      1  C   UNL d   1       1.011   0.298  -0.245  0.00  0.00     0.274 C 
ATOM      2  N   UNL d   1       0.200  -0.597  -0.923  0.00  0.00    -0.322 N 
ATOM      3  O   UNL d   1       0.655   1.316   0.342  0.00  0.00    -0.266 OA
ATOM      4  H   UNL d   1       0.666  -1.438  -1.257  0.00  0.00     0.169 HD
ENDROOT
BRANCH   2   5
ATOM      5  C   UNL d   1      -1.190  -0.480  -1.140  0.00  0.00     0.040 A 
ATOM      6  C   UNL d   1      -1.902   0.695  -0.883  0.00  0.00     0.066 A 
ATOM      7  C   UNL d   1      -3.277   0.762  -1.107  0.00  0.00     0.073 A 
ATOM      8  C   UNL d   1      -3.954  -0.362  -1.585  0.00  0.00     0.073 A 
ATOM      9  C   UNL d   1      -3.260  -1.540  -1.859  0.00  0.00     0.073 A 
ATOM     10  C   UNL d   1      -1.877  -1.589  -1.649  0.00  0.00     0.066 A 
BRANCH   7  11
ATOM     11  O   UNL d   1      -4.067   1.863  -0.897  0.00  0.00    -0.356 OA
ATOM     12  C   UNL d   1      -3.405   3.051  -0.475  0.00  0.00     0.210 C 
ENDBRANCH   7  11
BRANCH   9  13
ATOM     13  O   UNL d   1      -3.815  -2.700  -2.331  0.00  0.00    -0.356 OA
ATOM     14  C   UNL d   1      -5.234  -2.726  -2.452  0.00  0.00     0.210 C 
ENDBRANCH   9  13
ENDBRANCH   2   5
BRANCH   1  15
ATOM     15  C   UNL d   1       2.455  -0.060  -0.238  0.00  0.00     0.116 A 
ATOM     16  N   UNL d   1       2.845  -1.145  -0.969  0.00  0.00    -0.359 N 
ATOM     17  C   UNL d   1       4.179  -1.382  -0.953  0.00  0.00     0.105 A 
ATOM     18  HN  UNL d   1       2.187  -1.728  -1.486  1.00  0.00     0.165 HD
ATOM     19  C   UNL d   1       5.076  -0.596  -0.240  0.00  0.00     0.104 A 
ATOM     20  N   UNL d   1       4.684   0.468   0.494  0.00  0.00    -0.372 N 
ATOM     21  C   UNL d   1       3.351   0.722   0.479  0.00  0.00     0.122 A 
ATOM     22  HN  UNL d   1       5.343   1.039   1.023  1.00  0.00     0.164 HD
ENDBRANCH   1  15
TORSDOF 4
