REMARK  6 active torsions:
REMARK  status: ('A' for Active; 'I' for Inactive)
REMARK    1  A    between atoms: C_2  and  C_1 
REMARK    2  A    between atoms: O_6  and  C_2 
REMARK    3  A    between atoms: N_3  and  O_6 
REMARK    4  A    between atoms: C_8  and  O_12 
REMARK    5  A    between atoms: C_16  and  C_11 
REMARK    6  A    between atoms: O_12  and  C_16 
ROOT
ATOM      1  N   UNL d   1       2.422   1.997   0.408  0.00  0.00    -0.264 N 
ATOM      2  HN  UNL d   1       1.696   2.709   0.492  1.00  0.00     0.194 HD
ATOM      3  C   UNL d   1       3.674   2.271   0.191  0.00  0.00     0.031 C 
ATOM      4  C   UNL d   1       4.776   1.252   0.030  0.00  0.00     0.068 C 
ENDROOT
BRANCH   1   5
ATOM      5  O   UNL d   1       2.170   0.616   0.518  0.00  0.00    -0.195 OA
BRANCH   5   6
ATOM      6  C   UNL d   1       0.825   0.380   0.413  0.00  0.00     0.319 C 
ATOM      7  O   UNL d   1      -0.044   1.200   0.146  0.00  0.00    -0.257 OA
BRANCH   6   8
ATOM      8  C   UNL d   1       0.531  -1.048   0.676  0.00  0.00     0.101 A 
ATOM      9  C   UNL d   1      -0.679  -1.460   1.258  0.00  0.00     0.053 A 
ATOM     10 CL   UNL d   1      -1.881  -0.367   1.852  0.00  0.00    -0.083 Cl
ATOM     11  C   UNL d   1      -0.958  -2.827   1.424  0.00  0.00     0.025 A 
ATOM     12  C   UNL d   1      -0.035  -3.792   1.028  0.00  0.00     0.005 A 
ATOM     13  C   UNL d   1       1.173  -3.393   0.466  0.00  0.00     0.043 A 
ATOM     14  C   UNL d   1       1.444  -2.035   0.287  0.00  0.00     0.134 A 
ATOM     15  F   UNL d   1       2.609  -1.715  -0.294  0.00  0.00    -0.205 F 
ENDBRANCH   6   8
ENDBRANCH   5   6
ENDBRANCH   1   5
BRANCH   3  16
ATOM     16  C   UNL d   1       4.087   3.742   0.178  0.00  0.00     0.229 C 
BRANCH  16  17
ATOM     17  O   UNL d   1       4.628   4.091  -1.083  0.00  0.00    -0.344 OA
BRANCH  17  18
ATOM     18  C   UNL d   1       4.987   5.388  -1.339  0.00  0.00     0.091 A 
ATOM     19  C   UNL d   1       5.116   6.491  -0.477  0.00  0.00     0.069 A 
ATOM     20  C   UNL d   1       5.535   7.735  -0.980  0.00  0.00     0.050 A 
ATOM     21 CL   UNL d   1       4.826   6.473   1.228  0.00  0.00    -0.081 Cl
ATOM     22  C   UNL d   1       5.829   7.890  -2.331  0.00  0.00     0.035 A 
ATOM     23  C   UNL d   1       5.704   6.814  -3.198  0.00  0.00     0.026 A 
ATOM     24 CL   UNL d   1       6.357   9.415  -2.923  0.00  0.00    -0.084 Cl
ATOM     25  C   UNL d   1       5.288   5.576  -2.701  0.00  0.00     0.040 A 
ENDBRANCH  17  18
ENDBRANCH  16  17
ENDBRANCH   3  16
TORSDOF 6
