REMARK  4 active torsions:
REMARK  status: ('A' for Active; 'I' for Inactive)
REMARK       I    between atoms: N_2  and  C_1 
REMARK    1  A    between atoms: C_5  and  C_1 
REMARK    2  A    between atoms: C_6  and  N_2 
REMARK    3  A    between atoms: S_3  and  C_5 
REMARK    4  A    between atoms: C_7  and  S_3 
ROOT
ATOM      1  C   UNL d   1       1.079  -0.059   0.097  0.00  0.00     0.231 C 
ATOM      2  N   UNL d   1       0.444   0.426  -1.033  0.00  0.00    -0.327 N 
ATOM      3  O   UNL d   1       0.507  -0.536   1.079  0.00  0.00    -0.272 OA
ATOM      4  H   UNL d   1       1.041   0.665  -1.819  0.00  0.00     0.169 HD
ENDROOT
BRANCH   1   5
ATOM      5  C   UNL d   1       2.606  -0.082   0.060  0.00  0.00     0.182 C 
BRANCH   5   6
ATOM      6  S   UNL d   1       3.321   1.321  -0.855  0.00  0.00    -0.121 SA
BRANCH   6   7
ATOM      7  C   UNL d   1       5.087   1.104  -0.637  0.00  0.00     0.001 A 
ATOM      8  C   UNL d   1       5.912   1.673  -1.619  0.00  0.00     0.020 A 
ATOM      9  C   UNL d   1       7.306   1.616  -1.515  0.00  0.00     0.025 A 
ATOM     10  C   UNL d   1       7.890   0.994  -0.417  0.00  0.00     0.034 A 
ATOM     11  C   UNL d   1       7.090   0.421   0.569  0.00  0.00     0.025 A 
ATOM     12 CL   UNL d   1       9.603   0.948  -0.270  0.00  0.00    -0.084 Cl
ATOM     13  C   UNL d   1       5.692   0.478   0.460  0.00  0.00     0.020 A 
ENDBRANCH   6   7
ENDBRANCH   5   6
ENDBRANCH   1   5
BRANCH   2  14
ATOM     14  C   UNL d   1      -0.942   0.673  -1.184  0.00  0.00     0.034 A 
ATOM     15  C   UNL d   1      -1.857   0.602  -0.126  0.00  0.00     0.031 A 
ATOM     16  C   UNL d   1      -3.206   0.917  -0.316  0.00  0.00     0.021 A 
ATOM     17  C   UNL d   1      -3.657   1.300  -1.573  0.00  0.00     0.011 A 
ATOM     18  C   UNL d   1      -2.768   1.362  -2.644  0.00  0.00     0.021 A 
ATOM     19 BR   UNL d   1      -5.474   1.758  -1.819  0.00  0.00    -0.051 Br
ATOM     20  C   UNL d   1      -1.416   1.052  -2.448  0.00  0.00     0.031 A 
ENDBRANCH   2  14
TORSDOF 4
