REMARK  7 active torsions:
REMARK  status: ('A' for Active; 'I' for Inactive)
REMARK    1  A    between atoms: C_8  and  C_1 
REMARK    2  A    between atoms: C_3  and  C_2 
REMARK       I    between atoms: C_6  and  N_13 
REMARK    3  A    between atoms: C_9  and  C_6 
REMARK    4  A    between atoms: N_14  and  C_7 
REMARK    5  A    between atoms: O_24  and  C_8 
REMARK    6  A    between atoms: N_13  and  N_14 
REMARK    7  A    between atoms: C_25  and  O_24 
ROOT
ATOM      1  C   UNL d   1      -0.045  -1.437   0.011  0.00  0.00     0.086 A 
ATOM      2  C   UNL d   1       1.155  -0.756   0.046  0.00  0.00     0.136 A 
ATOM      3  N   UNL d   1       1.182   0.610   0.184  0.00  0.00    -0.327 N 
ATOM      4  HN  UNL d   1       2.073   1.104   0.236  1.00  0.00     0.168 HD
ATOM      5  C   UNL d   1       0.029   1.290   0.250  0.00  0.00     0.176 A 
ATOM      6  N   UNL d   1      -1.170   0.699   0.166  0.00  0.00    -0.340 N 
ATOM      7  HN  UNL d   1      -2.035   1.239   0.191  1.00  0.00     0.167 HD
ATOM      8  C   UNL d   1      -1.179  -0.647   0.047  0.00  0.00     0.110 A 
ENDROOT
BRANCH   5   9
ATOM      9  N   UNL d   1       0.124   2.672   0.454  0.00  0.00    -0.172 NA
ATOM     10  H   UNL d   1       1.065   2.970   0.184  0.00  0.00     0.156 HD
BRANCH   9  11
ATOM     11  N   UNL d   1      -0.892   3.420  -0.174  0.00  0.00    -0.279 N 
ATOM     12  C   UNL d   1      -0.566   4.680  -0.643  0.00  0.00     0.289 C 
ATOM     13  O   UNL d   1       0.607   5.060  -0.701  0.00  0.00    -0.264 OA
ATOM     14  H   UNL d   1      -1.855   3.133  -0.009  0.00  0.00     0.184 HD
BRANCH  12  15
ATOM     15  C   UNL d   1      -1.691   5.494  -1.041  0.00  0.00     0.143 A 
ATOM     16  O   UNL d   1      -2.962   4.977  -0.996  0.00  0.00    -0.317 OA
ATOM     17  C   UNL d   1      -3.806   5.950  -1.428  0.00  0.00     0.143 A 
ATOM     18  C   UNL d   1      -3.109   7.092  -1.742  0.00  0.00     0.027 A 
ATOM     19  C   UNL d   1      -1.747   6.802  -1.494  0.00  0.00     0.045 A 
ENDBRANCH  12  15
ENDBRANCH   9  11
ENDBRANCH   5   9
BRANCH   2  20
ATOM     20  C   UNL d   1       2.512  -1.417  -0.105  0.00  0.00     0.433 C 
ATOM     21  F   UNL d   1       2.506  -2.726  -0.472  0.00  0.00    -0.165 F 
ATOM     22  F   UNL d   1       3.268  -0.805  -1.067  0.00  0.00    -0.165 F 
ATOM     23  F   UNL d   1       3.254  -1.351   1.038  0.00  0.00    -0.165 F 
ENDBRANCH   2  20
BRANCH   1  24
ATOM     24  C   UNL d   1      -0.257  -2.887  -0.091  0.00  0.00     0.296 C 
ATOM     25  O   UNL d   1      -1.164  -3.368  -0.750  0.00  0.00    -0.259 OA
BRANCH  24  26
ATOM     26  O   UNL d   1       0.591  -3.550   0.722  0.00  0.00    -0.318 OA
BRANCH  26  27
ATOM     27  C   UNL d   1       0.453  -4.984   0.732  0.00  0.00     0.174 C 
ATOM     28  C   UNL d   1       0.996  -5.613  -0.541  0.00  0.00     0.034 C 
ENDBRANCH  26  27
ENDBRANCH  24  26
ENDBRANCH   1  24
TORSDOF 7
