REMARK  3 active torsions:
REMARK  status: ('A' for Active; 'I' for Inactive)
REMARK    1  A    between atoms: C_8  and  N_3 
REMARK    2  A    between atoms: C_9  and  C_4 
REMARK    3  A    between atoms: C_7  and  C_5 
ROOT
ATOM      1  N   UNL d   1       1.141  -0.186   0.090  0.00  0.00    -0.301 N 
ATOM      2  HN  UNL d   1       2.140  -0.378   0.154  1.00  0.00     0.187 HD
ATOM      3  N   UNL d   1       0.135  -1.109   0.093  0.00  0.00    -0.283 N 
ATOM      4  C   UNL d   1       0.586   0.982  -0.011  0.00  0.00     0.038 A 
ATOM      5  C   UNL d   1      -1.201  -0.520  -0.004  0.00  0.00     0.147 A 
ATOM      6  C   UNL d   1      -0.919   0.981  -0.042  0.00  0.00     0.091 A 
ENDROOT
BRANCH   5   7
ATOM      7  C   UNL d   1      -2.100  -0.886   1.167  0.00  0.00    -0.033 A 
ATOM      8  C   UNL d   1      -1.583  -1.119   2.452  0.00  0.00     0.010 A 
ATOM      9  C   UNL d   1      -2.421  -1.478   3.508  0.00  0.00     0.007 A 
ATOM     10  C   UNL d   1      -3.799  -1.594   3.310  0.00  0.00    -0.062 A 
ATOM     11  C   UNL d   1      -4.327  -1.338   2.040  0.00  0.00     0.007 A 
ATOM     12  C   UNL d   1      -4.684  -1.993   4.454  0.00  0.00     0.048 C 
ATOM     13  C   UNL d   1      -3.487  -0.987   0.979  0.00  0.00     0.010 A 
ENDBRANCH   5   7
BRANCH   3  14
ATOM     14  C   UNL d   1       0.414  -2.474   0.053  0.00  0.00     0.051 A 
ATOM     15  C   UNL d   1       1.622  -2.971   0.567  0.00  0.00     0.031 A 
ATOM     16  C   UNL d   1       1.901  -4.342   0.593  0.00  0.00     0.002 A 
ATOM     17  C   UNL d   1       0.983  -5.248   0.073  0.00  0.00     0.000 A 
ATOM     18  C   UNL d   1      -0.212  -4.782  -0.464  0.00  0.00     0.002 A 
ATOM     19  C   UNL d   1      -0.493  -3.412  -0.465  0.00  0.00     0.031 A 
ENDBRANCH   3  14
BRANCH   4  20
ATOM     20  C   UNL d   1       1.357   2.246  -0.108  0.00  0.00    -0.012 A 
ATOM     21  C   UNL d   1       2.755   2.194  -0.091  0.00  0.00     0.013 A 
ATOM     22  C   UNL d   1       3.506   3.365  -0.220  0.00  0.00     0.001 A 
ATOM     23  C   UNL d   1       2.861   4.593  -0.367  0.00  0.00     0.000 A 
ATOM     24  C   UNL d   1       1.469   4.651  -0.381  0.00  0.00     0.001 A 
ATOM     25  C   UNL d   1       0.714   3.482  -0.249  0.00  0.00     0.013 A 
ENDBRANCH   4  20
TORSDOF 3
