REMARK  6 active torsions:
REMARK  status: ('A' for Active; 'I' for Inactive)
REMARK    1  A    between atoms: C_7  and  C_1 
REMARK    2  A    between atoms: C_2  and  C_4 
REMARK    3  A    between atoms: C_3  and  C_5 
REMARK    4  A    between atoms: N_15  and  C_19 
REMARK    5  A    between atoms: N_21  and  N_15 
REMARK       I    between atoms: C_18  and  N_21 
REMARK    6  A    between atoms: C_20  and  C_18 
ROOT
ATOM      1  N   UNL d   1       2.772  -4.542   2.075  0.00  0.00    -0.197 NA
ATOM      2  C   UNL d   1       2.279  -5.047   1.155  0.00  0.00     0.068 C 
ATOM      3  C   UNL d   1       1.706  -5.684  -0.033  0.00  0.00     0.228 C 
ENDROOT
BRANCH   3   4
ATOM      4  C   UNL d   1       0.205  -5.827   0.065  0.00  0.00     0.249 C 
ATOM      5  N   UNL d   1      -0.560  -4.682   0.002  0.00  0.00    -0.270 N 
ATOM      6  H   UNL d   1      -1.567  -4.792   0.073  0.00  0.00     0.190 HD
ATOM      7  O   UNL d   1      -0.341  -6.928   0.148  0.00  0.00    -0.271 OA
BRANCH   5   8
ATOM      8  N   UNL d   1       0.011  -3.454  -0.046  0.00  0.00    -0.307 N 
ATOM      9  HN  UNL d   1       1.024  -3.344  -0.100  1.00  0.00     0.186 HD
BRANCH   8  10
ATOM     10  C   UNL d   1      -0.777  -2.423  -0.022  0.00  0.00     0.144 C 
ATOM     11  C   UNL d   1      -0.181  -1.114  -0.018  0.00  0.00     0.093 A 
ATOM     12  O   UNL d   1      -0.961   0.012  -0.095  0.00  0.00    -0.309 OA
ATOM     13  C   UNL d   1       1.151  -0.759   0.055  0.00  0.00     0.041 A 
ATOM     14  C   UNL d   1      -0.107   1.087  -0.064  0.00  0.00     0.086 A 
ATOM     15  C   UNL d   1       1.197   0.645   0.036  0.00  0.00     0.041 A 
BRANCH  14  16
ATOM     16  C   UNL d   1      -0.661   2.430  -0.189  0.00  0.00    -0.001 A 
ATOM     17  C   UNL d   1       0.040   3.512   0.373  0.00  0.00     0.030 A 
ATOM     18  C   UNL d   1      -0.317   4.842   0.102  0.00  0.00     0.049 A 
ATOM     19  C   UNL d   1      -1.425   5.087  -0.719  0.00  0.00     0.032 A 
ATOM     20  C   UNL d   1      -2.159   4.025  -1.274  0.00  0.00     0.049 A 
ATOM     21  C   UNL d   1      -1.779   2.699  -0.987  0.00  0.00     0.030 A 
BRANCH  18  22
ATOM     22  C   UNL d   1       0.539   5.969   0.633  0.00  0.00     0.417 C 
ATOM     23  F   UNL d   1       0.154   7.197   0.190  0.00  0.00    -0.166 F 
ATOM     24  F   UNL d   1       0.535   6.037   1.991  0.00  0.00    -0.166 F 
ATOM     25  F   UNL d   1       1.844   5.834   0.267  0.00  0.00    -0.166 F 
ENDBRANCH  18  22
BRANCH  20  26
ATOM     26  C   UNL d   1      -3.292   4.292  -2.238  0.00  0.00     0.417 C 
ATOM     27  F   UNL d   1      -3.497   5.618  -2.477  0.00  0.00    -0.166 F 
ATOM     28  F   UNL d   1      -3.073   3.726  -3.457  0.00  0.00    -0.166 F 
ATOM     29  F   UNL d   1      -4.483   3.800  -1.802  0.00  0.00    -0.166 F 
ENDBRANCH  20  26
ENDBRANCH  14  16
ENDBRANCH   8  10
ENDBRANCH   5   8
ENDBRANCH   3   4
TORSDOF 6
