REMARK  3 active torsions:
REMARK  status: ('A' for Active; 'I' for Inactive)
REMARK    1  A    between atoms: C_3  and  C_8 
REMARK    2  A    between atoms: C_6  and  C_3 
REMARK    3  A    between atoms: C_8  and  C_7 
ROOT
ATOM      1  N   UNL d   1       0.205  -6.469  -4.098  0.00  0.00    -0.196 NA
ATOM      2  N   UNL d   1       2.435  -3.563  -1.768  0.00  0.00    -0.196 NA
ATOM      3  C   UNL d   1       0.185  -5.444  -3.558  0.00  0.00     0.079 C 
ATOM      4  C   UNL d   1       1.409  -3.811  -2.253  0.00  0.00     0.079 C 
ATOM      5  C   UNL d   1       0.106  -4.153  -2.850  0.00  0.00     0.206 C 
ENDROOT
BRANCH   5   6
ATOM      6  C   UNL d   1      -0.978  -4.259  -1.766  0.00  0.00     0.117 C 
BRANCH   6   7
ATOM      7  C   UNL d   1      -1.328  -2.912  -1.167  0.00  0.00     0.161 C 
ATOM      8  O   UNL d   1      -0.865  -1.870  -1.625  0.00  0.00    -0.292 OA
BRANCH   7   9
ATOM      9  C   UNL d   1      -2.304  -2.854  -0.035  0.00  0.00     0.010 A 
ATOM     10  C   UNL d   1      -2.620  -3.978   0.739  0.00  0.00     0.017 A 
ATOM     11  C   UNL d   1      -3.511  -3.865   1.813  0.00  0.00     0.025 A 
ATOM     12  C   UNL d   1      -4.094  -2.635   2.110  0.00  0.00     0.034 A 
ATOM     13  C   UNL d   1      -3.806  -1.516   1.332  0.00  0.00     0.025 A 
ATOM     14 CL   UNL d   1      -5.162  -2.498   3.450  0.00  0.00    -0.084 Cl
ATOM     15  C   UNL d   1      -2.910  -1.624   0.264  0.00  0.00     0.017 A 
ENDBRANCH   7   9
ENDBRANCH   6   7
ENDBRANCH   5   6
TORSDOF 3
