REMARK  7 active torsions:
REMARK  status: ('A' for Active; 'I' for Inactive)
REMARK    1  A    between atoms: C_2  and  N_1 
REMARK    2  A    between atoms: C_3  and  C_4 
REMARK    3  A    between atoms: C_5  and  C_8 
REMARK    4  A    between atoms: C_18  and  C_10 
REMARK    5  A    between atoms: C_11  and  C_29 
REMARK    6  A    between atoms: O_28  and  N_21 
REMARK    7  A    between atoms: C_29  and  O_28 
ROOT
ATOM      1  C   UNL d   1       1.905  -0.417   2.762  0.00  0.00     0.088 A 
ATOM      2  O   UNL d   1       2.947  -1.082   3.344  0.00  0.00    -0.308 OA
ATOM      3  C   UNL d   1       2.364   0.745   2.178  0.00  0.00     0.041 A 
ATOM      4  C   UNL d   1       4.062  -0.308   3.191  0.00  0.00     0.093 A 
ATOM      5  C   UNL d   1       3.749   0.818   2.458  0.00  0.00     0.041 A 
ENDROOT
BRANCH   4   6
ATOM      6  C   UNL d   1       5.281  -0.731   3.814  0.00  0.00     0.151 C 
ATOM      7  N   UNL d   1       6.250   0.113   3.966  0.00  0.00    -0.275 N 
ATOM      8  HN  UNL d   1       6.246   1.078   3.636  1.00  0.00     0.193 HD
BRANCH   7   9
ATOM      9  O   UNL d   1       7.309  -0.503   4.657  0.00  0.00    -0.276 OA
BRANCH   9  10
ATOM     10  C   UNL d   1       7.942   0.488   5.467  0.00  0.00     0.241 C 
BRANCH  10  11
ATOM     11  C   UNL d   1       9.197  -0.065   6.106  0.00  0.00    -0.020 C 
ATOM     12  C   UNL d   1      10.458   0.098   5.487  0.00  0.00    -0.052 C 
ATOM     13  C   UNL d   1      11.625  -0.280   6.179  0.00  0.00     0.014 C 
ATOM     14  C   UNL d   1      10.643   0.655   4.099  0.00  0.00     0.049 C 
ATOM     15  C   UNL d   1      11.562  -0.846   7.454  0.00  0.00    -0.061 C 
ATOM     16  C   UNL d   1      10.312  -1.092   8.018  0.00  0.00     0.014 C 
ATOM     17  C   UNL d   1      12.823  -1.218   8.174  0.00  0.00     0.048 C 
ATOM     18  C   UNL d   1       9.127  -0.743   7.347  0.00  0.00    -0.052 C 
ATOM     19  C   UNL d   1       7.824  -1.093   8.016  0.00  0.00     0.049 C 
ENDBRANCH  10  11
ENDBRANCH   9  10
ENDBRANCH   7   9
ENDBRANCH   4   6
BRANCH   1  20
ATOM     20  C   UNL d   1       0.607  -1.080   2.821  0.00  0.00     0.031 A 
ATOM     21  C   UNL d   1       0.153  -1.835   3.912  0.00  0.00     0.116 A 
ATOM     22  C   UNL d   1      -1.058  -2.551   3.875  0.00  0.00     0.053 A 
ATOM     23  C   UNL d   1      -1.850  -2.521   2.719  0.00  0.00     0.050 A 
ATOM     24  C   UNL d   1      -1.438  -1.721   1.644  0.00  0.00     0.017 A 
ATOM     25  C   UNL d   1      -0.232  -1.009   1.697  0.00  0.00     0.017 A 
BRANCH  21  26
ATOM     26  N   UNL d   1       0.910  -1.892   5.151  0.00  0.00    -0.115 N 
ATOM     27  O   UNL d   1       1.080  -0.831   5.763  0.00  0.00    -0.532 OA
ATOM     28  O   UNL d   1       1.259  -3.017   5.540  0.00  0.00    -0.532 OA
ENDBRANCH  21  26
BRANCH  23  29
ATOM     29  C   UNL d   1      -3.102  -3.359   2.602  0.00  0.00     0.417 C 
ATOM     30  F   UNL d   1      -3.363  -4.099   3.714  0.00  0.00    -0.166 F 
ATOM     31  F   UNL d   1      -4.214  -2.609   2.376  0.00  0.00    -0.166 F 
ATOM     32  F   UNL d   1      -3.028  -4.245   1.571  0.00  0.00    -0.166 F 
ENDBRANCH  23  29
ENDBRANCH   1  20
TORSDOF 7
