REMARK  4 active torsions:
REMARK  status: ('A' for Active; 'I' for Inactive)
REMARK    1  A    between atoms: N_11  and  N_5 
REMARK    2  A    between atoms: C_8  and  N_11 
REMARK    3  A    between atoms: N_9  and  C_8 
REMARK    4  A    between atoms: C_10  and  N_9 
ROOT
ATOM      1  C   UNL d   1      -0.458   1.233   0.364  0.00  0.00     0.129 A 
ATOM      2  C   UNL d   1       0.160   0.421  -0.774  0.00  0.00     0.275 A 
ATOM      3  C   UNL d   1      -1.589   0.444   0.846  0.00  0.00     0.027 A 
ATOM      4  N   UNL d   1      -0.636  -0.696  -0.911  0.00  0.00    -0.321 N 
ATOM      5  N   UNL d   1      -0.099   2.388   0.825  0.00  0.00    -0.293 N 
ATOM      6  HN  UNL d   1      -0.652   2.864   1.538  1.00  0.00     0.187 HD
ATOM      7  C   UNL d   1      -1.640  -0.705   0.054  0.00  0.00     0.048 A 
ATOM      8  C   UNL d   1      -2.453   0.655   1.900  0.00  0.00     0.058 A 
ATOM      9  O   UNL d   1       1.165   0.728  -1.381  0.00  0.00    -0.266 OA
ATOM     10  C   UNL d   1      -2.565  -1.701   0.287  0.00  0.00     0.033 A 
ATOM     11  C   UNL d   1      -3.378  -0.355   2.152  0.00  0.00     0.117 A 
ATOM     12  C   UNL d   1      -3.441  -1.519   1.364  0.00  0.00     0.044 A 
ATOM     13  F   UNL d   1      -4.222  -0.227   3.184  0.00  0.00    -0.206 F 
ATOM     14  H   UNL d   1      -0.461  -1.421  -1.591  0.00  0.00     0.169 HD
ENDROOT
BRANCH   5  15
ATOM     15  N   UNL d   1       1.048   2.952   0.325  0.00  0.00    -0.276 N 
ATOM     16  H   UNL d   1       1.647   2.387  -0.278  0.00  0.00     0.189 HD
BRANCH  15  17
ATOM     17  C   UNL d   1       1.216   4.315   0.310  0.00  0.00     0.186 C 
ATOM     18  S   UNL d   1       0.010   5.451   0.557  0.00  0.00    -0.040 SA
BRANCH  17  19
ATOM     19  N   UNL d   1       2.474   4.787   0.086  0.00  0.00    -0.361 N 
ATOM     20  H   UNL d   1       2.511   5.798   0.007  0.00  0.00     0.162 HD
BRANCH  19  21
ATOM     21  C   UNL d   1       3.758   4.098   0.152  0.00  0.00     0.092 C 
ATOM     22  C   UNL d   1       4.364   3.749  -1.236  0.00  0.00     0.031 C 
ATOM     23  C   UNL d   1       4.450   5.013  -2.071  0.00  0.00    -0.024 C 
ATOM     24  C   UNL d   1       5.850   3.613  -0.877  0.00  0.00     0.019 C 
ATOM     25  C   UNL d   1       5.396   5.788  -1.520  0.00  0.00    -0.026 C 
ATOM     26  C   UNL d   1       5.952   5.039  -0.331  0.00  0.00     0.010 C 
ATOM     27  C   UNL d   1       4.871   5.012   0.771  0.00  0.00     0.034 C 
ENDBRANCH  19  21
ENDBRANCH  17  19
ENDBRANCH  15  17
ENDBRANCH   5  15
TORSDOF 4
