REMARK  1 active torsions:
REMARK  status: ('A' for Active; 'I' for Inactive)
REMARK    1  A    between atoms: C_5  and  N_1 
ROOT
ATOM      1  N   UNL d   1      -2.437  -0.677   0.103  0.00  0.00    -0.243 N 
ATOM      2  C   UNL d   1      -1.394  -1.573   0.033  0.00  0.00     0.267 A 
ATOM      3  C   UNL d   1      -1.977   0.622   0.082  0.00  0.00     0.266 A 
ATOM      4  C   UNL d   1      -0.175  -0.785   0.057  0.00  0.00     0.064 A 
ATOM      5  C   UNL d   1      -0.516   0.548   0.072  0.00  0.00     0.051 A 
ATOM      6  O   UNL d   1      -1.384  -2.788  -0.025  0.00  0.00    -0.267 OA
ATOM      7  O   UNL d   1      -2.571   1.683   0.008  0.00  0.00    -0.267 OA
ATOM      8  N   UNL d   1       2.119  -0.215   0.030  0.00  0.00    -0.374 N 
ATOM      9  HN  UNL d   1       3.103  -0.484   0.026  1.00  0.00     0.164 HD
ATOM     10  C   UNL d   1       1.140  -1.153   0.043  0.00  0.00     0.105 A 
ATOM     11  C   UNL d   1       0.436   1.540   0.043  0.00  0.00     0.035 A 
ATOM     12  C   UNL d   1       1.750   1.099   0.022  0.00  0.00     0.088 A 
ENDROOT
BRANCH   1  13
ATOM     13  C   UNL d   1      -3.801  -1.045  -0.002  0.00  0.00     0.053 A 
ATOM     14  C   UNL d   1      -4.155  -2.001  -0.972  0.00  0.00     0.054 A 
ATOM     15  C   UNL d   1      -5.486  -2.364  -1.166  0.00  0.00     0.036 A 
ATOM     16 CL   UNL d   1      -5.893  -3.489  -2.403  0.00  0.00    -0.084 Cl
ATOM     17  C   UNL d   1      -6.486  -1.810  -0.381  0.00  0.00     0.024 A 
ATOM     18  C   UNL d   1      -6.149  -0.885   0.606  0.00  0.00     0.011 A 
ATOM     19  C   UNL d   1      -4.811  -0.490   0.812  0.00  0.00    -0.035 A 
ATOM     20  C   UNL d   1      -4.561   0.436   1.974  0.00  0.00     0.050 C 
ENDBRANCH   1  13
TORSDOF 1
