REMARK  7 active torsions:
REMARK  status: ('A' for Active; 'I' for Inactive)
REMARK       I    between atoms: N_2  and  C_1 
REMARK    1  A    between atoms: C_7  and  C_1 
REMARK    2  A    between atoms: C_3  and  N_2 
REMARK    3  A    between atoms: C_5  and  C_7 
REMARK    4  A    between atoms: C_8  and  C_5 
REMARK    5  A    between atoms: C_12  and  C_5 
REMARK    6  A    between atoms: C_6  and  C_8 
REMARK    7  A    between atoms: O_13  and  C_6 
ROOT
ATOM      1  C   UNL d   1       1.254   0.323  -0.282  0.00  0.00     0.222 C 
ATOM      2  N   UNL d   1       0.672  -0.753  -0.951  0.00  0.00    -0.327 N 
ATOM      3  O   UNL d   1       2.429   0.662  -0.322  0.00  0.00    -0.273 OA
ATOM      4  H   UNL d   1      -0.310  -0.628  -1.164  0.00  0.00     0.169 HD
ENDROOT
BRANCH   1   5
ATOM      5  C   UNL d   1       0.197   1.068   0.513  0.00  0.00     0.113 C 
BRANCH   5   6
ATOM      6  C   UNL d   1       0.606   2.339   1.292  0.00  0.00     0.037 C 
BRANCH   6   7
ATOM      7  C   UNL d   1       1.280   3.434   0.430  0.00  0.00     0.119 C 
BRANCH   7   8
ATOM      8  C   UNL d   1       0.444   4.020  -0.673  0.00  0.00     0.140 C 
ATOM      9  O   UNL d   1      -0.534   3.539  -1.212  0.00  0.00    -0.650 OA
BRANCH   8  10
ATOM     10  O   UNL d   1       0.981   5.178  -1.125  0.00  0.00    -0.776 OA
ATOM     11  H   UNL d   1       0.452   5.414  -1.914  0.00  0.00     0.167 HD
ENDBRANCH   8  10
ENDBRANCH   7   8
ENDBRANCH   6   7
BRANCH   6  12
ATOM     12  C   UNL d   1      -0.547   2.874   2.166  0.00  0.00    -0.053 A 
ATOM     13  C   UNL d   1      -1.827   2.288   2.167  0.00  0.00     0.007 A 
ATOM     14  C   UNL d   1      -2.839   2.733   3.020  0.00  0.00     0.001 A 
ATOM     15  C   UNL d   1      -2.605   3.787   3.888  0.00  0.00     0.000 A 
ATOM     16  C   UNL d   1      -1.351   4.397   3.901  0.00  0.00     0.001 A 
ATOM     17  C   UNL d   1      -0.331   3.944   3.054  0.00  0.00     0.007 A 
ENDBRANCH   6  12
ENDBRANCH   5   6
ENDBRANCH   1   5
BRANCH   2  18
ATOM     18  C   UNL d   1       1.361  -1.631  -1.814  0.00  0.00     0.041 A 
ATOM     19  C   UNL d   1       2.505  -2.364  -1.440  0.00  0.00    -0.025 A 
ATOM     20  C   UNL d   1       3.121  -3.201  -2.403  0.00  0.00    -0.050 A 
ATOM     21  C   UNL d   1       3.039  -2.324  -0.023  0.00  0.00     0.041 C 
ATOM     22  C   UNL d   1       4.345  -4.028  -2.084  0.00  0.00     0.039 C 
ATOM     23  C   UNL d   1       2.549  -3.341  -3.678  0.00  0.00     0.008 A 
ATOM     24  C   UNL d   1       5.033  -3.607  -0.791  0.00  0.00     0.005 C 
ATOM     25  C   UNL d   1       3.998  -3.466   0.313  0.00  0.00     0.005 C 
ATOM     26  C   UNL d   1       1.385  -2.666  -4.010  0.00  0.00     0.003 A 
ATOM     27  C   UNL d   1       0.785  -1.822  -3.078  0.00  0.00     0.030 A 
ENDBRANCH   2  18
TORSDOF 7
