REMARK  4 active torsions:
REMARK  status: ('A' for Active; 'I' for Inactive)
REMARK    1  A    between atoms: C_3  and  C_1 
REMARK    2  A    between atoms: C_7  and  C_1 
REMARK    3  A    between atoms: C_9  and  C_2 
REMARK    4  A    between atoms: N_4  and  C_3 
ROOT
ATOM      1  C   UNL d   1       1.012  -0.051  -0.085  0.00  0.00     0.037 C 
ATOM      2  C   UNL d   1       0.373   1.141  -0.081  0.00  0.00     0.033 C 
ENDROOT
BRANCH   1   3
ATOM      3  C   UNL d   1       2.532  -0.051  -0.085  0.00  0.00    -0.036 C 
BRANCH   3   4
ATOM      4  N   UNL d   1       3.793  -0.051  -0.085  0.00  0.00    -0.365 N 
ATOM      5  HN2 UNL d   1       2.773  -0.051  -0.085  1.00  0.00     0.165 HD
ATOM      6  HN1 UNL d   1       4.813  -0.051  -0.085  1.00  0.00     0.165 HD
ENDBRANCH   3   4
ENDBRANCH   1   3
BRANCH   1   7
ATOM      7  C   UNL d   1       0.262  -1.332  -0.076  0.00  0.00    -0.015 A 
ATOM      8  C   UNL d   1      -0.991  -1.448  -0.707  0.00  0.00     0.036 A 
ATOM      9  C   UNL d   1      -1.695  -2.654  -0.685  0.00  0.00     0.034 A 
ATOM     10 CL   UNL d   1      -3.236  -2.753  -1.446  0.00  0.00    -0.084 Cl
ATOM     11  C   UNL d   1      -1.162  -3.772  -0.055  0.00  0.00     0.024 A 
ATOM     12  C   UNL d   1       0.086  -3.683   0.558  0.00  0.00     0.003 A 
ATOM     13  C   UNL d   1       0.792  -2.474   0.547  0.00  0.00     0.013 A 
ENDBRANCH   1   7
BRANCH   2  14
ATOM     14  C   UNL d   1       1.038   2.452  -0.116  0.00  0.00    -0.035 A 
ATOM     15  C   UNL d   1       1.359   3.052  -1.339  0.00  0.00     0.011 A 
ATOM     16  C   UNL d   1       1.991   4.298  -1.367  0.00  0.00     0.001 A 
ATOM     17  C   UNL d   1       2.305   4.949  -0.175  0.00  0.00     0.000 A 
ATOM     18  C   UNL d   1       1.988   4.355   1.046  0.00  0.00     0.001 A 
ATOM     19  C   UNL d   1       1.356   3.110   1.078  0.00  0.00     0.011 A 
ENDBRANCH   2  14
TORSDOF 4
