REMARK  2 active torsions:
REMARK  status: ('A' for Active; 'I' for Inactive)
REMARK    1  A    between atoms: C_12  and  C_3 
REMARK    2  A    between atoms: N_15  and  C_9 
ROOT
ATOM      1  N   UNL d   1       0.683  -0.411   0.046  0.00  0.00    -0.155 N 
ATOM      2  C   UNL d   1       1.114   0.897   0.052  0.00  0.00     0.690 A 
ATOM      3  C   UNL d   1       1.630  -1.512   0.032  0.00  0.00     0.245 C 
ATOM      4  N   UNL d   1       2.434   1.221   0.064  0.00  0.00    -0.166 N 
ATOM      5  HN  UNL d   1       2.742   2.191   0.010  1.00  0.00     0.187 HD
ATOM      6  N   UNL d   1       2.997  -1.073   0.224  0.00  0.00    -0.340 N 
ATOM      7  N   UNL d   1       0.066   1.702   0.029  0.00  0.00    -0.189 N 
ATOM      8  HN  UNL d   1       0.078   2.721   0.012  1.00  0.00     0.184 HD
ATOM      9  C   UNL d   1       3.282   0.249   0.145  0.00  0.00     0.167 C 
ATOM     10  C   UNL d   1      -0.685  -0.453   0.054  0.00  0.00     0.081 A 
ATOM     11  C   UNL d   1      -1.044   0.891   0.033  0.00  0.00     0.076 A 
ATOM     12  C   UNL d   1      -1.622  -1.493   0.061  0.00  0.00     0.032 A 
ATOM     13  C   UNL d   1      -2.403   1.234   0.015  0.00  0.00     0.032 A 
ATOM     14  C   UNL d   1      -2.971  -1.129   0.039  0.00  0.00     0.002 A 
ATOM     15  C   UNL d   1      -3.360   0.211   0.017  0.00  0.00     0.002 A 
ATOM     16  H   UNL d   1       3.720  -1.743   0.010  0.00  0.00     0.164 HD
ENDROOT
BRANCH   3  17
ATOM     17  C   UNL d   1       1.526  -2.293  -1.259  0.00  0.00     0.000 A 
ATOM     18  C   UNL d   1       1.203  -3.647  -1.236  0.00  0.00     0.098 A 
ATOM     19  N   UNL d   1       1.049  -4.409  -2.341  0.00  0.00    -0.375 N 
ATOM     20  C   UNL d   1       1.220  -3.798  -3.532  0.00  0.00     0.087 A 
ATOM     21  HN  UNL d   1       0.813  -5.399  -2.277  1.00  0.00     0.164 HD
ATOM     22  C   UNL d   1       1.559  -2.463  -3.670  0.00  0.00     0.018 A 
ATOM     23  C   UNL d   1       1.719  -1.703  -2.516  0.00  0.00     0.014 A 
ENDBRANCH   3  17
BRANCH   9  24
ATOM     24  N   UNL d   1       4.612   0.490   0.205  0.00  0.00    -0.274 NA
ATOM     25  H   UNL d   1       5.234  -0.173  -0.230  0.00  0.00     0.127 HD
ATOM     26  H   UNL d   1       4.835   1.454  -0.025  0.00  0.00     0.127 HD
ENDBRANCH   9  24
TORSDOF 2
