REMARK  4 active torsions:
REMARK  status: ('A' for Active; 'I' for Inactive)
REMARK    1  A    between atoms: C_4  and  C_1 
REMARK    2  A    between atoms: C_5  and  C_1 
REMARK    3  A    between atoms: O_7  and  C_1 
REMARK    4  A    between atoms: C_6  and  C_5 
ROOT
ATOM      1  C   UNL d   1       0.959  -0.060   0.027  0.00  0.00     0.153 C 
ATOM      2  N   UNL d   1       0.142   2.453   0.281  0.00  0.00    -0.194 NA
ATOM      3  C   UNL d   1       0.487   1.350   0.195  0.00  0.00     0.098 C 
ENDROOT
BRANCH   1   4
ATOM      4  C   UNL d   1       0.598  -0.546  -1.450  0.00  0.00    -0.007 C 
ATOM      5  C   UNL d   1       1.342   0.317  -2.504  0.00  0.00     0.018 C 
ATOM      6  C   UNL d   1       1.019  -2.015  -1.697  0.00  0.00     0.018 C 
ATOM      7  C   UNL d   1      -0.916  -0.445  -1.748  0.00  0.00     0.018 C 
ENDBRANCH   1   4
BRANCH   1   8
ATOM      8  C   UNL d   1       0.370  -0.979   1.145  0.00  0.00     0.062 C 
BRANCH   8   9
ATOM      9  C   UNL d   1       0.681  -0.708   2.665  0.00  0.00    -0.048 C 
ATOM     10  C   UNL d   1       0.049   0.600   3.171  0.00  0.00     0.014 C 
ATOM     11  C   UNL d   1       0.061  -1.866   3.487  0.00  0.00     0.014 C 
ATOM     12  C   UNL d   1       2.186  -0.674   2.979  0.00  0.00     0.014 C 
ENDBRANCH   8   9
ENDBRANCH   1   8
BRANCH   1  13
ATOM     13  O   UNL d   1       2.393  -0.124   0.151  0.00  0.00    -0.375 OA
ATOM     14  H   UNL d   1       2.767   0.704  -0.199  0.00  0.00     0.212 HD
ENDBRANCH   1  13
TORSDOF 4
