REMARK  8 active torsions:
REMARK  status: ('A' for Active; 'I' for Inactive)
REMARK    1  A    between atoms: C_3  and  C_1 
REMARK    2  A    between atoms: C_4  and  C_1 
REMARK    3  A    between atoms: N_6  and  C_2 
REMARK    4  A    between atoms: O_13  and  C_3 
REMARK    5  A    between atoms: O_14  and  C_4 
REMARK    6  A    between atoms: C_5  and  N_6 
REMARK    7  A    between atoms: C_15  and  O_13 
REMARK    8  A    between atoms: C_16  and  O_14 
ROOT
ATOM      1  C   UNL d   1       1.035   0.091  -0.129  0.00  0.00     0.129 C 
ATOM      2  C   UNL d   1       0.364  -1.065   0.071  0.00  0.00     0.112 C 
ENDROOT
BRANCH   1   3
ATOM      3  C   UNL d   1       0.284   1.353  -0.370  0.00  0.00     0.300 C 
ATOM      4  O   UNL d   1       0.750   2.478  -0.276  0.00  0.00    -0.259 OA
BRANCH   3   5
ATOM      5  O   UNL d   1      -1.026   1.092  -0.635  0.00  0.00    -0.318 OA
BRANCH   5   6
ATOM      6  C   UNL d   1      -1.934   2.190  -0.460  0.00  0.00     0.174 C 
ATOM      7  C   UNL d   1      -2.434   2.155   0.973  0.00  0.00     0.034 C 
ENDBRANCH   5   6
ENDBRANCH   3   5
ENDBRANCH   1   3
BRANCH   1   8
ATOM      8  C   UNL d   1       2.502   0.061   0.076  0.00  0.00     0.300 C 
ATOM      9  O   UNL d   1       3.153  -0.981   0.146  0.00  0.00    -0.259 OA
BRANCH   8  10
ATOM     10  O   UNL d   1       3.007   1.292   0.306  0.00  0.00    -0.318 OA
BRANCH  10  11
ATOM     11  C   UNL d   1       4.304   1.335   0.914  0.00  0.00     0.174 C 
ATOM     12  C   UNL d   1       4.129   1.233   2.419  0.00  0.00     0.034 C 
ENDBRANCH  10  11
ENDBRANCH   8  10
ENDBRANCH   1   8
BRANCH   2  13
ATOM     13  N   UNL d   1       0.860  -2.311   0.412  0.00  0.00    -0.364 N 
ATOM     14  H   UNL d   1       1.888  -2.319   0.470  0.00  0.00     0.165 HD
BRANCH  13  15
ATOM     15  C   UNL d   1       0.193  -3.459   0.691  0.00  0.00     0.038 A 
ATOM     16  C   UNL d   1      -1.214  -3.667   0.630  0.00  0.00     0.037 A 
ATOM     17  C   UNL d   1      -1.566  -4.958   0.961  0.00  0.00     0.052 A 
ATOM     18  S   UNL d   1      -0.205  -5.911   1.367  0.00  0.00    -0.111 SA
ATOM     19  C   UNL d   1       0.858  -4.599   1.091  0.00  0.00     0.079 A 
ENDBRANCH  13  15
ENDBRANCH   2  13
TORSDOF 8
