REMARK  6 active torsions:
REMARK  status: ('A' for Active; 'I' for Inactive)
REMARK       I    between atoms: N_2  and  C_1 
REMARK       I    between atoms: N_6  and  C_1 
REMARK    1  A    between atoms: C_7  and  N_2 
REMARK    2  A    between atoms: C_3  and  C_10 
REMARK    3  A    between atoms: C_13  and  N_6 
REMARK    4  A    between atoms: S_9  and  C_14 
REMARK    5  A    between atoms: C_10  and  S_9 
REMARK    6  A    between atoms: C_14  and  C_13 
ROOT
ATOM      1  C   UNL d   1       1.222  -0.071  -0.752  0.00  0.00     0.320 C 
ATOM      2  N   UNL d   1       0.733  -1.292  -1.127  0.00  0.00    -0.309 N 
ATOM      3  O   UNL d   1       0.648   1.010  -0.855  0.00  0.00    -0.247 OA
ATOM      4  N   UNL d   1       2.482  -0.059  -0.223  0.00  0.00    -0.342 N 
ATOM      5  H   UNL d   1       1.327  -2.088  -0.995  0.00  0.00     0.170 HD
ATOM      6  H   UNL d   1       2.711   0.870   0.116  0.00  0.00     0.164 HD
ENDROOT
BRANCH   4   7
ATOM      7  C   UNL d   1       3.294  -1.165   0.253  0.00  0.00     0.134 C 
BRANCH   7   8
ATOM      8  C   UNL d   1       4.790  -0.913   0.072  0.00  0.00     0.094 C 
BRANCH   8   9
ATOM      9  S   UNL d   1       5.775  -2.404   0.454  0.00  0.00    -0.163 SA
BRANCH   9  10
ATOM     10  C   UNL d   1       5.229  -3.490  -0.907  0.00  0.00     0.114 C 
BRANCH  10  11
ATOM     11  C   UNL d   1       5.773  -4.889  -0.774  0.00  0.00    -0.027 A 
ATOM     12  C   UNL d   1       5.135  -5.883  -0.013  0.00  0.00     0.041 A 
ATOM     13 CL   UNL d   1       3.663  -5.577   0.845  0.00  0.00    -0.084 Cl
ATOM     14  C   UNL d   1       5.664  -7.175   0.055  0.00  0.00     0.024 A 
ATOM     15  C   UNL d   1       6.837  -7.487  -0.631  0.00  0.00     0.002 A 
ATOM     16  C   UNL d   1       7.486  -6.510  -1.379  0.00  0.00     0.001 A 
ATOM     17  C   UNL d   1       6.962  -5.218  -1.446  0.00  0.00     0.009 A 
ENDBRANCH  10  11
ENDBRANCH   9  10
ENDBRANCH   8   9
ENDBRANCH   7   8
ENDBRANCH   4   7
BRANCH   2  18
ATOM     18  C   UNL d   1      -0.529  -1.597  -1.680  0.00  0.00     0.036 A 
ATOM     19  C   UNL d   1      -1.528  -0.653  -1.920  0.00  0.00     0.029 A 
ATOM     20  C   UNL d   1      -2.766  -1.051  -2.435  0.00  0.00     0.002 A 
ATOM     21  C   UNL d   1      -3.013  -2.392  -2.721  0.00  0.00     0.000 A 
ATOM     22  C   UNL d   1      -2.017  -3.339  -2.503  0.00  0.00     0.002 A 
ATOM     23  C   UNL d   1      -0.781  -2.942  -1.986  0.00  0.00     0.029 A 
ENDBRANCH   2  18
TORSDOF 6
