REMARK  8 active torsions:
REMARK  status: ('A' for Active; 'I' for Inactive)
REMARK    1  A    between atoms: O_5  and  C_1 
REMARK    2  A    between atoms: C_11  and  C_4 
REMARK    3  A    between atoms: C_6  and  O_5 
REMARK       I    between atoms: N_12  and  C_6 
REMARK    4  A    between atoms: S_14  and  C_7 
REMARK    5  A    between atoms: C_17  and  C_11 
REMARK    6  A    between atoms: C_13  and  C_18 
REMARK    7  A    between atoms: C_16  and  C_13 
REMARK    8  A    between atoms: C_18  and  S_14 
ROOT
ATOM      1  C   UNL d   1       0.926  -1.100  -0.796  0.00  0.00     0.163 A 
ATOM      2  N   UNL d   1       1.770  -0.074  -0.543  0.00  0.00    -0.316 N 
ATOM      3  HN  UNL d   1       2.783  -0.174  -0.608  1.00  0.00     0.170 HD
ATOM      4  C   UNL d   1      -0.459  -1.018  -0.810  0.00  0.00     0.020 A 
ATOM      5  C   UNL d   1       1.187   1.074  -0.204  0.00  0.00     0.146 A 
ATOM      6  N   UNL d   1      -0.138   1.288  -0.239  0.00  0.00    -0.340 N 
ATOM      7  HN  UNL d   1      -0.524   2.208  -0.028  1.00  0.00     0.167 HD
ATOM      8  C   UNL d   1      -0.947   0.254  -0.562  0.00  0.00     0.018 A 
ATOM      9  C   UNL d   1      -2.412   0.581  -0.580  0.00  0.00     0.069 C 
ENDROOT
BRANCH   5  10
ATOM     10  S   UNL d   1       2.156   2.457   0.344  0.00  0.00    -0.086 SA
BRANCH  10  11
ATOM     11  C   UNL d   1       3.827   1.756   0.387  0.00  0.00     0.161 C 
BRANCH  11  12
ATOM     12  C   UNL d   1       4.729   2.602   1.279  0.00  0.00     0.144 C 
ATOM     13  O   UNL d   1       4.943   2.238   2.443  0.00  0.00    -0.296 OA
BRANCH  12  14
ATOM     14  C   UNL d   1       5.332   3.936   0.766  0.00  0.00     0.010 C 
ATOM     15  C   UNL d   1       4.426   5.103   1.185  0.00  0.00     0.022 C 
ATOM     16  C   UNL d   1       6.709   4.133   1.435  0.00  0.00     0.022 C 
ATOM     17  C   UNL d   1       5.541   3.959  -0.753  0.00  0.00     0.022 C 
ENDBRANCH  12  14
ENDBRANCH  11  12
ENDBRANCH  10  11
ENDBRANCH   5  10
BRANCH   1  18
ATOM     18  O   UNL d   1       1.514  -2.292  -1.254  0.00  0.00    -0.243 OA
BRANCH  18  19
ATOM     19  C   UNL d   1       2.467  -2.819  -0.397  0.00  0.00     0.368 C 
ATOM     20  N   UNL d   1       3.342  -3.680  -1.056  0.00  0.00    -0.336 N 
ATOM     21  C   UNL d   1       4.548  -4.056  -0.342  0.00  0.00     0.154 C 
ATOM     22  C   UNL d   1       3.371  -3.771  -2.506  0.00  0.00     0.154 C 
ATOM     23  O   UNL d   1       2.531  -2.578   0.804  0.00  0.00    -0.238 OA
ENDBRANCH  18  19
ENDBRANCH   1  18
BRANCH   4  24
ATOM     24  C   UNL d   1      -1.341  -2.216  -1.040  0.00  0.00     0.078 C 
BRANCH  24  25
ATOM     25  C   UNL d   1      -1.812  -2.512  -2.451  0.00  0.00    -0.089 C 
ATOM     26  C   UNL d   1      -1.357  -1.917  -3.571  0.00  0.00     0.014 C 
ATOM     27  C   UNL d   1      -2.885  -3.568  -2.546  0.00  0.00     0.043 C 
ENDBRANCH  24  25
ENDBRANCH   4  24
TORSDOF 8
