REMARK  4 active torsions:
REMARK  status: ('A' for Active; 'I' for Inactive)
REMARK    1  A    between atoms: C_3  and  C_1 
REMARK    2  A    between atoms: C_16  and  N_2 
REMARK    3  A    between atoms: C_11  and  C_4 
REMARK    4  A    between atoms: N_20  and  C_12 
ROOT
ATOM      1  C   UNL d   1      -0.491  -2.740  -0.012  0.00  0.00     0.054 A 
ATOM      2  C   UNL d   1      -1.084  -3.375  -1.103  0.00  0.00     0.063 A 
ATOM      3  N   UNL d   1      -1.270  -4.725  -1.110  0.00  0.00    -0.331 N 
ATOM      4  HN  UNL d   1      -1.652  -5.191  -1.933  1.00  0.00     0.168 HD
ATOM      5  C   UNL d   1      -0.944  -5.428  -0.024  0.00  0.00     0.155 A 
ATOM      6  C   UNL d   1      -0.206  -3.575   1.058  0.00  0.00     0.108 A 
ATOM      7  N   UNL d   1      -0.397  -4.905   1.065  0.00  0.00    -0.342 N 
ATOM      8  HN  UNL d   1      -0.135  -5.481   1.865  1.00  0.00     0.167 HD
ENDROOT
BRANCH   1   9
ATOM      9  C   UNL d   1      -0.212  -1.309   0.088  0.00  0.00     0.152 A 
ATOM     10  N   UNL d   1       0.931  -0.706   0.619  0.00  0.00    -0.224 N 
ATOM     11  N   UNL d   1       0.696   0.624   0.718  0.00  0.00     0.001 NA
ATOM     12  N   UNL d   1      -0.477   0.835   0.149  0.00  0.00    -0.007 NA
ATOM     13  N   UNL d   1      -1.057  -0.342  -0.226  0.00  0.00    -0.269 N 
ATOM     14  HN  UNL d   1      -1.970  -0.454  -0.667  1.00  0.00     0.185 HD
BRANCH  10  15
ATOM     15  C   UNL d   1       2.165  -1.257   1.046  0.00  0.00     0.056 A 
ATOM     16  C   UNL d   1       2.675  -2.435   0.487  0.00  0.00     0.032 A 
ATOM     17  C   UNL d   1       3.849  -2.998   0.997  0.00  0.00     0.009 A 
ATOM     18  C   UNL d   1       4.532  -2.388   2.055  0.00  0.00    -0.062 A 
ATOM     19  C   UNL d   1       4.042  -1.188   2.579  0.00  0.00     0.009 A 
ATOM     20  C   UNL d   1       5.790  -3.008   2.588  0.00  0.00     0.048 C 
ATOM     21  C   UNL d   1       2.875  -0.615   2.070  0.00  0.00     0.032 A 
ENDBRANCH  10  15
ENDBRANCH   1   9
BRANCH   2  22
ATOM     22  C   UNL d   1      -1.566  -2.709  -2.343  0.00  0.00     0.030 A 
ATOM     23  C   UNL d   1      -2.765  -3.113  -2.966  0.00  0.00     0.128 A 
ATOM     24  F   UNL d   1      -3.498  -4.117  -2.460  0.00  0.00    -0.205 F 
ATOM     25  C   UNL d   1      -3.258  -2.486  -4.115  0.00  0.00     0.043 A 
ATOM     26  C   UNL d   1      -2.574  -1.411  -4.669  0.00  0.00     0.003 A 
ATOM     27  C   UNL d   1      -1.382  -0.992  -4.091  0.00  0.00     0.001 A 
ATOM     28  C   UNL d   1      -0.872  -1.650  -2.963  0.00  0.00     0.017 A 
ENDBRANCH   2  22
BRANCH   5  29
ATOM     29  N   UNL d   1      -1.157  -6.786  -0.034  0.00  0.00    -0.274 NA
ATOM     30  H   UNL d   1      -0.528  -7.254   0.597  0.00  0.00     0.127 HD
ATOM     31  H   UNL d   1      -1.238  -7.125  -0.983  0.00  0.00     0.127 HD
ENDBRANCH   5  29
TORSDOF 4
