REMARK  7 active torsions:
REMARK  status: ('A' for Active; 'I' for Inactive)
REMARK    1  A    between atoms: C_4  and  C_1 
REMARK    2  A    between atoms: N_6  and  C_2 
REMARK    3  A    between atoms: O_13  and  C_4 
REMARK       I    between atoms: C_7  and  N_6 
REMARK    4  A    between atoms: O_12  and  C_7 
REMARK    5  A    between atoms: O_14  and  C_8 
REMARK    6  A    between atoms: O_15  and  C_9 
REMARK    7  A    between atoms: C_16  and  O_12 
ROOT
ATOM      1  C   UNL d   1       1.449  -0.200   0.042  0.00  0.00     0.069 A 
ATOM      2  C   UNL d   1       0.638  -1.349   0.022  0.00  0.00     0.056 A 
ATOM      3  C   UNL d   1       0.831   1.056   0.076  0.00  0.00     0.059 A 
ATOM      4  C   UNL d   1      -0.763  -1.211   0.032  0.00  0.00     0.070 A 
ATOM      5  C   UNL d   1      -0.562   1.193   0.084  0.00  0.00     0.102 A 
ATOM      6  C   UNL d   1      -1.376   0.052   0.037  0.00  0.00     0.103 A 
ENDROOT
BRANCH   2   7
ATOM      7  N   UNL d   1       1.203  -2.635  -0.073  0.00  0.00    -0.302 N 
ATOM      8  C   UNL d   1       0.802  -3.725   0.648  0.00  0.00     0.365 C 
ATOM      9  O   UNL d   1      -0.117  -3.782   1.446  0.00  0.00    -0.238 OA
ATOM     10  H   UNL d   1       2.180  -2.701  -0.340  0.00  0.00     0.171 HD
BRANCH   8  11
ATOM     11  O   UNL d   1       1.703  -4.713   0.417  0.00  0.00    -0.304 OA
BRANCH  11  12
ATOM     12  C   UNL d   1       1.796  -5.748   1.404  0.00  0.00     0.176 C 
ATOM     13  C   UNL d   1       3.056  -5.472   2.203  0.00  0.00     0.034 C 
ENDBRANCH  11  12
ENDBRANCH   8  11
ENDBRANCH   2   7
BRANCH   1  14
ATOM     14  C   UNL d   1       2.941  -0.185   0.136  0.00  0.00     0.295 C 
ATOM     15  O   UNL d   1       3.590   0.851   0.176  0.00  0.00    -0.259 OA
BRANCH  14  16
ATOM     16  O   UNL d   1       3.472  -1.431   0.229  0.00  0.00    -0.322 OA
ATOM     17  C   UNL d   1       4.878  -1.456   0.501  0.00  0.00     0.213 C 
ENDBRANCH  14  16
ENDBRANCH   1  14
BRANCH   6  18
ATOM     18  O   UNL d   1      -2.729   0.242  -0.036  0.00  0.00    -0.353 OA
ATOM     19  C   UNL d   1      -3.564  -0.894  -0.209  0.00  0.00     0.210 C 
ENDBRANCH   6  18
BRANCH   5  20
ATOM     20  O   UNL d   1      -0.972   2.503   0.085  0.00  0.00    -0.353 OA
ATOM     21  C   UNL d   1      -2.189   2.794   0.753  0.00  0.00     0.210 C 
ENDBRANCH   5  20
TORSDOF 7
