REMARK  4 active torsions:
REMARK  status: ('A' for Active; 'I' for Inactive)
REMARK       I    between atoms: N_2  and  C_1 
REMARK    1  A    between atoms: C_3  and  C_1 
REMARK       I    between atoms: C_4  and  N_2 
REMARK    2  A    between atoms: O_10  and  C_4 
REMARK    3  A    between atoms: C_6  and  C_12 
REMARK    4  A    between atoms: C_12  and  O_10 
ROOT
ATOM      1  C   UNL d   1       0.896  -0.013  -0.026  0.00  0.00     0.261 C 
ATOM      2  N   UNL d   1       0.353  -0.417   1.188  0.00  0.00    -0.269 N 
ATOM      3  C   UNL d   1       0.888  -0.595   2.442  0.00  0.00     0.367 C 
ATOM      4  O   UNL d   1       2.078  -0.015  -0.326  0.00  0.00    -0.267 OA
ATOM      5  O   UNL d   1       0.118  -0.729   3.386  0.00  0.00    -0.238 OA
ATOM      6  H   UNL d   1      -0.654  -0.391   1.268  0.00  0.00     0.174 HD
ENDROOT
BRANCH   3   7
ATOM      7  O   UNL d   1       2.235  -0.609   2.531  0.00  0.00    -0.299 OA
BRANCH   7   8
ATOM      8  C   UNL d   1       2.758  -0.816   3.862  0.00  0.00     0.221 C 
BRANCH   8   9
ATOM      9  C   UNL d   1       3.574  -2.090   3.985  0.00  0.00    -0.012 A 
ATOM     10  C   UNL d   1       4.158  -2.457   5.214  0.00  0.00     0.044 A 
ATOM     11  C   UNL d   1       4.861  -3.659   5.351  0.00  0.00     0.048 A 
ATOM     12 CL   UNL d   1       4.030  -1.451   6.616  0.00  0.00    -0.084 Cl
ATOM     13  C   UNL d   1       4.989  -4.506   4.255  0.00  0.00     0.035 A 
ATOM     14  C   UNL d   1       4.438  -4.157   3.026  0.00  0.00     0.024 A 
ATOM     15 CL   UNL d   1       5.825  -6.000   4.422  0.00  0.00    -0.084 Cl
ATOM     16  C   UNL d   1       3.737  -2.955   2.892  0.00  0.00     0.013 A 
ENDBRANCH   8   9
ENDBRANCH   7   8
ENDBRANCH   3   7
BRANCH   1  17
ATOM     17  C   UNL d   1      -0.153   0.274  -1.060  0.00  0.00     0.054 A 
ATOM     18  C   UNL d   1      -1.324   1.001  -0.785  0.00  0.00     0.049 A 
ATOM     19 CL   UNL d   1      -1.568   1.863   0.693  0.00  0.00    -0.083 Cl
ATOM     20  C   UNL d   1      -2.358   1.056  -1.726  0.00  0.00     0.025 A 
ATOM     21  C   UNL d   1      -2.221   0.417  -2.957  0.00  0.00     0.002 A 
ATOM     22  C   UNL d   1      -1.035  -0.247  -3.265  0.00  0.00     0.001 A 
ATOM     23  C   UNL d   1      -0.000  -0.316  -2.324  0.00  0.00     0.019 A 
ENDBRANCH   1  17
TORSDOF 4
