REMARK  5 active torsions:
REMARK  status: ('A' for Active; 'I' for Inactive)
REMARK       I    between atoms: N_2  and  C_1 
REMARK       I    between atoms: N_3  and  C_1 
REMARK    1  A    between atoms: C_4  and  N_3 
REMARK    2  A    between atoms: C_19  and  N_6 
REMARK    3  A    between atoms: C_22  and  C_19 
REMARK    4  A    between atoms: O_20  and  C_22 
REMARK    5  A    between atoms: C_21  and  O_20 
ROOT
ATOM      1  C   UNL d   1       0.871  -0.091  -0.079  0.00  0.00     0.323 C 
ATOM      2  N   UNL d   1       0.280   0.784  -0.986  0.00  0.00    -0.332 N 
ATOM      3  N   UNL d   1       1.702  -1.030  -0.664  0.00  0.00    -0.306 N 
ATOM      4  N   UNL d   1      -2.092   1.744  -2.733  0.00  0.00     0.092 N 
ATOM      5  O   UNL d   1       0.628  -0.057   1.120  0.00  0.00    -0.247 OA
ATOM      6  C   UNL d   1      -0.764   1.696  -0.504  0.00  0.00     0.157 C 
ATOM      7  C   UNL d   1      -2.103   1.603  -1.267  0.00  0.00     0.292 C 
ATOM      8  C   UNL d   1       0.049   0.483  -3.454  0.00  0.00     0.050 C 
ATOM      9  C   UNL d   1       0.840   1.073  -2.298  0.00  0.00     0.129 C 
ATOM     10  C   UNL d   1      -1.477   0.595  -3.392  0.00  0.00     0.274 C 
ATOM     11  H   UNL d   1       1.343  -1.373  -1.546  0.00  0.00     0.171 HD
ENDROOT
BRANCH   3  12
ATOM     12  C   UNL d   1       2.368  -1.999   0.117  0.00  0.00     0.075 A 
ATOM     13  C   UNL d   1       2.285  -3.340  -0.269  0.00  0.00     0.146 A 
ATOM     14  C   UNL d   1       2.799  -4.348   0.535  0.00  0.00     0.086 A 
ATOM     15  F   UNL d   1       1.636  -3.667  -1.397  0.00  0.00    -0.204 F 
ATOM     16  C   UNL d   1       3.451  -3.998   1.710  0.00  0.00     0.119 A 
ATOM     17  C   UNL d   1       3.615  -2.664   2.075  0.00  0.00     0.044 A 
ATOM     18  F   UNL d   1       3.924  -4.961   2.512  0.00  0.00    -0.206 F 
ATOM     19  C   UNL d   1       3.067  -1.658   1.278  0.00  0.00     0.036 A 
ENDBRANCH   3  12
BRANCH   4  20
ATOM     20  C   UNL d   1      -1.699   3.081  -3.191  0.00  0.00     0.299 C 
BRANCH  20  21
ATOM     21  C   UNL d   1      -1.730   3.282  -4.714  0.00  0.00     0.206 C 
BRANCH  21  22
ATOM     22  O   UNL d   1      -1.303   4.616  -5.002  0.00  0.00    -0.349 OA
BRANCH  22  23
ATOM     23  C   UNL d   1      -1.204   4.949  -6.325  0.00  0.00     0.068 A 
ATOM     24  C   UNL d   1      -1.498   4.118  -7.407  0.00  0.00     0.037 A 
ATOM     25  C   UNL d   1      -1.362   4.590  -8.714  0.00  0.00     0.003 A 
ATOM     26  C   UNL d   1      -0.933   5.896  -8.948  0.00  0.00     0.000 A 
ATOM     27  C   UNL d   1      -0.634   6.729  -7.872  0.00  0.00     0.003 A 
ATOM     28  C   UNL d   1      -0.768   6.256  -6.567  0.00  0.00     0.037 A 
ENDBRANCH  22  23
ENDBRANCH  21  22
ENDBRANCH  20  21
ENDBRANCH   4  20
TORSDOF 5
