REMARK  5 active torsions:
REMARK  status: ('A' for Active; 'I' for Inactive)
REMARK    1  A    between atoms: C_3  and  N_1 
REMARK    2  A    between atoms: N_5  and  C_3 
REMARK    3  A    between atoms: N_9  and  C_4 
REMARK    4  A    between atoms: C_7  and  N_5 
REMARK    5  A    between atoms: S_11  and  C_10 
ROOT
ATOM      1  N   UNL d   1       1.153  -0.841   1.988  0.00  0.00    -0.333 N 
ATOM      2  H   UNL d   1       0.630  -1.528   2.515  0.00  0.00     0.168 HD
ENDROOT
BRANCH   1   3
ATOM      3  C   UNL d   1       0.392  -0.226   1.013  0.00  0.00     0.177 C 
ATOM      4  S   UNL d   1       0.956   0.478  -0.411  0.00  0.00    -0.040 SA
BRANCH   3   5
ATOM      5  N   UNL d   1      -0.956  -0.350   1.235  0.00  0.00    -0.329 N 
ATOM      6  C   UNL d   1      -1.435   0.343   2.211  0.00  0.00     0.179 C 
ATOM      7  HN  UNL d   1      -1.544  -0.954   0.662  1.00  0.00     0.169 HD
BRANCH   6   8
ATOM      8  N   UNL d   1      -2.769   0.462   2.525  0.00  0.00    -0.386 N 
ATOM      9  C   UNL d   1      -3.207   1.118   3.743  0.00  0.00     0.149 C 
ATOM     10  C   UNL d   1      -3.775   0.345   1.474  0.00  0.00     0.149 C 
ENDBRANCH   6   8
ENDBRANCH   3   5
ENDBRANCH   1   3
BRANCH   1  11
ATOM     11  C   UNL d   1       2.526  -0.713   2.287  0.00  0.00     0.035 A 
ATOM     12  C   UNL d   1       3.271   0.423   1.954  0.00  0.00     0.048 A 
ATOM     13  C   UNL d   1       4.640   0.506   2.230  0.00  0.00     0.002 A 
ATOM     14  C   UNL d   1       5.251  -0.547   2.915  0.00  0.00     0.018 A 
ATOM     15  C   UNL d   1       4.507  -1.661   3.309  0.00  0.00     0.004 A 
ATOM     16  C   UNL d   1       3.145  -1.739   3.003  0.00  0.00     0.029 A 
BRANCH  13  17
ATOM     17  S   UNL d   1       5.637   1.921   1.781  0.00  0.00    -0.134 SA
ATOM     18  C   UNL d   1       4.774   2.537   0.303  0.00  0.00     0.095 C 
ENDBRANCH  13  17
ENDBRANCH   1  11
TORSDOF 5
