REMARK  4 active torsions:
REMARK  status: ('A' for Active; 'I' for Inactive)
REMARK    1  A    between atoms: N_4  and  S_1 
REMARK    2  A    between atoms: C_6  and  S_1 
REMARK    3  A    between atoms: C_5  and  C_2 
REMARK    4  A    between atoms: C_3  and  N_7 
ROOT
ATOM      1  N   UNL d   1       0.633  -0.923  -0.567  0.00  0.00    -0.204 NA
ATOM      2  N   UNL d   1      -0.957  -3.012   0.680  0.00  0.00    -0.266 NA
ATOM      3  C   UNL d   1      -0.851  -0.806  -0.369  0.00  0.00     0.122 C 
ATOM      4  C   UNL d   1       1.061  -2.366  -0.579  0.00  0.00     0.122 C 
ATOM      5  C   UNL d   1       0.515  -3.170   0.621  0.00  0.00     0.112 C 
ATOM      6  C   UNL d   1      -1.330  -1.595   0.869  0.00  0.00     0.112 C 
ENDROOT
BRANCH   1   7
ATOM      7  S   UNL d   1       1.601   0.133   0.343  0.00  0.00     0.243 S 
ATOM      8  O   UNL d   1       2.986  -0.163   0.075  0.00  0.00    -0.206 OA
ATOM      9  O   UNL d   1       1.087   0.179   1.696  0.00  0.00    -0.206 OA
BRANCH   7  10
ATOM     10  C   UNL d   1       1.254   1.698  -0.434  0.00  0.00     0.076 A 
ATOM     11  C   UNL d   1       0.614   2.716   0.279  0.00  0.00     0.050 A 
ATOM     12  C   UNL d   1       0.350   3.933  -0.353  0.00  0.00     0.057 A 
ATOM     13 CL   UNL d   1      -0.452   5.158   0.565  0.00  0.00    -0.083 Cl
ATOM     14  C   UNL d   1       0.729   4.129  -1.690  0.00  0.00     0.055 A 
ATOM     15  C   UNL d   1       1.377   3.103  -2.389  0.00  0.00     0.027 A 
ATOM     16 CL   UNL d   1       0.428   5.606  -2.533  0.00  0.00    -0.083 Cl
ATOM     17  C   UNL d   1       1.642   1.886  -1.762  0.00  0.00     0.026 A 
ENDBRANCH   7  10
ENDBRANCH   1   7
BRANCH   2  18
ATOM     18  C   UNL d   1      -1.642  -3.938   1.462  0.00  0.00     0.097 A 
ATOM     19  C   UNL d   1      -3.015  -4.158   1.320  0.00  0.00     0.086 A 
ATOM     20  C   UNL d   1      -3.640  -5.104   2.160  0.00  0.00     0.021 A 
ATOM     21  C   UNL d   1      -2.892  -5.848   3.057  0.00  0.00     0.018 A 
ATOM     22  C   UNL d   1      -1.536  -5.612   3.093  0.00  0.00     0.089 A 
ATOM     23  N   UNL d   1      -0.915  -4.686   2.330  0.00  0.00    -0.356 N 
ATOM     24  HN  UNL d   1       0.093  -4.549   2.406  1.00  0.00     0.166 HD
BRANCH  19  25
ATOM     25  C   UNL d   1      -3.877  -3.465   0.306  0.00  0.00     0.420 C 
ATOM     26  F   UNL d   1      -3.237  -2.887  -0.748  0.00  0.00    -0.166 F 
ATOM     27  F   UNL d   1      -4.789  -4.309  -0.264  0.00  0.00    -0.166 F 
ATOM     28  F   UNL d   1      -4.623  -2.468   0.869  0.00  0.00    -0.166 F 
ENDBRANCH  19  25
ENDBRANCH   2  18
TORSDOF 4
