REMARK  8 active torsions:
REMARK  status: ('A' for Active; 'I' for Inactive)
REMARK    1  A    between atoms: C_2  and  C_1 
REMARK    2  A    between atoms: N_3  and  C_1 
REMARK    3  A    between atoms: C_5  and  C_1 
REMARK    4  A    between atoms: N_6  and  C_1 
REMARK       I    between atoms: C_7  and  N_3 
REMARK    5  A    between atoms: C_4  and  C_8 
REMARK    6  A    between atoms: O_20  and  C_5 
REMARK    7  A    between atoms: C_17  and  N_6 
REMARK    8  A    between atoms: C_24  and  O_20 
ROOT
ATOM      1  C   UNL d   1       0.952  -0.123  -0.144  0.00  0.00     0.296 C 
ENDROOT
BRANCH   1   2
ATOM      2  C   UNL d   1       0.350   1.257  -0.582  0.00  0.00     0.442 C 
ATOM      3  F   UNL d   1      -0.299   1.175  -1.775  0.00  0.00    -0.166 F 
ATOM      4  F   UNL d   1      -0.525   1.784   0.305  0.00  0.00    -0.166 F 
ATOM      5  F   UNL d   1       1.323   2.192  -0.764  0.00  0.00    -0.166 F 
ENDBRANCH   1   2
BRANCH   1   6
ATOM      6  N   UNL d   1       0.555  -1.298  -0.914  0.00  0.00    -0.319 N 
ATOM      7  C   UNL d   1      -0.749  -1.641  -1.113  0.00  0.00     0.216 C 
ATOM      8  O   UNL d   1      -1.681  -0.959  -0.701  0.00  0.00    -0.274 OA
ATOM      9  C   UNL d   1      -0.944  -2.937  -1.851  0.00  0.00     0.117 C 
ATOM     10  H   UNL d   1       1.311  -1.895  -1.207  0.00  0.00     0.165 HD
ENDBRANCH   1   6
BRANCH   1  11
ATOM     11  C   UNL d   1       0.622  -0.263   1.377  0.00  0.00     0.318 C 
ATOM     12  O   UNL d   1       1.044   0.527   2.229  0.00  0.00    -0.260 OA
BRANCH  11  13
ATOM     13  O   UNL d   1       0.003  -1.440   1.660  0.00  0.00    -0.318 OA
BRANCH  13  14
ATOM     14  C   UNL d   1       0.127  -1.913   3.006  0.00  0.00     0.174 C 
ATOM     15  C   UNL d   1       1.427  -2.693   3.104  0.00  0.00     0.034 C 
ENDBRANCH  13  14
ENDBRANCH  11  13
ENDBRANCH   1  11
BRANCH   1  16
ATOM     16  N   UNL d   1       2.446  -0.239  -0.172  0.00  0.00    -0.348 N 
ATOM     17  H   UNL d   1       2.861   0.168   0.671  0.00  0.00     0.163 HD
BRANCH  16  18
ATOM     18  C   UNL d   1       3.317  -0.213  -1.239  0.00  0.00     0.030 A 
ATOM     19  C   UNL d   1       2.961   0.053  -2.560  0.00  0.00     0.030 A 
ATOM     20  C   UNL d   1       3.913  -0.014  -3.588  0.00  0.00     0.018 A 
ATOM     21  C   UNL d   1       5.239  -0.389  -3.322  0.00  0.00     0.048 A 
ATOM     22  C   UNL d   1       5.591  -0.699  -2.007  0.00  0.00     0.018 A 
ATOM     23  C   UNL d   1       4.642  -0.606  -0.987  0.00  0.00     0.030 A 
BRANCH  21  24
ATOM     24  C   UNL d   1       6.257  -0.448  -4.434  0.00  0.00     0.417 C 
ATOM     25  F   UNL d   1       7.495  -0.839  -4.020  0.00  0.00    -0.166 F 
ATOM     26  F   UNL d   1       5.902  -1.319  -5.419  0.00  0.00    -0.166 F 
ATOM     27  F   UNL d   1       6.431   0.757  -5.044  0.00  0.00    -0.166 F 
ENDBRANCH  21  24
ENDBRANCH  16  18
ENDBRANCH   1  16
TORSDOF 8
