REMARK  8 active torsions:
REMARK  status: ('A' for Active; 'I' for Inactive)
REMARK    1  A    between atoms: N_2  and  C_1 
REMARK    2  A    between atoms: C_3  and  C_1 
REMARK    3  A    between atoms: N_4  and  C_1 
REMARK    4  A    between atoms: C_6  and  C_1 
REMARK       I    between atoms: C_5  and  N_2 
REMARK    5  A    between atoms: C_7  and  N_4 
REMARK    6  A    between atoms: C_10  and  C_5 
REMARK    7  A    between atoms: O_18  and  C_6 
REMARK    8  A    between atoms: C_26  and  O_18 
ROOT
ATOM      1  C   UNL d   1       1.087  -0.048  -0.137  0.00  0.00     0.281 C 
ENDROOT
BRANCH   1   2
ATOM      2  N   UNL d   1       0.784  -0.063   1.307  0.00  0.00    -0.319 N 
ATOM      3  C   UNL d   1       1.276  -1.002   2.177  0.00  0.00     0.253 C 
ATOM      4  O   UNL d   1       2.138  -1.813   1.865  0.00  0.00    -0.268 OA
ATOM      5  H   UNL d   1      -0.184   0.201   1.463  0.00  0.00     0.165 HD
BRANCH   3   6
ATOM      6  C   UNL d   1       0.644  -1.023   3.533  0.00  0.00     0.032 A 
ATOM      7  C   UNL d   1       0.739  -2.194   4.295  0.00  0.00     0.023 A 
ATOM      8  C   UNL d   1       0.078  -2.298   5.527  0.00  0.00    -0.061 A 
ATOM      9  C   UNL d   1       0.120  -3.574   6.316  0.00  0.00     0.048 C 
ATOM     10  C   UNL d   1      -0.632  -1.198   6.016  0.00  0.00     0.007 A 
ATOM     11  C   UNL d   1      -0.695  -0.011   5.284  0.00  0.00     0.002 A 
ATOM     12  C   UNL d   1      -0.058   0.078   4.045  0.00  0.00     0.017 A 
ENDBRANCH   3   6
ENDBRANCH   1   2
BRANCH   1  13
ATOM     13  C   UNL d   1       0.635   1.315  -0.790  0.00  0.00     0.436 C 
ATOM     14  F   UNL d   1      -0.111   2.047   0.094  0.00  0.00    -0.166 F 
ATOM     15  F   UNL d   1       1.670   2.125  -1.133  0.00  0.00    -0.166 F 
ATOM     16  F   UNL d   1      -0.121   1.172  -1.904  0.00  0.00    -0.166 F 
ENDBRANCH   1  13
BRANCH   1  17
ATOM     17  N   UNL d   1       0.466  -1.259  -0.724  0.00  0.00    -0.236 NA
ATOM     18  H   UNL d   1       0.965  -2.099  -0.440  0.00  0.00     0.132 HD
BRANCH  17  19
ATOM     19  C   UNL d   1      -0.908  -1.430  -0.686  0.00  0.00     0.082 A 
ATOM     20  N   UNL d   1      -1.676  -0.522  -0.049  0.00  0.00    -0.356 N 
ATOM     21  C   UNL d   1      -3.018  -0.721  -0.082  0.00  0.00     0.096 A 
ATOM     22  HN  UNL d   1      -1.267   0.277   0.435  1.00  0.00     0.166 HD
ATOM     23  C   UNL d   1      -3.649  -1.777  -0.718  0.00  0.00    -0.046 A 
ATOM     24  C   UNL d   1      -2.837  -2.694  -1.371  0.00  0.00     0.011 A 
ATOM     25  C   UNL d   1      -5.139  -1.923  -0.687  0.00  0.00     0.049 C 
ATOM     26  C   UNL d   1      -1.454  -2.519  -1.356  0.00  0.00     0.043 A 
ENDBRANCH  17  19
ENDBRANCH   1  17
BRANCH   1  27
ATOM     27  C   UNL d   1       2.603  -0.076  -0.481  0.00  0.00     0.312 C 
ATOM     28  O   UNL d   1       3.054  -0.525  -1.536  0.00  0.00    -0.260 OA
BRANCH  27  29
ATOM     29  O   UNL d   1       3.373   0.489   0.495  0.00  0.00    -0.319 OA
BRANCH  29  30
ATOM     30  C   UNL d   1       4.786   0.301   0.339  0.00  0.00     0.174 C 
ATOM     31  C   UNL d   1       5.188  -1.014   0.985  0.00  0.00     0.034 C 
ENDBRANCH  29  30
ENDBRANCH  27  29
ENDBRANCH   1  27
TORSDOF 8
