REMARK  4 active torsions:
REMARK  status: ('A' for Active; 'I' for Inactive)
REMARK    1  A    between atoms: N_12  and  C_2 
REMARK    2  A    between atoms: C_13  and  N_12 
REMARK    3  A    between atoms: C_15  and  C_13 
REMARK    4  A    between atoms: C_14  and  C_15 
ROOT
ATOM      1  C   UNL d   1       0.002  -0.541   0.230  0.00  0.00     0.069 A 
ATOM      2  C   UNL d   1      -0.938  -1.490  -0.198  0.00  0.00     0.100 A 
ATOM      3  N   UNL d   1      -2.103  -1.028  -0.702  0.00  0.00    -0.342 N 
ATOM      4  HN  UNL d   1      -2.824  -1.676  -1.020  1.00  0.00     0.167 HD
ATOM      5  S   UNL d   1       1.563  -0.773   0.926  0.00  0.00    -0.096 SA
ATOM      6  C   UNL d   1      -0.293   0.814   0.117  0.00  0.00     0.054 A 
ATOM      7  C   UNL d   1       1.830   0.908   1.071  0.00  0.00     0.053 A 
ATOM      8  C   UNL d   1       0.764   1.640   0.600  0.00  0.00     0.038 A 
ATOM      9  N   UNL d   1      -1.461   1.269  -0.397  0.00  0.00    -0.351 N 
ATOM     10  HN  UNL d   1      -1.683   2.261  -0.483  1.00  0.00     0.166 HD
ATOM     11  C   UNL d   1      -2.296   0.298  -0.779  0.00  0.00     0.182 A 
ENDROOT
BRANCH   2  12
ATOM     12  N   UNL d   1      -0.687  -2.862  -0.131  0.00  0.00    -0.277 NA
ATOM     13  H   UNL d   1       0.080  -3.067   0.501  0.00  0.00     0.129 HD
BRANCH  12  14
ATOM     14  C   UNL d   1      -1.861  -3.721   0.014  0.00  0.00     0.098 C 
BRANCH  14  15
ATOM     15  C   UNL d   1      -1.410  -5.186   0.068  0.00  0.00     0.053 C 
BRANCH  15  16
ATOM     16  C   UNL d   1      -2.557  -6.158   0.200  0.00  0.00    -0.057 A 
ATOM     17  C   UNL d   1      -3.199  -6.653  -0.943  0.00  0.00     0.007 A 
ATOM     18  C   UNL d   1      -4.241  -7.575  -0.826  0.00  0.00     0.001 A 
ATOM     19  C   UNL d   1      -4.655  -8.006   0.432  0.00  0.00     0.000 A 
ATOM     20  C   UNL d   1      -4.034  -7.508   1.576  0.00  0.00     0.001 A 
ATOM     21  C   UNL d   1      -2.991  -6.585   1.462  0.00  0.00     0.007 A 
ENDBRANCH  15  16
ENDBRANCH  14  15
ENDBRANCH  12  14
ENDBRANCH   2  12
TORSDOF 4
