REMARK  3 active torsions:
REMARK  status: ('A' for Active; 'I' for Inactive)
REMARK    1  A    between atoms: N_2  and  C_1 
REMARK    2  A    between atoms: C_7  and  C_3 
REMARK    3  A    between atoms: C_15  and  C_7 
ROOT
ATOM      1  C   UNL d   1       0.199  -1.087   0.013  0.00  0.00     0.101 A 
ATOM      2  C   UNL d   1       1.201  -0.126   0.085  0.00  0.00     0.056 A 
ATOM      3  S   UNL d   1      -1.359  -0.420  -0.189  0.00  0.00    -0.082 SA
ATOM      4  C   UNL d   1       0.617   1.212   0.014  0.00  0.00    -0.038 A 
ATOM      5  C   UNL d   1      -0.760   1.163  -0.098  0.00  0.00     0.059 A 
ATOM      6  C   UNL d   1       1.356   2.515   0.033  0.00  0.00     0.050 C 
ENDROOT
BRANCH   2   7
ATOM      7  C   UNL d   1       2.644  -0.397   0.198  0.00  0.00     0.195 C 
ATOM      8  O   UNL d   1       3.389   0.347   0.836  0.00  0.00    -0.287 OA
BRANCH   7   9
ATOM      9  C   UNL d   1       3.271  -1.552  -0.517  0.00  0.00     0.015 A 
ATOM     10  C   UNL d   1       4.460  -2.088  -0.002  0.00  0.00     0.015 A 
ATOM     11  C   UNL d   1       5.084  -3.168  -0.633  0.00  0.00     0.001 A 
ATOM     12  C   UNL d   1       4.520  -3.724  -1.780  0.00  0.00     0.000 A 
ATOM     13  C   UNL d   1       3.354  -3.181  -2.316  0.00  0.00     0.001 A 
ATOM     14  C   UNL d   1       2.745  -2.082  -1.704  0.00  0.00     0.015 A 
ENDBRANCH   7   9
ENDBRANCH   2   7
BRANCH   1  15
ATOM     15  N   UNL d   1       0.226  -2.459   0.142  0.00  0.00    -0.238 N 
ATOM     16  C   UNL d   1      -0.325  -3.327  -0.757  0.00  0.00     0.255 A 
ATOM     17  C   UNL d   1      -0.274  -4.654  -0.135  0.00  0.00     0.080 A 
ATOM     18  O   UNL d   1      -0.731  -3.142  -1.888  0.00  0.00    -0.268 OA
ATOM     19  C   UNL d   1       0.261  -4.522   1.077  0.00  0.00     0.080 A 
ATOM     20  C   UNL d   1       0.595  -3.102   1.283  0.00  0.00     0.255 A 
ATOM     21  O   UNL d   1       1.048  -2.668   2.327  0.00  0.00    -0.268 OA
ENDBRANCH   1  15
TORSDOF 3
