REMARK  6 active torsions:
REMARK  status: ('A' for Active; 'I' for Inactive)
REMARK    1  A    between atoms: C_4  and  C_1 
REMARK    2  A    between atoms: C_8  and  C_1 
REMARK    3  A    between atoms: C_2  and  C_3 
REMARK    4  A    between atoms: C_7  and  C_2 
REMARK    5  A    between atoms: C_3  and  C_10 
REMARK    6  A    between atoms: C_9  and  C_4 
ROOT
ATOM      1  C   UNL d   1       1.219  -2.609   0.208  0.00  0.00    -0.051 A 
ATOM      2  C   UNL d   1       3.010  -4.767   0.363  0.00  0.00    -0.051 A 
ATOM      3  C   UNL d   1       2.366  -2.523   1.008  0.00  0.00     0.008 A 
ATOM      4  C   UNL d   1       1.804  -4.899  -0.334  0.00  0.00     0.008 A 
ATOM      5  C   UNL d   1       3.248  -3.598   1.097  0.00  0.00     0.008 A 
ATOM      6  C   UNL d   1       0.911  -3.828  -0.407  0.00  0.00     0.008 A 
ENDROOT
BRANCH   1   7
ATOM      7  C   UNL d   1       0.369  -1.386  -0.023  0.00  0.00     0.122 C 
BRANCH   7   8
ATOM      8  C   UNL d   1       1.150  -0.261  -0.689  0.00  0.00     0.163 C 
ATOM      9  O   UNL d   1       1.787   0.551  -0.013  0.00  0.00    -0.292 OA
BRANCH   8  10
ATOM     10  C   UNL d   1       1.159  -0.127  -2.180  0.00  0.00     0.010 A 
ATOM     11  C   UNL d   1       0.676  -1.120  -3.039  0.00  0.00     0.015 A 
ATOM     12  C   UNL d   1       0.683  -0.921  -4.425  0.00  0.00     0.001 A 
ATOM     13  C   UNL d   1       1.177   0.268  -4.960  0.00  0.00     0.000 A 
ATOM     14  C   UNL d   1       1.679   1.254  -4.114  0.00  0.00     0.001 A 
ATOM     15  C   UNL d   1       1.676   1.056  -2.732  0.00  0.00     0.015 A 
ENDBRANCH   8  10
ENDBRANCH   7   8
ENDBRANCH   1   7
BRANCH   2  16
ATOM     16  C   UNL d   1       4.074  -5.832   0.271  0.00  0.00     0.122 C 
BRANCH  16  17
ATOM     17  C   UNL d   1       4.501  -6.133  -1.158  0.00  0.00     0.163 C 
ATOM     18  O   UNL d   1       4.049  -7.105  -1.766  0.00  0.00    -0.292 OA
BRANCH  17  19
ATOM     19  C   UNL d   1       5.511  -5.262  -1.836  0.00  0.00     0.010 A 
ATOM     20  C   UNL d   1       6.299  -5.832  -2.845  0.00  0.00     0.015 A 
ATOM     21  C   UNL d   1       7.258  -5.066  -3.513  0.00  0.00     0.001 A 
ATOM     22  C   UNL d   1       7.428  -3.721  -3.189  0.00  0.00     0.000 A 
ATOM     23  C   UNL d   1       6.638  -3.142  -2.199  0.00  0.00     0.001 A 
ATOM     24  C   UNL d   1       5.685  -3.909  -1.523  0.00  0.00     0.015 A 
ENDBRANCH  17  19
ENDBRANCH  16  17
ENDBRANCH   2  16
TORSDOF 6
