REMARK  6 active torsions:
REMARK  status: ('A' for Active; 'I' for Inactive)
REMARK    1  A    between atoms: C_2  and  C_1 
REMARK    2  A    between atoms: C_3  and  C_2 
REMARK    3  A    between atoms: S_5  and  C_2 
REMARK    4  A    between atoms: C_4  and  C_3 
REMARK    5  A    between atoms: C_8  and  C_4 
REMARK    6  A    between atoms: C_10  and  S_5 
ROOT
ATOM      1  C   UNL d   1       2.542   1.620   0.019  0.00  0.00     0.093 C 
ENDROOT
BRANCH   1   2
ATOM      2  C   UNL d   1       1.272   0.823   0.347  0.00  0.00    -0.037 A 
ATOM      3  C   UNL d   1       0.298   1.193   1.264  0.00  0.00     0.057 A 
ATOM      4  S   UNL d   1      -1.030   0.118   1.327  0.00  0.00    -0.113 SA
ATOM      5  C   UNL d   1      -0.289  -0.941   0.219  0.00  0.00     0.050 A 
ATOM      6  C   UNL d   1       0.932  -0.467  -0.206  0.00  0.00     0.016 A 
ENDBRANCH   1   2
BRANCH   1   7
ATOM      7  C   UNL d   1       3.191   1.174  -1.301  0.00  0.00     0.104 C 
BRANCH   7   8
ATOM      8  C   UNL d   1       4.503   1.858  -1.639  0.00  0.00     0.161 C 
ATOM      9  O   UNL d   1       5.351   2.128  -0.794  0.00  0.00    -0.292 OA
BRANCH   8  10
ATOM     10  C   UNL d   1       4.746   2.192  -3.071  0.00  0.00     0.010 A 
ATOM     11  C   UNL d   1       5.489   3.334  -3.385  0.00  0.00     0.015 A 
ATOM     12  C   UNL d   1       5.564   3.771  -4.711  0.00  0.00     0.007 A 
ATOM     13  C   UNL d   1       4.915   3.062  -5.731  0.00  0.00    -0.062 A 
ATOM     14  C   UNL d   1       4.239   1.879  -5.418  0.00  0.00     0.007 A 
ATOM     15  C   UNL d   1       4.866   3.615  -7.126  0.00  0.00     0.048 C 
ATOM     16  C   UNL d   1       4.165   1.438  -4.097  0.00  0.00     0.015 A 
ENDBRANCH   8  10
ENDBRANCH   7   8
ENDBRANCH   1   7
BRANCH   1  17
ATOM     17  S   UNL d   1       2.243   3.463   0.079  0.00  0.00    -0.120 SA
BRANCH  17  18
ATOM     18  C   UNL d   1       1.073   3.730  -1.240  0.00  0.00     0.002 A 
ATOM     19  C   UNL d   1       1.530   4.044  -2.523  0.00  0.00     0.030 A 
ATOM     20  C   UNL d   1       0.635   4.321  -3.567  0.00  0.00    -0.025 A 
ATOM     21  C   UNL d   1       1.095   4.618  -4.859  0.00  0.00     0.012 A 
ATOM     22  C   UNL d   1      -0.757   4.315  -3.312  0.00  0.00    -0.026 A 
ATOM     23  C   UNL d   1       0.197   4.915  -5.885  0.00  0.00     0.001 A 
ATOM     24  C   UNL d   1      -1.172   4.918  -5.631  0.00  0.00     0.001 A 
ATOM     25  C   UNL d   1      -1.645   4.618  -4.353  0.00  0.00     0.012 A 
ATOM     26  C   UNL d   1      -1.208   4.025  -2.015  0.00  0.00     0.013 A 
ATOM     27  C   UNL d   1      -0.301   3.747  -0.989  0.00  0.00     0.019 A 
ENDBRANCH  17  18
ENDBRANCH   1  17
TORSDOF 6
