REMARK  6 active torsions:
REMARK  status: ('A' for Active; 'I' for Inactive)
REMARK       I    between atoms: N_5  and  C_1 
REMARK       I    between atoms: N_11  and  C_1 
REMARK    1  A    between atoms: C_2  and  C_13 
REMARK    2  A    between atoms: C_10  and  N_5 
REMARK    3  A    between atoms: C_19  and  N_11 
REMARK    4  A    between atoms: S_12  and  C_21 
REMARK    5  A    between atoms: C_13  and  S_12 
REMARK    6  A    between atoms: C_21  and  C_19 
ROOT
ATOM      1  C   UNL d   1       4.928  -0.004   0.652  0.00  0.00     0.094 C 
ENDROOT
BRANCH   1   2
ATOM      2  S   UNL d   1       5.819  -0.003   2.245  0.00  0.00    -0.163 SA
BRANCH   2   3
ATOM      3  C   UNL d   1       5.245  -1.591   2.937  0.00  0.00     0.113 C 
BRANCH   3   4
ATOM      4  C   UNL d   1       5.737  -1.782   4.355  0.00  0.00    -0.037 A 
ATOM      5  C   UNL d   1       4.959  -1.342   5.458  0.00  0.00    -0.054 A 
ATOM      6  C   UNL d   1       5.425  -1.560   6.766  0.00  0.00     0.014 A 
ATOM      7  C   UNL d   1       3.648  -0.603   5.339  0.00  0.00     0.049 C 
ATOM      8  C   UNL d   1       6.648  -2.184   7.009  0.00  0.00    -0.061 A 
ATOM      9  C   UNL d   1       7.424  -2.587   5.927  0.00  0.00     0.014 A 
ATOM     10  C   UNL d   1       7.121  -2.382   8.419  0.00  0.00     0.048 C 
ATOM     11  C   UNL d   1       6.994  -2.389   4.602  0.00  0.00    -0.054 A 
ATOM     12  C   UNL d   1       7.946  -2.828   3.517  0.00  0.00     0.049 C 
ENDBRANCH   3   4
ENDBRANCH   2   3
ENDBRANCH   1   2
BRANCH   1  13
ATOM     13  C   UNL d   1       3.414  -0.077   0.848  0.00  0.00     0.134 C 
BRANCH  13  14
ATOM     14  N   UNL d   1       2.642   0.097  -0.371  0.00  0.00    -0.342 N 
ATOM     15  C   UNL d   1       2.331  -0.799  -1.340  0.00  0.00     0.316 C 
ATOM     16  N   UNL d   1       3.027  -1.967  -1.340  0.00  0.00    -0.335 N 
ATOM     17  O   UNL d   1       1.470  -0.501  -2.164  0.00  0.00    -0.247 OA
ATOM     18  H   UNL d   1       3.847  -1.981  -0.760  0.00  0.00     0.165 HD
ATOM     19  H   UNL d   1       2.045   0.910  -0.421  0.00  0.00     0.164 HD
BRANCH  16  20
ATOM     20  C   UNL d   1       3.009  -2.929  -2.455  0.00  0.00     0.023 C 
ATOM     21  C   UNL d   1       3.351  -2.220  -3.784  0.00  0.00     0.037 C 
ATOM     22  C   UNL d   1       4.064  -4.025  -2.168  0.00  0.00     0.037 C 
ATOM     23  C   UNL d   1       1.635  -3.608  -2.570  0.00  0.00     0.037 C 
ENDBRANCH  16  20
ENDBRANCH  13  14
ENDBRANCH   1  13
TORSDOF 6
