REMARK  12 active torsions:
REMARK  status: ('A' for Active; 'I' for Inactive)
REMARK    1  A    between atoms: C_9  and  S_1 
REMARK    2  A    between atoms: N_10  and  S_1 
REMARK       I    between atoms: N_2  and  C_6 
REMARK    3  A    between atoms: C_3  and  N_2 
REMARK    4  A    between atoms: N_13  and  C_3 
REMARK    5  A    between atoms: C_4  and  C_7 
REMARK    6  A    between atoms: C_5  and  C_8 
REMARK    7  A    between atoms: C_6  and  C_17 
REMARK    8  A    between atoms: C_31  and  N_10 
REMARK    9  A    between atoms: C_32  and  N_10 
REMARK   10  A    between atoms: C_12  and  N_13 
REMARK   11  A    between atoms: C_34  and  C_31 
REMARK   12  A    between atoms: C_33  and  C_32 
ROOT
ATOM      1  N   UNL d   1      -2.057  -5.378  -0.854  0.00  0.00    -0.299 N 
ATOM      2  C   UNL d   1      -0.758  -5.533  -0.295  0.00  0.00     0.257 C 
ATOM      3  O   UNL d   1      -0.216  -6.540   0.104  0.00  0.00    -0.267 OA
ATOM      4  H   UNL d   1      -2.300  -4.393  -0.927  0.00  0.00     0.171 HD
ENDROOT
BRANCH   1   5
ATOM      5  C   UNL d   1      -3.179  -6.027  -1.232  0.00  0.00     0.179 C 
ATOM      6  S   UNL d   1      -4.554  -5.062  -1.321  0.00  0.00    -0.040 SA
BRANCH   5   7
ATOM      7  N   UNL d   1      -3.342  -7.318  -1.530  0.00  0.00    -0.333 N 
ATOM      8  H   UNL d   1      -4.331  -7.537  -1.624  0.00  0.00     0.168 HD
BRANCH   7   9
ATOM      9  C   UNL d   1      -2.492  -8.403  -1.743  0.00  0.00     0.035 C 
ATOM     10  C   UNL d   1      -3.093  -9.666  -1.760  0.00  0.00     0.045 C 
ATOM     11  C   UNL d   1      -2.318 -10.832  -1.758  0.00  0.00     0.050 C 
ATOM     12  C   UNL d   1      -0.921 -10.712  -1.785  0.00  0.00     0.032 C 
ATOM     13  C   UNL d   1      -0.313  -9.449  -1.868  0.00  0.00     0.050 C 
ATOM     14  C   UNL d   1      -1.124  -8.306  -1.920  0.00  0.00     0.045 C 
BRANCH  11  15
ATOM     15  C   UNL d   1      -2.999 -12.178  -1.688  0.00  0.00     0.417 C 
ATOM     16  F   UNL d   1      -2.197 -13.164  -1.206  0.00  0.00    -0.166 F 
ATOM     17  F   UNL d   1      -4.101 -12.166  -0.886  0.00  0.00    -0.166 F 
ATOM     18  F   UNL d   1      -3.432 -12.602  -2.908  0.00  0.00    -0.166 F 
ENDBRANCH  11  15
BRANCH  13  19
ATOM     19  C   UNL d   1       1.189  -9.290  -1.876  0.00  0.00     0.417 C 
ATOM     20  F   UNL d   1       1.846 -10.418  -1.480  0.00  0.00    -0.166 F 
ATOM     21  F   UNL d   1       1.669  -8.997  -3.118  0.00  0.00    -0.166 F 
ATOM     22  F   UNL d   1       1.642  -8.298  -1.064  0.00  0.00    -0.166 F 
ENDBRANCH  13  19
ENDBRANCH   7   9
ENDBRANCH   5   7
ENDBRANCH   1   5
BRANCH   2  23
ATOM     23  C   UNL d   1      -0.088  -4.182  -0.195  0.00  0.00     0.032 A 
ATOM     24  C   UNL d   1      -0.838  -3.136   0.361  0.00  0.00     0.018 A 
ATOM     25  C   UNL d   1      -0.433  -1.811   0.211  0.00  0.00     0.026 A 
ATOM     26  C   UNL d   1       0.761  -1.514  -0.448  0.00  0.00     0.079 A 
ATOM     27  C   UNL d   1       1.580  -2.569  -0.896  0.00  0.00     0.026 A 
ATOM     28  C   UNL d   1       1.150  -3.913  -0.782  0.00  0.00     0.018 A 
BRANCH  26  29
ATOM     29  S   UNL d   1       1.367   0.183  -0.342  0.00  0.00     0.260 S 
ATOM     30  O   UNL d   1       2.785   0.112  -0.628  0.00  0.00    -0.200 OA
ATOM     31  O   UNL d   1       0.906   0.680   0.937  0.00  0.00    -0.200 OA
BRANCH  29  32
ATOM     32  N   UNL d   1       0.629   1.098  -1.561  0.00  0.00    -0.307 N 
BRANCH  32  33
ATOM     33  C   UNL d   1       1.443   1.531  -2.727  0.00  0.00     0.135 C 
BRANCH  33  34
ATOM     34  C   UNL d   1       1.402   0.502  -3.851  0.00  0.00     0.016 C 
ATOM     35  C   UNL d   1       2.058   1.040  -5.117  0.00  0.00     0.006 C 
ENDBRANCH  33  34
ENDBRANCH  32  33
BRANCH  32  36
ATOM     36  C   UNL d   1      -0.806   1.457  -1.639  0.00  0.00     0.135 C 
BRANCH  36  37
ATOM     37  C   UNL d   1      -1.452   2.080  -0.404  0.00  0.00     0.016 C 
ATOM     38  C   UNL d   1      -0.952   3.462  -0.018  0.00  0.00     0.006 C 
ENDBRANCH  36  37
ENDBRANCH  32  36
ENDBRANCH  29  32
ENDBRANCH  26  29
ENDBRANCH   2  23
TORSDOF 12
