REMARK  5 active torsions:
REMARK  status: ('A' for Active; 'I' for Inactive)
REMARK    1  A    between atoms: N_18  and  C_7 
REMARK    2  A    between atoms: C_11  and  C_8 
REMARK    3  A    between atoms: O_20  and  C_9 
REMARK    4  A    between atoms: C_12  and  C_11 
REMARK    5  A    between atoms: C_13  and  N_18 
ROOT
ATOM      1  C   UNL d   1       3.972   3.591  -0.209  0.00  0.00     0.106 C 
ATOM      2  C   UNL d   1       3.283   2.438  -0.103  0.00  0.00     0.132 C 
ATOM      3  C   UNL d   1       5.390   3.595  -0.280  0.00  0.00     0.104 C 
ATOM      4  N   UNL d   1       6.550   3.581  -0.354  0.00  0.00    -0.191 NA
ENDROOT
BRANCH   1   5
ATOM      5  C   UNL d   1       3.234   4.887  -0.280  0.00  0.00     0.175 C 
ATOM      6  O   UNL d   1       2.100   5.025   0.165  0.00  0.00    -0.291 OA
BRANCH   5   7
ATOM      7  C   UNL d   1       3.948   6.014  -0.961  0.00  0.00     0.061 A 
ATOM      8  C   UNL d   1       4.253   7.310  -0.249  0.00  0.00     0.013 A 
ATOM      9  C   UNL d   1       3.210   7.279  -1.328  0.00  0.00     0.013 A 
ENDBRANCH   5   7
ENDBRANCH   1   5
BRANCH   2  10
ATOM     10  N   UNL d   1       3.783   1.155  -0.058  0.00  0.00    -0.200 N 
ATOM     11  H   UNL d   1       4.782   0.996  -0.093  0.00  0.00     0.183 HD
BRANCH  10  12
ATOM     12  C   UNL d   1       3.088  -0.052   0.032  0.00  0.00     0.686 A 
ATOM     13  N   UNL d   1       3.844  -1.149   0.064  0.00  0.00    -0.181 N 
ATOM     14  C   UNL d   1       3.191  -2.309   0.157  0.00  0.00     0.096 A 
ATOM     15  HN  UNL d   1       4.862  -1.104   0.021  1.00  0.00     0.185 HD
ATOM     16  N   UNL d   1       1.868  -2.427   0.210  0.00  0.00    -0.311 N 
ATOM     17  C   UNL d   1       4.007  -3.566   0.190  0.00  0.00     0.089 C 
ATOM     18  C   UNL d   1       1.215  -1.268   0.169  0.00  0.00     0.238 A 
ATOM     19  HN  UNL d   1       1.394  -3.328   0.277  1.00  0.00     0.170 HD
ATOM     20  N   UNL d   1       1.764  -0.063   0.079  0.00  0.00    -0.154 N 
ATOM     21  HN  UNL d   1       1.208   0.791   0.049  1.00  0.00     0.188 HD
BRANCH  18  22
ATOM     22  O   UNL d   1      -0.163  -1.254   0.214  0.00  0.00    -0.327 OA
ATOM     23  C   UNL d   1      -0.740  -2.546   0.330  0.00  0.00     0.213 C 
ENDBRANCH  18  22
ENDBRANCH  10  12
ENDBRANCH   2  10
TORSDOF 5
