REMARK  2 active torsions:
REMARK  status: ('A' for Active; 'I' for Inactive)
REMARK    1  A    between atoms: C_11  and  C_6 
REMARK    2  A    between atoms: O_19  and  C_14 
ROOT
ATOM      1  C   UNL d   1       1.286   0.332   0.002  0.00  0.00     0.058 C 
ATOM      2  C   UNL d   1      -1.281   0.358  -0.017  0.00  0.00     0.058 C 
ATOM      3  N   UNL d   1      -0.015  -1.651  -0.040  0.00  0.00    -0.361 N 
ATOM      4  C   UNL d   1      -1.237  -0.995   0.002  0.00  0.00     0.023 C 
ATOM      5  C   UNL d   1       1.215  -1.018   0.026  0.00  0.00     0.023 C 
ATOM      6  C   UNL d   1       0.013   1.167  -0.158  0.00  0.00     0.110 C 
ATOM      7  C   UNL d   1      -2.506   1.083   0.082  0.00  0.00     0.098 C 
ATOM      8  C   UNL d   1       2.531   1.020   0.107  0.00  0.00     0.098 C 
ATOM      9  N   UNL d   1       3.545   1.578   0.210  0.00  0.00    -0.192 NA
ATOM     10  N   UNL d   1      -3.497   1.676   0.182  0.00  0.00    -0.192 NA
ATOM     11  C   UNL d   1       2.437  -1.900   0.108  0.00  0.00     0.069 C 
ATOM     12  C   UNL d   1      -2.453  -1.887   0.052  0.00  0.00     0.069 C 
ATOM     13  H   UNL d   1      -0.028  -2.667   0.010  0.00  0.00     0.165 HD
ENDROOT
BRANCH   6  14
ATOM     14  C   UNL d   1       0.035   1.905  -1.498  0.00  0.00    -0.044 A 
ATOM     15  C   UNL d   1       0.086   3.304  -1.538  0.00  0.00     0.011 A 
ATOM     16  C   UNL d   1       0.134   3.977  -2.763  0.00  0.00     0.037 A 
ATOM     17  C   UNL d   1       0.127   3.260  -3.960  0.00  0.00     0.068 A 
ATOM     18  C   UNL d   1       0.088   1.867  -3.928  0.00  0.00     0.037 A 
ATOM     19  C   UNL d   1       0.029   1.193  -2.710  0.00  0.00     0.011 A 
BRANCH  17  20
ATOM     20  O   UNL d   1       0.200   3.811  -5.210  0.00  0.00    -0.356 OA
ATOM     21  C   UNL d   1      -0.361   5.112  -5.333  0.00  0.00     0.210 C 
ENDBRANCH  17  20
ENDBRANCH   6  14
TORSDOF 2
