REMARK  5 active torsions:
REMARK  status: ('A' for Active; 'I' for Inactive)
REMARK    1  A    between atoms: C_7  and  C_1 
REMARK    2  A    between atoms: C_10  and  N_2 
REMARK    3  A    between atoms: C_12  and  C_6 
REMARK       I    between atoms: N_8  and  C_7 
REMARK    4  A    between atoms: C_15  and  N_8 
REMARK    5  A    between atoms: C_20  and  C_10 
ROOT
ATOM      1  C   UNL d   1      -0.661  -1.551  -0.048  0.00  0.00     0.121 A 
ATOM      2  N   UNL d   1       0.585  -0.965  -0.146  0.00  0.00    -0.282 N 
ATOM      3  N   UNL d   1       0.558   0.381  -0.078  0.00  0.00    -0.301 N 
ATOM      4  HN  UNL d   1       1.355   1.017  -0.115  1.00  0.00     0.187 HD
ATOM      5  C   UNL d   1      -1.519  -0.464   0.110  0.00  0.00     0.064 A 
ATOM      6  C   UNL d   1      -0.730   0.705   0.048  0.00  0.00     0.036 A 
ENDROOT
BRANCH   1   7
ATOM      7  C   UNL d   1      -1.074  -2.959  -0.076  0.00  0.00     0.274 C 
ATOM      8  N   UNL d   1      -0.230  -3.829  -0.742  0.00  0.00    -0.322 N 
ATOM      9  H   UNL d   1       0.539  -3.421  -1.235  0.00  0.00     0.169 HD
ATOM     10  O   UNL d   1      -2.134  -3.309   0.435  0.00  0.00    -0.266 OA
BRANCH   8  11
ATOM     11  C   UNL d   1      -0.372  -5.216  -0.983  0.00  0.00     0.037 A 
ATOM     12  C   UNL d   1      -1.478  -5.986  -0.624  0.00  0.00     0.069 A 
ATOM     13  C   UNL d   1      -1.487  -7.321  -0.995  0.00  0.00     0.107 A 
ATOM     14  O   UNL d   1      -2.498  -8.206  -0.769  0.00  0.00    -0.323 OA
ATOM     15  C   UNL d   1      -0.442  -7.902  -1.675  0.00  0.00     0.105 A 
ATOM     16  C   UNL d   1      -1.986  -9.384  -1.425  0.00  0.00     0.352 A 
ATOM     17  O   UNL d   1      -0.657  -9.212  -1.956  0.00  0.00    -0.323 OA
ATOM     18  C   UNL d   1       0.677  -7.188  -2.020  0.00  0.00     0.042 A 
ATOM     19  C   UNL d   1       0.702  -5.835  -1.674  0.00  0.00     0.032 A 
ENDBRANCH   8  11
ENDBRANCH   1   7
BRANCH   2  20
ATOM     20  C   UNL d   1       1.905  -1.556  -0.361  0.00  0.00     0.188 C 
BRANCH  20  21
ATOM     21  C   UNL d   1       2.155  -1.926  -1.813  0.00  0.00    -0.038 A 
ATOM     22  C   UNL d   1       1.462  -1.319  -2.879  0.00  0.00     0.012 A 
ATOM     23  C   UNL d   1       1.603  -1.797  -4.183  0.00  0.00     0.043 A 
ATOM     24  C   UNL d   1       2.463  -2.855  -4.433  0.00  0.00     0.116 A 
ATOM     25  C   UNL d   1       3.214  -3.421  -3.410  0.00  0.00     0.043 A 
ATOM     26  F   UNL d   1       2.566  -3.344  -5.675  0.00  0.00    -0.206 F 
ATOM     27  C   UNL d   1       3.071  -2.951  -2.103  0.00  0.00     0.012 A 
ENDBRANCH  20  21
ENDBRANCH   2  20
BRANCH   6  28
ATOM     28  C   UNL d   1      -1.115   2.177   0.068  0.00  0.00    -0.007 C 
ATOM     29  C   UNL d   1      -2.631   2.385   0.243  0.00  0.00     0.021 C 
ATOM     30  C   UNL d   1      -0.396   2.904   1.225  0.00  0.00     0.021 C 
ATOM     31  C   UNL d   1      -0.695   2.841  -1.264  0.00  0.00     0.021 C 
ENDBRANCH   6  28
TORSDOF 5
