REMARK  4 active torsions:
REMARK  status: ('A' for Active; 'I' for Inactive)
REMARK    1  A    between atoms: C_5  and  CA_3 
REMARK    2  A    between atoms: C_6  and  CA_4 
REMARK    3  A    between atoms: OXT_10  and  C_5 
REMARK    4  A    between atoms: OXT_9  and  C_6 
ROOT
ATOM      1  N   UNL d   1      -1.433  -0.054   0.012  0.00  0.00    -0.345 N 
ATOM      2  HN  UNL d   1      -2.452  -0.093   0.017  1.00  0.00     0.166 HD
ATOM      3  CA  UNL d   1      -0.648  -1.178   0.013  0.00  0.00     0.107 A 
ATOM      4  CA  UNL d   1      -0.736   1.126   0.005  0.00  0.00     0.107 A 
ATOM      5  C   UNL d   1       0.652   1.226  -0.002  0.00  0.00     0.037 A 
ATOM      6  C   UNL d   1       0.743  -1.172   0.004  0.00  0.00     0.037 A 
ATOM      7  C   UNL d   1       1.401   0.054  -0.002  0.00  0.00     0.005 A 
ENDROOT
BRANCH   3   8
ATOM      8  C   UNL d   1      -1.363  -2.491   0.025  0.00  0.00     0.193 C 
ATOM      9  O   UNL d   1      -0.812  -3.577   0.031  0.00  0.00    -0.645 OA
BRANCH   8  10
ATOM     10  OXT UNL d   1      -2.705  -2.323   0.030  0.00  0.00    -0.772 OA
ATOM     11  HXT UNL d   1      -2.925  -1.369   0.024  0.00  0.00     0.167 HD
ENDBRANCH   8  10
ENDBRANCH   3   8
BRANCH   4  12
ATOM     12  C   UNL d   1      -1.550   2.380   0.004  0.00  0.00     0.193 C 
ATOM     13  O   UNL d   1      -1.083   3.506  -0.001  0.00  0.00    -0.645 OA
BRANCH  12  14
ATOM     14  OXT UNL d   1      -2.875   2.109   0.010  0.00  0.00    -0.772 OA
ATOM     15  HXT UNL d   1      -3.020   1.141   0.013  0.00  0.00     0.167 HD
ENDBRANCH  12  14
ENDBRANCH   4  12
TORSDOF 4
