REMARK  6 active torsions:
REMARK  status: ('A' for Active; 'I' for Inactive)
REMARK       I    between atoms: N_2  and  C_1 
REMARK    1  A    between atoms: C_4  and  C_1 
REMARK    2  A    between atoms: C_3  and  N_2 
REMARK    3  A    between atoms: O_17  and  C_6 
REMARK    4  A    between atoms: C_10  and  C_8 
REMARK    5  A    between atoms: S_9  and  C_10 
REMARK    6  A    between atoms: C_13  and  S_9 
ROOT
ATOM      1  C   UNL d   1       0.150   0.483  -1.107  0.00  0.00     0.039 A 
ATOM      2  C   UNL d   1       0.637  -0.296  -2.181  0.00  0.00    -0.033 A 
ATOM      3  C   UNL d   1      -1.051   1.205  -1.241  0.00  0.00     0.017 A 
ATOM      4  C   UNL d   1      -0.111  -0.322  -3.374  0.00  0.00     0.009 A 
ATOM      5  C   UNL d   1      -1.771   1.163  -2.433  0.00  0.00     0.001 A 
ATOM      6  C   UNL d   1      -1.298   0.405  -3.500  0.00  0.00     0.001 A 
ENDROOT
BRANCH   1   7
ATOM      7  C   UNL d   1       0.940   0.684   0.140  0.00  0.00     0.256 C 
ATOM      8  N   UNL d   1       0.216   0.607   1.321  0.00  0.00    -0.320 N 
ATOM      9  H   UNL d   1      -0.702   0.202   1.239  0.00  0.00     0.169 HD
ATOM     10  O   UNL d   1       2.135   0.930   0.021  0.00  0.00    -0.267 OA
BRANCH   8  11
ATOM     11  C   UNL d   1       0.689   0.932   2.623  0.00  0.00     0.070 A 
ATOM     12  C   UNL d   1       1.969   1.464   2.839  0.00  0.00     0.056 A 
ATOM     13  C   UNL d   1       2.417   1.763   4.130  0.00  0.00     0.036 A 
ATOM     14 CL   UNL d   1       3.996   2.413   4.353  0.00  0.00    -0.084 Cl
ATOM     15  C   UNL d   1       1.600   1.547   5.232  0.00  0.00     0.026 A 
ATOM     16  C   UNL d   1       0.320   1.034   5.040  0.00  0.00     0.040 A 
ATOM     17  C   UNL d   1      -0.131   0.739   3.748  0.00  0.00     0.092 A 
BRANCH  17  18
ATOM     18  O   UNL d   1      -1.414   0.264   3.684  0.00  0.00    -0.358 OA
ATOM     19  H   UNL d   1      -1.758   0.381   2.789  0.00  0.00     0.217 HD
ENDBRANCH  17  18
ENDBRANCH   8  11
ENDBRANCH   1   7
BRANCH   2  20
ATOM     20  C   UNL d   1       1.921  -1.103  -2.107  0.00  0.00     0.119 C 
BRANCH  20  21
ATOM     21  S   UNL d   1       1.736  -2.542  -0.996  0.00  0.00    -0.125 SA
BRANCH  21  22
ATOM     22  C   UNL d   1       3.355  -3.300  -1.074  0.00  0.00     0.000 A 
ATOM     23  C   UNL d   1       4.550  -2.584  -0.961  0.00  0.00     0.019 A 
ATOM     24  C   UNL d   1       5.781  -3.257  -0.919  0.00  0.00     0.008 A 
ATOM     25  C   UNL d   1       5.834  -4.655  -0.975  0.00  0.00    -0.062 A 
ATOM     26  C   UNL d   1       4.640  -5.369  -1.104  0.00  0.00     0.008 A 
ATOM     27  C   UNL d   1       7.149  -5.371  -0.867  0.00  0.00     0.048 C 
ATOM     28  C   UNL d   1       3.414  -4.697  -1.148  0.00  0.00     0.019 A 
ENDBRANCH  21  22
ENDBRANCH  20  21
ENDBRANCH   2  20
TORSDOF 6
