REMARK  4 active torsions:
REMARK  status: ('A' for Active; 'I' for Inactive)
REMARK    1  A    between atoms: S_9  and  C_2 
REMARK    2  A    between atoms: C_14  and  C_3 
REMARK    3  A    between atoms: N_4  and  C_10 
REMARK    4  A    between atoms: C_13  and  S_9 
ROOT
ATOM      1  N   UNL d   1      -1.172   0.057  -0.031  0.00  0.00    -0.323 N 
ATOM      2  C   UNL d   1      -0.372   1.157   0.030  0.00  0.00     0.166 A 
ATOM      3  C   UNL d   1      -0.340  -1.033   0.018  0.00  0.00     0.105 A 
ATOM      4  N   UNL d   1       0.904  -0.596   0.095  0.00  0.00    -0.286 N 
ATOM      5  HN  UNL d   1       1.739  -1.179   0.147  1.00  0.00     0.188 HD
ATOM      6  N   UNL d   1       0.882   0.781   0.092  0.00  0.00    -0.278 N 
ATOM      7  HN  UNL d   1       1.694   1.396   0.132  1.00  0.00     0.189 HD
ATOM      8  H   UNL d   1      -2.182   0.076  -0.075  0.00  0.00     0.169 HD
ENDROOT
BRANCH   2   9
ATOM      9  S   UNL d   1      -0.938   2.781  -0.082  0.00  0.00    -0.035 SA
BRANCH   9  10
ATOM     10  C   UNL d   1      -2.547   2.718   0.682  0.00  0.00     0.077 A 
ATOM     11  N   UNL d   1      -3.304   1.597   0.543  0.00  0.00    -0.358 N 
ATOM     12  C   UNL d   1      -4.551   1.613   1.087  0.00  0.00     0.124 A 
ATOM     13  HN  UNL d   1      -2.952   0.777   0.050  1.00  0.00     0.166 HD
ATOM     14  C   UNL d   1      -5.077   2.705   1.758  0.00  0.00     0.118 A 
ATOM     15  C   UNL d   1      -4.298   3.853   1.890  0.00  0.00     0.040 A 
ATOM     16  C   UNL d   1      -3.014   3.857   1.341  0.00  0.00     0.040 A 
BRANCH  14  17
ATOM     17  N   UNL d   1      -6.426   2.639   2.302  0.00  0.00    -0.114 N 
ATOM     18  O   UNL d   1      -7.056   1.586   2.144  0.00  0.00    -0.532 OA
ATOM     19  O   UNL d   1      -6.859   3.641   2.887  0.00  0.00    -0.532 OA
ENDBRANCH  14  17
ENDBRANCH   9  10
ENDBRANCH   2   9
BRANCH   3  20
ATOM     20  C   UNL d   1      -0.803  -2.469  -0.007  0.00  0.00     0.009 C 
ATOM     21  C   UNL d   1      -1.585  -2.759  -1.300  0.00  0.00     0.023 C 
ATOM     22  C   UNL d   1       0.416  -3.411   0.046  0.00  0.00     0.023 C 
ATOM     23  C   UNL d   1      -1.698  -2.762   1.209  0.00  0.00     0.023 C 
ENDBRANCH   3  20
TORSDOF 4
