REMARK  9 active torsions:
REMARK  status: ('A' for Active; 'I' for Inactive)
REMARK    1  A    between atoms: C_4  and  C_1 
REMARK    2  A    between atoms: C_10  and  N_5 
REMARK    3  A    between atoms: C_6  and  C_9 
REMARK    4  A    between atoms: C_20  and  C_10 
REMARK    5  A    between atoms: N_19  and  C_25 
REMARK    6  A    between atoms: C_26  and  N_19 
REMARK    7  A    between atoms: O_24  and  C_20 
REMARK    8  A    between atoms: C_25  and  C_20 
REMARK    9  A    between atoms: C_23  and  C_26 
ROOT
ATOM      1  C   UNL d   1       3.349   0.635  -0.074  0.00  0.00     0.166 C 
ENDROOT
BRANCH   1   2
ATOM      2  C   UNL d   1       2.039   1.434  -0.067  0.00  0.00     0.181 C 
BRANCH   2   3
ATOM      3  N   UNL d   1       1.964   2.418  -1.136  0.00  0.00    -0.300 N 
ATOM      4  N   UNL d   1       2.094   2.010  -2.414  0.00  0.00    -0.295 N 
ATOM      5  C   UNL d   1       1.990   3.143  -3.142  0.00  0.00     0.133 A 
ATOM      6  HN  UNL d   1       2.239   1.060  -2.755  1.00  0.00     0.187 HD
ATOM      7  C   UNL d   1       1.828   4.268  -2.287  0.00  0.00     0.054 A 
ATOM      8  C   UNL d   1       1.819   3.765  -1.008  0.00  0.00     0.112 A 
BRANCH   5   9
ATOM      9  C   UNL d   1       2.057   3.172  -4.647  0.00  0.00     0.433 C 
ATOM     10  F   UNL d   1       2.151   1.939  -5.211  0.00  0.00    -0.165 F 
ATOM     11  F   UNL d   1       0.959   3.767  -5.187  0.00  0.00    -0.165 F 
ATOM     12  F   UNL d   1       3.132   3.884  -5.082  0.00  0.00    -0.165 F 
ENDBRANCH   5   9
ENDBRANCH   2   3
ENDBRANCH   1   2
BRANCH   1  13
ATOM     13  O   UNL d   1       3.454  -0.181  -1.254  0.00  0.00    -0.392 OA
ATOM     14  H   UNL d   1       3.158   0.371  -2.011  0.00  0.00     0.210 HD
ENDBRANCH   1  13
BRANCH   1  15
ATOM     15  C   UNL d   1       4.597   1.533   0.056  0.00  0.00     0.303 C 
BRANCH  15  16
ATOM     16  N   UNL d   1       5.796   0.694   0.152  0.00  0.00     0.090 N 
ATOM     17  H   UNL d   1       5.814   0.073  -0.663  0.00  0.00     0.316 HD
BRANCH  16  18
ATOM     18  C   UNL d   1       7.020   1.487   0.193  0.00  0.00     0.308 C 
BRANCH  18  19
ATOM     19  C   UNL d   1       8.243   0.598   0.157  0.00  0.00    -0.030 A 
ATOM     20  C   UNL d   1       9.198   0.741  -0.858  0.00  0.00     0.010 A 
ATOM     21  C   UNL d   1      10.328  -0.080  -0.891  0.00  0.00     0.017 A 
ATOM     22  C   UNL d   1      10.528  -1.062   0.091  0.00  0.00     0.047 A 
ATOM     23  C   UNL d   1       9.573  -1.203   1.109  0.00  0.00     0.017 A 
ATOM     24  C   UNL d   1       8.445  -0.379   1.142  0.00  0.00     0.010 A 
BRANCH  22  25
ATOM     25  C   UNL d   1      11.738  -1.960   0.062  0.00  0.00     0.417 C 
ATOM     26  F   UNL d   1      12.585  -1.704  -0.975  0.00  0.00    -0.166 F 
ATOM     27  F   UNL d   1      12.494  -1.853   1.191  0.00  0.00    -0.166 F 
ATOM     28  F   UNL d   1      11.411  -3.278  -0.043  0.00  0.00    -0.166 F 
ENDBRANCH  22  25
ENDBRANCH  18  19
ENDBRANCH  16  18
ENDBRANCH  15  16
ENDBRANCH   1  15
TORSDOF 9
