REMARK  6 active torsions:
REMARK  status: ('A' for Active; 'I' for Inactive)
REMARK    1  A    between atoms: N_2  and  C_1 
REMARK    2  A    between atoms: N_3  and  C_10 
REMARK    3  A    between atoms: C_4  and  C_9 
REMARK    4  A    between atoms: O_8  and  C_5 
REMARK    5  A    between atoms: C_7  and  O_8 
REMARK    6  A    between atoms: C_13  and  C_7 
ROOT
ATOM      1  C   UNL d   1       1.220   0.207   0.094  0.00  0.00     0.137 A 
ATOM      2  C   UNL d   1       0.659  -1.065  -0.031  0.00  0.00     0.112 A 
ATOM      3  C   UNL d   1       0.432   1.358   0.184  0.00  0.00     0.055 A 
ATOM      4  C   UNL d   1      -0.965   1.234   0.139  0.00  0.00     0.050 A 
ATOM      5  C   UNL d   1      -0.726  -1.200  -0.053  0.00  0.00     0.041 A 
ATOM      6  C   UNL d   1      -1.531  -0.054   0.040  0.00  0.00     0.019 A 
ENDROOT
BRANCH   2   7
ATOM      7  O   UNL d   1       1.538  -2.143  -0.263  0.00  0.00    -0.272 OA
BRANCH   7   8
ATOM      8  C   UNL d   1       1.292  -3.484  -0.013  0.00  0.00     0.298 C 
ATOM      9  O   UNL d   1       0.368  -3.948   0.630  0.00  0.00    -0.259 OA
BRANCH   8  10
ATOM     10  C   UNL d   1       2.343  -4.285  -0.709  0.00  0.00     0.040 A 
ATOM     11  C   UNL d   1       2.328  -5.681  -0.571  0.00  0.00     0.020 A 
ATOM     12  C   UNL d   1       3.237  -6.472  -1.287  0.00  0.00     0.037 A 
ATOM     13  C   UNL d   1       4.165  -5.863  -2.144  0.00  0.00     0.102 A 
ATOM     14  C   UNL d   1       4.211  -4.470  -2.264  0.00  0.00     0.037 A 
ATOM     15  C   UNL d   1       3.303  -3.687  -1.545  0.00  0.00     0.020 A 
BRANCH  13  16
ATOM     16  N   UNL d   1       5.079  -6.686  -2.947  0.00  0.00    -0.116 N 
ATOM     17  O   UNL d   1       4.989  -7.919  -2.835  0.00  0.00    -0.532 OA
ATOM     18  O   UNL d   1       5.878  -6.104  -3.694  0.00  0.00    -0.532 OA
ENDBRANCH  13  16
ENDBRANCH   8  10
ENDBRANCH   7   8
ENDBRANCH   2   7
BRANCH   1  19
ATOM     19  N   UNL d   1       2.658   0.351   0.137  0.00  0.00    -0.113 N 
ATOM     20  O   UNL d   1       3.149   0.731   1.207  0.00  0.00    -0.532 OA
ATOM     21  O   UNL d   1       3.284   0.098  -0.901  0.00  0.00    -0.532 OA
ENDBRANCH   1  19
BRANCH   4  22
ATOM     22  C   UNL d   1      -1.852   2.456   0.206  0.00  0.00     0.417 C 
ATOM     23  F   UNL d   1      -1.172   3.620   0.020  0.00  0.00    -0.166 F 
ATOM     24  F   UNL d   1      -2.833   2.442  -0.737  0.00  0.00    -0.166 F 
ATOM     25  F   UNL d   1      -2.480   2.573   1.406  0.00  0.00    -0.166 F 
ENDBRANCH   4  22
TORSDOF 6
