REMARK  3 active torsions:
REMARK  status: ('A' for Active; 'I' for Inactive)
REMARK    1  A    between atoms: S_2  and  C_1 
REMARK    2  A    between atoms: C_12  and  S_2 
REMARK    3  A    between atoms: C_13  and  C_12 
ROOT
ATOM      1  C   UNL d   1       0.735   0.699   1.148  0.00  0.00     0.009 C 
ATOM      2  C   UNL d   1       0.523   0.493  -1.376  0.00  0.00    -0.012 C 
ATOM      3  C   UNL d   1      -1.521   0.278   0.078  0.00  0.00    -0.012 C 
ATOM      4  C   UNL d   1       0.228  -1.539   0.075  0.00  0.00    -0.012 C 
ATOM      5  C   UNL d   1      -0.780   0.999   1.221  0.00  0.00     0.025 C 
ATOM      6  C   UNL d   1       0.969  -0.828   1.219  0.00  0.00     0.025 C 
ATOM      7  C   UNL d   1       1.256   1.207  -0.224  0.00  0.00     0.025 C 
ATOM      8  C   UNL d   1      -0.985   0.776  -1.273  0.00  0.00     0.009 C 
ATOM      9  C   UNL d   1       0.758  -1.022  -1.269  0.00  0.00     0.009 C 
ATOM     10  C   UNL d   1      -1.276  -1.236   0.191  0.00  0.00     0.009 C 
ENDROOT
BRANCH   1  11
ATOM     11  S   UNL d   1       1.662   1.585   2.481  0.00  0.00    -0.154 SA
BRANCH  11  12
ATOM     12  C   UNL d   1       1.019   0.762   3.971  0.00  0.00     0.113 C 
BRANCH  12  13
ATOM     13  C   UNL d   1       1.658   1.256   5.245  0.00  0.00    -0.049 A 
ATOM     14  C   UNL d   1       1.148   2.378   5.911  0.00  0.00     0.008 A 
ATOM     15  C   UNL d   1       1.690   2.781   7.132  0.00  0.00     0.001 A 
ATOM     16  C   UNL d   1       2.751   2.074   7.694  0.00  0.00     0.000 A 
ATOM     17  C   UNL d   1       3.284   0.973   7.027  0.00  0.00     0.001 A 
ATOM     18  C   UNL d   1       2.745   0.569   5.805  0.00  0.00     0.008 A 
ENDBRANCH  12  13
ENDBRANCH  11  12
ENDBRANCH   1  11
TORSDOF 3
