REMARK  8 active torsions:
REMARK  status: ('A' for Active; 'I' for Inactive)
REMARK    1  A    between atoms: C_11  and  N_1 
REMARK    2  A    between atoms: O_18  and  C_4 
REMARK    3  A    between atoms: C_5  and  C_6 
REMARK    4  A    between atoms: O_20  and  C_7 
REMARK    5  A    between atoms: O_19  and  C_8 
REMARK    6  A    between atoms: C_14  and  C_11 
REMARK    7  A    between atoms: O_21  and  C_14 
REMARK    8  A    between atoms: C_22  and  O_21 
ROOT
ATOM      1  N   UNL d   1      -0.102  -0.937  -0.092  0.00  0.00    -0.279 N 
ATOM      2  C   UNL d   1       1.159  -0.367   0.038  0.00  0.00     0.227 C 
ATOM      3  C   UNL d   1      -1.298  -0.234  -0.122  0.00  0.00     0.227 C 
ATOM      4  C   UNL d   1      -0.013   1.867  -0.217  0.00  0.00     0.036 C 
ATOM      5  C   UNL d   1      -1.234   1.182   0.374  0.00  0.00     0.113 C 
ATOM      6  C   UNL d   1       1.244   1.133   0.235  0.00  0.00     0.113 C 
ATOM      7  O   UNL d   1      -2.364  -0.715  -0.509  0.00  0.00    -0.273 OA
ATOM      8  O   UNL d   1       2.192  -1.041   0.034  0.00  0.00    -0.273 OA
ENDROOT
BRANCH   4   9
ATOM      9  C   UNL d   1       0.013   3.340   0.146  0.00  0.00    -0.048 A 
ATOM     10  C   UNL d   1       0.095   3.774   1.474  0.00  0.00     0.047 A 
ATOM     11  C   UNL d   1       0.071   5.135   1.810  0.00  0.00     0.104 A 
ATOM     12  C   UNL d   1      -0.012   6.100   0.794  0.00  0.00     0.135 A 
ATOM     13  C   UNL d   1       0.003   5.679  -0.554  0.00  0.00     0.104 A 
ATOM     14  C   UNL d   1      -0.041   4.310  -0.860  0.00  0.00     0.047 A 
BRANCH  11  15
ATOM     15  O   UNL d   1       0.214   5.341   3.158  0.00  0.00    -0.353 OA
ATOM     16  C   UNL d   1      -0.441   6.471   3.715  0.00  0.00     0.210 C 
ENDBRANCH  11  15
BRANCH  12  17
ATOM     17  O   UNL d   1       0.051   7.428   1.134  0.00  0.00    -0.351 OA
ATOM     18  C   UNL d   1      -0.993   8.240   0.594  0.00  0.00     0.210 C 
ENDBRANCH  12  17
BRANCH  13  19
ATOM     19  O   UNL d   1       0.093   6.650  -1.523  0.00  0.00    -0.353 OA
ATOM     20  C   UNL d   1       0.572   6.238  -2.799  0.00  0.00     0.210 C 
ENDBRANCH  13  19
ENDBRANCH   4   9
BRANCH   1  21
ATOM     21  C   UNL d   1      -0.150  -2.377  -0.339  0.00  0.00     0.245 C 
BRANCH  21  22
ATOM     22  C   UNL d   1      -0.047  -3.253   0.905  0.00  0.00     0.277 C 
ATOM     23  O   UNL d   1      -0.009  -4.481   0.841  0.00  0.00    -0.263 OA
BRANCH  22  24
ATOM     24  O   UNL d   1      -0.034  -2.546   2.070  0.00  0.00    -0.321 OA
BRANCH  24  25
ATOM     25  C   UNL d   1       0.126  -3.329   3.266  0.00  0.00     0.174 C 
ATOM     26  C   UNL d   1      -1.216  -3.853   3.749  0.00  0.00     0.034 C 
ENDBRANCH  24  25
ENDBRANCH  22  24
ENDBRANCH  21  22
ENDBRANCH   1  21
TORSDOF 8
