REMARK  5 active torsions:
REMARK  status: ('A' for Active; 'I' for Inactive)
REMARK    1  A    between atoms: C_2  and  N_1 
REMARK    2  A    between atoms: C_3  and  N_5 
REMARK    3  A    between atoms: N_6  and  C_3 
REMARK    4  A    between atoms: N_5  and  C_4 
REMARK    5  A    between atoms: C_10  and  N_6 
ROOT
ATOM      1  N   UNL d   1       2.078   2.530   0.139  0.00  0.00    -0.331 N 
ATOM      2  H   UNL d   1       1.471   2.519  -0.679  0.00  0.00     0.168 HD
ENDROOT
BRANCH   1   3
ATOM      3  C   UNL d   1       2.927   1.465   0.209  0.00  0.00     0.172 C 
ATOM      4  S   UNL d   1       4.598   1.571   0.175  0.00  0.00    -0.041 SA
BRANCH   3   5
ATOM      5  N   UNL d   1       2.382   0.217   0.216  0.00  0.00    -0.359 N 
ATOM      6  H   UNL d   1       3.118  -0.482   0.231  0.00  0.00     0.162 HD
BRANCH   5   7
ATOM      7  C   UNL d   1       1.081  -0.270   0.735  0.00  0.00     0.021 C 
ATOM      8  C   UNL d   1      -0.123   0.285  -0.037  0.00  0.00     0.037 C 
ATOM      9  C   UNL d   1       1.073  -1.808   0.586  0.00  0.00     0.037 C 
ATOM     10  C   UNL d   1       0.937   0.062   2.229  0.00  0.00     0.037 C 
ENDBRANCH   5   7
ENDBRANCH   3   5
ENDBRANCH   1   3
BRANCH   1  11
ATOM     11  C   UNL d   1       2.215   3.778   0.811  0.00  0.00     0.067 A 
ATOM     12  C   UNL d   1       1.730   4.988   0.283  0.00  0.00     0.129 A 
ATOM     13  C   UNL d   1       1.580   6.131   1.087  0.00  0.00     0.038 A 
ATOM     14  C   UNL d   1       1.965   6.087   2.423  0.00  0.00     0.003 A 
ATOM     15  C   UNL d   1       2.564   4.934   2.928  0.00  0.00     0.002 A 
ATOM     16  C   UNL d   1       2.692   3.792   2.129  0.00  0.00     0.032 A 
BRANCH  12  17
ATOM     17  N   UNL d   1       1.493   5.148  -1.147  0.00  0.00    -0.113 N 
ATOM     18  O   UNL d   1       0.999   4.186  -1.758  0.00  0.00    -0.532 OA
ATOM     19  O   UNL d   1       1.792   6.231  -1.663  0.00  0.00    -0.532 OA
ENDBRANCH  12  17
ENDBRANCH   1  11
TORSDOF 5
