REMARK  8 active torsions:
REMARK  status: ('A' for Active; 'I' for Inactive)
REMARK    1  A    between atoms: C_7  and  C_1 
REMARK    2  A    between atoms: N_8  and  C_2 
REMARK    3  A    between atoms: C_9  and  C_3 
REMARK       I    between atoms: C_10  and  N_8 
REMARK    4  A    between atoms: C_26  and  C_10 
REMARK    5  A    between atoms: C_11  and  C_27 
REMARK    6  A    between atoms: O_22  and  C_11 
REMARK    7  A    between atoms: S_19  and  C_26 
REMARK    8  A    between atoms: C_27  and  S_19 
ROOT
ATOM      1  C   UNL d   1       1.345   0.648  -0.110  0.00  0.00     0.147 A 
ATOM      2  C   UNL d   1       0.060  -1.181  -0.020  0.00  0.00     0.138 A 
ATOM      3  C   UNL d   1       1.392  -0.784   0.027  0.00  0.00     0.053 A 
ATOM      4  N   UNL d   1       0.070   1.079  -0.179  0.00  0.00    -0.292 N 
ATOM      5  HN  UNL d   1      -0.255   2.044  -0.236  1.00  0.00     0.187 HD
ATOM      6  N   UNL d   1      -0.681  -0.033  -0.158  0.00  0.00    -0.280 N 
ATOM      7  C   UNL d   1      -2.116   0.120  -0.089  0.00  0.00     0.179 C 
ENDROOT
BRANCH   2   8
ATOM      8  N   UNL d   1      -0.388  -2.497   0.088  0.00  0.00    -0.310 N 
ATOM      9  C   UNL d   1      -1.294  -3.055  -0.883  0.00  0.00     0.232 C 
ATOM     10  O   UNL d   1      -1.702  -2.359  -1.802  0.00  0.00    -0.272 OA
ATOM     11  H   UNL d   1       0.099  -3.113   0.733  0.00  0.00     0.170 HD
BRANCH   9  12
ATOM     12  C   UNL d   1      -1.622  -4.523  -0.718  0.00  0.00     0.177 C 
BRANCH  12  13
ATOM     13  S   UNL d   1      -3.158  -4.678   0.252  0.00  0.00    -0.149 SA
BRANCH  13  14
ATOM     14  C   UNL d   1      -3.411  -6.486   0.179  0.00  0.00     0.184 C 
BRANCH  14  15
ATOM     15  C   UNL d   1      -2.328  -7.271   0.896  0.00  0.00     0.149 C 
ATOM     16  O   UNL d   1      -1.245  -6.821   1.252  0.00  0.00    -0.649 OA
BRANCH  15  17
ATOM     17  O   UNL d   1      -2.639  -8.574   1.056  0.00  0.00    -0.776 OA
ATOM     18  H   UNL d   1      -3.527  -8.849   0.744  0.00  0.00     0.167 HD
ENDBRANCH  15  17
ENDBRANCH  14  15
ENDBRANCH  13  14
ENDBRANCH  12  13
ENDBRANCH   9  12
ENDBRANCH   2   8
BRANCH   3  19
ATOM     19  C   UNL d   1       2.528  -1.704   0.087  0.00  0.00    -0.020 A 
ATOM     20  C   UNL d   1       2.530  -2.898  -0.657  0.00  0.00     0.014 A 
ATOM     21  C   UNL d   1       3.609  -3.785  -0.597  0.00  0.00     0.020 A 
ATOM     22  C   UNL d   1       4.724  -3.461   0.169  0.00  0.00     0.011 A 
ATOM     23  C   UNL d   1       4.758  -2.269   0.887  0.00  0.00     0.020 A 
ATOM     24 BR   UNL d   1       6.199  -4.639   0.224  0.00  0.00    -0.051 Br
ATOM     25  C   UNL d   1       3.655  -1.407   0.864  0.00  0.00     0.014 A 
ENDBRANCH   3  19
BRANCH   1  26
ATOM     26  C   UNL d   1       2.477   1.649  -0.189  0.00  0.00     0.434 C 
ATOM     27  F   UNL d   1       3.693   1.074  -0.376  0.00  0.00    -0.165 F 
ATOM     28  F   UNL d   1       2.317   2.528  -1.214  0.00  0.00    -0.165 F 
ATOM     29  F   UNL d   1       2.574   2.383   0.952  0.00  0.00    -0.165 F 
ENDBRANCH   1  26
TORSDOF 8
