REMARK  3 active torsions:
REMARK  status: ('A' for Active; 'I' for Inactive)
REMARK    1  A    between atoms: C_2  and  C_1 
REMARK       I    between atoms: N_7  and  C_2 
REMARK    2  A    between atoms: C_5  and  C_8 
REMARK    3  A    between atoms: C_10  and  N_7 
ROOT
ATOM      1  C   UNL d   1      -1.765   0.151   0.142  0.00  0.00     0.054 A 
ATOM      2  N   UNL d   1       0.482   0.941   0.532  0.00  0.00    -0.355 N 
ATOM      3  HN  UNL d   1       1.115   1.683   0.831  1.00  0.00     0.166 HD
ATOM      4  C   UNL d   1      -0.870   1.120   0.597  0.00  0.00     0.021 A 
ATOM      5  C   UNL d   1       0.979  -0.241   0.062  0.00  0.00     0.117 A 
ATOM      6  C   UNL d   1      -1.236  -1.061  -0.324  0.00  0.00     0.021 A 
ATOM      7  C   UNL d   1       0.139  -1.266  -0.361  0.00  0.00     0.035 A 
ATOM      8  C   UNL d   1      -1.295   2.418   1.217  0.00  0.00     0.069 C 
ENDROOT
BRANCH   1   9
ATOM      9  C   UNL d   1      -3.249   0.256   0.158  0.00  0.00     0.258 C 
ATOM     10  N   UNL d   1      -3.798   1.463  -0.234  0.00  0.00    -0.320 N 
ATOM     11  H   UNL d   1      -3.176   2.134  -0.665  0.00  0.00     0.169 HD
ATOM     12  O   UNL d   1      -3.865  -0.778   0.395  0.00  0.00    -0.267 OA
BRANCH  10  13
ATOM     13  C   UNL d   1      -5.186   1.720  -0.399  0.00  0.00     0.073 A 
ATOM     14  C   UNL d   1      -6.223   0.983   0.193  0.00  0.00     0.143 A 
ATOM     15  F   UNL d   1      -5.991   0.065   1.140  0.00  0.00    -0.204 F 
ATOM     16  C   UNL d   1      -7.559   1.232  -0.124  0.00  0.00     0.044 A 
ATOM     17  C   UNL d   1      -7.889   2.253  -1.009  0.00  0.00     0.003 A 
ATOM     18  C   UNL d   1      -6.878   3.045  -1.549  0.00  0.00     0.002 A 
ATOM     19  C   UNL d   1      -5.537   2.787  -1.240  0.00  0.00     0.033 A 
ENDBRANCH  10  13
ENDBRANCH   1   9
BRANCH   5  20
ATOM     20  C   UNL d   1       2.486  -0.471   0.006  0.00  0.00     0.432 C 
ATOM     21  F   UNL d   1       3.234   0.609   0.369  0.00  0.00    -0.165 F 
ATOM     22  F   UNL d   1       2.890  -1.494   0.815  0.00  0.00    -0.165 F 
ATOM     23  F   UNL d   1       2.912  -0.811  -1.247  0.00  0.00    -0.165 F 
ENDBRANCH   5  20
TORSDOF 3
