REMARK  5 active torsions:
REMARK  status: ('A' for Active; 'I' for Inactive)
REMARK    1  A    between atoms: N_5  and  C_1 
REMARK       I    between atoms: C_3  and  N_5 
REMARK    2  A    between atoms: C_9  and  C_3 
REMARK    3  A    between atoms: N_12  and  C_7 
REMARK    4  A    between atoms: O_22  and  C_15 
REMARK    5  A    between atoms: O_23  and  C_16 
ROOT
ATOM      1  C   UNL d   1       1.019  -1.301  -0.311  0.00  0.00     0.050 A 
ATOM      2  C   UNL d   1      -0.278   0.736  -0.114  0.00  0.00    -0.039 A 
ATOM      3  C   UNL d   1      -0.221  -0.664  -0.185  0.00  0.00    -0.016 A 
ATOM      4  C   UNL d   1       2.200  -0.518  -0.445  0.00  0.00    -0.013 A 
ATOM      5  C   UNL d   1       2.133   0.906  -0.358  0.00  0.00     0.019 A 
ATOM      6  C   UNL d   1      -1.607  -1.258   0.008  0.00  0.00    -0.017 C 
ATOM      7  C   UNL d   1      -1.681   1.258   0.080  0.00  0.00    -0.019 C 
ATOM      8  C   UNL d   1       0.878   1.510  -0.189  0.00  0.00     0.032 A 
ATOM      9  C   UNL d   1      -2.506  -0.010  -0.232  0.00  0.00     0.027 C 
ATOM     10  C   UNL d   1      -1.779  -1.817   1.428  0.00  0.00     0.020 C 
ATOM     11  C   UNL d   1      -2.011  -2.338  -1.009  0.00  0.00     0.020 C 
ATOM     12  C   UNL d   1       3.524  -1.157  -0.789  0.00  0.00     0.052 C 
ATOM     13  C   UNL d   1      -1.907   1.766   1.510  0.00  0.00     0.020 C 
ATOM     14  C   UNL d   1      -2.030   2.378  -0.911  0.00  0.00     0.020 C 
ENDROOT
BRANCH   1  15
ATOM     15  N   UNL d   1       1.052  -2.707  -0.395  0.00  0.00    -0.322 N 
ATOM     16  C   UNL d   1       1.615  -3.530   0.573  0.00  0.00     0.261 C 
ATOM     17  O   UNL d   1       2.259  -3.159   1.546  0.00  0.00    -0.267 OA
ATOM     18  H   UNL d   1       0.347  -3.144  -0.966  0.00  0.00     0.169 HD
BRANCH  16  19
ATOM     19  C   UNL d   1       1.346  -4.990   0.362  0.00  0.00     0.098 A 
ATOM     20  C   UNL d   1       1.669  -5.584  -0.875  0.00  0.00     0.086 A 
ATOM     21  C   UNL d   1       1.427  -6.947  -1.084  0.00  0.00     0.038 A 
ATOM     22  C   UNL d   1       0.893  -7.727  -0.063  0.00  0.00     0.005 A 
ATOM     23  C   UNL d   1       0.585  -7.148   1.168  0.00  0.00     0.038 A 
ATOM     24  C   UNL d   1       0.812  -5.784   1.398  0.00  0.00     0.086 A 
BRANCH  20  25
ATOM     25  O   UNL d   1       2.154  -4.787  -1.881  0.00  0.00    -0.355 OA
ATOM     26  C   UNL d   1       3.230  -5.356  -2.621  0.00  0.00     0.210 C 
ENDBRANCH  20  25
BRANCH  24  27
ATOM     27  O   UNL d   1       0.451  -5.170   2.571  0.00  0.00    -0.355 OA
ATOM     28  C   UNL d   1       0.425  -5.998   3.733  0.00  0.00     0.210 C 
ENDBRANCH  24  27
ENDBRANCH  16  19
ENDBRANCH   1  15
BRANCH   5  29
ATOM     29  N   UNL d   1       3.303   1.690  -0.486  0.00  0.00    -0.283 NA
ATOM     30  C   UNL d   1       3.400   2.926   0.315  0.00  0.00     0.096 C 
ATOM     31  C   UNL d   1       3.432   4.056  -0.708  0.00  0.00     0.016 C 
ATOM     32  C   UNL d   1       4.203   3.424  -1.851  0.00  0.00     0.016 C 
ATOM     33  C   UNL d   1       3.636   2.006  -1.891  0.00  0.00     0.096 C 
ENDBRANCH   5  29
TORSDOF 5
