REMARK  4 active torsions:
REMARK  status: ('A' for Active; 'I' for Inactive)
REMARK    1  A    between atoms: C_7  and  N_1 
REMARK    2  A    between atoms: C_6  and  C_2 
REMARK    3  A    between atoms: C_11  and  C_7 
REMARK    4  A    between atoms: O_19  and  C_13 
ROOT
ATOM      1  N   UNL d   1      -0.718  -0.961  -0.411  0.00  0.00    -0.329 N 
ATOM      2  C   UNL d   1       0.678  -1.138  -0.071  0.00  0.00     0.185 C 
ATOM      3  C   UNL d   1      -1.232   0.323  -0.343  0.00  0.00     0.234 C 
ATOM      4  S   UNL d   1       1.375   0.513   0.191  0.00  0.00    -0.125 SA
ATOM      5  C   UNL d   1      -0.148   1.376  -0.269  0.00  0.00     0.137 C 
ATOM      6  O   UNL d   1      -2.421   0.609  -0.444  0.00  0.00    -0.272 OA
ATOM      7  C   UNL d   1      -0.019   2.001  -1.651  0.00  0.00     0.031 C 
ENDROOT
BRANCH   1   8
ATOM      8  C   UNL d   1      -1.597  -2.107  -0.605  0.00  0.00     0.166 C 
BRANCH   8   9
ATOM      9  C   UNL d   1      -2.310  -2.536   0.649  0.00  0.00    -0.040 A 
ATOM     10  C   UNL d   1      -3.548  -1.958   0.981  0.00  0.00     0.011 A 
ATOM     11  C   UNL d   1      -4.215  -2.323   2.150  0.00  0.00     0.037 A 
ATOM     12  C   UNL d   1      -3.655  -3.263   3.009  0.00  0.00     0.068 A 
ATOM     13  C   UNL d   1      -2.438  -3.861   2.671  0.00  0.00     0.037 A 
ATOM     14  C   UNL d   1      -1.764  -3.498   1.501  0.00  0.00     0.011 A 
BRANCH  12  15
ATOM     15  O   UNL d   1      -4.191  -3.679   4.197  0.00  0.00    -0.356 OA
ATOM     16  C   UNL d   1      -5.353  -2.989   4.642  0.00  0.00     0.210 C 
ENDBRANCH  12  15
ENDBRANCH   8   9
ENDBRANCH   1   8
BRANCH   2  17
ATOM     17  C   UNL d   1       1.487  -1.906  -1.089  0.00  0.00    -0.010 A 
ATOM     18  C   UNL d   1       2.588  -2.654  -0.675  0.00  0.00     0.097 A 
ATOM     19  N   UNL d   1       3.353  -3.410  -1.496  0.00  0.00    -0.375 N 
ATOM     20  C   UNL d   1       3.023  -3.411  -2.804  0.00  0.00     0.087 A 
ATOM     21  HN  UNL d   1       4.140  -3.954  -1.142  1.00  0.00     0.164 HD
ATOM     22  C   UNL d   1       1.974  -2.678  -3.330  0.00  0.00     0.018 A 
ATOM     23  C   UNL d   1       1.206  -1.907  -2.461  0.00  0.00     0.013 A 
ENDBRANCH   2  17
TORSDOF 4
