REMARK  3 active torsions:
REMARK  status: ('A' for Active; 'I' for Inactive)
REMARK    1  A    between atoms: C_6  and  N_1 
REMARK    2  A    between atoms: C_5  and  C_2 
REMARK    3  A    between atoms: C_14  and  C_6 
ROOT
ATOM      1  N   UNL d   1      -0.551  -1.234   0.153  0.00  0.00    -0.330 N 
ATOM      2  C   UNL d   1       0.842  -1.371  -0.224  0.00  0.00     0.184 C 
ATOM      3  S   UNL d   1       1.519   0.308  -0.332  0.00  0.00    -0.129 SA
ATOM      4  C   UNL d   1      -1.092   0.040   0.133  0.00  0.00     0.230 C 
ATOM      5  C   UNL d   1      -0.098   1.096  -0.280  0.00  0.00     0.179 C 
ATOM      6  O   UNL d   1      -2.261   0.306   0.404  0.00  0.00    -0.272 OA
ENDROOT
BRANCH   1   7
ATOM      7  C   UNL d   1      -1.399  -2.401   0.358  0.00  0.00     0.166 C 
BRANCH   7   8
ATOM      8  C   UNL d   1      -2.240  -2.792  -0.836  0.00  0.00    -0.037 A 
ATOM      9  C   UNL d   1      -1.764  -3.713  -1.784  0.00  0.00     0.048 A 
ATOM     10  C   UNL d   1      -2.629  -4.126  -2.780  0.00  0.00     0.105 A 
ATOM     11  O   UNL d   1      -2.351  -5.048  -3.742  0.00  0.00    -0.323 OA
ATOM     12  C   UNL d   1      -3.914  -3.646  -2.876  0.00  0.00     0.105 A 
ATOM     13  C   UNL d   1      -3.624  -5.126  -4.420  0.00  0.00     0.352 A 
ATOM     14  O   UNL d   1      -4.607  -4.207  -3.901  0.00  0.00    -0.323 OA
ATOM     15  C   UNL d   1      -4.404  -2.711  -1.993  0.00  0.00     0.040 A 
ATOM     16  C   UNL d   1      -3.555  -2.284  -0.967  0.00  0.00     0.012 A 
ENDBRANCH   7   8
ENDBRANCH   1   7
BRANCH   2  17
ATOM     17  C   UNL d   1       1.685  -2.220   0.700  0.00  0.00    -0.010 A 
ATOM     18  C   UNL d   1       2.784  -2.908   0.186  0.00  0.00     0.097 A 
ATOM     19  N   UNL d   1       3.590  -3.720   0.908  0.00  0.00    -0.375 N 
ATOM     20  C   UNL d   1       3.309  -3.844   2.221  0.00  0.00     0.087 A 
ATOM     21  HN  UNL d   1       4.372  -4.215   0.480  1.00  0.00     0.164 HD
ATOM     22  C   UNL d   1       2.267  -3.181   2.846  0.00  0.00     0.018 A 
ATOM     23  C   UNL d   1       1.455  -2.348   2.077  0.00  0.00     0.013 A 
ENDBRANCH   2  17
TORSDOF 3
