REMARK  0 active torsions:
REMARK  status: ('A' for Active; 'I' for Inactive)
ROOT
ATOM      1  N   UNL d   1      -0.118  -0.222   0.013  0.00  0.00    -0.298 N 
ATOM      2  C   UNL d   1       1.219   0.226   0.017  0.00  0.00     0.182 A 
ATOM      3  N   UNL d   1       1.117   1.635   0.010  0.00  0.00    -0.340 N 
ATOM      4  C   UNL d   1      -0.961   0.883  -0.001  0.00  0.00     0.056 A 
ATOM      5  C   UNL d   1      -0.212   1.994  -0.001  0.00  0.00     0.120 A 
ATOM      6  S   UNL d   1       2.641  -0.619   0.022  0.00  0.00    -0.040 SA
ATOM      7  C   UNL d   1      -0.660  -1.484   0.021  0.00  0.00     0.100 A 
ATOM      8  C   UNL d   1      -2.388   0.711  -0.019  0.00  0.00     0.031 A 
ATOM      9  C   UNL d   1      -1.991  -1.674   0.008  0.00  0.00     0.018 A 
ATOM     10  C   UNL d   1      -2.893  -0.535  -0.018  0.00  0.00     0.004 A 
ATOM     11  H   UNL d   1       1.909   2.262   0.008  0.00  0.00     0.167 HD
ENDROOT
TORSDOF 0
