REMARK  7 active torsions:
REMARK  status: ('A' for Active; 'I' for Inactive)
REMARK    1  A    between atoms: N_8  and  C_3 
REMARK    2  A    between atoms: C_18  and  C_4 
REMARK       I    between atoms: C_10  and  N_9 
REMARK    3  A    between atoms: C_11  and  C_10 
REMARK    4  A    between atoms: C_12  and  C_11 
REMARK    5  A    between atoms: C_21  and  C_12 
REMARK    6  A    between atoms: C_13  and  C_21 
REMARK    7  A    between atoms: O_22  and  C_13 
ROOT
ATOM      1  N   UNL d   1       0.363  -2.548   0.017  0.00  0.00    -0.357 N 
ATOM      2  N   UNL d   1      -0.130  -5.365  -0.258  0.00  0.00    -0.349 N 
ATOM      3  C   UNL d   1      -0.812  -6.492   0.172  0.00  0.00     0.220 C 
ATOM      4  C   UNL d   1       0.835  -3.470   1.071  0.00  0.00     0.145 C 
ATOM      5  C   UNL d   1      -0.830  -3.032  -0.707  0.00  0.00     0.145 C 
ATOM      6  C   UNL d   1      -0.554  -4.428  -1.306  0.00  0.00     0.145 C 
ATOM      7  C   UNL d   1       1.039  -4.891   0.499  0.00  0.00     0.145 C 
ATOM      8  O   UNL d   1      -0.489  -7.063   1.215  0.00  0.00    -0.273 OA
ENDROOT
BRANCH   1   9
ATOM      9  C   UNL d   1       0.541  -1.205   0.223  0.00  0.00     0.165 A 
ATOM     10  N   UNL d   1       1.178  -0.665   1.244  0.00  0.00    -0.321 N 
ATOM     11  C   UNL d   1       1.236   0.730   1.095  0.00  0.00     0.123 A 
ATOM     12  HN  UNL d   1       1.571  -1.186   2.028  1.00  0.00     0.169 HD
ATOM     13  N   UNL d   1       0.667   1.271   0.014  0.00  0.00    -0.309 N 
ATOM     14  S   UNL d   1       0.037   0.034  -0.885  0.00  0.00     0.024 SA
ATOM     15  HN  UNL d   1       0.628   2.264  -0.214  1.00  0.00     0.176 HD
BRANCH  11  16
ATOM     16  C   UNL d   1       1.912   1.567   2.096  0.00  0.00     0.009 A 
ATOM     17  C   UNL d   1       2.306   1.036   3.331  0.00  0.00     0.015 A 
ATOM     18  C   UNL d   1       2.952   1.841   4.277  0.00  0.00     0.001 A 
ATOM     19  C   UNL d   1       3.215   3.182   3.997  0.00  0.00     0.000 A 
ATOM     20  C   UNL d   1       2.826   3.723   2.773  0.00  0.00     0.001 A 
ATOM     21  C   UNL d   1       2.181   2.922   1.833  0.00  0.00     0.015 A 
ENDBRANCH  11  16
ENDBRANCH   1   9
BRANCH   3  22
ATOM     22  C   UNL d   1      -1.918  -7.063  -0.719  0.00  0.00     0.112 C 
BRANCH  22  23
ATOM     23  C   UNL d   1      -2.989  -7.949  -0.017  0.00  0.00    -0.030 C 
ATOM     24  C   UNL d   1      -4.060  -8.338  -1.065  0.00  0.00     0.016 C 
ATOM     25  C   UNL d   1      -2.380  -9.276   0.492  0.00  0.00     0.016 C 
BRANCH  23  26
ATOM     26  C   UNL d   1      -3.658  -7.233   1.188  0.00  0.00     0.119 C 
BRANCH  26  27
ATOM     27  C   UNL d   1      -4.293  -5.884   0.909  0.00  0.00     0.140 C 
ATOM     28  O   UNL d   1      -4.388  -5.342  -0.180  0.00  0.00    -0.650 OA
BRANCH  27  29
ATOM     29  O   UNL d   1      -4.764  -5.303   2.037  0.00  0.00    -0.776 OA
ATOM     30  H   UNL d   1      -4.611  -5.832   2.844  0.00  0.00     0.167 HD
ENDBRANCH  27  29
ENDBRANCH  26  27
ENDBRANCH  23  26
ENDBRANCH  22  23
ENDBRANCH   3  22
TORSDOF 7
