REMARK  4 active torsions:
REMARK  status: ('A' for Active; 'I' for Inactive)
REMARK    1  A    between atoms: C_2  and  S_1 
REMARK    2  A    between atoms: C_6  and  S_1 
REMARK    3  A    between atoms: N_9  and  C_3 
REMARK    4  A    between atoms: C_12  and  N_9 
ROOT
ATOM      1  C   UNL d   1       0.402  -1.569   0.160  0.00  0.00     0.159 C 
ATOM      2  C   UNL d   1      -0.168  -1.893   1.335  0.00  0.00     0.123 C 
ATOM      3  C   UNL d   1       0.641  -0.241  -0.249  0.00  0.00     0.113 C 
ATOM      4  N   UNL d   1       0.840   0.859  -0.560  0.00  0.00    -0.191 NA
ENDROOT
BRANCH   1   5
ATOM      5  S   UNL d   1       0.751  -2.862  -0.940  0.00  0.00     0.218 S 
ATOM      6  O   UNL d   1      -0.414  -3.083  -1.778  0.00  0.00    -0.216 OA
ATOM      7  O   UNL d   1       1.325  -3.978  -0.207  0.00  0.00    -0.216 OA
BRANCH   5   8
ATOM      8  C   UNL d   1       2.045  -2.273  -2.026  0.00  0.00     0.065 A 
ATOM      9  C   UNL d   1       3.382  -2.558  -1.728  0.00  0.00     0.025 A 
ATOM     10  C   UNL d   1       4.384  -2.183  -2.628  0.00  0.00     0.025 A 
ATOM     11  C   UNL d   1       4.045  -1.540  -3.819  0.00  0.00     0.034 A 
ATOM     12  C   UNL d   1       2.711  -1.269  -4.123  0.00  0.00     0.025 A 
ATOM     13 CL   UNL d   1       5.282  -1.094  -4.929  0.00  0.00    -0.084 Cl
ATOM     14  C   UNL d   1       1.704  -1.645  -3.230  0.00  0.00     0.025 A 
ENDBRANCH   5   8
ENDBRANCH   1   5
BRANCH   2  15
ATOM     15  N   UNL d   1      -0.660  -1.074   2.329  0.00  0.00    -0.364 N 
ATOM     16  H   UNL d   1      -0.744  -0.079   2.128  0.00  0.00     0.165 HD
BRANCH  15  17
ATOM     17  C   UNL d   1      -1.090  -1.454   3.615  0.00  0.00     0.032 A 
ATOM     18  C   UNL d   1      -0.661  -2.635   4.241  0.00  0.00     0.032 A 
ATOM     19  C   UNL d   1      -1.141  -2.994   5.505  0.00  0.00     0.044 A 
ATOM     20  C   UNL d   1      -2.077  -2.188   6.137  0.00  0.00     0.116 A 
ATOM     21  C   UNL d   1      -2.539  -1.029   5.532  0.00  0.00     0.044 A 
ATOM     22  F   UNL d   1      -2.541  -2.535   7.345  0.00  0.00    -0.206 F 
ATOM     23  C   UNL d   1      -2.047  -0.665   4.274  0.00  0.00     0.032 A 
ENDBRANCH  15  17
ENDBRANCH   2  15
TORSDOF 4
