REMARK  3 active torsions:
REMARK  status: ('A' for Active; 'I' for Inactive)
REMARK    1  A    between atoms: C_2  and  C_1 
REMARK       I    between atoms: N_3  and  C_2 
REMARK    2  A    between atoms: C_6  and  N_3 
REMARK    3  A    between atoms: C_12  and  C_4 
ROOT
ATOM      1  C   UNL d   1       1.019  -0.056   0.062  0.00  0.00     0.113 C 
ATOM      2  C   UNL d   1       0.303   0.584  -0.886  0.00  0.00     0.039 C 
ATOM      3  C   UNL d   1       0.391  -0.790   1.108  0.00  0.00     0.105 C 
ATOM      4  N   UNL d   1      -0.115  -1.423   1.935  0.00  0.00    -0.191 NA
ENDROOT
BRANCH   1   5
ATOM      5  C   UNL d   1       2.518   0.056  -0.054  0.00  0.00     0.266 C 
ATOM      6  N   UNL d   1       3.265  -0.641   0.883  0.00  0.00    -0.320 N 
ATOM      7  H   UNL d   1       2.791  -1.315   1.475  0.00  0.00     0.169 HD
ATOM      8  O   UNL d   1       3.000   0.676  -0.998  0.00  0.00    -0.267 OA
BRANCH   6   9
ATOM      9  C   UNL d   1       4.685  -0.715   0.888  0.00  0.00     0.074 A 
ATOM     10  C   UNL d   1       5.547   0.267   0.368  0.00  0.00     0.146 A 
ATOM     11  C   UNL d   1       6.926   0.068   0.312  0.00  0.00     0.086 A 
ATOM     12  F   UNL d   1       5.092   1.471  -0.008  0.00  0.00    -0.204 F 
ATOM     13  C   UNL d   1       7.459  -1.110   0.807  0.00  0.00     0.119 A 
ATOM     14  C   UNL d   1       6.642  -2.071   1.393  0.00  0.00     0.044 A 
ATOM     15  F   UNL d   1       8.780  -1.321   0.739  0.00  0.00    -0.206 F 
ATOM     16  C   UNL d   1       5.257  -1.868   1.447  0.00  0.00     0.036 A 
ENDBRANCH   6   9
ENDBRANCH   1   5
BRANCH   2  17
ATOM     17  C   UNL d   1      -1.158   0.679  -0.916  0.00  0.00    -0.035 A 
ATOM     18  C   UNL d   1      -1.749   1.911  -0.612  0.00  0.00     0.013 A 
ATOM     19  C   UNL d   1      -3.138   2.039  -0.592  0.00  0.00     0.024 A 
ATOM     20  C   UNL d   1      -3.938   0.936  -0.884  0.00  0.00     0.034 A 
ATOM     21  C   UNL d   1      -3.359  -0.293  -1.197  0.00  0.00     0.024 A 
ATOM     22 CL   UNL d   1      -5.650   1.095  -0.855  0.00  0.00    -0.084 Cl
ATOM     23  C   UNL d   1      -1.967  -0.423  -1.218  0.00  0.00     0.013 A 
ENDBRANCH   2  17
TORSDOF 3
