REMARK  7 active torsions:
REMARK  status: ('A' for Active; 'I' for Inactive)
REMARK    1  A    between atoms: N_2  and  C_1 
REMARK       I    between atoms: C_4  and  N_2 
REMARK    2  A    between atoms: C_16  and  C_4 
REMARK    3  A    between atoms: O_15  and  C_5 
REMARK    4  A    between atoms: C_6  and  C_17 
REMARK    5  A    between atoms: O_12  and  C_6 
REMARK    6  A    between atoms: S_11  and  C_16 
REMARK    7  A    between atoms: C_17  and  S_11 
ROOT
ATOM      1  N   UNL d   1       2.174   2.661  -0.017  0.00  0.00    -0.324 N 
ATOM      2  C   UNL d   1       1.468   3.857  -0.026  0.00  0.00     0.231 C 
ATOM      3  O   UNL d   1       0.245   3.995  -0.091  0.00  0.00    -0.272 OA
ATOM      4  H   UNL d   1       3.168   2.752  -0.139  0.00  0.00     0.169 HD
ENDROOT
BRANCH   1   5
ATOM      5  C   UNL d   1       1.637   1.345  -0.014  0.00  0.00     0.070 A 
ATOM      6  C   UNL d   1       0.305   1.151   0.402  0.00  0.00     0.056 A 
ATOM      7  C   UNL d   1      -0.283  -0.116   0.427  0.00  0.00     0.036 A 
ATOM      8 CL   UNL d   1      -1.911  -0.296   0.954  0.00  0.00    -0.084 Cl
ATOM      9  C   UNL d   1       0.439  -1.230   0.040  0.00  0.00     0.026 A 
ATOM     10  C   UNL d   1       1.762  -1.065  -0.357  0.00  0.00     0.041 A 
ATOM     11  C   UNL d   1       2.385   0.203  -0.382  0.00  0.00     0.095 A 
BRANCH  11  12
ATOM     12  O   UNL d   1       3.673   0.057  -0.811  0.00  0.00    -0.354 OA
ATOM     13  C   UNL d   1       4.559   1.138  -0.993  0.00  0.00     0.210 C 
ENDBRANCH  11  12
ENDBRANCH   1   5
BRANCH   2  14
ATOM     14  C   UNL d   1       2.349   5.095  -0.075  0.00  0.00     0.177 C 
BRANCH  14  15
ATOM     15  S   UNL d   1       2.697   5.545  -1.809  0.00  0.00    -0.149 SA
BRANCH  15  16
ATOM     16  C   UNL d   1       1.008   5.801  -2.467  0.00  0.00     0.184 C 
BRANCH  16  17
ATOM     17  C   UNL d   1       0.267   6.913  -1.757  0.00  0.00     0.149 C 
ATOM     18  O   UNL d   1       0.353   8.092  -2.058  0.00  0.00    -0.649 OA
BRANCH  17  19
ATOM     19  O   UNL d   1      -0.498   6.489  -0.722  0.00  0.00    -0.776 OA
ATOM     20  H   UNL d   1      -0.478   5.517  -0.551  0.00  0.00     0.167 HD
ENDBRANCH  17  19
ENDBRANCH  16  17
ENDBRANCH  15  16
ENDBRANCH  14  15
ENDBRANCH   2  14
TORSDOF 7
