REMARK  6 active torsions:
REMARK  status: ('A' for Active; 'I' for Inactive)
REMARK    1  A    between atoms: C_8  and  C_1 
REMARK    2  A    between atoms: O_17  and  C_9 
REMARK    3  A    between atoms: C_10  and  C_13 
REMARK    4  A    between atoms: C_11  and  C_12 
REMARK    5  A    between atoms: C_16  and  N_14 
REMARK    6  A    between atoms: C_28  and  O_17 
ROOT
ATOM      1  C   UNL d   1      -0.148   1.205  -0.225  0.00  0.00     0.106 A 
ATOM      2  S   UNL d   1       0.987   0.018   0.299  0.00  0.00    -0.033 SA
ATOM      3  C   UNL d   1      -0.126  -1.193  -0.223  0.00  0.00     0.166 A 
ATOM      4  N   UNL d   1      -1.264   0.694  -0.689  0.00  0.00    -0.291 N 
ATOM      5  HN  UNL d   1      -2.058   1.252  -1.002  1.00  0.00     0.187 HD
ATOM      6  N   UNL d   1      -1.241  -0.686  -0.706  0.00  0.00    -0.279 N 
ATOM      7  HN  UNL d   1      -2.010  -1.256  -1.058  1.00  0.00     0.189 HD
ATOM      8  N   UNL d   1       0.187  -2.508  -0.089  0.00  0.00    -0.335 N 
ATOM      9  H   UNL d   1       0.912  -2.758   0.571  0.00  0.00     0.168 HD
ENDROOT
BRANCH   8  10
ATOM     10  C   UNL d   1      -0.624  -3.568  -0.534  0.00  0.00     0.035 A 
ATOM     11  C   UNL d   1      -1.290  -3.523  -1.765  0.00  0.00     0.045 A 
ATOM     12  C   UNL d   1      -2.182  -4.533  -2.159  0.00  0.00     0.050 A 
ATOM     13  C   UNL d   1      -2.424  -5.599  -1.282  0.00  0.00     0.032 A 
ATOM     14  C   UNL d   1      -1.790  -5.658  -0.032  0.00  0.00     0.050 A 
ATOM     15  C   UNL d   1      -0.876  -4.648   0.319  0.00  0.00     0.045 A 
BRANCH  12  16
ATOM     16  C   UNL d   1      -2.874  -4.434  -3.498  0.00  0.00     0.417 C 
ATOM     17  F   UNL d   1      -3.743  -5.457  -3.733  0.00  0.00    -0.166 F 
ATOM     18  F   UNL d   1      -3.598  -3.291  -3.632  0.00  0.00    -0.166 F 
ATOM     19  F   UNL d   1      -1.996  -4.449  -4.538  0.00  0.00    -0.166 F 
ENDBRANCH  12  16
BRANCH  14  20
ATOM     20  C   UNL d   1      -2.103  -6.757   0.955  0.00  0.00     0.417 C 
ATOM     21  F   UNL d   1      -3.074  -7.611   0.529  0.00  0.00    -0.166 F 
ATOM     22  F   UNL d   1      -1.018  -7.529   1.234  0.00  0.00    -0.166 F 
ATOM     23  F   UNL d   1      -2.533  -6.269   2.151  0.00  0.00    -0.166 F 
ENDBRANCH  14  20
ENDBRANCH   8  10
BRANCH   1  24
ATOM     24  C   UNL d   1       0.175   2.628  -0.172  0.00  0.00     0.051 A 
ATOM     25  C   UNL d   1      -0.675   3.571   0.408  0.00  0.00     0.161 A 
ATOM     26  N   UNL d   1      -0.421   4.909   0.406  0.00  0.00    -0.346 N 
ATOM     27  C   UNL d   1       0.739   5.329  -0.130  0.00  0.00     0.090 A 
ATOM     28  HN  UNL d   1      -1.090   5.572   0.800  1.00  0.00     0.167 HD
ATOM     29  C   UNL d   1       1.663   4.476  -0.697  0.00  0.00     0.018 A 
ATOM     30  C   UNL d   1       1.368   3.115  -0.732  0.00  0.00     0.020 A 
BRANCH  25  31
ATOM     31  O   UNL d   1      -1.823   3.130   1.063  0.00  0.00    -0.293 OA
BRANCH  31  32
ATOM     32  C   UNL d   1      -2.269   3.913   2.106  0.00  0.00     0.077 A 
ATOM     33  C   UNL d   1      -3.633   4.207   2.161  0.00  0.00     0.037 A 
ATOM     34  C   UNL d   1      -4.123   5.032   3.177  0.00  0.00     0.003 A 
ATOM     35  C   UNL d   1      -3.256   5.551   4.140  0.00  0.00     0.000 A 
ATOM     36  C   UNL d   1      -1.902   5.222   4.111  0.00  0.00     0.003 A 
ATOM     37  C   UNL d   1      -1.413   4.385   3.108  0.00  0.00     0.037 A 
ENDBRANCH  31  32
ENDBRANCH  25  31
ENDBRANCH   1  24
TORSDOF 6
