REMARK  1 active torsions:
REMARK  status: ('A' for Active; 'I' for Inactive)
REMARK    1  A    between atoms: N_19  and  C_10 
ROOT
ATOM      1  C   UNL d   1      -1.259   0.581   0.010  0.00  0.00     0.163 A 
ATOM      2  C   UNL d   1      -1.277  -0.801   0.011  0.00  0.00     0.068 A 
ATOM      3  C   UNL d   1       1.215  -0.736   0.023  0.00  0.00     0.050 A 
ATOM      4  C   UNL d   1      -0.016  -1.532   0.030  0.00  0.00     0.199 A 
ATOM      5  N   UNL d   1      -2.399   1.318  -0.021  0.00  0.00    -0.326 N 
ATOM      6  HN  UNL d   1      -2.362   2.337  -0.016  1.00  0.00     0.169 HD
ATOM      7  O   UNL d   1      -0.093   1.318   0.030  0.00  0.00    -0.291 OA
ATOM      8  C   UNL d   1       1.116   0.657   0.022  0.00  0.00     0.098 A 
ATOM      9  C   UNL d   1      -3.676  -0.728  -0.066  0.00  0.00     0.083 A 
ATOM     10  C   UNL d   1      -3.585   0.666  -0.059  0.00  0.00     0.100 A 
ATOM     11  C   UNL d   1      -2.499  -1.473  -0.019  0.00  0.00     0.046 A 
ATOM     12  C   UNL d   1       2.294   1.424   0.011  0.00  0.00    -0.026 A 
ATOM     13  C   UNL d   1      -4.939  -1.401  -0.112  0.00  0.00     0.102 C 
ATOM     14  N   UNL d   1      -5.957  -1.956  -0.120  0.00  0.00    -0.191 NA
ATOM     15  C   UNL d   1       2.455  -1.381   0.014  0.00  0.00     0.025 A 
ATOM     16  O   UNL d   1      -0.000  -2.755   0.048  0.00  0.00    -0.286 OA
ATOM     17  C   UNL d   1       3.542   0.766   0.004  0.00  0.00     0.016 A 
ATOM     18  C   UNL d   1       3.631  -0.631   0.005  0.00  0.00    -0.060 A 
ATOM     19  C   UNL d   1       2.291   2.927   0.005  0.00  0.00     0.051 C 
ATOM     20  C   UNL d   1       4.958  -1.332  -0.002  0.00  0.00     0.048 C 
ENDROOT
BRANCH  10  21
ATOM     21  N   UNL d   1      -4.705   1.483  -0.186  0.00  0.00    -0.287 NA
ATOM     22  H   UNL d   1      -5.479   1.243   0.425  0.00  0.00     0.125 HD
ATOM     23  H   UNL d   1      -4.420   2.455  -0.094  0.00  0.00     0.125 HD
ENDBRANCH  10  21
TORSDOF 1
