REMARK  6 active torsions:
REMARK  status: ('A' for Active; 'I' for Inactive)
REMARK    1  A    between atoms: C_5  and  N_1 
REMARK    2  A    between atoms: C_2  and  N_6 
REMARK    3  A    between atoms: N_7  and  C_2 
REMARK    4  A    between atoms: N_6  and  C_3 
REMARK    5  A    between atoms: C_4  and  C_8 
REMARK    6  A    between atoms: C_10  and  N_7 
ROOT
ATOM      1  C   UNL d   1       4.946   0.481   0.076  0.00  0.00     0.056 A 
ATOM      2  C   UNL d   1       3.698   0.862   0.643  0.00  0.00     0.038 A 
ATOM      3  C   UNL d   1       6.096   2.203   1.383  0.00  0.00     0.050 A 
ATOM      4  C   UNL d   1       6.125   1.159   0.440  0.00  0.00     0.047 A 
ATOM      5  C   UNL d   1       3.708   1.876   1.619  0.00  0.00     0.027 A 
ATOM      6  C   UNL d   1       4.879   2.535   1.982  0.00  0.00     0.018 A 
ENDROOT
BRANCH   1   7
ATOM      7  N   UNL d   1       4.942  -0.661  -0.780  0.00  0.00    -0.332 N 
ATOM      8  H   UNL d   1       4.066  -1.169  -0.713  0.00  0.00     0.168 HD
BRANCH   7   9
ATOM      9  C   UNL d   1       5.616  -0.861  -1.954  0.00  0.00     0.176 C 
ATOM     10  S   UNL d   1       6.577   0.249  -2.769  0.00  0.00    -0.041 SA
BRANCH   9  11
ATOM     11  N   UNL d   1       5.397  -2.032  -2.629  0.00  0.00    -0.331 N 
ATOM     12  H   UNL d   1       5.738  -1.972  -3.587  0.00  0.00     0.168 HD
BRANCH  11  13
ATOM     13  C   UNL d   1       4.869  -3.299  -2.305  0.00  0.00     0.073 A 
ATOM     14  C   UNL d   1       4.675  -4.181  -3.390  0.00  0.00     0.145 A 
ATOM     15  C   UNL d   1       4.217  -5.483  -3.221  0.00  0.00     0.086 A 
ATOM     16  F   UNL d   1       4.946  -3.756  -4.635  0.00  0.00    -0.204 F 
ATOM     17  C   UNL d   1       3.957  -5.923  -1.932  0.00  0.00     0.119 A 
ATOM     18  C   UNL d   1       4.150  -5.082  -0.839  0.00  0.00     0.044 A 
ATOM     19  F   UNL d   1       3.536  -7.179  -1.742  0.00  0.00    -0.206 F 
ATOM     20  C   UNL d   1       4.604  -3.765  -1.021  0.00  0.00     0.036 A 
ENDBRANCH  11  13
ENDBRANCH   9  11
ENDBRANCH   7   9
ENDBRANCH   1   7
BRANCH   2  21
ATOM     21  N   UNL d   1       2.481   0.275   0.184  0.00  0.00    -0.277 NA
ATOM     22  C   UNL d   1       2.212   0.581  -1.255  0.00  0.00     0.134 C 
ATOM     23  C   UNL d   1       0.778   0.970  -1.562  0.00  0.00    -0.038 A 
ATOM     24  C   UNL d   1       0.480   1.716  -2.712  0.00  0.00     0.009 A 
ATOM     25  C   UNL d   1      -0.275   0.543  -0.735  0.00  0.00    -0.050 A 
ATOM     26  C   UNL d   1      -0.840   2.052  -3.013  0.00  0.00     0.001 A 
ATOM     27  C   UNL d   1      -1.877   1.628  -2.183  0.00  0.00     0.001 A 
ATOM     28  C   UNL d   1      -1.598   0.867  -1.050  0.00  0.00     0.007 A 
ATOM     29  C   UNL d   1       0.073  -0.230   0.508  0.00  0.00     0.054 C 
ATOM     30  C   UNL d   1       1.329   0.400   1.101  0.00  0.00     0.101 C 
ENDBRANCH   2  21
BRANCH   3  31
ATOM     31  C   UNL d   1       7.327   2.970   1.802  0.00  0.00     0.417 C 
ATOM     32  F   UNL d   1       8.457   2.620   1.133  0.00  0.00    -0.166 F 
ATOM     33  F   UNL d   1       7.183   4.314   1.624  0.00  0.00    -0.166 F 
ATOM     34  F   UNL d   1       7.607   2.807   3.127  0.00  0.00    -0.166 F 
ENDBRANCH   3  31
TORSDOF 6
