REMARK  3 active torsions:
REMARK  status: ('A' for Active; 'I' for Inactive)
REMARK    1  A    between atoms: C_3  and  C_1 
REMARK       I    between atoms: N_6  and  C_3 
REMARK       I    between atoms: C_4  and  N_7 
REMARK    2  A    between atoms: C_9  and  C_4 
REMARK    3  A    between atoms: O_26  and  C_21 
ROOT
ATOM      1  C   UNL d   1      -3.884  -0.246  -0.116  0.00  0.00     0.270 C 
ATOM      2  C   UNL d   1      -6.572  -4.675  -1.676  0.00  0.00     0.260 C 
ATOM      3  N   UNL d   1      -4.551  -1.464  -0.358  0.00  0.00    -0.345 N 
ATOM      4  N   UNL d   1      -6.764  -3.373  -1.179  0.00  0.00    -0.346 N 
ATOM      5  O   UNL d   1      -3.594   0.509  -1.046  0.00  0.00    -0.266 OA
ATOM      6  C   UNL d   1      -4.848  -1.821  -1.759  0.00  0.00     0.146 C 
ATOM      7  C   UNL d   1      -6.301  -2.252  -2.011  0.00  0.00     0.146 C 
ATOM      8  O   UNL d   1      -5.985  -4.819  -2.752  0.00  0.00    -0.267 OA
ATOM      9  C   UNL d   1      -5.943  -2.908   1.162  0.00  0.00     0.040 C 
ATOM     10  C   UNL d   1      -7.113  -3.007   0.189  0.00  0.00     0.127 C 
ATOM     11  C   UNL d   1      -4.571  -2.589   0.574  0.00  0.00     0.128 C 
ENDROOT
BRANCH   1  12
ATOM     12  C   UNL d   1      -3.493   0.114   1.231  0.00  0.00     0.102 C 
ATOM     13  N   UNL d   1      -2.374   0.890   1.474  0.00  0.00    -0.351 N 
ATOM     14  C   UNL d   1      -2.127   0.997   2.824  0.00  0.00     0.043 A 
ATOM     15  H   UNL d   1      -1.791   1.272   0.740  0.00  0.00     0.166 HD
ATOM     16  C   UNL d   1      -1.075   1.601   3.520  0.00  0.00     0.033 A 
ATOM     17  C   UNL d   1      -3.179   0.359   3.472  0.00  0.00    -0.004 A 
ATOM     18  C   UNL d   1      -1.090   1.522   4.924  0.00  0.00     0.039 A 
ATOM     19  C   UNL d   1      -2.123   0.871   5.600  0.00  0.00     0.069 A 
ATOM     20  C   UNL d   1      -3.177   0.300   4.878  0.00  0.00     0.050 A 
ATOM     21  C   UNL d   1      -4.062  -0.115   2.471  0.00  0.00     0.049 C 
BRANCH  19  22
ATOM     22  O   UNL d   1      -2.228   0.712   6.955  0.00  0.00    -0.356 OA
ATOM     23  C   UNL d   1      -1.192   1.264   7.755  0.00  0.00     0.210 C 
ENDBRANCH  19  22
ENDBRANCH   1  12
BRANCH   2  24
ATOM     24  C   UNL d   1      -7.066  -5.831  -0.924  0.00  0.00     0.072 A 
ATOM     25  S   UNL d   1      -6.175  -7.304  -1.032  0.00  0.00    -0.097 SA
ATOM     26  C   UNL d   1      -7.256  -8.130  -0.002  0.00  0.00     0.050 A 
ATOM     27  C   UNL d   1      -8.291  -7.323   0.409  0.00  0.00     0.009 A 
ATOM     28  C   UNL d   1      -8.213  -6.022  -0.172  0.00  0.00     0.025 A 
ENDBRANCH   2  24
TORSDOF 3
