REMARK  7 active torsions:
REMARK  status: ('A' for Active; 'I' for Inactive)
REMARK    1  A    between atoms: C_8  and  N_1 
REMARK    2  A    between atoms: C_13  and  C_2 
REMARK    3  A    between atoms: S_10  and  C_5 
REMARK    4  A    between atoms: C_9  and  C_11 
REMARK    5  A    between atoms: C_17  and  S_10 
REMARK    6  A    between atoms: C_14  and  C_17 
REMARK    7  A    between atoms: C_15  and  C_16 
ROOT
ATOM      1  N   UNL d   1      -0.358  -1.257  -0.015  0.00  0.00    -0.275 N 
ATOM      2  C   UNL d   1       0.902  -0.633   0.002  0.00  0.00     0.139 A 
ATOM      3  N   UNL d   1       0.723   0.675   0.083  0.00  0.00    -0.282 N 
ATOM      4  HN  UNL d   1       1.463   1.369   0.186  1.00  0.00     0.188 HD
ATOM      5  C   UNL d   1      -1.257  -0.192  -0.087  0.00  0.00     0.168 A 
ATOM      6  N   UNL d   1      -0.612   0.947   0.008  0.00  0.00    -0.278 N 
ATOM      7  HN  UNL d   1      -1.036   1.875   0.023  1.00  0.00     0.189 HD
ENDROOT
BRANCH   1   8
ATOM      8  C   UNL d   1      -0.621  -2.663   0.047  0.00  0.00     0.044 A 
ATOM      9  C   UNL d   1       0.205  -3.497   0.826  0.00  0.00     0.046 A 
ATOM     10  C   UNL d   1       0.059  -4.895   0.794  0.00  0.00     0.050 A 
ATOM     11  C   UNL d   1      -0.973  -5.450   0.028  0.00  0.00     0.016 A 
ATOM     12  C   UNL d   1      -1.823  -4.627  -0.710  0.00  0.00     0.003 A 
ATOM     13  C   UNL d   1      -1.642  -3.241  -0.710  0.00  0.00     0.030 A 
BRANCH  10  14
ATOM     14  C   UNL d   1       1.011  -5.799   1.544  0.00  0.00     0.417 C 
ATOM     15  F   UNL d   1       2.021  -5.133   2.168  0.00  0.00    -0.166 F 
ATOM     16  F   UNL d   1       0.388  -6.528   2.509  0.00  0.00    -0.166 F 
ATOM     17  F   UNL d   1       1.616  -6.704   0.723  0.00  0.00    -0.166 F 
ENDBRANCH  10  14
ENDBRANCH   1   8
BRANCH   2  18
ATOM     18  C   UNL d   1       2.237  -1.259  -0.096  0.00  0.00     0.010 A 
ATOM     19  C   UNL d   1       2.504  -2.376  -0.897  0.00  0.00     0.016 A 
ATOM     20  C   UNL d   1       3.769  -2.985  -0.894  0.00  0.00     0.009 A 
ATOM     21  C   UNL d   1       4.837  -2.467  -0.141  0.00  0.00    -0.051 A 
ATOM     22  C   UNL d   1       4.580  -1.302   0.599  0.00  0.00     0.009 A 
ATOM     23  C   UNL d   1       3.306  -0.712   0.622  0.00  0.00     0.016 A 
BRANCH  21  24
ATOM     24  C   UNL d   1       6.210  -3.168  -0.145  0.00  0.00    -0.024 C 
ATOM     25  C   UNL d   1       7.283  -2.429   0.686  0.00  0.00     0.019 C 
ATOM     26  C   UNL d   1       6.072  -4.589   0.445  0.00  0.00     0.019 C 
ATOM     27  C   UNL d   1       6.752  -3.280  -1.587  0.00  0.00     0.019 C 
ENDBRANCH  21  24
ENDBRANCH   2  18
BRANCH   5  28
ATOM     28  S   UNL d   1      -2.998  -0.301  -0.110  0.00  0.00    -0.087 SA
BRANCH  28  29
ATOM     29  C   UNL d   1      -3.476   1.457  -0.206  0.00  0.00     0.122 C 
BRANCH  29  30
ATOM     30  C   UNL d   1      -4.972   1.648  -0.379  0.00  0.00    -0.027 A 
ATOM     31  C   UNL d   1      -5.594   1.709  -1.639  0.00  0.00     0.041 A 
ATOM     32 CL   UNL d   1      -4.702   1.548  -3.110  0.00  0.00    -0.084 Cl
ATOM     33  C   UNL d   1      -6.977   1.914  -1.746  0.00  0.00     0.024 A 
ATOM     34  C   UNL d   1      -7.761   2.055  -0.605  0.00  0.00     0.002 A 
ATOM     35  C   UNL d   1      -7.164   1.988   0.652  0.00  0.00     0.001 A 
ATOM     36  C   UNL d   1      -5.784   1.784   0.762  0.00  0.00     0.009 A 
ENDBRANCH  29  30
ENDBRANCH  28  29
ENDBRANCH   5  28
TORSDOF 7
