REMARK  4 active torsions:
REMARK  status: ('A' for Active; 'I' for Inactive)
REMARK    1  A    between atoms: C_3  and  N_1 
REMARK    2  A    between atoms: C_14  and  C_2 
REMARK    3  A    between atoms: N_10  and  C_6 
REMARK       I    between atoms: C_11  and  N_10 
REMARK       I    between atoms: N_15  and  C_11 
REMARK    4  A    between atoms: N_20  and  N_15 
ROOT
ATOM      1  N   UNL d   1       1.093  -0.728  -0.234  0.00  0.00    -0.255 N 
ATOM      2  C   UNL d   1      -0.180  -1.303  -0.394  0.00  0.00     0.046 C 
ATOM      3  N   UNL d   1       0.995   0.628  -0.115  0.00  0.00    -0.278 N 
ATOM      4  HN  UNL d   1       1.737   1.277   0.147  1.00  0.00     0.189 HD
ATOM      5  C   UNL d   1      -0.261   0.930  -0.412  0.00  0.00     0.126 C 
ATOM      6  C   UNL d   1      -1.002  -0.222  -0.702  0.00  0.00     0.077 C 
ENDROOT
BRANCH   1   7
ATOM      7  C   UNL d   1       2.407  -1.281  -0.242  0.00  0.00     0.100 A 
ATOM      8  C   UNL d   1       2.832  -2.157  -1.256  0.00  0.00     0.066 A 
ATOM      9  C   UNL d   1       4.136  -2.674  -1.260  0.00  0.00     0.050 A 
ATOM     10 CL   UNL d   1       1.912  -2.511  -2.671  0.00  0.00    -0.082 Cl
ATOM     11  C   UNL d   1       5.060  -2.241  -0.321  0.00  0.00     0.037 A 
ATOM     12  C   UNL d   1       4.691  -1.310   0.640  0.00  0.00     0.050 A 
ATOM     13 CL   UNL d   1       6.674  -2.831  -0.371  0.00  0.00    -0.084 Cl
ATOM     14  C   UNL d   1       3.369  -0.841   0.695  0.00  0.00     0.066 A 
ATOM     15 CL   UNL d   1       3.023   0.216   2.025  0.00  0.00    -0.082 Cl
ENDBRANCH   1   7
BRANCH   2  16
ATOM     16  C   UNL d   1      -0.661  -2.738  -0.117  0.00  0.00    -0.007 C 
ATOM     17  C   UNL d   1       0.366  -3.637   0.586  0.00  0.00     0.021 C 
ATOM     18  C   UNL d   1      -1.884  -2.665   0.850  0.00  0.00     0.021 C 
ATOM     19  C   UNL d   1      -1.187  -3.419  -1.397  0.00  0.00     0.021 C 
ENDBRANCH   2  16
BRANCH   5  20
ATOM     20  N   UNL d   1      -0.794   2.201  -0.378  0.00  0.00    -0.293 N 
ATOM     21  C   UNL d   1      -0.225   3.369   0.045  0.00  0.00     0.336 C 
ATOM     22  N   UNL d   1       1.082   3.311   0.473  0.00  0.00    -0.271 N 
ATOM     23  O   UNL d   1      -0.914   4.389   0.028  0.00  0.00    -0.246 OA
ATOM     24  H   UNL d   1       1.530   2.393   0.461  0.00  0.00     0.185 HD
ATOM     25  H   UNL d   1      -1.765   2.304  -0.634  0.00  0.00     0.172 HD
BRANCH  22  26
ATOM     26  N   UNL d   1       1.836   4.423   0.924  0.00  0.00    -0.236 NA
ATOM     27  C   UNL d   1       1.885   5.512  -0.052  0.00  0.00     0.135 C 
ATOM     28  C   UNL d   1       1.388   4.907   2.231  0.00  0.00     0.135 C 
ENDBRANCH  22  26
ENDBRANCH   5  20
TORSDOF 4
