REMARK  5 active torsions:
REMARK  status: ('A' for Active; 'I' for Inactive)
REMARK    1  A    between atoms: C_12  and  N_1 
REMARK    2  A    between atoms: C_6  and  C_14 
REMARK    3  A    between atoms: C_19  and  C_12 
REMARK    4  A    between atoms: S_13  and  C_19 
REMARK    5  A    between atoms: C_14  and  S_13 
ROOT
ATOM      1  S   UNL d   1       3.039  -4.033  -0.753  0.00  0.00    -0.163 SA
ENDROOT
BRANCH   1   2
ATOM      2  C   UNL d   1       1.336  -3.356  -0.703  0.00  0.00     0.094 C 
BRANCH   2   3
ATOM      3  C   UNL d   1       0.855  -3.106   0.721  0.00  0.00     0.139 C 
BRANCH   3   4
ATOM      4  N   UNL d   1      -0.545  -2.696   0.782  0.00  0.00    -0.354 N 
ATOM      5  C   UNL d   1      -0.999  -1.395   0.895  0.00  0.00     0.008 A 
ATOM      6  C   UNL d   1      -2.365  -1.449   1.092  0.00  0.00     0.026 A 
ATOM      7  C   UNL d   1      -0.139  -0.180   0.841  0.00  0.00     0.068 C 
ATOM      8  C   UNL d   1      -2.755  -2.802   1.054  0.00  0.00     0.026 A 
ATOM      9  C   UNL d   1      -1.623  -3.563   0.838  0.00  0.00     0.008 A 
ATOM     10  C   UNL d   1      -1.542  -5.045   0.709  0.00  0.00     0.068 C 
ENDBRANCH   3   4
ENDBRANCH   2   3
ENDBRANCH   1   2
BRANCH   1  11
ATOM     11  C   UNL d   1       2.743  -5.682  -0.025  0.00  0.00     0.113 C 
BRANCH  11  12
ATOM     12  C   UNL d   1       3.992  -6.543  -0.025  0.00  0.00    -0.037 A 
ATOM     13  C   UNL d   1       4.926  -6.462   1.044  0.00  0.00    -0.054 A 
ATOM     14  C   UNL d   1       6.094  -7.251   1.014  0.00  0.00     0.014 A 
ATOM     15  C   UNL d   1       4.787  -5.548   2.235  0.00  0.00     0.049 C 
ATOM     16  C   UNL d   1       6.355  -8.131  -0.035  0.00  0.00    -0.061 A 
ATOM     17  C   UNL d   1       5.434  -8.216  -1.076  0.00  0.00     0.014 A 
ATOM     18  C   UNL d   1       7.608  -8.954  -0.031  0.00  0.00     0.048 C 
ATOM     19  C   UNL d   1       4.264  -7.434  -1.098  0.00  0.00    -0.054 A 
ATOM     20  C   UNL d   1       3.351  -7.644  -2.278  0.00  0.00     0.049 C 
ENDBRANCH  11  12
ENDBRANCH   1  11
TORSDOF 5
