REMARK  6 active torsions:
REMARK  status: ('A' for Active; 'I' for Inactive)
REMARK    1  A    between atoms: C_5  and  C_1 
REMARK       I    between atoms: N_16  and  C_5 
REMARK    2  A    between atoms: N_9  and  C_19 
REMARK    3  A    between atoms: C_22  and  N_16 
REMARK    4  A    between atoms: O_21  and  C_17 
REMARK    5  A    between atoms: C_19  and  C_20 
REMARK    6  A    between atoms: C_20  and  C_22 
ROOT
ATOM      1  C   UNL d   1      -3.872  -0.158  -0.138  0.00  0.00     0.268 C 
ATOM      2  O   UNL d   1      -4.392  -1.269  -0.140  0.00  0.00    -0.266 OA
ATOM      3  N   UNL d   1      -4.599   1.010  -0.216  0.00  0.00    -0.356 N 
ATOM      4  H   UNL d   1      -4.101   1.887  -0.235  0.00  0.00     0.162 HD
ENDROOT
BRANCH   1   5
ATOM      5  C   UNL d   1      -2.440   0.035  -0.035  0.00  0.00     0.102 A 
ATOM      6  N   UNL d   1      -1.553  -1.021   0.033  0.00  0.00    -0.351 N 
ATOM      7  C   UNL d   1      -0.260  -0.572   0.178  0.00  0.00     0.043 A 
ATOM      8  H   UNL d   1      -1.836  -1.993   0.001  0.00  0.00     0.166 HD
ATOM      9  C   UNL d   1       0.945  -1.269   0.313  0.00  0.00     0.033 A 
ATOM     10  C   UNL d   1      -0.314   0.818   0.180  0.00  0.00    -0.004 A 
ATOM     11  C   UNL d   1       2.123  -0.517   0.465  0.00  0.00     0.039 A 
ATOM     12  C   UNL d   1       2.095   0.878   0.474  0.00  0.00     0.069 A 
ATOM     13  C   UNL d   1       0.878   1.550   0.324  0.00  0.00     0.050 A 
ATOM     14  C   UNL d   1      -1.674   1.186   0.033  0.00  0.00     0.049 A 
BRANCH  12  15
ATOM     15  O   UNL d   1       3.171   1.711   0.622  0.00  0.00    -0.356 OA
ATOM     16  C   UNL d   1       4.440   1.103   0.818  0.00  0.00     0.210 C 
ENDBRANCH  12  15
ENDBRANCH   1   5
BRANCH   3  17
ATOM     17  C   UNL d   1      -6.044   1.044  -0.267  0.00  0.00     0.124 C 
BRANCH  17  18
ATOM     18  C   UNL d   1      -6.679   1.044   1.122  0.00  0.00     0.040 C 
BRANCH  18  19
ATOM     19  C   UNL d   1      -6.289   2.276   1.938  0.00  0.00     0.130 C 
BRANCH  19  20
ATOM     20  N   UNL d   1      -6.929   2.300   3.238  0.00  0.00    -0.352 N 
ATOM     21  C   UNL d   1      -6.420   1.771   4.389  0.00  0.00     0.182 A 
ATOM     22  N   UNL d   1      -7.226   1.978   5.407  0.00  0.00    -0.361 N 
ATOM     23  C   UNL d   1      -8.291   2.670   4.891  0.00  0.00     0.106 A 
ATOM     24  HN  UNL d   1      -7.088   1.686   6.375  1.00  0.00     0.166 HD
ATOM     25  C   UNL d   1      -8.125   2.887   3.542  0.00  0.00     0.108 A 
ENDBRANCH  19  20
ENDBRANCH  18  19
ENDBRANCH  17  18
ENDBRANCH   3  17
TORSDOF 6
