REMARK  0 active torsions:
REMARK  status: ('A' for Active; 'I' for Inactive)
ROOT
ATOM      1  C   UNL d   1      -1.001   0.501  -0.042  0.00  0.00     0.094 A 
ATOM      2  C   UNL d   1       0.453   0.489  -0.029  0.00  0.00     0.026 A 
ATOM      3  N   UNL d   1      -1.832   1.518  -0.266  0.00  0.00    -0.239 N 
ATOM      4  HN  UNL d   1      -1.586   2.489  -0.459  1.00  0.00     0.197 HD
ATOM      5  C   UNL d   1      -1.761  -0.665   0.155  0.00  0.00     0.064 A 
ATOM      6  O   UNL d   1      -3.114   0.966  -0.178  0.00  0.00    -0.156 OA
ATOM      7  N   UNL d   1      -3.062  -0.409   0.085  0.00  0.00    -0.244 N 
ATOM      8  HN  UNL d   1      -3.840  -1.060   0.195  1.00  0.00     0.196 HD
ATOM      9  C   UNL d   1       1.050  -0.788  -0.117  0.00  0.00     0.039 A 
ATOM     10  N   UNL d   1       3.199   0.114   0.019  0.00  0.00    -0.311 N 
ATOM     11  HN  UNL d   1       4.212  -0.004   0.034  1.00  0.00     0.186 HD
ATOM     12  N   UNL d   1       2.389  -0.963  -0.102  0.00  0.00    -0.304 N 
ATOM     13  HN  UNL d   1       2.786  -1.899  -0.181  1.00  0.00     0.186 HD
ATOM     14  C   UNL d   1       1.288   1.601   0.106  0.00  0.00    -0.030 A 
ATOM     15  C   UNL d   1      -1.149  -1.989   0.396  0.00  0.00     0.067 C 
ATOM     16  C   UNL d   1       0.217  -2.046  -0.308  0.00  0.00     0.065 C 
ATOM     17  C   UNL d   1       2.655   1.346   0.118  0.00  0.00     0.114 A 
ATOM     18  C   UNL d   1       0.855   3.027   0.261  0.00  0.00     0.050 C 
ENDROOT
TORSDOF 0
