REMARK  5 active torsions:
REMARK  status: ('A' for Active; 'I' for Inactive)
REMARK    1  A    between atoms: C_11  and  C_3 
REMARK    2  A    between atoms: C_14  and  C_6 
REMARK    3  A    between atoms: C_7  and  C_12 
REMARK       I    between atoms: C_9  and  N_10 
REMARK    4  A    between atoms: C_22  and  C_9 
REMARK    5  A    between atoms: N_10  and  C_14 
ROOT
ATOM      1  N   UNL d   1       0.414  -0.133   0.972  0.00  0.00    -0.321 N 
ATOM      2  HN  UNL d   1       0.578  -0.278   1.968  1.00  0.00     0.169 HD
ATOM      3  C   UNL d   1      -0.113   0.971   0.336  0.00  0.00     0.137 A 
ATOM      4  N   UNL d   1      -0.161   0.855  -1.002  0.00  0.00    -0.242 N 
ATOM      5  HN  UNL d   1      -0.488   1.542  -1.681  1.00  0.00     0.196 HD
ATOM      6  C   UNL d   1       0.650  -0.950  -0.028  0.00  0.00     0.166 A 
ATOM      7  O   UNL d   1       0.342  -0.421  -1.244  0.00  0.00    -0.221 OA
ENDROOT
BRANCH   6   8
ATOM      8  C   UNL d   1       1.182  -2.328  -0.011  0.00  0.00     0.209 C 
BRANCH   8   9
ATOM      9  N   UNL d   1       2.630  -2.324  -0.061  0.00  0.00    -0.353 N 
ATOM     10  C   UNL d   1       3.290  -3.525   0.000  0.00  0.00     0.222 C 
ATOM     11  O   UNL d   1       2.673  -4.585   0.085  0.00  0.00    -0.273 OA
ATOM     12  H   UNL d   1       3.134  -1.464   0.119  0.00  0.00     0.162 HD
BRANCH  10  13
ATOM     13  C   UNL d   1       4.818  -3.441   0.000  0.00  0.00     0.078 C 
ATOM     14  C   UNL d   1       5.375  -2.688  -1.216  0.00  0.00     0.014 C 
ATOM     15  C   UNL d   1       5.204  -3.473  -2.516  0.00  0.00     0.001 C 
ATOM     16  C   UNL d   1       5.803  -4.873  -2.420  0.00  0.00     0.000 C 
ATOM     17  C   UNL d   1       5.288  -5.640  -1.208  0.00  0.00     0.001 C 
ATOM     18  C   UNL d   1       5.449  -4.841   0.088  0.00  0.00     0.014 C 
ENDBRANCH  10  13
ENDBRANCH   8   9
ENDBRANCH   6   8
BRANCH   3  19
ATOM     19  C   UNL d   1      -0.586   2.135   1.075  0.00  0.00     0.010 A 
ATOM     20  C   UNL d   1      -0.522   2.156   2.476  0.00  0.00     0.016 A 
ATOM     21  C   UNL d   1      -0.987   3.261   3.197  0.00  0.00     0.017 A 
ATOM     22  C   UNL d   1      -1.527   4.369   2.529  0.00  0.00     0.048 A 
ATOM     23  C   UNL d   1      -1.590   4.350   1.128  0.00  0.00     0.017 A 
ATOM     24  C   UNL d   1      -1.124   3.245   0.409  0.00  0.00     0.016 A 
BRANCH  22  25
ATOM     25  C   UNL d   1      -2.040   5.568   3.289  0.00  0.00     0.417 C 
ATOM     26  F   UNL d   1      -1.937   5.442   4.642  0.00  0.00    -0.166 F 
ATOM     27  F   UNL d   1      -1.370   6.711   2.969  0.00  0.00    -0.166 F 
ATOM     28  F   UNL d   1      -3.354   5.822   3.037  0.00  0.00    -0.166 F 
ENDBRANCH  22  25
ENDBRANCH   3  19
TORSDOF 5
