REMARK  8 active torsions:
REMARK  status: ('A' for Active; 'I' for Inactive)
REMARK    1  A    between atoms: C_3  and  C_1 
REMARK    2  A    between atoms: C_4  and  C_1 
REMARK    3  A    between atoms: N_5  and  C_2 
REMARK    4  A    between atoms: O_15  and  C_3 
REMARK    5  A    between atoms: O_14  and  C_4 
REMARK    6  A    between atoms: C_8  and  N_5 
REMARK    7  A    between atoms: C_18  and  O_14 
REMARK    8  A    between atoms: C_19  and  O_15 
ROOT
ATOM      1  C   UNL d   1       1.167   0.005  -0.052  0.00  0.00     0.129 C 
ATOM      2  C   UNL d   1       0.491   0.301   1.076  0.00  0.00     0.112 C 
ENDROOT
BRANCH   1   3
ATOM      3  C   UNL d   1       0.411  -0.250  -1.304  0.00  0.00     0.300 C 
ATOM      4  O   UNL d   1       0.846  -0.033  -2.425  0.00  0.00    -0.259 OA
BRANCH   3   5
ATOM      5  O   UNL d   1      -0.862  -0.654  -1.034  0.00  0.00    -0.318 OA
BRANCH   5   6
ATOM      6  C   UNL d   1      -1.779  -0.587  -2.135  0.00  0.00     0.174 C 
ATOM      7  C   UNL d   1      -2.298   0.836  -2.261  0.00  0.00     0.034 C 
ENDBRANCH   5   6
ENDBRANCH   3   5
ENDBRANCH   1   3
BRANCH   1   8
ATOM      8  C   UNL d   1       2.641   0.111  -0.066  0.00  0.00     0.300 C 
ATOM      9  O   UNL d   1       3.291   0.749   0.753  0.00  0.00    -0.259 OA
BRANCH   8  10
ATOM     10  O   UNL d   1       3.156  -0.583  -1.109  0.00  0.00    -0.318 OA
BRANCH  10  11
ATOM     11  C   UNL d   1       4.504  -0.260  -1.477  0.00  0.00     0.174 C 
ATOM     12  C   UNL d   1       4.463   0.870  -2.492  0.00  0.00     0.034 C 
ENDBRANCH  10  11
ENDBRANCH   8  10
ENDBRANCH   1   8
BRANCH   2  13
ATOM     13  N   UNL d   1       0.959   0.655   2.320  0.00  0.00    -0.362 N 
ATOM     14  H   UNL d   1       1.979   0.714   2.423  0.00  0.00     0.165 HD
BRANCH  13  15
ATOM     15  C   UNL d   1       0.230   1.130   3.428  0.00  0.00     0.071 A 
ATOM     16  C   UNL d   1       0.842   1.137   4.694  0.00  0.00     0.145 A 
ATOM     17  C   UNL d   1       0.158   1.511   5.845  0.00  0.00     0.086 A 
ATOM     18  F   UNL d   1       2.126   0.757   4.806  0.00  0.00    -0.204 F 
ATOM     19  C   UNL d   1      -1.171   1.890   5.739  0.00  0.00     0.119 A 
ATOM     20  C   UNL d   1      -1.813   1.900   4.506  0.00  0.00     0.044 A 
ATOM     21  F   UNL d   1      -1.848   2.245   6.837  0.00  0.00    -0.206 F 
ATOM     22  C   UNL d   1      -1.118   1.515   3.358  0.00  0.00     0.036 A 
ENDBRANCH  13  15
ENDBRANCH   2  13
TORSDOF 8
