REMARK  4 active torsions:
REMARK  status: ('A' for Active; 'I' for Inactive)
REMARK    1  A    between atoms: C_7  and  N_1 
REMARK    2  A    between atoms: C_14  and  C_2 
REMARK    3  A    between atoms: C_8  and  C_10 
REMARK    4  A    between atoms: C_9  and  C_11 
ROOT
ATOM      1  C   UNL d   1      -0.559  -2.558   0.070  0.00  0.00     0.056 A 
ATOM      2  C   UNL d   1      -0.207  -4.744   1.087  0.00  0.00     0.050 A 
ATOM      3  C   UNL d   1      -1.641  -4.522  -0.883  0.00  0.00     0.050 A 
ATOM      4  C   UNL d   1       0.060  -3.368   1.033  0.00  0.00     0.047 A 
ATOM      5  C   UNL d   1      -1.394  -3.138  -0.891  0.00  0.00     0.047 A 
ATOM      6  C   UNL d   1      -1.052  -5.312   0.118  0.00  0.00     0.032 A 
ENDROOT
BRANCH   1   7
ATOM      7  N   UNL d   1      -0.314  -1.157   0.093  0.00  0.00    -0.242 N 
ATOM      8  N   UNL d   1       0.865  -0.684   0.563  0.00  0.00    -0.014 NA
ATOM      9  N   UNL d   1       0.893   0.627   0.391  0.00  0.00    -0.278 N 
ATOM     10  C   UNL d   1      -0.323   1.025  -0.096  0.00  0.00     0.115 A 
ATOM     11  HN  UNL d   1       1.686   1.238   0.587  1.00  0.00     0.184 HD
ATOM     12  C   UNL d   1      -1.132  -0.094  -0.262  0.00  0.00     0.060 A 
ATOM     13  C   UNL d   1      -2.578  -0.207  -0.583  0.00  0.00     0.072 C 
BRANCH  10  14
ATOM     14  C   UNL d   1      -0.655   2.430  -0.316  0.00  0.00     0.175 C 
ATOM     15  O   UNL d   1      -1.766   2.785  -0.714  0.00  0.00    -0.291 OA
ATOM     16  C   UNL d   1       0.396   3.475  -0.029  0.00  0.00     0.098 C 
ENDBRANCH  10  14
ENDBRANCH   1   7
BRANCH   2  17
ATOM     17  C   UNL d   1       0.366  -5.608   2.186  0.00  0.00     0.417 C 
ATOM     18  F   UNL d   1       1.121  -4.920   3.086  0.00  0.00    -0.166 F 
ATOM     19  F   UNL d   1      -0.608  -6.224   2.910  0.00  0.00    -0.166 F 
ATOM     20  F   UNL d   1       1.164  -6.602   1.706  0.00  0.00    -0.166 F 
ENDBRANCH   2  17
BRANCH   3  21
ATOM     21  C   UNL d   1      -2.528  -5.164  -1.926  0.00  0.00     0.417 C 
ATOM     22  F   UNL d   1      -3.049  -4.273  -2.815  0.00  0.00    -0.166 F 
ATOM     23  F   UNL d   1      -1.868  -6.093  -2.668  0.00  0.00    -0.166 F 
ATOM     24  F   UNL d   1      -3.591  -5.807  -1.373  0.00  0.00    -0.166 F 
ENDBRANCH   3  21
TORSDOF 4
