REMARK  5 active torsions:
REMARK  status: ('A' for Active; 'I' for Inactive)
REMARK    1  A    between atoms: C_10  and  N_1 
REMARK    2  A    between atoms: N_7  and  C_2 
REMARK    3  A    between atoms: C_12  and  N_6 
REMARK    4  A    between atoms: C_13  and  N_7 
REMARK    5  A    between atoms: C_14  and  C_12 
ROOT
ATOM      1  N   UNL d   1      -0.451   5.892  -0.534  0.00  0.00    -0.197 NA
ATOM      2  C   UNL d   1      -0.088   4.794  -0.605  0.00  0.00     0.060 C 
ATOM      3  C   UNL d   1       0.361   3.400  -0.689  0.00  0.00     0.146 C 
ENDROOT
BRANCH   3   4
ATOM      4  C   UNL d   1      -0.659   2.478  -0.029  0.00  0.00     0.166 C 
BRANCH   4   5
ATOM      5  N   UNL d   1      -0.297   1.066  -0.117  0.00  0.00    -0.251 N 
ATOM      6  C   UNL d   1      -1.130  -0.065  -0.076  0.00  0.00     0.216 A 
ATOM      7  N   UNL d   1      -0.263  -1.159   0.015  0.00  0.00    -0.119 N 
ATOM      8  S   UNL d   1      -2.801   0.002  -0.032  0.00  0.00    -0.038 SA
ATOM      9  C   UNL d   1       1.004  -0.618   0.135  0.00  0.00     0.706 A 
ATOM     10  N   UNL d   1       0.997   0.688   0.071  0.00  0.00    -0.127 N 
ATOM     11  HN  UNL d   1       1.806   1.305   0.149  1.00  0.00     0.206 HD
BRANCH   7  12
ATOM     12  C   UNL d   1      -0.612  -2.541   0.052  0.00  0.00     0.059 A 
ATOM     13  C   UNL d   1       0.102  -3.457   0.842  0.00  0.00     0.030 A 
ATOM     14  C   UNL d   1      -0.196  -4.825   0.818  0.00  0.00     0.002 A 
ATOM     15  C   UNL d   1      -1.234  -5.301   0.024  0.00  0.00     0.000 A 
ATOM     16  C   UNL d   1      -1.978  -4.408  -0.738  0.00  0.00     0.002 A 
ATOM     17  C   UNL d   1      -1.663  -3.045  -0.729  0.00  0.00     0.030 A 
ENDBRANCH   7  12
BRANCH   9  18
ATOM     18  N   UNL d   1       2.145  -1.377   0.252  0.00  0.00    -0.190 N 
ATOM     19  H   UNL d   1       2.117  -2.310  -0.136  0.00  0.00     0.184 HD
BRANCH  18  20
ATOM     20  C   UNL d   1       3.408  -0.965   0.722  0.00  0.00     0.049 A 
ATOM     21  C   UNL d   1       3.620   0.255   1.378  0.00  0.00     0.030 A 
ATOM     22  C   UNL d   1       4.893   0.649   1.799  0.00  0.00     0.002 A 
ATOM     23  C   UNL d   1       5.983  -0.185   1.588  0.00  0.00     0.000 A 
ATOM     24  C   UNL d   1       5.795  -1.420   0.973  0.00  0.00     0.002 A 
ATOM     25  C   UNL d   1       4.519  -1.807   0.546  0.00  0.00     0.030 A 
ENDBRANCH  18  20
ENDBRANCH   9  18
ENDBRANCH   4   5
ENDBRANCH   3   4
TORSDOF 5
