REMARK  5 active torsions:
REMARK  status: ('A' for Active; 'I' for Inactive)
REMARK    1  A    between atoms: N_2  and  C_1 
REMARK    2  A    between atoms: N_3  and  C_5 
REMARK    3  A    between atoms: N_13  and  C_6 
REMARK    4  A    between atoms: N_8  and  N_13 
REMARK    5  A    between atoms: C_17  and  C_16 
ROOT
ATOM      1  C   UNL d   1      -0.389   1.099  -0.170  0.00  0.00     0.133 A 
ATOM      2  C   UNL d   1      -1.140  -0.066   0.082  0.00  0.00     0.074 A 
ATOM      3  C   UNL d   1      -0.477  -1.271   0.339  0.00  0.00     0.105 A 
ATOM      4  C   UNL d   1       1.024   1.077  -0.154  0.00  0.00     0.081 A 
ATOM      5  C   UNL d   1       0.919  -1.325   0.343  0.00  0.00     0.038 A 
ATOM      6  C   UNL d   1       1.651  -0.158   0.105  0.00  0.00     0.036 A 
ENDROOT
BRANCH   4   7
ATOM      7  N   UNL d   1       1.813   2.225  -0.374  0.00  0.00    -0.299 N 
ATOM      8  H   UNL d   1       1.302   3.092  -0.576  0.00  0.00     0.187 HD
BRANCH   7   9
ATOM      9  N   UNL d   1       3.107   2.071  -0.741  0.00  0.00    -0.311 N 
ATOM     10  C   UNL d   1       3.617   3.085  -1.366  0.00  0.00     0.118 C 
ATOM     11  HN  UNL d   1       3.639   1.223  -0.542  1.00  0.00     0.186 HD
BRANCH  10  12
ATOM     12  C   UNL d   1       5.024   3.103  -1.804  0.00  0.00    -0.019 A 
ATOM     13  C   UNL d   1       5.872   2.022  -1.546  0.00  0.00     0.013 A 
ATOM     14  C   UNL d   1       7.213   2.090  -1.922  0.00  0.00     0.001 A 
ATOM     15  C   UNL d   1       7.703   3.233  -2.556  0.00  0.00     0.000 A 
ATOM     16  C   UNL d   1       6.851   4.304  -2.828  0.00  0.00     0.001 A 
ATOM     17  C   UNL d   1       5.508   4.241  -2.454  0.00  0.00     0.013 A 
ENDBRANCH  10  12
ENDBRANCH   7   9
ENDBRANCH   4   7
BRANCH   1  18
ATOM     18  N   UNL d   1      -1.129   2.329  -0.502  0.00  0.00    -0.113 N 
ATOM     19  O   UNL d   1      -2.353   2.237  -0.664  0.00  0.00    -0.532 OA
ATOM     20  O   UNL d   1      -0.492   3.389  -0.617  0.00  0.00    -0.532 OA
ENDBRANCH   1  18
BRANCH   3  21
ATOM     21  N   UNL d   1      -1.252  -2.488   0.603  0.00  0.00    -0.116 N 
ATOM     22  O   UNL d   1      -2.488  -2.392   0.606  0.00  0.00    -0.532 OA
ATOM     23  O   UNL d   1      -0.627  -3.538   0.810  0.00  0.00    -0.532 OA
ENDBRANCH   3  21
TORSDOF 5
