REMARK  3 active torsions:
REMARK  status: ('A' for Active; 'I' for Inactive)
REMARK    1  A    between atoms: C_4  and  C_1 
REMARK    2  A    between atoms: C_6  and  N_2 
REMARK    3  A    between atoms: O_14  and  C_7 
ROOT
ATOM      1  N   UNL d   1      -4.125  -2.489   0.039  0.00  0.00    -0.365 N 
ATOM      2  HN  UNL d   1      -3.894  -2.029   0.919  1.00  0.00     0.165 HD
ATOM      3  C   UNL d   1      -3.799  -1.955  -1.098  0.00  0.00     0.102 C 
ENDROOT
BRANCH   1   4
ATOM      4  C   UNL d   1      -4.808  -3.726   0.024  0.00  0.00     0.038 A 
ATOM      5  C   UNL d   1      -4.430  -4.757   0.916  0.00  0.00    -0.029 A 
ATOM      6  C   UNL d   1      -5.133  -5.988   0.901  0.00  0.00    -0.054 A 
ATOM      7  C   UNL d   1      -3.289  -4.553   1.881  0.00  0.00     0.051 C 
ATOM      8  C   UNL d   1      -4.814  -7.136   1.823  0.00  0.00     0.049 C 
ATOM      9  C   UNL d   1      -6.210  -6.160   0.015  0.00  0.00     0.007 A 
ATOM     10  C   UNL d   1      -6.599  -5.135  -0.838  0.00  0.00     0.003 A 
ATOM     11  C   UNL d   1      -5.912  -3.925  -0.822  0.00  0.00     0.030 A 
ENDBRANCH   1   4
BRANCH   3  12
ATOM     12  C   UNL d   1      -3.100  -0.654  -1.162  0.00  0.00     0.014 A 
ATOM     13  C   UNL d   1      -2.572  -0.040  -0.021  0.00  0.00     0.077 A 
ATOM     14  C   UNL d   1      -1.905   1.180  -0.123  0.00  0.00     0.039 A 
ATOM     15  C   UNL d   1      -1.777   1.800  -1.366  0.00  0.00     0.022 A 
ATOM     16  C   UNL d   1      -2.315   1.192  -2.501  0.00  0.00     0.011 A 
ATOM     17  C   UNL d   1      -2.972  -0.036  -2.410  0.00  0.00     0.034 A 
ATOM     18 BR   UNL d   1      -2.159   2.046  -4.181  0.00  0.00    -0.051 Br
BRANCH  13  19
ATOM     19  O   UNL d   1      -2.673  -0.584   1.229  0.00  0.00    -0.360 OA
ATOM     20  H   UNL d   1      -3.236  -1.388   1.148  0.00  0.00     0.217 HD
ENDBRANCH  13  19
ENDBRANCH   3  12
TORSDOF 3
