REMARK  2 active torsions:
REMARK  status: ('A' for Active; 'I' for Inactive)
REMARK    1  A    between atoms: C_8  and  C_1 
REMARK    2  A    between atoms: N_7  and  C_2 
REMARK       I    between atoms: N_3  and  C_4 
REMARK       I    between atoms: C_4  and  N_7 
ROOT
ATOM      1  C   UNL d   1      -1.466  -0.845  -0.065  0.00  0.00     0.097 A 
ATOM      2  C   UNL d   1      -0.053  -1.125  -0.105  0.00  0.00     0.097 A 
ATOM      3  N   UNL d   1      -1.674   0.466  -0.263  0.00  0.00    -0.258 N 
ATOM      4  HN  UNL d   1      -2.574   0.946  -0.259  1.00  0.00     0.195 HD
ATOM      5  C   UNL d   1       0.523   0.084  -0.437  0.00  0.00     0.101 A 
ATOM      6  O   UNL d   1      -0.446   1.035  -0.473  0.00  0.00    -0.240 OA
ATOM      7  C   UNL d   1       1.879   0.598  -0.699  0.00  0.00     0.081 C 
ENDROOT
BRANCH   2   8
ATOM      8  N   UNL d   1       0.574  -2.350   0.120  0.00  0.00    -0.304 N 
ATOM      9  C   UNL d   1       1.402  -2.944  -0.819  0.00  0.00     0.329 C 
ATOM     10  N   UNL d   1       1.654  -4.295  -0.559  0.00  0.00    -0.270 N 
ATOM     11  O   UNL d   1       1.852  -2.388  -1.819  0.00  0.00    -0.246 OA
ATOM     12  C   UNL d   1       1.513  -4.969   0.662  0.00  0.00     0.227 C 
ATOM     13  C   UNL d   1       2.339  -5.111  -1.532  0.00  0.00     0.137 C 
ATOM     14  O   UNL d   1       0.886  -4.589   1.630  0.00  0.00    -0.273 OA
ATOM     15  C   UNL d   1       2.266  -6.273   0.569  0.00  0.00     0.105 C 
ATOM     16  C   UNL d   1       2.398  -6.500  -0.927  0.00  0.00     0.029 C 
ATOM     17  H   UNL d   1       0.045  -3.023   0.671  0.00  0.00     0.171 HD
ENDBRANCH   2   8
BRANCH   1  18
ATOM     18  C   UNL d   1      -2.622  -1.752   0.004  0.00  0.00     0.038 A 
ATOM     19  C   UNL d   1      -3.729  -1.467   0.833  0.00  0.00     0.048 A 
ATOM     20 CL   UNL d   1      -3.756  -0.161   1.975  0.00  0.00    -0.083 Cl
ATOM     21  C   UNL d   1      -4.898  -2.246   0.777  0.00  0.00     0.025 A 
ATOM     22  C   UNL d   1      -4.976  -3.346  -0.067  0.00  0.00     0.003 A 
ATOM     23  C   UNL d   1      -3.892  -3.662  -0.873  0.00  0.00     0.025 A 
ATOM     24  C   UNL d   1      -2.740  -2.861  -0.864  0.00  0.00     0.048 A 
ATOM     25 CL   UNL d   1      -1.570  -3.288  -2.067  0.00  0.00    -0.083 Cl
ENDBRANCH   1  18
TORSDOF 2
