REMARK  7 active torsions:
REMARK  status: ('A' for Active; 'I' for Inactive)
REMARK    1  A    between atoms: C_9  and  N_3 
REMARK    2  A    between atoms: C_12  and  C_4 
REMARK    3  A    between atoms: C_8  and  C_13 
REMARK    4  A    between atoms: C_10  and  C_9 
REMARK       I    between atoms: N_16  and  C_10 
REMARK       I    between atoms: C_11  and  N_14 
REMARK    5  A    between atoms: C_17  and  C_11 
REMARK    6  A    between atoms: N_14  and  N_16 
REMARK    7  A    between atoms: C_18  and  C_19 
ROOT
ATOM      1  C   UNL d   1       3.140  -3.088   0.839  0.00  0.00     0.271 C 
ENDROOT
BRANCH   1   2
ATOM      2  N   UNL d   1       3.283  -4.492   1.155  0.00  0.00    -0.207 N 
ATOM      3  N   UNL d   1       4.210  -4.868   2.072  0.00  0.00    -0.268 N 
ATOM      4  C   UNL d   1       4.408  -6.152   1.729  0.00  0.00     0.144 A 
ATOM      5  HN  UNL d   1       4.640  -4.323   2.819  1.00  0.00     0.190 HD
ATOM      6  N   UNL d   1       3.603  -6.536   0.679  0.00  0.00    -0.266 N 
ATOM      7  N   UNL d   1       2.909  -5.468   0.306  0.00  0.00    -0.002 NA
ATOM      8  HN  UNL d   1       3.551  -7.467   0.266  1.00  0.00     0.186 HD
BRANCH   4   9
ATOM      9  C   UNL d   1       5.426  -7.014   2.332  0.00  0.00     0.011 A 
ATOM     10  C   UNL d   1       6.257  -6.537   3.362  0.00  0.00     0.031 A 
ATOM     11  C   UNL d   1       7.276  -7.338   3.914  0.00  0.00     0.048 A 
ATOM     12  C   UNL d   1       7.453  -8.639   3.424  0.00  0.00     0.016 A 
ATOM     13  C   UNL d   1       6.632  -9.128   2.408  0.00  0.00     0.002 A 
ATOM     14  C   UNL d   1       5.627  -8.321   1.866  0.00  0.00     0.015 A 
BRANCH  11  15
ATOM     15  C   UNL d   1       8.184  -6.817   5.002  0.00  0.00     0.417 C 
ATOM     16  F   UNL d   1       7.901  -5.543   5.391  0.00  0.00    -0.166 F 
ATOM     17  F   UNL d   1       8.130  -7.573   6.134  0.00  0.00    -0.166 F 
ATOM     18  F   UNL d   1       9.493  -6.808   4.625  0.00  0.00    -0.166 F 
ENDBRANCH  11  15
ENDBRANCH   4   9
ENDBRANCH   1   2
BRANCH   1  19
ATOM     19  C   UNL d   1       1.837  -2.565   0.289  0.00  0.00     0.257 C 
ATOM     20  N   UNL d   1       0.833  -3.413  -0.107  0.00  0.00    -0.266 N 
ATOM     21  H   UNL d   1       0.867  -4.435  -0.076  0.00  0.00     0.190 HD
ATOM     22  O   UNL d   1       1.688  -1.340   0.159  0.00  0.00    -0.270 OA
BRANCH  20  23
ATOM     23  N   UNL d   1      -0.338  -2.823  -0.654  0.00  0.00    -0.263 N 
ATOM     24  C   UNL d   1      -1.549  -3.459  -0.446  0.00  0.00     0.270 C 
ATOM     25  O   UNL d   1      -1.632  -4.585   0.038  0.00  0.00    -0.266 OA
ATOM     26  H   UNL d   1      -0.300  -1.808  -0.751  0.00  0.00     0.190 HD
BRANCH  24  27
ATOM     27  C   UNL d   1      -2.783  -2.686  -0.785  0.00  0.00     0.033 A 
ATOM     28  C   UNL d   1      -2.841  -1.746  -1.818  0.00  0.00     0.017 A 
ATOM     29  C   UNL d   1      -4.030  -1.028  -2.056  0.00  0.00     0.009 A 
ATOM     30  C   UNL d   1      -5.181  -1.215  -1.263  0.00  0.00    -0.051 A 
ATOM     31  C   UNL d   1      -5.111  -2.204  -0.268  0.00  0.00     0.009 A 
ATOM     32  C   UNL d   1      -3.935  -2.930  -0.034  0.00  0.00     0.017 A 
BRANCH  30  33
ATOM     33  C   UNL d   1      -6.432  -0.330  -1.452  0.00  0.00    -0.024 C 
ATOM     34  C   UNL d   1      -7.559  -0.633  -0.434  0.00  0.00     0.019 C 
ATOM     35  C   UNL d   1      -6.042   1.153  -1.258  0.00  0.00     0.019 C 
ATOM     36  C   UNL d   1      -7.037  -0.502  -2.861  0.00  0.00     0.019 C 
ENDBRANCH  30  33
ENDBRANCH  24  27
ENDBRANCH  20  23
ENDBRANCH   1  19
TORSDOF 7
