REMARK  9 active torsions:
REMARK  status: ('A' for Active; 'I' for Inactive)
REMARK    1  A    between atoms: N_2  and  C_1 
REMARK    2  A    between atoms: C_3  and  C_1 
REMARK    3  A    between atoms: C_4  and  C_1 
REMARK    4  A    between atoms: N_8  and  C_1 
REMARK       I    between atoms: C_5  and  N_2 
REMARK    5  A    between atoms: C_6  and  C_5 
REMARK    6  A    between atoms: C_7  and  C_9 
REMARK    7  A    between atoms: C_12  and  N_8 
REMARK    8  A    between atoms: O_24  and  C_11 
REMARK    9  A    between atoms: C_29  and  O_24 
ROOT
ATOM      1  C   UNL d   1       1.288   0.156  -0.437  0.00  0.00     0.306 C 
ENDROOT
BRANCH   1   2
ATOM      2  N   UNL d   1       0.916  -0.665   0.729  0.00  0.00    -0.315 N 
ATOM      3  C   UNL d   1      -0.261  -0.582   1.415  0.00  0.00     0.256 C 
ATOM      4  O   UNL d   1      -0.966   0.417   1.384  0.00  0.00    -0.267 OA
ATOM      5  H   UNL d   1       1.446  -1.526   0.820  0.00  0.00     0.165 HD
BRANCH   3   6
ATOM      6  C   UNL d   1      -0.701  -1.801   2.161  0.00  0.00     0.065 A 
ATOM      7  C   UNL d   1       0.146  -2.877   2.496  0.00  0.00     0.084 A 
ATOM      8  C   UNL d   1      -0.421  -4.041   3.028  0.00  0.00     0.038 A 
ATOM      9  C   UNL d   1      -1.796  -4.122   3.269  0.00  0.00     0.003 A 
ATOM     10  C   UNL d   1      -2.620  -3.033   3.003  0.00  0.00     0.001 A 
ATOM     11  C   UNL d   1      -2.075  -1.877   2.451  0.00  0.00     0.020 A 
BRANCH   7  12
ATOM     12  O   UNL d   1       1.486  -2.733   2.248  0.00  0.00    -0.350 OA
BRANCH  12  13
ATOM     13  C   UNL d   1       2.422  -3.545   2.963  0.00  0.00     0.171 C 
ATOM     14  C   UNL d   1       2.547  -3.140   4.424  0.00  0.00     0.034 C 
ENDBRANCH  12  13
ENDBRANCH   7  12
ENDBRANCH   3   6
ENDBRANCH   1   2
BRANCH   1  15
ATOM     15  C   UNL d   1       0.633   1.573  -0.593  0.00  0.00     0.441 C 
ATOM     16  F   UNL d   1      -0.700   1.579  -0.789  0.00  0.00    -0.166 F 
ATOM     17  F   UNL d   1       0.906   2.350   0.492  0.00  0.00    -0.166 F 
ATOM     18  F   UNL d   1       1.181   2.227  -1.655  0.00  0.00    -0.166 F 
ENDBRANCH   1  15
BRANCH   1  19
ATOM     19  C   UNL d   1       0.921  -0.528  -1.799  0.00  0.00     0.441 C 
ATOM     20  F   UNL d   1       0.683  -1.858  -1.614  0.00  0.00    -0.166 F 
ATOM     21  F   UNL d   1      -0.182  -0.038  -2.402  0.00  0.00    -0.166 F 
ATOM     22  F   UNL d   1       1.918  -0.454  -2.717  0.00  0.00    -0.166 F 
ENDBRANCH   1  19
BRANCH   1  23
ATOM     23  N   UNL d   1       2.741   0.345  -0.145  0.00  0.00    -0.349 N 
ATOM     24  H   UNL d   1       2.885   1.134   0.489  0.00  0.00     0.162 HD
BRANCH  23  25
ATOM     25  C   UNL d   1       3.879  -0.297  -0.536  0.00  0.00     0.031 A 
ATOM     26  C   UNL d   1       5.073   0.453  -0.521  0.00  0.00     0.045 A 
ATOM     27  C   UNL d   1       6.291  -0.060  -0.996  0.00  0.00     0.050 A 
ATOM     28  C   UNL d   1       6.314  -1.371  -1.490  0.00  0.00     0.016 A 
ATOM     29  C   UNL d   1       5.149  -2.130  -1.503  0.00  0.00     0.003 A 
ATOM     30  C   UNL d   1       3.942  -1.592  -1.034  0.00  0.00     0.029 A 
BRANCH  27  31
ATOM     31  C   UNL d   1       7.534   0.791  -1.007  0.00  0.00     0.417 C 
ATOM     32  F   UNL d   1       7.379   1.991  -0.382  0.00  0.00    -0.166 F 
ATOM     33  F   UNL d   1       8.587   0.187  -0.390  0.00  0.00    -0.166 F 
ATOM     34  F   UNL d   1       7.955   1.079  -2.269  0.00  0.00    -0.166 F 
ENDBRANCH  27  31
ENDBRANCH  23  25
ENDBRANCH   1  23
TORSDOF 9
