REMARK  1 active torsions:
REMARK  status: ('A' for Active; 'I' for Inactive)
REMARK       I    between atoms: C_2  and  N_1 
REMARK    1  A    between atoms: C_3  and  C_2 
ROOT
ATOM      1  N   UNL d   1      -1.617  -1.129  -0.014  0.00  0.00    -0.288 N 
ATOM      2  C   UNL d   1      -2.063  -2.472   0.089  0.00  0.00     0.263 C 
ATOM      3  C   UNL d   1      -2.429  -0.003  -0.015  0.00  0.00     0.101 A 
ATOM      4  C   UNL d   1      -0.288  -0.696  -0.080  0.00  0.00     0.052 A 
ATOM      5  C   UNL d   1      -1.642   1.125  -0.020  0.00  0.00     0.031 A 
ATOM      6  C   UNL d   1      -0.290   0.703  -0.050  0.00  0.00    -0.008 A 
ATOM      7  O   UNL d   1      -1.274  -3.369  -0.194  0.00  0.00    -0.267 OA
ATOM      8  C   UNL d   1       0.922  -1.417  -0.107  0.00  0.00     0.031 A 
ATOM      9  C   UNL d   1       0.937   1.395  -0.045  0.00  0.00     0.014 A 
ATOM     10  C   UNL d   1       2.127  -0.710  -0.097  0.00  0.00     0.002 A 
ATOM     11  C   UNL d   1       2.137   0.679  -0.064  0.00  0.00     0.001 A 
ENDROOT
BRANCH   2  12
ATOM     12  C   UNL d   1      -3.392  -2.857   0.632  0.00  0.00     0.049 A 
ATOM     13  C   UNL d   1      -4.213  -3.834   0.053  0.00  0.00     0.022 A 
ATOM     14  I   UNL d   1      -3.843  -4.728  -1.809  0.00  0.00    -0.043 I 
ATOM     15  C   UNL d   1      -5.386  -4.233   0.713  0.00  0.00     0.019 A 
ATOM     16  C   UNL d   1      -5.742  -3.658   1.934  0.00  0.00     0.001 A 
ATOM     17  C   UNL d   1      -4.934  -2.681   2.506  0.00  0.00     0.001 A 
ATOM     18  C   UNL d   1      -3.759  -2.291   1.866  0.00  0.00     0.018 A 
ENDBRANCH   2  12
TORSDOF 1
