REMARK  1 active torsions:
REMARK  status: ('A' for Active; 'I' for Inactive)
REMARK    1  A    between atoms: C_9  and  C_2 
ROOT
ATOM      1  C   UNL d   1      -0.703   1.229   0.002  0.00  0.00     0.140 A 
ATOM      2  C   UNL d   1      -1.350   0.048  -0.023  0.00  0.00     0.072 A 
ATOM      3  N   UNL d   1       1.369  -0.047   0.026  0.00  0.00    -0.299 N 
ATOM      4  C   UNL d   1       0.783   1.195   0.028  0.00  0.00     0.270 A 
ATOM      5  C   UNL d   1       0.696  -1.231   0.005  0.00  0.00     0.179 A 
ATOM      6  N   UNL d   1      -0.664  -1.146  -0.020  0.00  0.00    -0.331 N 
ATOM      7  C   UNL d   1      -1.358   2.492   0.013  0.00  0.00     0.107 C 
ATOM      8  N   UNL d   1      -1.934   3.500   0.025  0.00  0.00    -0.191 NA
ATOM      9  S   UNL d   1       1.480  -2.693   0.011  0.00  0.00    -0.040 SA
ATOM     10  O   UNL d   1       1.464   2.214   0.052  0.00  0.00    -0.266 OA
ATOM     11  H   UNL d   1       2.380  -0.070   0.044  0.00  0.00     0.171 HD
ATOM     12  H   UNL d   1      -1.180  -2.024  -0.033  0.00  0.00     0.168 HD
ENDROOT
BRANCH   2  13
ATOM     13  C   UNL d   1      -2.814  -0.054  -0.046  0.00  0.00     0.008 A 
ATOM     14  C   UNL d   1      -3.517  -0.098  -1.247  0.00  0.00     0.101 A 
ATOM     15  N   UNL d   1      -4.864  -0.177  -1.331  0.00  0.00    -0.374 N 
ATOM     16  C   UNL d   1      -5.545  -0.202  -0.165  0.00  0.00     0.087 A 
ATOM     17  HN  UNL d   1      -5.342  -0.217  -2.231  1.00  0.00     0.164 HD
ATOM     18  C   UNL d   1      -4.939  -0.170   1.081  0.00  0.00     0.018 A 
ATOM     19  C   UNL d   1      -3.550  -0.101   1.140  0.00  0.00     0.016 A 
ENDBRANCH   2  13
TORSDOF 1
