REMARK  3 active torsions:
REMARK  status: ('A' for Active; 'I' for Inactive)
REMARK    1  A    between atoms: C_7  and  N_2 
REMARK    2  A    between atoms: C_10  and  N_3 
REMARK    3  A    between atoms: C_11  and  C_5 
ROOT
ATOM      1  C   UNL d   1       0.961  -0.974  -0.208  0.00  0.00     0.157 A 
ATOM      2  N   UNL d   1      -0.423  -1.271  -0.099  0.00  0.00    -0.294 N 
ATOM      3  N   UNL d   1       2.097  -1.544  -0.410  0.00  0.00    -0.322 N 
ATOM      4  HN  UNL d   1       2.935  -0.963  -0.371  1.00  0.00     0.169 HD
ATOM      5  C   UNL d   1      -1.259  -0.105   0.058  0.00  0.00     0.033 A 
ATOM      6  S   UNL d   1       1.171   0.800   0.006  0.00  0.00    -0.063 SA
ATOM      7  C   UNL d   1      -0.531   1.036   0.117  0.00  0.00     0.079 A 
ENDROOT
BRANCH   2   8
ATOM      8  C   UNL d   1      -0.869  -2.625  -0.027  0.00  0.00     0.042 C 
ATOM      9  C   UNL d   1      -0.344  -3.517   0.927  0.00  0.00     0.037 C 
ATOM     10  C   UNL d   1      -0.680  -4.887   0.930  0.00  0.00    -0.054 C 
ATOM     11  C   UNL d   1       0.091  -5.834   1.810  0.00  0.00     0.049 C 
ATOM     12  C   UNL d   1      -1.688  -5.352   0.068  0.00  0.00    -0.056 C 
ATOM     13  C   UNL d   1      -2.209  -4.475  -0.888  0.00  0.00     0.009 C 
ATOM     14  C   UNL d   1      -2.152  -6.782   0.068  0.00  0.00     0.049 C 
ATOM     15  C   UNL d   1      -1.764  -3.152  -0.964  0.00  0.00     0.030 C 
ENDBRANCH   2   8
BRANCH   3  16
ATOM     16  C   UNL d   1       2.257  -2.892  -0.677  0.00  0.00     0.106 A 
ATOM     17  N   UNL d   1       1.532  -3.431  -1.671  0.00  0.00    -0.352 N 
ATOM     18  C   UNL d   1       1.708  -4.750  -1.901  0.00  0.00     0.089 A 
ATOM     19  HN  UNL d   1       0.881  -2.873  -2.223  1.00  0.00     0.166 HD
ATOM     20  C   UNL d   1       2.623  -5.543  -1.225  0.00  0.00     0.017 A 
ATOM     21  C   UNL d   1       3.411  -4.947  -0.251  0.00  0.00     0.005 A 
ATOM     22  C   UNL d   1       3.227  -3.598   0.027  0.00  0.00     0.048 A 
ENDBRANCH   3  16
BRANCH   5  23
ATOM     23  C   UNL d   1      -2.811  -0.028   0.154  0.00  0.00    -0.008 C 
ATOM     24  C   UNL d   1      -3.465  -1.087   1.064  0.00  0.00     0.021 C 
ATOM     25  C   UNL d   1      -3.296   1.327   0.773  0.00  0.00     0.021 C 
ATOM     26  C   UNL d   1      -3.430  -0.041  -1.260  0.00  0.00     0.021 C 
ENDBRANCH   5  23
TORSDOF 3
