REMARK  5 active torsions:
REMARK  status: ('A' for Active; 'I' for Inactive)
REMARK    1  A    between atoms: C_2  and  C_1 
REMARK       I    between atoms: N_5  and  C_1 
REMARK    2  A    between atoms: C_3  and  C_4 
REMARK    3  A    between atoms: O_11  and  C_3 
REMARK    4  A    between atoms: C_10  and  N_5 
REMARK    5  A    between atoms: C_12  and  C_10 
ROOT
ATOM      1  C   UNL d   1       1.043   0.955  -0.253  0.00  0.00     0.241 C 
ATOM      2  N   UNL d   1       0.320   0.139  -1.083  0.00  0.00    -0.353 N 
ATOM      3  O   UNL d   1       0.564   1.813   0.476  0.00  0.00    -0.269 OA
ATOM      4  H   UNL d   1       0.788  -0.545  -1.663  0.00  0.00     0.163 HD
ENDROOT
BRANCH   2   5
ATOM      5  C   UNL d   1      -1.123   0.206  -1.173  0.00  0.00     0.161 C 
BRANCH   5   6
ATOM      6  C   UNL d   1      -1.570   0.490  -2.582  0.00  0.00    -0.038 A 
ATOM      7  C   UNL d   1      -2.360  -0.420  -3.292  0.00  0.00     0.025 A 
ATOM      8  C   UNL d   1      -2.750  -0.099  -4.585  0.00  0.00     0.088 A 
ATOM      9  N   UNL d   1      -2.412   1.049  -5.208  0.00  0.00    -0.375 N 
ATOM     10  C   UNL d   1      -1.657   1.920  -4.505  0.00  0.00     0.088 A 
ATOM     11  HN  UNL d   1      -2.711   1.249  -6.162  1.00  0.00     0.164 HD
ATOM     12  C   UNL d   1      -1.222   1.691  -3.209  0.00  0.00     0.025 A 
ENDBRANCH   5   6
ENDBRANCH   2   5
BRANCH   1  13
ATOM     13  C   UNL d   1       2.502   0.708  -0.319  0.00  0.00     0.080 C 
ATOM     14  C   UNL d   1       3.334   1.440   0.439  0.00  0.00     0.086 C 
BRANCH  14  15
ATOM     15  C   UNL d   1       4.779   1.175   0.349  0.00  0.00     0.165 C 
ATOM     16  O   UNL d   1       5.276   0.326  -0.371  0.00  0.00    -0.647 OA
BRANCH  15  17
ATOM     17  O   UNL d   1       5.500   1.977   1.154  0.00  0.00    -0.773 OA
ATOM     18  H   UNL d   1       4.991   2.617   1.683  0.00  0.00     0.167 HD
ENDBRANCH  15  17
ENDBRANCH  14  15
ENDBRANCH   1  13
TORSDOF 5
