REMARK  2 active torsions:
REMARK  status: ('A' for Active; 'I' for Inactive)
REMARK       I    between atoms: N_2  and  C_1 
REMARK    1  A    between atoms: C_4  and  C_1 
REMARK    2  A    between atoms: C_7  and  N_2 
ROOT
ATOM      1  N   UNL d   1       5.028  -0.748   4.921  0.00  0.00    -0.191 NA
ATOM      2  C   UNL d   1       4.117  -1.178   4.347  0.00  0.00     0.099 C 
ATOM      3  C   UNL d   1       1.258  -1.502   1.959  0.00  0.00     0.036 A 
ATOM      4  C   UNL d   1       2.989  -1.724   3.649  0.00  0.00     0.046 A 
ATOM      5  C   UNL d   1       2.354  -0.976   2.647  0.00  0.00     0.052 A 
ATOM      6  C   UNL d   1       1.419  -3.523   3.301  0.00  0.00     0.004 A 
ATOM      7  C   UNL d   1       0.783  -2.773   2.308  0.00  0.00     0.029 A 
ATOM      8  C   UNL d   1       2.524  -3.001   3.969  0.00  0.00     0.023 A 
ENDROOT
BRANCH   3   9
ATOM      9  N   UNL d   1       0.588  -0.829   0.917  0.00  0.00    -0.325 N 
ATOM     10  C   UNL d   1       0.996   0.327   0.259  0.00  0.00     0.255 C 
ATOM     11  O   UNL d   1       2.031   0.950   0.498  0.00  0.00    -0.270 OA
ATOM     12  H   UNL d   1      -0.237  -1.287   0.541  0.00  0.00     0.169 HD
BRANCH  10  13
ATOM     13  C   UNL d   1       0.041   0.807  -0.834  0.00  0.00     0.270 C 
ATOM     14 CL   UNL d   1      -0.313  -0.526  -1.957  0.00  0.00    -0.098 Cl
ATOM     15 CL   UNL d   1      -1.456   1.392  -0.079  0.00  0.00    -0.098 Cl
ENDBRANCH  10  13
ENDBRANCH   3   9
TORSDOF 2
