REMARK  3 active torsions:
REMARK  status: ('A' for Active; 'I' for Inactive)
REMARK    1  A    between atoms: N_2  and  C_1 
REMARK    2  A    between atoms: N_3  and  C_6 
REMARK    3  A    between atoms: N_7  and  C_5 
REMARK       I    between atoms: C_9  and  N_7 
ROOT
ATOM      1  C   UNL d   1       1.452  -0.275   0.069  0.00  0.00     0.132 A 
ATOM      2  C   UNL d   1       0.538  -1.343   0.082  0.00  0.00     0.074 A 
ATOM      3  C   UNL d   1       1.017   1.063  -0.020  0.00  0.00     0.068 A 
ATOM      4  C   UNL d   1      -0.829  -1.059   0.022  0.00  0.00     0.105 A 
ATOM      5  C   UNL d   1      -0.359   1.321  -0.006  0.00  0.00     0.034 A 
ATOM      6  C   UNL d   1      -1.281   0.268  -0.003  0.00  0.00     0.038 A 
ENDROOT
BRANCH   3   7
ATOM      7  N   UNL d   1       1.861   2.186  -0.186  0.00  0.00    -0.325 N 
ATOM      8  C   UNL d   1       2.883   2.189  -1.122  0.00  0.00     0.218 C 
ATOM      9  O   UNL d   1       3.140   1.247  -1.864  0.00  0.00    -0.274 OA
ATOM     10  C   UNL d   1       3.651   3.481  -1.184  0.00  0.00     0.117 C 
ATOM     11  H   UNL d   1       1.483   3.095   0.056  0.00  0.00     0.169 HD
ENDBRANCH   3   7
BRANCH   1  12
ATOM     12  N   UNL d   1       2.850  -0.600   0.342  0.00  0.00    -0.113 N 
ATOM     13  O   UNL d   1       3.320  -1.599  -0.222  0.00  0.00    -0.532 OA
ATOM     14  O   UNL d   1       3.432   0.075   1.200  0.00  0.00    -0.532 OA
ENDBRANCH   1  12
BRANCH   4  15
ATOM     15  N   UNL d   1      -1.804  -2.156   0.007  0.00  0.00    -0.116 N 
ATOM     16  O   UNL d   1      -1.370  -3.312   0.087  0.00  0.00    -0.532 OA
ATOM     17  O   UNL d   1      -3.004  -1.857  -0.080  0.00  0.00    -0.532 OA
ENDBRANCH   4  15
TORSDOF 3
