REMARK  9 active torsions:
REMARK  status: ('A' for Active; 'I' for Inactive)
REMARK    1  A    between atoms: C_11  and  N_1 
REMARK    2  A    between atoms: C_10  and  N_2 
REMARK    3  A    between atoms: C_8  and  C_3 
REMARK    4  A    between atoms: C_19  and  C_3 
REMARK    5  A    between atoms: N_6  and  C_7 
REMARK    6  A    between atoms: N_17  and  C_8 
REMARK    7  A    between atoms: C_18  and  N_17 
REMARK    8  A    between atoms: C_27  and  C_19 
REMARK    9  A    between atoms: C_28  and  C_27 
ROOT
ATOM      1  N   UNL d   1       0.728   1.150  -0.104  0.00  0.00    -0.213 N 
ATOM      2  N   UNL d   1      -0.592   1.181   0.414  0.00  0.00    -0.213 N 
ATOM      3  C   UNL d   1      -0.111  -1.046  -0.251  0.00  0.00     0.138 C 
ATOM      4  C   UNL d   1       1.115  -0.159  -0.386  0.00  0.00     0.263 C 
ATOM      5  C   UNL d   1      -1.210  -0.043   0.070  0.00  0.00     0.263 C 
ATOM      6  O   UNL d   1      -2.414  -0.251  -0.001  0.00  0.00    -0.270 OA
ATOM      7  O   UNL d   1       2.236  -0.572  -0.659  0.00  0.00    -0.270 OA
ENDROOT
BRANCH   3   8
ATOM      8  C   UNL d   1       0.189  -2.003   0.916  0.00  0.00     0.121 C 
BRANCH   8   9
ATOM      9  N   UNL d   1      -0.919  -2.900   1.272  0.00  0.00    -0.291 NA
ATOM     10  H   UNL d   1      -0.577  -3.793   1.641  0.00  0.00     0.127 HD
BRANCH   9  11
ATOM     11  C   UNL d   1      -1.942  -2.429   2.104  0.00  0.00     0.010 A 
ATOM     12  C   UNL d   1      -3.248  -2.852   1.845  0.00  0.00     0.060 A 
ATOM     13  C   UNL d   1      -4.331  -2.430   2.647  0.00  0.00     0.110 A 
ATOM     14  C   UNL d   1      -4.104  -1.599   3.763  0.00  0.00    -0.029 A 
ATOM     15  C   UNL d   1      -2.777  -1.248   4.058  0.00  0.00     0.011 A 
ATOM     16  C   UNL d   1      -5.181  -1.062   4.668  0.00  0.00     0.050 C 
ATOM     17  C   UNL d   1      -1.714  -1.671   3.251  0.00  0.00     0.024 A 
BRANCH  13  18
ATOM     18  N   UNL d   1      -5.676  -2.906   2.264  0.00  0.00    -0.115 N 
ATOM     19  O   UNL d   1      -5.755  -3.750   1.356  0.00  0.00    -0.532 OA
ATOM     20  O   UNL d   1      -6.663  -2.464   2.869  0.00  0.00    -0.532 OA
ENDBRANCH  13  18
ENDBRANCH   9  11
ENDBRANCH   8   9
ENDBRANCH   3   8
BRANCH   3  21
ATOM     21  C   UNL d   1      -0.281  -1.698  -1.639  0.00  0.00     0.031 C 
BRANCH  21  22
ATOM     22  C   UNL d   1      -1.390  -2.734  -1.795  0.00  0.00     0.001 C 
BRANCH  22  23
ATOM     23  C   UNL d   1      -1.440  -3.245  -3.237  0.00  0.00    -0.005 C 
ATOM     24  C   UNL d   1      -2.558  -4.254  -3.425  0.00  0.00     0.005 C 
ENDBRANCH  22  23
ENDBRANCH  21  22
ENDBRANCH   3  21
BRANCH   1  25
ATOM     25  C   UNL d   1       1.618   2.253  -0.166  0.00  0.00     0.060 A 
ATOM     26  C   UNL d   1       2.570   2.325  -1.195  0.00  0.00     0.031 A 
ATOM     27  C   UNL d   1       3.433   3.418  -1.302  0.00  0.00     0.002 A 
ATOM     28  C   UNL d   1       3.372   4.446  -0.366  0.00  0.00     0.000 A 
ATOM     29  C   UNL d   1       2.446   4.381   0.671  0.00  0.00     0.002 A 
ATOM     30  C   UNL d   1       1.571   3.295   0.766  0.00  0.00     0.031 A 
ENDBRANCH   1  25
BRANCH   2  31
ATOM     31  C   UNL d   1      -1.393   2.347   0.290  0.00  0.00     0.060 A 
ATOM     32  C   UNL d   1      -1.816   2.978   1.465  0.00  0.00     0.031 A 
ATOM     33  C   UNL d   1      -2.552   4.161   1.401  0.00  0.00     0.002 A 
ATOM     34  C   UNL d   1      -2.899   4.696   0.161  0.00  0.00     0.000 A 
ATOM     35  C   UNL d   1      -2.511   4.050  -1.014  0.00  0.00     0.002 A 
ATOM     36  C   UNL d   1      -1.751   2.879  -0.954  0.00  0.00     0.031 A 
ENDBRANCH   2  31
TORSDOF 9
