REMARK  2 active torsions:
REMARK  status: ('A' for Active; 'I' for Inactive)
REMARK    1  A    between atoms: C_11  and  C_5 
REMARK    2  A    between atoms: O_20  and  C_13 
ROOT
ATOM      1  C   UNL d   1      -2.489   0.531  -0.349  0.00  0.00     0.003 C 
ATOM      2  C   UNL d   1      -1.272   1.367  -0.171  0.00  0.00     0.190 C 
ATOM      3  C   UNL d   1       0.032   0.653  -0.050  0.00  0.00     0.034 A 
ATOM      4  S   UNL d   1      -1.264  -1.855  -0.147  0.00  0.00    -0.124 SA
ATOM      5  C   UNL d   1      -3.412   0.957  -1.233  0.00  0.00     0.023 C 
ATOM      6  C   UNL d   1       0.136  -0.750  -0.081  0.00  0.00     0.015 A 
ATOM      7  C   UNL d   1      -2.529  -0.718   0.467  0.00  0.00     0.122 C 
ATOM      8  C   UNL d   1       1.194   1.433   0.038  0.00  0.00     0.059 A 
ATOM      9  O   UNL d   1      -1.331   2.590  -0.154  0.00  0.00    -0.287 OA
ATOM     10  C   UNL d   1       1.404  -1.350  -0.061  0.00  0.00     0.022 A 
ATOM     11  C   UNL d   1       2.438   0.816   0.071  0.00  0.00     0.117 A 
ATOM     12  C   UNL d   1       2.555  -0.567   0.015  0.00  0.00     0.043 A 
ATOM     13  F   UNL d   1       3.545   1.564   0.147  0.00  0.00    -0.206 F 
ENDROOT
BRANCH   5  14
ATOM     14  C   UNL d   1      -4.560   0.125  -1.591  0.00  0.00    -0.035 A 
ATOM     15  C   UNL d   1      -5.742   0.180  -0.851  0.00  0.00     0.014 A 
ATOM     16  C   UNL d   1      -6.750  -0.759  -1.088  0.00  0.00     0.037 A 
ATOM     17  C   UNL d   1      -6.598  -1.741  -2.071  0.00  0.00     0.068 A 
ATOM     18  C   UNL d   1      -5.434  -1.769  -2.837  0.00  0.00     0.037 A 
ATOM     19  C   UNL d   1      -4.418  -0.839  -2.596  0.00  0.00     0.014 A 
BRANCH  17  20
ATOM     20  O   UNL d   1      -7.616  -2.651  -2.136  0.00  0.00    -0.356 OA
ATOM     21  C   UNL d   1      -7.784  -3.330  -3.374  0.00  0.00     0.210 C 
ENDBRANCH  17  20
ENDBRANCH   5  14
TORSDOF 2
