REMARK  3 active torsions:
REMARK  status: ('A' for Active; 'I' for Inactive)
REMARK    1  A    between atoms: C_2  and  S_1 
REMARK    2  A    between atoms: N_3  and  S_1 
REMARK       I    between atoms: C_5  and  N_4 
REMARK    3  A    between atoms: C_18  and  C_5 
ROOT
ATOM      1  N   UNL d   1       0.315   0.111  -1.157  0.00  0.00    -0.304 N 
ATOM      2  N   UNL d   1      -2.010   1.837  -1.081  0.00  0.00    -0.349 N 
ATOM      3  C   UNL d   1      -3.135   2.618  -1.330  0.00  0.00     0.224 C 
ATOM      4  C   UNL d   1       0.404   1.558  -1.488  0.00  0.00     0.155 C 
ATOM      5  C   UNL d   1      -1.040  -0.455  -1.432  0.00  0.00     0.155 C 
ATOM      6  C   UNL d   1      -2.177   0.393  -0.831  0.00  0.00     0.146 C 
ATOM      7  C   UNL d   1      -0.678   2.340  -0.725  0.00  0.00     0.146 C 
ATOM      8  O   UNL d   1      -4.250   2.108  -1.439  0.00  0.00    -0.273 OA
ENDROOT
BRANCH   1   9
ATOM      9  S   UNL d   1       1.157  -0.413   0.217  0.00  0.00     0.262 S 
ATOM     10  O   UNL d   1       1.259   0.714   1.118  0.00  0.00    -0.200 OA
ATOM     11  O   UNL d   1       0.627  -1.679   0.676  0.00  0.00    -0.200 OA
BRANCH   9  12
ATOM     12  C   UNL d   1       2.784  -0.715  -0.440  0.00  0.00     0.102 A 
ATOM     13  C   UNL d   1       3.013  -1.722  -1.378  0.00  0.00     0.059 A 
ATOM     14  C   UNL d   1       4.304  -1.905  -1.885  0.00  0.00     0.050 A 
ATOM     15 CL   UNL d   1       1.794  -2.781  -1.988  0.00  0.00    -0.083 Cl
ATOM     16  C   UNL d   1       5.367  -1.106  -1.454  0.00  0.00     0.041 A 
ATOM     17  C   UNL d   1       5.162  -0.114  -0.485  0.00  0.00    -0.039 A 
ATOM     18 CL   UNL d   1       6.911  -1.393  -2.171  0.00  0.00    -0.084 Cl
ATOM     19  C   UNL d   1       3.857   0.077   0.011  0.00  0.00     0.035 A 
ATOM     20  C   UNL d   1       6.263   0.752   0.065  0.00  0.00     0.050 C 
ENDBRANCH   9  12
ENDBRANCH   1   9
BRANCH   3  21
ATOM     21  C   UNL d   1      -2.947   4.143  -1.465  0.00  0.00     0.078 C 
ATOM     22  C   UNL d   1      -4.279   4.917  -1.449  0.00  0.00     0.014 C 
ATOM     23  C   UNL d   1      -5.048   4.882  -2.771  0.00  0.00     0.001 C 
ATOM     24  C   UNL d   1      -4.184   5.229  -3.977  0.00  0.00     0.000 C 
ATOM     25  C   UNL d   1      -2.881   4.444  -4.005  0.00  0.00     0.001 C 
ATOM     26  C   UNL d   1      -2.117   4.551  -2.692  0.00  0.00     0.014 C 
ENDBRANCH   3  21
TORSDOF 3
