REMARK  5 active torsions:
REMARK  status: ('A' for Active; 'I' for Inactive)
REMARK    1  A    between atoms: C_7  and  N_1 
REMARK    2  A    between atoms: C_13  and  C_7 
REMARK    3  A    between atoms: C_15  and  C_13 
REMARK    4  A    between atoms: O_21  and  C_13 
REMARK    5  A    between atoms: N_17  and  C_15 
ROOT
ATOM      1  N   UNL d   1       0.117  -1.544  -0.472  0.00  0.00    -0.342 N 
ATOM      2  C   UNL d   1       1.231  -0.718  -0.570  0.00  0.00     0.064 A 
ATOM      3  C   UNL d   1       0.762   0.584  -0.319  0.00  0.00     0.006 A 
ATOM      4  C   UNL d   1      -0.662   0.542  -0.273  0.00  0.00     0.005 A 
ATOM      5  C   UNL d   1      -1.046  -0.790  -0.373  0.00  0.00     0.046 A 
ATOM      6  C   UNL d   1       2.609  -0.935  -0.818  0.00  0.00     0.040 A 
ATOM      7  C   UNL d   1       3.506   0.130  -0.657  0.00  0.00     0.040 A 
ATOM      8  C   UNL d   1      -2.401  -1.169  -0.332  0.00  0.00     0.032 A 
ATOM      9  C   UNL d   1       1.685   1.644  -0.188  0.00  0.00     0.033 A 
ATOM     10  C   UNL d   1      -1.656   1.539  -0.142  0.00  0.00     0.033 A 
ATOM     11  C   UNL d   1       3.047   1.393  -0.314  0.00  0.00     0.013 A 
ATOM     12 BR   UNL d   1       3.331  -2.570  -1.442  0.00  0.00    -0.049 Br
ATOM     13  C   UNL d   1      -3.000   1.162  -0.102  0.00  0.00     0.011 A 
ATOM     14  C   UNL d   1      -3.371  -0.172  -0.194  0.00  0.00     0.021 A 
ATOM     15 BR   UNL d   1       4.282   2.795  -0.025  0.00  0.00    -0.051 Br
ATOM     16 BR   UNL d   1      -4.332   2.491   0.091  0.00  0.00    -0.051 Br
ENDROOT
BRANCH   1  17
ATOM     17  C   UNL d   1       0.118  -2.994  -0.363  0.00  0.00     0.163 C 
BRANCH  17  18
ATOM     18  C   UNL d   1       0.712  -3.553   0.937  0.00  0.00     0.164 C 
BRANCH  18  19
ATOM     19  C   UNL d   1       0.108  -2.966   2.239  0.00  0.00     0.304 C 
BRANCH  19  20
ATOM     20  N   UNL d   1       0.630  -3.656   3.450  0.00  0.00     0.082 N 
ATOM     21  C   UNL d   1       2.061  -3.393   3.663  0.00  0.00     0.309 C 
ATOM     22  C   UNL d   1      -0.102  -3.206   4.647  0.00  0.00     0.309 C 
ENDBRANCH  19  20
ENDBRANCH  18  19
BRANCH  18  23
ATOM     23  O   UNL d   1       0.490  -4.975   0.940  0.00  0.00    -0.392 OA
ATOM     24  H   UNL d   1       0.464  -5.229   1.886  0.00  0.00     0.210 HD
ENDBRANCH  18  23
ENDBRANCH  17  18
ENDBRANCH   1  17
TORSDOF 5
