REMARK  0 active torsions:
REMARK  status: ('A' for Active; 'I' for Inactive)
ROOT
ATOM      1  C   UNL d   1       0.955  -0.793   0.009  0.00  0.00     0.092 A 
ATOM      2  C   UNL d   1       0.466   0.503  -0.043  0.00  0.00     0.073 A 
ATOM      3  C   UNL d   1       1.419   1.586  -0.051  0.00  0.00     0.260 A 
ATOM      4  N   UNL d   1       2.266  -1.158   0.052  0.00  0.00    -0.340 N 
ATOM      5  HN  UNL d   1       2.568  -2.132   0.087  1.00  0.00     0.167 HD
ATOM      6  S   UNL d   1      -0.322  -1.959   0.016  0.00  0.00    -0.075 SA
ATOM      7  C   UNL d   1      -0.940   0.522  -0.075  0.00  0.00    -0.026 A 
ATOM      8  N   UNL d   1       2.727   1.166  -0.004  0.00  0.00    -0.312 N 
ATOM      9  C   UNL d   1      -1.468  -0.740  -0.044  0.00  0.00    -0.008 A 
ATOM     10  C   UNL d   1       3.098  -0.162   0.045  0.00  0.00     0.080 A 
ATOM     11  O   UNL d   1       1.116   2.774  -0.094  0.00  0.00    -0.267 OA
ATOM     12  C   UNL d   1      -2.003   1.553  -0.125  0.00  0.00     0.041 C 
ATOM     13  C   UNL d   1      -2.950  -0.764  -0.065  0.00  0.00     0.047 C 
ATOM     14  C   UNL d   1       4.580  -0.407   0.091  0.00  0.00     0.089 C 
ATOM     15  C   UNL d   1      -3.268   0.729   0.269  0.00  0.00     0.010 C 
ATOM     16  H   UNL d   1       3.414   1.904  -0.007  0.00  0.00     0.170 HD
ENDROOT
TORSDOF 0
