REMARK  7 active torsions:
REMARK  status: ('A' for Active; 'I' for Inactive)
REMARK    1  A    between atoms: C_19  and  C_3 
REMARK    2  A    between atoms: S_13  and  C_4 
REMARK    3  A    between atoms: O_18  and  C_5 
REMARK    4  A    between atoms: C_8  and  C_15 
REMARK    5  A    between atoms: O_20  and  C_9 
REMARK    6  A    between atoms: C_15  and  S_13 
REMARK    7  A    between atoms: O_21  and  C_19 
ROOT
ATOM      1  C   UNL d   1       3.614  -5.113  -0.037  0.00  0.00     0.009 A 
ATOM      2  C   UNL d   1       4.442  -6.249   0.073  0.00  0.00     0.096 A 
ATOM      3  N   UNL d   1       6.415  -4.891   0.305  0.00  0.00    -0.367 N 
ATOM      4  HN  UNL d   1       7.426  -4.798   0.401  1.00  0.00     0.165 HD
ATOM      5  C   UNL d   1       4.222  -3.841   0.091  0.00  0.00    -0.022 A 
ATOM      6  C   UNL d   1       5.821  -6.105   0.233  0.00  0.00     0.039 A 
ATOM      7  C   UNL d   1       5.612  -3.807   0.245  0.00  0.00     0.096 A 
ATOM      8  C   UNL d   1       6.716  -7.305   0.313  0.00  0.00     0.071 C 
ENDROOT
BRANCH   5   9
ATOM      9  C   UNL d   1       3.483  -2.515   0.054  0.00  0.00     0.123 C 
BRANCH   9  10
ATOM     10  S   UNL d   1       2.296  -2.337   1.422  0.00  0.00    -0.089 SA
BRANCH  10  11
ATOM     11  C   UNL d   1       1.806  -0.637   1.251  0.00  0.00     0.146 A 
ATOM     12  N   UNL d   1       0.841  -0.230   2.088  0.00  0.00    -0.318 N 
ATOM     13  C   UNL d   1       0.532   1.068   2.020  0.00  0.00     0.142 A 
ATOM     14  HN  UNL d   1       0.374  -0.867   2.733  1.00  0.00     0.170 HD
ATOM     15  C   UNL d   1       1.114   1.980   1.183  0.00  0.00     0.073 A 
ATOM     16  C   UNL d   1       2.074   1.455   0.357  0.00  0.00     0.094 A 
ATOM     17  N   UNL d   1       2.439   0.154   0.366  0.00  0.00    -0.347 N 
ATOM     18  HN  UNL d   1       3.156  -0.209  -0.263  1.00  0.00     0.167 HD
BRANCH  13  19
ATOM     19  O   UNL d   1      -0.434   1.459   2.886  0.00  0.00    -0.346 OA
ATOM     20  H   UNL d   1      -0.630   0.614   3.334  0.00  0.00     0.219 HD
ENDBRANCH  13  19
ENDBRANCH  10  11
ENDBRANCH   9  10
ENDBRANCH   5   9
BRANCH   1  21
ATOM     21  C   UNL d   1       2.122  -5.257  -0.211  0.00  0.00     0.206 C 
BRANCH  21  22
ATOM     22  O   UNL d   1       1.815  -6.454  -0.931  0.00  0.00    -0.396 OA
ATOM     23  H   UNL d   1       1.733  -6.196  -1.868  0.00  0.00     0.209 HD
ENDBRANCH  21  22
ENDBRANCH   1  21
BRANCH   2  24
ATOM     24  O   UNL d   1       3.929  -7.520   0.026  0.00  0.00    -0.358 OA
ATOM     25  H   UNL d   1       2.985  -7.447  -0.234  0.00  0.00     0.217 HD
ENDBRANCH   2  24
TORSDOF 7
