REMARK  4 active torsions:
REMARK  status: ('A' for Active; 'I' for Inactive)
REMARK    1  A    between atoms: C_13  and  C_5 
REMARK    2  A    between atoms: C_12  and  C_7 
REMARK    3  A    between atoms: O_19  and  C_13 
REMARK    4  A    between atoms: C_21  and  O_19 
ROOT
ATOM      1  N   UNL d   1      -0.208  -0.647  -0.010  0.00  0.00    -0.243 N 
ATOM      2  C   UNL d   1      -0.136   0.746  -0.086  0.00  0.00     0.129 A 
ATOM      3  N   UNL d   1      -1.503  -1.065   0.039  0.00  0.00    -0.291 N 
ATOM      4  HN  UNL d   1      -1.842  -2.024   0.114  1.00  0.00     0.187 HD
ATOM      5  C   UNL d   1       2.163  -0.824   0.009  0.00  0.00     0.079 A 
ATOM      6  C   UNL d   1       0.957  -1.442   0.022  0.00  0.00     0.050 A 
ATOM      7  C   UNL d   1      -2.234   0.055  -0.031  0.00  0.00     0.069 A 
ATOM      8  C   UNL d   1      -1.429   1.204  -0.112  0.00  0.00     0.082 A 
ATOM      9  N   UNL d   1       1.048   1.418  -0.126  0.00  0.00    -0.350 N 
ATOM     10  HN  UNL d   1       1.097   2.434  -0.188  1.00  0.00     0.166 HD
ATOM     11  C   UNL d   1       2.108   0.673  -0.077  0.00  0.00     0.109 A 
ATOM     12  C   UNL d   1       0.723  -2.929   0.062  0.00  0.00     0.071 C 
ENDROOT
BRANCH   5  13
ATOM     13  C   UNL d   1       3.472  -1.512   0.134  0.00  0.00     0.296 C 
ATOM     14  O   UNL d   1       3.645  -2.615   0.623  0.00  0.00    -0.259 OA
BRANCH  13  15
ATOM     15  O   UNL d   1       4.455  -0.678  -0.294  0.00  0.00    -0.318 OA
BRANCH  15  16
ATOM     16  C   UNL d   1       5.796  -1.049   0.061  0.00  0.00     0.174 C 
ATOM     17  C   UNL d   1       6.103  -0.497   1.442  0.00  0.00     0.034 C 
ENDBRANCH  15  16
ENDBRANCH  13  15
ENDBRANCH   5  13
BRANCH   7  18
ATOM     18  C   UNL d   1      -3.734   0.032  -0.025  0.00  0.00     0.033 A 
ATOM     19  S   UNL d   1      -4.716   1.419  -0.223  0.00  0.00    -0.100 SA
ATOM     20  C   UNL d   1      -6.152   0.497  -0.121  0.00  0.00     0.050 A 
ATOM     21  C   UNL d   1      -5.893  -0.838   0.085  0.00  0.00     0.008 A 
ATOM     22  C   UNL d   1      -4.493  -1.108   0.139  0.00  0.00     0.021 A 
ENDBRANCH   7  18
TORSDOF 4
