REMARK  3 active torsions:
REMARK  status: ('A' for Active; 'I' for Inactive)
REMARK    1  A    between atoms: C_2  and  C_1 
REMARK       I    between atoms: N_3  and  C_2 
REMARK    2  A    between atoms: C_8  and  C_4 
REMARK    3  A    between atoms: S_16  and  C_7 
ROOT
ATOM      1  C   UNL d   1      -0.189  -1.341  -0.024  0.00  0.00     0.093 A 
ATOM      2  C   UNL d   1      -1.473  -0.752   0.239  0.00  0.00     0.088 A 
ATOM      3  N   UNL d   1      -1.343   0.564   0.472  0.00  0.00    -0.259 N 
ATOM      4  HN  UNL d   1      -2.094   1.219   0.692  1.00  0.00     0.195 HD
ATOM      5  O   UNL d   1      -0.009   0.859   0.356  0.00  0.00    -0.241 OA
ATOM      6  C   UNL d   1       0.682  -0.270   0.076  0.00  0.00     0.090 A 
ATOM      7  C   UNL d   1       2.148  -0.122  -0.045  0.00  0.00     0.080 C 
ENDROOT
BRANCH   1   8
ATOM      8  C   UNL d   1       0.274  -2.710  -0.238  0.00  0.00     0.264 C 
ATOM      9  N   UNL d   1      -0.451  -3.558  -1.082  0.00  0.00    -0.292 N 
ATOM     10  C   UNL d   1      -0.350  -4.944  -1.206  0.00  0.00     0.144 A 
ATOM     11  C   UNL d   1      -1.319  -3.130  -2.145  0.00  0.00     0.154 A 
ATOM     12  N   UNL d   1      -1.055  -5.501  -2.136  0.00  0.00    -0.369 N 
ATOM     13  C   UNL d   1      -1.778  -4.411  -2.808  0.00  0.00     0.142 A 
ATOM     14  HN  UNL d   1      -1.101  -6.495  -2.359  1.00  0.00     0.161 HD
ATOM     15  O   UNL d   1       1.355  -3.037   0.245  0.00  0.00    -0.267 OA
BRANCH  10  16
ATOM     16  S   UNL d   1       0.641  -5.890  -0.145  0.00  0.00    -0.098 SA
ATOM     17  C   UNL d   1       0.572  -7.501  -0.957  0.00  0.00     0.099 C 
ENDBRANCH  10  16
ENDBRANCH   1   8
BRANCH   2  18
ATOM     18  C   UNL d   1      -2.798  -1.372   0.291  0.00  0.00     0.054 A 
ATOM     19  C   UNL d   1      -2.957  -2.598   0.953  0.00  0.00     0.130 A 
ATOM     20  F   UNL d   1      -1.938  -3.136   1.638  0.00  0.00    -0.205 F 
ATOM     21  C   UNL d   1      -4.141  -3.328   0.867  0.00  0.00     0.043 A 
ATOM     22  C   UNL d   1      -5.215  -2.824   0.142  0.00  0.00     0.005 A 
ATOM     23  C   UNL d   1      -5.106  -1.580  -0.475  0.00  0.00     0.025 A 
ATOM     24  C   UNL d   1      -3.907  -0.855  -0.406  0.00  0.00     0.049 A 
ATOM     25 CL   UNL d   1      -3.860   0.616  -1.322  0.00  0.00    -0.083 Cl
ENDBRANCH   2  18
TORSDOF 3
