REMARK  4 active torsions:
REMARK  status: ('A' for Active; 'I' for Inactive)
REMARK    1  A    between atoms: C_9  and  N_6 
REMARK    2  A    between atoms: C_10  and  C_9 
REMARK    3  A    between atoms: O_12  and  C_10 
REMARK    4  A    between atoms: C_15  and  O_12 
ROOT
ATOM      1  C   UNL d   1      -0.136  -1.353  -0.018  0.00  0.00     0.709 A 
ATOM      2  N   UNL d   1       1.112  -0.946   0.246  0.00  0.00    -0.115 N 
ATOM      3  HN  UNL d   1       1.935  -1.488   0.511  1.00  0.00     0.207 HD
ATOM      4  N   UNL d   1      -0.997  -0.292  -0.204  0.00  0.00    -0.113 N 
ATOM      5  HN  UNL d   1      -2.003  -0.350  -0.363  1.00  0.00     0.203 HD
ATOM      6  N   UNL d   1       0.975   0.377   0.064  0.00  0.00    -0.194 N 
ATOM      7  N   UNL d   1      -0.274   0.816  -0.136  0.00  0.00     0.011 NA
ATOM      8  N   UNL d   1      -0.559  -2.642  -0.134  0.00  0.00    -0.215 N 
ATOM      9  C   UNL d   1       0.486  -3.648  -0.365  0.00  0.00     0.141 C 
ATOM     10  C   UNL d   1      -1.804  -2.857  -0.882  0.00  0.00     0.141 C 
ATOM     11  C   UNL d   1      -2.358  -4.254  -0.620  0.00  0.00     0.020 C 
ATOM     12  C   UNL d   1      -0.046  -5.054  -0.099  0.00  0.00     0.020 C 
ATOM     13  C   UNL d   1      -1.316  -5.330  -0.894  0.00  0.00     0.003 C 
ENDROOT
BRANCH   6  14
ATOM     14  C   UNL d   1       2.108   1.261   0.028  0.00  0.00     0.278 C 
BRANCH  14  15
ATOM     15  C   UNL d   1       2.786   1.176  -1.308  0.00  0.00     0.280 C 
ATOM     16  O   UNL d   1       2.424   0.518  -2.270  0.00  0.00    -0.263 OA
BRANCH  15  17
ATOM     17  O   UNL d   1       3.929   1.927  -1.273  0.00  0.00    -0.320 OA
BRANCH  17  18
ATOM     18  C   UNL d   1       4.843   1.690  -2.355  0.00  0.00     0.174 C 
ATOM     19  C   UNL d   1       5.794   0.586  -1.930  0.00  0.00     0.034 C 
ENDBRANCH  17  18
ENDBRANCH  15  17
ENDBRANCH  14  15
ENDBRANCH   6  14
TORSDOF 4
