REMARK  4 active torsions:
REMARK  status: ('A' for Active; 'I' for Inactive)
REMARK    1  A    between atoms: C_3  and  C_1 
REMARK    2  A    between atoms: C_16  and  N_2 
REMARK    3  A    between atoms: C_9  and  C_6 
REMARK    4  A    between atoms: N_22  and  C_12 
ROOT
ATOM      1  C   UNL d   1      -0.484  -2.760   0.024  0.00  0.00     0.058 A 
ATOM      2  C   UNL d   1      -1.467  -3.342  -0.765  0.00  0.00     0.134 A 
ATOM      3  N   UNL d   1      -1.597  -4.706  -0.847  0.00  0.00    -0.328 N 
ATOM      4  HN  UNL d   1      -2.316  -5.125  -1.436  1.00  0.00     0.168 HD
ATOM      5  C   UNL d   1      -0.765  -5.471  -0.142  0.00  0.00     0.155 A 
ATOM      6  C   UNL d   1       0.249  -3.661   0.781  0.00  0.00     0.108 A 
ATOM      7  N   UNL d   1       0.139  -5.002   0.704  0.00  0.00    -0.342 N 
ATOM      8  HN  UNL d   1       0.720  -5.622   1.267  1.00  0.00     0.167 HD
ENDROOT
BRANCH   1   9
ATOM      9  C   UNL d   1      -0.205  -1.332   0.128  0.00  0.00     0.152 A 
ATOM     10  N   UNL d   1       1.050  -0.713   0.151  0.00  0.00    -0.224 N 
ATOM     11  N   UNL d   1       0.871   0.572   0.537  0.00  0.00     0.001 NA
ATOM     12  N   UNL d   1      -0.436   0.759   0.608  0.00  0.00    -0.007 NA
ATOM     13  N   UNL d   1      -1.111  -0.406   0.380  0.00  0.00    -0.269 N 
ATOM     14  HN  UNL d   1      -2.123  -0.535   0.401  1.00  0.00     0.185 HD
BRANCH  10  15
ATOM     15  C   UNL d   1       2.352  -1.228  -0.089  0.00  0.00     0.056 A 
ATOM     16  C   UNL d   1       2.562  -2.340  -0.915  0.00  0.00     0.032 A 
ATOM     17  C   UNL d   1       3.845  -2.881  -1.049  0.00  0.00     0.009 A 
ATOM     18  C   UNL d   1       4.933  -2.315  -0.376  0.00  0.00    -0.062 A 
ATOM     19  C   UNL d   1       4.729  -1.175   0.408  0.00  0.00     0.009 A 
ATOM     20  C   UNL d   1       6.298  -2.920  -0.524  0.00  0.00     0.048 C 
ATOM     21  C   UNL d   1       3.450  -0.625   0.542  0.00  0.00     0.032 A 
ENDBRANCH  10  15
ENDBRANCH   1   9
BRANCH   2  22
ATOM     22  C   UNL d   1      -2.486  -2.551  -1.570  0.00  0.00     0.433 C 
ATOM     23  F   UNL d   1      -2.158  -1.253  -1.820  0.00  0.00    -0.165 F 
ATOM     24  F   UNL d   1      -2.693  -3.090  -2.810  0.00  0.00    -0.165 F 
ATOM     25  F   UNL d   1      -3.712  -2.525  -0.975  0.00  0.00    -0.165 F 
ENDBRANCH   2  22
BRANCH   5  26
ATOM     26  N   UNL d   1      -0.860  -6.834  -0.289  0.00  0.00    -0.274 NA
ATOM     27  H   UNL d   1      -0.467  -7.303   0.515  0.00  0.00     0.127 HD
ATOM     28  H   UNL d   1      -1.786  -7.106  -0.584  0.00  0.00     0.127 HD
ENDBRANCH   5  26
TORSDOF 4
