REMARK  4 active torsions:
REMARK  status: ('A' for Active; 'I' for Inactive)
REMARK    1  A    between atoms: C_10  and  C_3 
REMARK    2  A    between atoms: C_12  and  C_4 
REMARK       I    between atoms: C_8  and  N_9 
REMARK    3  A    between atoms: C_11  and  C_8 
REMARK    4  A    between atoms: C_13  and  C_14 
ROOT
ATOM      1  C   UNL d   1       4.129  -4.900   1.487  0.00  0.00     0.253 C 
ATOM      2  N   UNL d   1       3.400  -3.883   0.863  0.00  0.00    -0.348 N 
ATOM      3  C   UNL d   1       1.536  -1.994  -0.124  0.00  0.00     0.066 C 
ATOM      4  C   UNL d   1       2.688  -4.169  -0.405  0.00  0.00     0.127 C 
ATOM      5  C   UNL d   1       3.513  -2.464   1.198  0.00  0.00     0.127 C 
ATOM      6  O   UNL d   1       4.281  -6.006   0.976  0.00  0.00    -0.267 OA
ATOM      7  C   UNL d   1       2.110  -1.912   1.297  0.00  0.00     0.033 C 
ATOM      8  C   UNL d   1       1.307  -3.457  -0.476  0.00  0.00     0.033 C 
ENDROOT
BRANCH   3   9
ATOM      9  C   UNL d   1       0.518  -0.930  -0.288  0.00  0.00     0.152 C 
ATOM     10  N   UNL d   1       0.878   0.321  -0.460  0.00  0.00    -0.322 N 
ATOM     11  C   UNL d   1      -0.170   1.012   0.064  0.00  0.00     0.137 C 
ATOM     12  HN  UNL d   1       1.732   0.684  -0.883  1.00  0.00     0.169 HD
ATOM     13  N   UNL d   1      -1.236   0.236   0.354  0.00  0.00    -0.242 N 
ATOM     14  O   UNL d   1      -0.751  -1.073   0.160  0.00  0.00    -0.222 OA
ATOM     15  HN  UNL d   1      -2.170   0.527   0.645  1.00  0.00     0.196 HD
BRANCH  11  16
ATOM     16  C   UNL d   1      -0.001   2.413   0.434  0.00  0.00     0.010 A 
ATOM     17  C   UNL d   1       1.305   2.952   0.503  0.00  0.00     0.017 A 
ATOM     18  C   UNL d   1       1.523   4.265   0.916  0.00  0.00     0.025 A 
ATOM     19  C   UNL d   1       0.435   5.063   1.262  0.00  0.00     0.034 A 
ATOM     20  C   UNL d   1      -0.860   4.546   1.200  0.00  0.00     0.025 A 
ATOM     21 CL   UNL d   1       0.695   6.680   1.780  0.00  0.00    -0.084 Cl
ATOM     22  C   UNL d   1      -1.078   3.222   0.798  0.00  0.00     0.017 A 
ENDBRANCH  11  16
ENDBRANCH   3   9
BRANCH   1  23
ATOM     23  C   UNL d   1       4.767  -4.652   2.819  0.00  0.00     0.032 A 
ATOM     24  C   UNL d   1       4.168  -3.876   3.816  0.00  0.00     0.017 A 
ATOM     25  C   UNL d   1       4.855  -3.582   5.000  0.00  0.00     0.009 A 
ATOM     26  C   UNL d   1       6.113  -4.143   5.276  0.00  0.00    -0.051 A 
ATOM     27  C   UNL d   1       6.654  -5.008   4.308  0.00  0.00     0.009 A 
ATOM     28  C   UNL d   1       5.997  -5.251   3.093  0.00  0.00     0.017 A 
BRANCH  26  29
ATOM     29  C   UNL d   1       6.836  -3.810   6.594  0.00  0.00    -0.024 C 
ATOM     30  C   UNL d   1       8.125  -4.633   6.808  0.00  0.00     0.019 C 
ATOM     31  C   UNL d   1       7.230  -2.317   6.608  0.00  0.00     0.019 C 
ATOM     32  C   UNL d   1       5.911  -4.091   7.800  0.00  0.00     0.019 C 
ENDBRANCH  26  29
ENDBRANCH   1  23
TORSDOF 4
