REMARK  6 active torsions:
REMARK  status: ('A' for Active; 'I' for Inactive)
REMARK    1  A    between atoms: C_3  and  C_1 
REMARK    2  A    between atoms: S_4  and  C_2 
REMARK       I    between atoms: N_14  and  C_3 
REMARK    3  A    between atoms: C_5  and  S_4 
REMARK    4  A    between atoms: C_10  and  C_6 
REMARK    5  A    between atoms: C_8  and  O_12 
REMARK    6  A    between atoms: O_12  and  C_10 
ROOT
ATOM      1  C   UNL d   1      -0.894   0.843   0.041  0.00  0.00     0.049 A 
ATOM      2  C   UNL d   1       0.483   1.115   0.184  0.00  0.00     0.021 A 
ATOM      3  C   UNL d   1      -1.360  -0.489   0.102  0.00  0.00     0.025 A 
ATOM      4  C   UNL d   1       1.346   0.018   0.323  0.00  0.00     0.020 A 
ATOM      5  C   UNL d   1      -0.486  -1.563   0.280  0.00  0.00    -0.061 A 
ATOM      6  C   UNL d   1       0.875  -1.298   0.381  0.00  0.00     0.008 A 
ATOM      7  C   UNL d   1      -0.995  -2.968   0.401  0.00  0.00     0.048 C 
ENDROOT
BRANCH   2   8
ATOM      8  S   UNL d   1       1.141   2.772   0.412  0.00  0.00    -0.089 SA
BRANCH   8   9
ATOM      9  C   UNL d   1       2.791   2.756  -0.296  0.00  0.00     0.014 A 
ATOM     10  C   UNL d   1       3.974   2.586   0.460  0.00  0.00    -0.017 A 
ATOM     11  C   UNL d   1       5.217   2.809  -0.174  0.00  0.00     0.011 A 
ATOM     12  C   UNL d   1       5.297   3.137  -1.526  0.00  0.00     0.001 A 
ATOM     13  C   UNL d   1       4.135   3.256  -2.274  0.00  0.00     0.001 A 
ATOM     14  C   UNL d   1       2.892   3.076  -1.662  0.00  0.00     0.019 A 
BRANCH  10  15
ATOM     15  C   UNL d   1       3.973   2.240   1.938  0.00  0.00     0.218 C 
BRANCH  15  16
ATOM     16  O   UNL d   1       5.167   1.517   2.313  0.00  0.00    -0.317 OA
BRANCH  16  17
ATOM     17  C   UNL d   1       5.130   0.166   2.164  0.00  0.00     0.255 C 
ATOM     18  O   UNL d   1       4.162  -0.491   1.818  0.00  0.00    -0.266 OA
ATOM     19  C   UNL d   1       6.459  -0.448   2.485  0.00  0.00     0.126 C 
ENDBRANCH  16  17
ENDBRANCH  15  16
ENDBRANCH  10  15
ENDBRANCH   8   9
ENDBRANCH   2   8
BRANCH   1  20
ATOM     20  C   UNL d   1      -1.966   1.852  -0.205  0.00  0.00     0.252 C 
ATOM     21  O   UNL d   1      -3.092   1.676   0.250  0.00  0.00    -0.268 OA
ATOM     22  N   UNL d   1      -1.659   2.899  -1.046  0.00  0.00    -0.361 N 
ATOM     23  C   UNL d   1      -2.677   3.822  -1.477  0.00  0.00     0.149 C 
ATOM     24  H   UNL d   1      -0.693   3.072  -1.290  0.00  0.00     0.162 HD
ENDBRANCH   1  20
TORSDOF 6
