REMARK  4 active torsions:
REMARK  status: ('A' for Active; 'I' for Inactive)
REMARK    1  A    between atoms: C_2  and  C_1 
REMARK    2  A    between atoms: C_15  and  N_6 
REMARK    3  A    between atoms: S_19  and  C_9 
REMARK    4  A    between atoms: N_14  and  C_16 
ROOT
ATOM      1  C   UNL d   1      -0.387  -2.836  -0.087  0.00  0.00     0.096 A 
ATOM      2  N   UNL d   1      -0.900  -3.557  -1.085  0.00  0.00    -0.290 N 
ATOM      3  HN  UNL d   1      -1.165  -3.228  -2.013  1.00  0.00     0.188 HD
ATOM      4  N   UNL d   1      -0.996  -4.825  -0.602  0.00  0.00    -0.261 N 
ATOM      5  C   UNL d   1      -0.064  -3.646   1.018  0.00  0.00     0.061 A 
ATOM      6  C   UNL d   1      -0.433  -4.928   0.663  0.00  0.00     0.033 A 
ATOM      7  C   UNL d   1      -0.181  -6.190   1.405  0.00  0.00     0.070 C 
ENDROOT
BRANCH   1   8
ATOM      8  C   UNL d   1      -0.146  -1.362  -0.156  0.00  0.00     0.152 A 
ATOM      9  N   UNL d   1      -0.521  -0.472  -1.138  0.00  0.00    -0.314 N 
ATOM     10  C   UNL d   1       0.003   0.735  -0.751  0.00  0.00     0.159 A 
ATOM     11  C   UNL d   1      -1.338  -0.717  -2.296  0.00  0.00     0.160 C 
ATOM     12  N   UNL d   1       0.611   0.610   0.404  0.00  0.00    -0.278 N 
ATOM     13  N   UNL d   1       0.502  -0.704   0.787  0.00  0.00    -0.281 N 
ATOM     14  HN  UNL d   1       1.079   1.353   0.922  1.00  0.00     0.189 HD
ATOM     15  HN  UNL d   1       0.861  -1.104   1.654  1.00  0.00     0.188 HD
BRANCH  10  16
ATOM     16  S   UNL d   1      -0.111   2.214  -1.640  0.00  0.00    -0.105 SA
ATOM     17  H   UNL d   1      -0.878   1.829  -2.665  0.00  0.00     0.110 HD
ENDBRANCH  10  16
ENDBRANCH   1   8
BRANCH   4  18
ATOM     18  C   UNL d   1      -1.602  -5.825  -1.418  0.00  0.00     0.056 A 
ATOM     19  C   UNL d   1      -1.577  -5.663  -2.814  0.00  0.00     0.034 A 
ATOM     20  C   UNL d   1      -2.119  -6.642  -3.652  0.00  0.00     0.038 A 
ATOM     21  C   UNL d   1      -2.722  -7.773  -3.090  0.00  0.00     0.103 A 
ATOM     22  C   UNL d   1      -2.796  -7.920  -1.699  0.00  0.00     0.038 A 
ATOM     23  C   UNL d   1      -2.233  -6.947  -0.866  0.00  0.00     0.034 A 
BRANCH  21  24
ATOM     24  N   UNL d   1      -3.280  -8.812  -3.963  0.00  0.00    -0.116 N 
ATOM     25  O   UNL d   1      -3.160  -8.662  -5.188  0.00  0.00    -0.532 OA
ATOM     26  O   UNL d   1      -3.834  -9.781  -3.425  0.00  0.00    -0.532 OA
ENDBRANCH  21  24
ENDBRANCH   4  18
TORSDOF 4
