REMARK  6 active torsions:
REMARK  status: ('A' for Active; 'I' for Inactive)
REMARK    1  A    between atoms: C_8  and  C_1 
REMARK    2  A    between atoms: C_9  and  C_2 
REMARK    3  A    between atoms: C_10  and  N_3 
REMARK    4  A    between atoms: O_14  and  C_8 
REMARK    5  A    between atoms: O_13  and  C_9 
REMARK    6  A    between atoms: C_15  and  C_10 
ROOT
ATOM      1  C   UNL d   1      -0.104  -0.501  -0.998  0.00  0.00     0.161 A 
ATOM      2  C   UNL d   1       1.086  -0.490  -0.275  0.00  0.00     0.158 A 
ATOM      3  N   UNL d   1      -1.051  -0.348   0.000  0.00  0.00    -0.265 N 
ATOM      4  N   UNL d   1      -0.475  -0.224   1.217  0.00  0.00    -0.239 N 
ATOM      5  HN  UNL d   1      -0.965  -0.077   2.100  1.00  0.00     0.208 HD
ATOM      6  N   UNL d   1       0.828  -0.328   1.062  0.00  0.00    -0.278 N 
ATOM      7  HN  UNL d   1       1.524  -0.293   1.807  1.00  0.00     0.189 HD
ENDROOT
BRANCH   3   8
ATOM      8  C   UNL d   1      -2.503  -0.247  -0.088  0.00  0.00     0.189 C 
BRANCH   8   9
ATOM      9  C   UNL d   1      -3.186  -1.591   0.012  0.00  0.00    -0.038 A 
ATOM     10  C   UNL d   1      -3.038  -2.396   1.153  0.00  0.00     0.009 A 
ATOM     11  C   UNL d   1      -3.700  -3.620   1.254  0.00  0.00     0.001 A 
ATOM     12  C   UNL d   1      -4.530  -4.052   0.223  0.00  0.00     0.000 A 
ATOM     13  C   UNL d   1      -4.698  -3.258  -0.910  0.00  0.00     0.001 A 
ATOM     14  C   UNL d   1      -4.031  -2.035  -1.016  0.00  0.00     0.009 A 
ENDBRANCH   8   9
ENDBRANCH   3   8
BRANCH   1  15
ATOM     15  C   UNL d   1      -0.429  -0.616  -2.396  0.00  0.00     0.198 C 
ATOM     16  O   UNL d   1      -1.557  -0.479  -2.851  0.00  0.00    -0.645 OA
BRANCH  15  17
ATOM     17  O   UNL d   1       0.604  -0.887  -3.220  0.00  0.00    -0.772 OA
ATOM     18  H   UNL d   1       1.515  -0.947  -2.854  0.00  0.00     0.167 HD
ENDBRANCH  15  17
ENDBRANCH   1  15
BRANCH   2  19
ATOM     19  C   UNL d   1       2.454  -0.601  -0.733  0.00  0.00     0.197 C 
ATOM     20  O   UNL d   1       2.754  -0.759  -1.909  0.00  0.00    -0.645 OA
BRANCH  19  21
ATOM     21  O   UNL d   1       3.377  -0.522   0.258  0.00  0.00    -0.772 OA
ATOM     22  H   UNL d   1       2.934  -0.406   1.127  0.00  0.00     0.167 HD
ENDBRANCH  19  21
ENDBRANCH   2  19
TORSDOF 6
