REMARK  1 active torsions:
REMARK  status: ('A' for Active; 'I' for Inactive)
REMARK    1  A    between atoms: C_5  and  N_1 
ROOT
ATOM      1  N   UNL d   1       2.441  -0.582   0.017  0.00  0.00    -0.254 N 
ATOM      2  C   UNL d   1       2.392   0.823  -0.009  0.00  0.00     0.186 A 
ATOM      3  C   UNL d   1       1.297  -1.394   0.169  0.00  0.00     0.267 A 
ATOM      4  C   UNL d   1      -0.013  -0.706   0.140  0.00  0.00     0.060 A 
ATOM      5  N   UNL d   1       1.150   1.395   0.079  0.00  0.00    -0.332 N 
ATOM      6  C   UNL d   1      -0.040   0.678   0.090  0.00  0.00     0.050 A 
ATOM      7  S   UNL d   1       3.656   1.916  -0.216  0.00  0.00    -0.040 SA
ATOM      8  O   UNL d   1       1.306  -2.611   0.323  0.00  0.00    -0.267 OA
ATOM      9  C   UNL d   1      -1.213  -1.430   0.132  0.00  0.00     0.026 A 
ATOM     10  C   UNL d   1      -1.253   1.362   0.022  0.00  0.00     0.031 A 
ATOM     11  C   UNL d   1      -2.441  -0.756   0.059  0.00  0.00    -0.061 A 
ATOM     12  C   UNL d   1      -2.450   0.643  -0.005  0.00  0.00     0.009 A 
ATOM     13  C   UNL d   1      -3.736  -1.513   0.025  0.00  0.00     0.048 C 
ATOM     14  H   UNL d   1       1.124   2.408   0.030  0.00  0.00     0.168 HD
ENDROOT
BRANCH   1  15
ATOM     15  C   UNL d   1       3.698  -1.267  -0.125  0.00  0.00     0.052 A 
ATOM     16  C   UNL d   1       4.708  -1.046   0.828  0.00  0.00     0.054 A 
ATOM     17  C   UNL d   1       5.967  -1.621   0.670  0.00  0.00     0.036 A 
ATOM     18 CL   UNL d   1       7.212  -1.277   1.807  0.00  0.00    -0.084 Cl
ATOM     19  C   UNL d   1       6.230  -2.456  -0.409  0.00  0.00     0.024 A 
ATOM     20  C   UNL d   1       5.225  -2.716  -1.340  0.00  0.00     0.011 A 
ATOM     21  C   UNL d   1       3.956  -2.119  -1.223  0.00  0.00    -0.035 A 
ATOM     22  C   UNL d   1       2.966  -2.403  -2.321  0.00  0.00     0.050 C 
ENDBRANCH   1  15
TORSDOF 1
