REMARK  3 active torsions:
REMARK  status: ('A' for Active; 'I' for Inactive)
REMARK    1  A    between atoms: C_7  and  C_4 
REMARK    2  A    between atoms: C_9  and  C_6 
REMARK    3  A    between atoms: O_20  and  C_17 
ROOT
ATOM      1  N   UNL d   1       1.033   0.632   0.172  0.00  0.00    -0.306 N 
ATOM      2  HN  UNL d   1       1.857   1.232   0.192  1.00  0.00     0.186 HD
ATOM      3  N   UNL d   1      -0.258   1.003   0.282  0.00  0.00    -0.323 N 
ATOM      4  C   UNL d   1       0.996  -0.662   0.034  0.00  0.00     0.038 C 
ATOM      5  C   UNL d   1      -0.395  -1.253   0.106  0.00  0.00     0.091 C 
ATOM      6  C   UNL d   1      -1.232   0.003  -0.140  0.00  0.00     0.140 C 
ATOM      7  C   UNL d   1      -0.686   2.373   0.422  0.00  0.00     0.171 C 
ENDROOT
BRANCH   4   8
ATOM      8  C   UNL d   1       2.199  -1.507  -0.142  0.00  0.00    -0.011 A 
ATOM      9  C   UNL d   1       2.096  -2.896  -0.283  0.00  0.00     0.025 A 
ATOM     10  C   UNL d   1       3.242  -3.689  -0.452  0.00  0.00    -0.025 A 
ATOM     11  C   UNL d   1       3.148  -5.082  -0.599  0.00  0.00     0.012 A 
ATOM     12  C   UNL d   1       4.516  -3.074  -0.471  0.00  0.00    -0.026 A 
ATOM     13  C   UNL d   1       4.291  -5.862  -0.756  0.00  0.00     0.001 A 
ATOM     14  C   UNL d   1       5.548  -5.260  -0.765  0.00  0.00     0.001 A 
ATOM     15  C   UNL d   1       5.659  -3.877  -0.626  0.00  0.00     0.012 A 
ATOM     16  C   UNL d   1       4.608  -1.682  -0.333  0.00  0.00     0.013 A 
ATOM     17  C   UNL d   1       3.459  -0.903  -0.173  0.00  0.00     0.014 A 
ENDBRANCH   4   8
BRANCH   6  18
ATOM     18  C   UNL d   1      -1.667   0.048  -1.601  0.00  0.00    -0.033 A 
ATOM     19  C   UNL d   1      -0.820   0.490  -2.631  0.00  0.00     0.012 A 
ATOM     20  C   UNL d   1      -1.206   0.408  -3.974  0.00  0.00     0.037 A 
ATOM     21  C   UNL d   1      -2.451  -0.117  -4.313  0.00  0.00     0.068 A 
ATOM     22  C   UNL d   1      -3.298  -0.570  -3.301  0.00  0.00     0.037 A 
ATOM     23  C   UNL d   1      -2.916  -0.483  -1.959  0.00  0.00     0.012 A 
BRANCH  21  24
ATOM     24  O   UNL d   1      -2.922  -0.279  -5.587  0.00  0.00    -0.356 OA
ATOM     25  C   UNL d   1      -2.396   0.621  -6.556  0.00  0.00     0.210 C 
ENDBRANCH  21  24
ENDBRANCH   6  18
TORSDOF 3
