REMARK  4 active torsions:
REMARK  status: ('A' for Active; 'I' for Inactive)
REMARK    1  A    between atoms: C_3  and  C_1 
REMARK    2  A    between atoms: C_16  and  N_2 
REMARK    3  A    between atoms: C_11  and  C_4 
REMARK    4  A    between atoms: N_18  and  C_12 
ROOT
ATOM      1  C   UNL d   1      -0.482  -2.756  -0.005  0.00  0.00     0.054 A 
ATOM      2  C   UNL d   1      -1.070  -3.384  -1.104  0.00  0.00     0.063 A 
ATOM      3  N   UNL d   1      -1.261  -4.733  -1.115  0.00  0.00    -0.331 N 
ATOM      4  HN  UNL d   1      -1.634  -5.196  -1.944  1.00  0.00     0.168 HD
ATOM      5  C   UNL d   1      -0.954  -5.439  -0.029  0.00  0.00     0.155 A 
ATOM      6  C   UNL d   1      -0.207  -3.599   1.063  0.00  0.00     0.108 A 
ATOM      7  N   UNL d   1      -0.407  -4.931   1.067  0.00  0.00    -0.342 N 
ATOM      8  HN  UNL d   1      -0.153  -5.513   1.865  1.00  0.00     0.167 HD
ENDROOT
BRANCH   1   9
ATOM      9  C   UNL d   1      -0.209  -1.325   0.109  0.00  0.00     0.152 A 
ATOM     10  N   UNL d   1       0.921  -0.719   0.661  0.00  0.00    -0.224 N 
ATOM     11  N   UNL d   1       0.672   0.607   0.777  0.00  0.00     0.001 NA
ATOM     12  N   UNL d   1      -0.497   0.815   0.199  0.00  0.00    -0.007 NA
ATOM     13  N   UNL d   1      -1.060  -0.362  -0.201  0.00  0.00    -0.269 N 
ATOM     14  HN  UNL d   1      -1.966  -0.477  -0.655  1.00  0.00     0.185 HD
BRANCH  10  15
ATOM     15  C   UNL d   1       2.156  -1.262   1.097  0.00  0.00     0.056 A 
ATOM     16  C   UNL d   1       2.691  -2.424   0.524  0.00  0.00     0.031 A 
ATOM     17  C   UNL d   1       3.864  -2.978   1.041  0.00  0.00     0.002 A 
ATOM     18  C   UNL d   1       4.509  -2.375   2.120  0.00  0.00     0.000 A 
ATOM     19  C   UNL d   1       4.001  -1.198   2.668  0.00  0.00     0.002 A 
ATOM     20  C   UNL d   1       2.838  -0.629   2.148  0.00  0.00     0.031 A 
ENDBRANCH  10  15
ENDBRANCH   1   9
BRANCH   2  21
ATOM     21  C   UNL d   1      -1.544  -2.712  -2.342  0.00  0.00     0.030 A 
ATOM     22  C   UNL d   1      -2.738  -3.111  -2.973  0.00  0.00     0.128 A 
ATOM     23  F   UNL d   1      -3.479  -4.112  -2.472  0.00  0.00    -0.205 F 
ATOM     24  C   UNL d   1      -3.224  -2.482  -4.123  0.00  0.00     0.043 A 
ATOM     25  C   UNL d   1      -2.533  -1.408  -4.672  0.00  0.00     0.003 A 
ATOM     26  C   UNL d   1      -1.343  -0.992  -4.085  0.00  0.00     0.001 A 
ATOM     27  C   UNL d   1      -0.843  -1.653  -2.954  0.00  0.00     0.017 A 
ENDBRANCH   2  21
BRANCH   5  28
ATOM     28  N   UNL d   1      -1.181  -6.796  -0.050  0.00  0.00    -0.274 NA
ATOM     29  H   UNL d   1      -0.564  -7.278   0.583  0.00  0.00     0.127 HD
ATOM     30  H   UNL d   1      -1.254  -7.132  -1.000  0.00  0.00     0.127 HD
ENDBRANCH   5  28
TORSDOF 4
