REMARK  7 active torsions:
REMARK  status: ('A' for Active; 'I' for Inactive)
REMARK    1  A    between atoms: C_2  and  C_1 
REMARK    2  A    between atoms: C_3  and  C_1 
REMARK    3  A    between atoms: C_6  and  C_1 
REMARK    4  A    between atoms: N_4  and  C_2 
REMARK    5  A    between atoms: C_5  and  C_2 
REMARK    6  A    between atoms: C_8  and  C_3 
REMARK    7  A    between atoms: C_9  and  N_4 
ROOT
ATOM      1  C   UNL d   1       0.539  -0.616   1.140  0.00  0.00     0.131 C 
ENDROOT
BRANCH   1   2
ATOM      2  C   UNL d   1       0.821  -0.013  -0.280  0.00  0.00     0.120 C 
BRANCH   2   3
ATOM      3  C   UNL d   1       0.015  -0.668  -1.407  0.00  0.00     0.170 C 
ATOM      4  O   UNL d   1      -1.126  -0.279  -1.700  0.00  0.00    -0.291 OA
BRANCH   3   5
ATOM      5  C   UNL d   1       0.534  -1.855  -2.167  0.00  0.00     0.011 A 
ATOM      6  C   UNL d   1       1.726  -2.521  -1.863  0.00  0.00     0.015 A 
ATOM      7  C   UNL d   1       2.013  -3.760  -2.449  0.00  0.00     0.001 A 
ATOM      8  C   UNL d   1       1.147  -4.312  -3.389  0.00  0.00     0.000 A 
ATOM      9  C   UNL d   1       0.013  -3.607  -3.780  0.00  0.00     0.001 A 
ATOM     10  C   UNL d   1      -0.289  -2.387  -3.175  0.00  0.00     0.015 A 
ENDBRANCH   3   5
ENDBRANCH   2   3
BRANCH   2  11
ATOM     11  C   UNL d   1       0.686   1.525  -0.315  0.00  0.00    -0.044 A 
ATOM     12  C   UNL d   1       1.810   2.334  -0.555  0.00  0.00     0.008 A 
ATOM     13  C   UNL d   1       1.682   3.723  -0.665  0.00  0.00     0.001 A 
ATOM     14  C   UNL d   1       0.434   4.328  -0.534  0.00  0.00     0.000 A 
ATOM     15  C   UNL d   1      -0.686   3.546  -0.272  0.00  0.00     0.001 A 
ATOM     16  C   UNL d   1      -0.557   2.161  -0.158  0.00  0.00     0.008 A 
ENDBRANCH   2  11
ENDBRANCH   1   2
BRANCH   1  17
ATOM     17  N   UNL d   1      -0.832  -0.428   1.624  0.00  0.00    -0.380 N 
ATOM     18  H   UNL d   1      -1.584  -0.658   0.984  0.00  0.00     0.160 HD
BRANCH  17  19
ATOM     19  C   UNL d   1      -1.161  -0.061   2.918  0.00  0.00     0.028 A 
ATOM     20  C   UNL d   1      -0.227   0.029   3.960  0.00  0.00     0.031 A 
ATOM     21  C   UNL d   1      -0.559   0.587   5.199  0.00  0.00     0.026 A 
ATOM     22  C   UNL d   1      -1.849   1.050   5.421  0.00  0.00     0.034 A 
ATOM     23  C   UNL d   1      -2.816   0.914   4.431  0.00  0.00     0.026 A 
ATOM     24 CL   UNL d   1      -2.239   1.814   6.911  0.00  0.00    -0.084 Cl
ATOM     25  C   UNL d   1      -2.470   0.360   3.192  0.00  0.00     0.031 A 
ENDBRANCH  17  19
ENDBRANCH   1  17
BRANCH   1  26
ATOM     26  C   UNL d   1       0.931  -2.085   1.279  0.00  0.00    -0.035 A 
ATOM     27  C   UNL d   1       2.224  -2.421   1.716  0.00  0.00     0.009 A 
ATOM     28  C   UNL d   1       2.631  -3.755   1.782  0.00  0.00     0.001 A 
ATOM     29  C   UNL d   1       1.754  -4.773   1.417  0.00  0.00     0.000 A 
ATOM     30  C   UNL d   1       0.462  -4.461   1.003  0.00  0.00     0.001 A 
ATOM     31  C   UNL d   1       0.049  -3.128   0.940  0.00  0.00     0.009 A 
ENDBRANCH   1  26
TORSDOF 7
