REMARK  3 active torsions:
REMARK  status: ('A' for Active; 'I' for Inactive)
REMARK    1  A    between atoms: C_7  and  N_1 
REMARK    2  A    between atoms: S_6  and  C_4 
REMARK    3  A    between atoms: C_10  and  S_6 
ROOT
ATOM      1  N   UNL d   1       0.151   0.942  -0.061  0.00  0.00    -0.251 N 
ATOM      2  C   UNL d   1      -0.960   0.169   0.181  0.00  0.00     0.232 C 
ATOM      3  C   UNL d   1       1.278   0.160  -0.241  0.00  0.00     0.245 C 
ATOM      4  C   UNL d   1       0.894  -1.291  -0.086  0.00  0.00     0.154 C 
ATOM      5  C   UNL d   1      -0.621  -1.266  -0.077  0.00  0.00     0.129 C 
ATOM      6  O   UNL d   1      -2.099   0.511   0.486  0.00  0.00    -0.273 OA
ATOM      7  O   UNL d   1       2.439   0.528  -0.383  0.00  0.00    -0.271 OA
ENDROOT
BRANCH   4   8
ATOM      8  S   UNL d   1       1.654  -2.314  -1.416  0.00  0.00    -0.115 SA
BRANCH   8   9
ATOM      9  C   UNL d   1       0.765  -3.832  -1.125  0.00  0.00     0.002 C 
ATOM     10  C   UNL d   1       0.842  -4.468   0.116  0.00  0.00     0.030 C 
ATOM     11  C   UNL d   1      -0.160  -5.364   0.506  0.00  0.00    -0.025 A 
ATOM     12  C   UNL d   1      -0.184  -5.903   1.800  0.00  0.00     0.012 A 
ATOM     13  C   UNL d   1      -1.212  -5.657  -0.392  0.00  0.00    -0.026 A 
ATOM     14  C   UNL d   1      -1.290  -6.631   2.240  0.00  0.00     0.001 A 
ATOM     15  C   UNL d   1      -2.364  -6.851   1.382  0.00  0.00     0.001 A 
ATOM     16  C   UNL d   1      -2.311  -6.398   0.063  0.00  0.00     0.012 A 
ATOM     17  C   UNL d   1      -1.164  -5.154  -1.700  0.00  0.00     0.013 C 
ATOM     18  C   UNL d   1      -0.178  -4.241  -2.066  0.00  0.00     0.019 C 
ENDBRANCH   8   9
ENDBRANCH   4   8
BRANCH   1  19
ATOM     19  C   UNL d   1       0.158   2.371  -0.089  0.00  0.00     0.045 A 
ATOM     20  C   UNL d   1      -0.842   3.131   0.538  0.00  0.00     0.030 A 
ATOM     21  C   UNL d   1      -0.824   4.532   0.498  0.00  0.00     0.002 A 
ATOM     22  C   UNL d   1       0.186   5.201  -0.184  0.00  0.00     0.000 A 
ATOM     23  C   UNL d   1       1.180   4.470  -0.823  0.00  0.00     0.002 A 
ATOM     24  C   UNL d   1       1.166   3.072  -0.770  0.00  0.00     0.030 A 
ENDBRANCH   1  19
TORSDOF 3
