REMARK  8 active torsions:
REMARK  status: ('A' for Active; 'I' for Inactive)
REMARK    1  A    between atoms: C_2  and  S_1 
REMARK    2  A    between atoms: N_3  and  S_1 
REMARK    3  A    between atoms: C_11  and  N_3 
REMARK    4  A    between atoms: C_12  and  N_3 
REMARK    5  A    between atoms: C_13  and  C_11 
REMARK    6  A    between atoms: C_14  and  C_12 
REMARK    7  A    between atoms: O_27  and  C_15 
REMARK    8  A    between atoms: O_28  and  C_16 
ROOT
ATOM      1  N   UNL d   1       0.384  -1.174   0.746  0.00  0.00    -0.298 N 
ENDROOT
BRANCH   1   2
ATOM      2  S   UNL d   1       1.270  -0.061  -0.194  0.00  0.00     0.265 S 
ATOM      3  O   UNL d   1       2.627  -0.521  -0.358  0.00  0.00    -0.200 OA
ATOM      4  O   UNL d   1       0.492   0.336  -1.345  0.00  0.00    -0.200 OA
BRANCH   2   5
ATOM      5  C   UNL d   1       1.518   1.416   0.630  0.00  0.00     0.135 A 
ATOM      6  C   UNL d   1       2.145   2.515   0.086  0.00  0.00     0.098 A 
ATOM      7  O   UNL d   1       2.193   3.502   1.018  0.00  0.00    -0.241 OA
ATOM      8  C   UNL d   1       2.772   2.821  -1.215  0.00  0.00     0.081 C 
ATOM      9  N   UNL d   1       1.639   3.048   2.197  0.00  0.00    -0.264 N 
ATOM     10  C   UNL d   1       1.271   1.777   1.972  0.00  0.00     0.054 A 
ATOM     11  HN  UNL d   1       1.531   3.573   3.065  1.00  0.00     0.194 HD
ATOM     12  C   UNL d   1       0.724   0.997   3.102  0.00  0.00     0.072 C 
ENDBRANCH   2   5
ENDBRANCH   1   2
BRANCH   1  13
ATOM     13  C   UNL d   1      -1.092  -0.968   0.844  0.00  0.00     0.174 C 
BRANCH  13  14
ATOM     14  C   UNL d   1      -1.937  -1.276  -0.375  0.00  0.00    -0.040 A 
ATOM     15  C   UNL d   1      -2.333  -2.578  -0.714  0.00  0.00     0.011 A 
ATOM     16  C   UNL d   1      -3.114  -2.823  -1.855  0.00  0.00     0.037 A 
ATOM     17  C   UNL d   1      -3.517  -1.766  -2.671  0.00  0.00     0.068 A 
ATOM     18  C   UNL d   1      -3.132  -0.470  -2.339  0.00  0.00     0.037 A 
ATOM     19  C   UNL d   1      -2.366  -0.224  -1.199  0.00  0.00     0.011 A 
BRANCH  17  20
ATOM     20  O   UNL d   1      -4.268  -1.856  -3.809  0.00  0.00    -0.356 OA
ATOM     21  C   UNL d   1      -4.819  -3.126  -4.125  0.00  0.00     0.210 C 
ENDBRANCH  17  20
ENDBRANCH  13  14
ENDBRANCH   1  13
BRANCH   1  22
ATOM     22  C   UNL d   1       0.737  -2.609   0.583  0.00  0.00     0.174 C 
BRANCH  22  23
ATOM     23  C   UNL d   1       2.147  -3.007   0.946  0.00  0.00    -0.040 A 
ATOM     24  C   UNL d   1       2.670  -2.787   2.226  0.00  0.00     0.011 A 
ATOM     25  C   UNL d   1       3.988  -3.153   2.529  0.00  0.00     0.037 A 
ATOM     26  C   UNL d   1       4.796  -3.748   1.558  0.00  0.00     0.068 A 
ATOM     27  C   UNL d   1       4.275  -3.975   0.285  0.00  0.00     0.037 A 
ATOM     28  C   UNL d   1       2.963  -3.614  -0.020  0.00  0.00     0.011 A 
BRANCH  26  29
ATOM     29  O   UNL d   1       6.094  -4.148   1.720  0.00  0.00    -0.356 OA
ATOM     30  C   UNL d   1       6.675  -3.935   2.999  0.00  0.00     0.210 C 
ENDBRANCH  26  29
ENDBRANCH  22  23
ENDBRANCH   1  22
TORSDOF 8
