REMARK  6 active torsions:
REMARK  status: ('A' for Active; 'I' for Inactive)
REMARK       I    between atoms: N_2  and  C_1 
REMARK       I    between atoms: N_10  and  C_1 
REMARK    1  A    between atoms: C_4  and  N_3 
REMARK    2  A    between atoms: C_11  and  C_4 
REMARK    3  A    between atoms: C_12  and  C_4 
REMARK    4  A    between atoms: C_13  and  N_10 
REMARK    5  A    between atoms: C_18  and  C_13 
REMARK    6  A    between atoms: C_19  and  C_18 
ROOT
ATOM      1  C   UNL d   1       1.000  -0.004   0.003  0.00  0.00     0.318 C 
ATOM      2  N   UNL d   1       0.243  -0.703  -0.921  0.00  0.00    -0.331 N 
ATOM      3  N   UNL d   1      -0.539  -1.347  -3.710  0.00  0.00     0.105 N 
ATOM      4  C   UNL d   1       0.556  -1.998  -1.513  0.00  0.00     0.158 C 
ATOM      5  C   UNL d   1      -0.909  -0.023  -1.535  0.00  0.00     0.158 C 
ATOM      6  C   UNL d   1       0.679  -1.873  -3.042  0.00  0.00     0.293 C 
ATOM      7  C   UNL d   1      -0.817  -0.018  -3.082  0.00  0.00     0.293 C 
ATOM      8  O   UNL d   1       0.718   1.139   0.361  0.00  0.00    -0.247 OA
ATOM      9  N   UNL d   1       2.114  -0.650   0.479  0.00  0.00    -0.343 N 
ATOM     10  H   UNL d   1       2.030  -1.646   0.583  0.00  0.00     0.164 HD
ENDROOT
BRANCH   3  11
ATOM     11  C   UNL d   1      -1.720  -2.265  -3.624  0.00  0.00     0.289 C 
BRANCH  11  12
ATOM     12  C   UNL d   1      -2.943  -1.683  -4.344  0.00  0.00    -0.021 A 
ATOM     13  C   UNL d   1      -2.898  -1.379  -5.714  0.00  0.00     0.010 A 
ATOM     14  C   UNL d   1      -4.034  -0.916  -6.378  0.00  0.00     0.001 A 
ATOM     15  C   UNL d   1      -5.223  -0.729  -5.678  0.00  0.00     0.000 A 
ATOM     16  C   UNL d   1      -5.271  -0.976  -4.307  0.00  0.00     0.001 A 
ATOM     17  C   UNL d   1      -4.139  -1.451  -3.642  0.00  0.00     0.010 A 
ENDBRANCH  11  12
BRANCH  11  18
ATOM     18  C   UNL d   1      -1.477  -3.714  -4.104  0.00  0.00    -0.021 A 
ATOM     19  C   UNL d   1      -2.162  -4.779  -3.484  0.00  0.00     0.010 A 
ATOM     20  C   UNL d   1      -1.941  -6.106  -3.874  0.00  0.00     0.001 A 
ATOM     21  C   UNL d   1      -1.051  -6.392  -4.903  0.00  0.00     0.000 A 
ATOM     22  C   UNL d   1      -0.407  -5.354  -5.565  0.00  0.00     0.001 A 
ATOM     23  C   UNL d   1      -0.627  -4.025  -5.178  0.00  0.00     0.010 A 
ENDBRANCH  11  18
ENDBRANCH   3  11
BRANCH   9  24
ATOM     24  C   UNL d   1       2.998   0.011   1.427  0.00  0.00     0.124 C 
BRANCH  24  25
ATOM     25  C   UNL d   1       4.455  -0.418   1.253  0.00  0.00     0.019 C 
BRANCH  25  26
ATOM     26  C   UNL d   1       4.988  -0.002  -0.120  0.00  0.00    -0.003 C 
ATOM     27  C   UNL d   1       6.446  -0.376  -0.317  0.00  0.00     0.005 C 
ENDBRANCH  25  26
ENDBRANCH  24  25
ENDBRANCH   9  24
TORSDOF 6
