REMARK  4 active torsions:
REMARK  status: ('A' for Active; 'I' for Inactive)
REMARK    1  A    between atoms: N_3  and  S_1 
REMARK    2  A    between atoms: C_8  and  S_1 
REMARK    3  A    between atoms: C_2  and  N_3 
REMARK    4  A    between atoms: O_18  and  C_14 
ROOT
ATOM      1  S   UNL d   1       1.106   0.091  -0.067  0.00  0.00     0.247 S 
ATOM      2  O   UNL d   1       0.343   0.901  -0.997  0.00  0.00    -0.205 OA
ATOM      3  O   UNL d   1       2.548   0.137  -0.004  0.00  0.00    -0.205 OA
ENDROOT
BRANCH   1   4
ATOM      4  N   UNL d   1       0.583  -1.533  -0.311  0.00  0.00    -0.165 NA
ATOM      5  H   UNL d   1      -0.364  -1.424  -0.685  0.00  0.00     0.147 HD
BRANCH   4   6
ATOM      6  C   UNL d   1       1.403  -2.201  -1.294  0.00  0.00     0.111 A 
ATOM      7  N   UNL d   1       2.564  -2.905  -1.102  0.00  0.00    -0.285 N 
ATOM      8  N   UNL d   1       3.071  -3.404  -2.251  0.00  0.00    -0.309 N 
ATOM      9  C   UNL d   1       3.198  -3.243   0.147  0.00  0.00     0.179 C 
ATOM     10  C   UNL d   1       2.209  -2.993  -3.183  0.00  0.00     0.110 A 
ATOM     11  HN  UNL d   1       3.915  -3.964  -2.377  1.00  0.00     0.186 HD
ATOM     12  C   UNL d   1       1.136  -2.260  -2.641  0.00  0.00     0.063 A 
ENDBRANCH   4   6
ENDBRANCH   1   4
BRANCH   1  13
ATOM     13  C   UNL d   1       0.488   0.420   1.569  0.00  0.00     0.075 A 
ATOM     14  C   UNL d   1       1.317   0.203   2.674  0.00  0.00     0.027 A 
ATOM     15  C   UNL d   1       0.869   0.535   3.958  0.00  0.00     0.038 A 
ATOM     16  C   UNL d   1      -0.401   1.088   4.134  0.00  0.00     0.068 A 
ATOM     17  C   UNL d   1      -1.212   1.327   3.020  0.00  0.00     0.038 A 
ATOM     18  C   UNL d   1      -0.775   0.994   1.736  0.00  0.00     0.027 A 
BRANCH  16  19
ATOM     19  O   UNL d   1      -0.930   1.488   5.330  0.00  0.00    -0.356 OA
ATOM     20  C   UNL d   1      -0.467   0.790   6.481  0.00  0.00     0.210 C 
ENDBRANCH  16  19
ENDBRANCH   1  13
TORSDOF 4
