REMARK  6 active torsions:
REMARK  status: ('A' for Active; 'I' for Inactive)
REMARK    1  A    between atoms: C_11  and  C_1 
REMARK    2  A    between atoms: S_16  and  C_5 
REMARK    3  A    between atoms: C_17  and  C_10 
REMARK    4  A    between atoms: C_14  and  C_18 
REMARK    5  A    between atoms: C_18  and  S_16 
REMARK    6  A    between atoms: O_28  and  C_25 
ROOT
ATOM      1  N   UNL d   1       2.007  -5.350  -0.342  0.00  0.00    -0.322 N 
ATOM      2  HN  UNL d   1       1.005  -5.408  -0.527  1.00  0.00     0.169 HD
ATOM      3  C   UNL d   1       2.912  -6.379  -0.166  0.00  0.00     0.137 A 
ATOM      4  N   UNL d   1       4.168  -5.958   0.056  0.00  0.00    -0.242 N 
ATOM      5  HN  UNL d   1       5.005  -6.524   0.198  1.00  0.00     0.196 HD
ATOM      6  C   UNL d   1       2.757  -4.277  -0.213  0.00  0.00     0.158 A 
ATOM      7  O   UNL d   1       4.065  -4.572   0.046  0.00  0.00    -0.222 OA
ENDROOT
BRANCH   6   8
ATOM      8  C   UNL d   1       2.370  -2.840  -0.236  0.00  0.00     0.169 C 
BRANCH   8   9
ATOM      9  S   UNL d   1       3.602  -1.798  -1.086  0.00  0.00    -0.084 SA
BRANCH   9  10
ATOM     10  C   UNL d   1       2.925  -0.227  -0.841  0.00  0.00     0.163 A 
ATOM     11  N   UNL d   1       3.533   0.937  -1.242  0.00  0.00    -0.312 N 
ATOM     12  C   UNL d   1       2.653   1.947  -0.910  0.00  0.00     0.209 A 
ATOM     13  C   UNL d   1       4.827   1.018  -1.872  0.00  0.00     0.160 C 
ATOM     14  N   UNL d   1       1.605   1.398  -0.311  0.00  0.00    -0.279 N 
ATOM     15  N   UNL d   1       1.778   0.040  -0.271  0.00  0.00    -0.278 N 
ATOM     16  HN  UNL d   1       0.800   1.904   0.059  1.00  0.00     0.188 HD
ATOM     17  HN  UNL d   1       1.131  -0.639   0.130  1.00  0.00     0.189 HD
BRANCH  12  18
ATOM     18  C   UNL d   1       2.816   3.405  -1.171  0.00  0.00     0.450 C 
ATOM     19  F   UNL d   1       3.955   3.722  -1.839  0.00  0.00    -0.163 F 
ATOM     20  F   UNL d   1       1.797   3.901  -1.920  0.00  0.00    -0.163 F 
ATOM     21  F   UNL d   1       2.846   4.125  -0.019  0.00  0.00    -0.163 F 
ENDBRANCH  12  18
ENDBRANCH   9  10
ENDBRANCH   8   9
ENDBRANCH   6   8
BRANCH   3  22
ATOM     22  C   UNL d   1       2.523  -7.786  -0.186  0.00  0.00     0.010 A 
ATOM     23  C   UNL d   1       1.174  -8.152  -0.313  0.00  0.00     0.018 A 
ATOM     24  C   UNL d   1       0.790  -9.500  -0.306  0.00  0.00     0.037 A 
ATOM     25  C   UNL d   1       1.752 -10.501  -0.172  0.00  0.00     0.068 A 
ATOM     26  C   UNL d   1       3.097 -10.148  -0.072  0.00  0.00     0.037 A 
ATOM     27  C   UNL d   1       3.481  -8.804  -0.070  0.00  0.00     0.018 A 
BRANCH  25  28
ATOM     28  O   UNL d   1       1.502 -11.846  -0.164  0.00  0.00    -0.356 OA
ATOM     29  C   UNL d   1       0.212 -12.233   0.296  0.00  0.00     0.210 C 
ENDBRANCH  25  28
ENDBRANCH   3  22
TORSDOF 6
