REMARK  6 active torsions:
REMARK  status: ('A' for Active; 'I' for Inactive)
REMARK    1  A    between atoms: N_2  and  S_1 
REMARK    2  A    between atoms: C_7  and  S_1 
REMARK    3  A    between atoms: C_3  and  N_2 
REMARK       I    between atoms: C_4  and  N_8 
REMARK    4  A    between atoms: C_5  and  C_4 
REMARK    5  A    between atoms: O_24  and  C_6 
REMARK    6  A    between atoms: N_8  and  C_23 
ROOT
ATOM      1  C   UNL d   1       0.541   1.603  -0.143  0.00  0.00     0.075 A 
ATOM      2  C   UNL d   1      -0.841   1.770  -0.233  0.00  0.00     0.027 A 
ATOM      3  C   UNL d   1       1.375   2.710  -0.003  0.00  0.00     0.027 A 
ATOM      4  C   UNL d   1      -0.552   4.184  -0.085  0.00  0.00     0.035 A 
ATOM      5  C   UNL d   1       0.829   3.998   0.017  0.00  0.00     0.031 A 
ATOM      6  C   UNL d   1      -1.382   3.061  -0.213  0.00  0.00     0.031 A 
ENDROOT
BRANCH   1   7
ATOM      7  S   UNL d   1       1.236  -0.032  -0.097  0.00  0.00     0.247 S 
ATOM      8  O   UNL d   1       2.487   0.012   0.631  0.00  0.00    -0.205 OA
ATOM      9  O   UNL d   1       0.178  -0.933   0.316  0.00  0.00    -0.205 OA
BRANCH   7  10
ATOM     10  N   UNL d   1       1.521  -0.382  -1.717  0.00  0.00    -0.163 NA
ATOM     11  H   UNL d   1       1.301  -1.362  -1.890  0.00  0.00     0.147 HD
BRANCH  10  12
ATOM     12  C   UNL d   1       2.793   0.028  -2.188  0.00  0.00     0.146 A 
ATOM     13  C   UNL d   1       3.914  -0.813  -2.166  0.00  0.00     0.182 A 
ATOM     14  N   UNL d   1       5.134  -0.399  -2.590  0.00  0.00    -0.343 N 
ATOM     15  C   UNL d   1       5.192   0.891  -2.991  0.00  0.00     0.107 A 
ATOM     16  HN  UNL d   1       5.947  -1.015  -2.606  1.00  0.00     0.167 HD
ATOM     17  C   UNL d   1       4.087   1.730  -2.973  0.00  0.00     0.106 A 
ATOM     18  N   UNL d   1       2.862   1.320  -2.568  0.00  0.00    -0.351 N 
ATOM     19  HN  UNL d   1       2.053   1.941  -2.552  1.00  0.00     0.166 HD
BRANCH  13  20
ATOM     20  O   UNL d   1       3.748  -2.120  -1.747  0.00  0.00    -0.338 OA
ATOM     21  C   UNL d   1       4.987  -2.726  -1.381  0.00  0.00     0.211 C 
ENDBRANCH  13  20
ENDBRANCH  10  12
ENDBRANCH   7  10
ENDBRANCH   1   7
BRANCH   4  22
ATOM     22  N   UNL d   1      -1.178   5.451  -0.066  0.00  0.00    -0.323 N 
ATOM     23  C   UNL d   1      -0.565   6.683   0.078  0.00  0.00     0.256 C 
ATOM     24  O   UNL d   1       0.632   6.902   0.213  0.00  0.00    -0.267 OA
ATOM     25  H   UNL d   1      -2.177   5.437  -0.222  0.00  0.00     0.169 HD
BRANCH  23  26
ATOM     26  C   UNL d   1      -1.478   7.857   0.011  0.00  0.00     0.035 A 
ATOM     27  C   UNL d   1      -2.778   7.821   0.527  0.00  0.00     0.041 A 
ATOM     28  C   UNL d   1      -3.602   8.938   0.387  0.00  0.00     0.036 A 
ATOM     29 CL   UNL d   1      -5.212   8.883   0.992  0.00  0.00    -0.084 Cl
ATOM     30  C   UNL d   1      -3.142  10.092  -0.243  0.00  0.00     0.047 A 
ATOM     31  C   UNL d   1      -1.834  10.134  -0.720  0.00  0.00     0.036 A 
ATOM     32  C   UNL d   1      -0.998   9.028  -0.591  0.00  0.00     0.041 A 
ATOM     33 CL   UNL d   1      -1.252  11.558  -1.489  0.00  0.00    -0.084 Cl
ENDBRANCH  23  26
ENDBRANCH   4  22
TORSDOF 6
