REMARK  10 active torsions:
REMARK  status: ('A' for Active; 'I' for Inactive)
REMARK    1  A    between atoms: C_7  and  C_1 
REMARK    2  A    between atoms: C_4  and  C_26 
REMARK    3  A    between atoms: C_6  and  C_13 
REMARK    4  A    between atoms: C_11  and  C_6 
REMARK    5  A    between atoms: C_12  and  C_6 
REMARK    6  A    between atoms: C_8  and  C_11 
REMARK       I    between atoms: N_23  and  C_8 
REMARK    7  A    between atoms: C_10  and  C_12 
REMARK    8  A    between atoms: O_24  and  C_10 
REMARK    9  A    between atoms: C_25  and  N_23 
REMARK   10  A    between atoms: C_26  and  C_25 
ROOT
ATOM      1  C   UNL d   1      -1.907  -0.736   5.662  0.00  0.00     0.112 C 
ENDROOT
BRANCH   1   2
ATOM      2  C   UNL d   1      -1.852   0.768   5.855  0.00  0.00     0.218 C 
ATOM      3  O   UNL d   1      -0.992   1.470   5.335  0.00  0.00    -0.274 OA
ATOM      4  N   UNL d   1      -2.848   1.261   6.673  0.00  0.00    -0.361 N 
ATOM      5  H   UNL d   1      -3.558   0.636   7.033  0.00  0.00     0.162 HD
BRANCH   4   6
ATOM      6  C   UNL d   1      -2.917   2.678   7.002  0.00  0.00     0.127 C 
BRANCH   6   7
ATOM      7  C   UNL d   1      -4.052   3.013   7.973  0.00  0.00     0.060 C 
BRANCH   7   8
ATOM      8  C   UNL d   1      -4.108   4.473   8.296  0.00  0.00    -0.029 A 
ATOM      9  C   UNL d   1      -4.826   5.436   7.613  0.00  0.00     0.096 A 
ATOM     10  N   UNL d   1      -4.606   6.648   8.210  0.00  0.00    -0.365 N 
ATOM     11  C   UNL d   1      -3.755   6.504   9.280  0.00  0.00     0.042 A 
ATOM     12  H   UNL d   1      -5.003   7.524   7.910  0.00  0.00     0.165 HD
ATOM     13  C   UNL d   1      -3.429   5.150   9.365  0.00  0.00    -0.002 A 
ATOM     14  C   UNL d   1      -3.256   7.464  10.169  0.00  0.00     0.030 A 
ATOM     15  C   UNL d   1      -2.559   4.735  10.396  0.00  0.00     0.014 A 
ATOM     16  C   UNL d   1      -2.052   5.682  11.294  0.00  0.00     0.001 A 
ATOM     17  C   UNL d   1      -2.396   7.027  11.181  0.00  0.00     0.002 A 
ENDBRANCH   7   8
ENDBRANCH   6   7
ENDBRANCH   4   6
ENDBRANCH   1   2
BRANCH   1  18
ATOM     18  C   UNL d   1      -0.513  -1.339   5.366  0.00  0.00     0.037 C 
BRANCH  18  19
ATOM     19  C   UNL d   1      -0.644  -2.833   5.072  0.00  0.00    -0.053 A 
ATOM     20  C   UNL d   1      -0.251  -3.342   3.826  0.00  0.00     0.008 A 
ATOM     21  C   UNL d   1      -0.373  -4.707   3.538  0.00  0.00     0.017 A 
ATOM     22  C   UNL d   1      -0.891  -5.597   4.490  0.00  0.00     0.047 A 
ATOM     23  C   UNL d   1      -1.272  -5.092   5.739  0.00  0.00     0.017 A 
ATOM     24  C   UNL d   1      -1.147  -3.730   6.028  0.00  0.00     0.008 A 
BRANCH  22  25
ATOM     25  C   UNL d   1      -1.036  -7.063   4.160  0.00  0.00     0.417 C 
ATOM     26  F   UNL d   1      -1.507  -7.811   5.196  0.00  0.00    -0.166 F 
ATOM     27  F   UNL d   1       0.140  -7.640   3.788  0.00  0.00    -0.166 F 
ATOM     28  F   UNL d   1      -1.898  -7.278   3.128  0.00  0.00    -0.166 F 
ENDBRANCH  22  25
ENDBRANCH  18  19
BRANCH  18  29
ATOM     29  C   UNL d   1       0.463  -1.058   6.524  0.00  0.00     0.119 C 
BRANCH  29  30
ATOM     30  C   UNL d   1       1.877  -1.476   6.205  0.00  0.00     0.140 C 
ATOM     31  O   UNL d   1       2.359  -2.550   6.527  0.00  0.00    -0.650 OA
BRANCH  30  32
ATOM     32  O   UNL d   1       2.580  -0.535   5.535  0.00  0.00    -0.776 OA
ATOM     33  H   UNL d   1       2.088   0.292   5.365  0.00  0.00     0.167 HD
ENDBRANCH  30  32
ENDBRANCH  29  30
ENDBRANCH  18  29
ENDBRANCH   1  18
TORSDOF 10
