REMARK  0 active torsions:
REMARK  status: ('A' for Active; 'I' for Inactive)
ROOT
ATOM      1  C   UNL d   1       0.918   0.522  -0.000  0.00  0.00     0.098 A 
ATOM      2  C   UNL d   1      -0.505   0.468  -0.001  0.00  0.00     0.025 A 
ATOM      3  C   UNL d   1       1.733  -0.683  -0.001  0.00  0.00     0.086 A 
ATOM      4  N   UNL d   1       1.741   1.581   0.001  0.00  0.00    -0.239 N 
ATOM      5  HN  UNL d   1       1.476   2.566   0.001  1.00  0.00     0.197 HD
ATOM      6  O   UNL d   1       3.024   1.062   0.001  0.00  0.00    -0.156 OA
ATOM      7  N   UNL d   1       3.020  -0.322   0.000  0.00  0.00    -0.240 N 
ATOM      8  HN  UNL d   1       3.832  -0.939   0.000  1.00  0.00     0.197 HD
ATOM      9  N   UNL d   1      -2.396  -0.944  -0.003  0.00  0.00    -0.300 N 
ATOM     10  HN  UNL d   1      -2.817  -1.873  -0.003  1.00  0.00     0.187 HD
ATOM     11  C   UNL d   1      -1.064  -0.829  -0.002  0.00  0.00     0.060 A 
ATOM     12  C   UNL d   1       1.168  -1.968  -0.002  0.00  0.00     0.036 A 
ATOM     13  N   UNL d   1      -3.219   0.175  -0.002  0.00  0.00    -0.305 N 
ATOM     14  HN  UNL d   1      -4.232   0.055  -0.003  1.00  0.00     0.186 HD
ATOM     15  C   UNL d   1      -0.245  -1.981  -0.002  0.00  0.00     0.034 A 
ATOM     16  C   UNL d   1      -1.328   1.606  -0.001  0.00  0.00     0.042 A 
ATOM     17  C   UNL d   1      -2.695   1.417  -0.001  0.00  0.00     0.023 A 
ATOM     18  C   UNL d   1      -3.634   2.580  -0.001  0.00  0.00     0.070 C 
ENDROOT
TORSDOF 0
