REMARK  1 active torsions:
REMARK  status: ('A' for Active; 'I' for Inactive)
REMARK    1  A    between atoms: C_6  and  C_1 
REMARK       I    between atoms: N_7  and  C_6 
ROOT
ATOM      1  C   UNL d   1      -0.057  -0.992   0.408  0.00  0.00     0.159 C 
ATOM      2  O   UNL d   1      -1.184  -0.657  -0.421  0.00  0.00    -0.299 OA
ATOM      3  C   UNL d   1      -0.035   0.198   1.406  0.00  0.00     0.010 C 
ATOM      4  C   UNL d   1       0.038   1.201   0.230  0.00  0.00     0.055 C 
ATOM      5  C   UNL d   1      -1.132   0.706  -0.602  0.00  0.00     0.269 C 
ATOM      6  C   UNL d   1       1.223  -0.767  -0.445  0.00  0.00     0.051 C 
ATOM      7  C   UNL d   1       1.270   0.763  -0.587  0.00  0.00     0.024 C 
ATOM      8  O   UNL d   1      -1.865   1.345  -1.333  0.00  0.00    -0.264 OA
ATOM      9  C   UNL d   1       1.169   0.271   2.365  0.00  0.00     0.020 C 
ATOM     10  C   UNL d   1      -1.313   0.348   2.261  0.00  0.00     0.020 C 
ATOM     11  C   UNL d   1      -0.009   2.680   0.536  0.00  0.00     0.027 C 
ENDROOT
BRANCH   1  12
ATOM     12  C   UNL d   1      -0.103  -2.425   0.993  0.00  0.00     0.256 C 
ATOM     13  N   UNL d   1      -0.149  -3.513   0.116  0.00  0.00    -0.348 N 
ATOM     14  C   UNL d   1      -0.099  -4.870   0.678  0.00  0.00     0.136 C 
ATOM     15  C   UNL d   1      -0.547  -3.454  -1.300  0.00  0.00     0.136 C 
ATOM     16  C   UNL d   1       0.891  -5.789  -0.045  0.00  0.00     0.093 C 
ATOM     17  S   UNL d   1       0.541  -5.950  -1.827  0.00  0.00    -0.166 SA
ATOM     18  C   UNL d   1       0.435  -4.178  -2.221  0.00  0.00     0.093 C 
ATOM     19  O   UNL d   1      -0.021  -2.596   2.214  0.00  0.00    -0.270 OA
ENDBRANCH   1  12
TORSDOF 1
