REMARK  3 active torsions:
REMARK  status: ('A' for Active; 'I' for Inactive)
REMARK    1  A    between atoms: N_2  and  C_1 
REMARK    2  A    between atoms: N_5  and  C_3 
REMARK       I    between atoms: C_4  and  N_5 
REMARK    3  A    between atoms: C_7  and  C_4 
ROOT
ATOM      1  C   UNL d   1      -1.717   0.783   0.513  0.00  0.00     0.130 C 
ATOM      2  C   UNL d   1      -1.870  -0.564   0.160  0.00  0.00     0.068 C 
ATOM      3  C   UNL d   1      -0.462   1.413   0.427  0.00  0.00     0.045 C 
ATOM      4  C   UNL d   1      -0.704  -1.308  -0.077  0.00  0.00     0.039 C 
ATOM      5  C   UNL d   1       0.685   0.683   0.083  0.00  0.00    -0.054 C 
ATOM      6  C   UNL d   1       0.574  -0.708  -0.088  0.00  0.00    -0.054 C 
ATOM      7  C   UNL d   1       2.001   1.405  -0.017  0.00  0.00     0.049 C 
ATOM      8  C   UNL d   1       1.768  -1.614  -0.235  0.00  0.00     0.049 C 
ENDROOT
BRANCH   2   9
ATOM      9  N   UNL d   1      -3.087  -1.267   0.010  0.00  0.00    -0.320 N 
ATOM     10  C   UNL d   1      -4.305  -0.714  -0.364  0.00  0.00     0.263 C 
ATOM     11  O   UNL d   1      -4.420   0.458  -0.709  0.00  0.00    -0.267 OA
ATOM     12  H   UNL d   1      -3.051  -2.278  -0.019  0.00  0.00     0.169 HD
BRANCH  10  13
ATOM     13  C   UNL d   1      -5.431  -1.643  -0.377  0.00  0.00     0.072 A 
ATOM     14  S   UNL d   1      -5.248  -3.314  -0.032  0.00  0.00    -0.097 SA
ATOM     15  C   UNL d   1      -6.920  -3.610  -0.212  0.00  0.00     0.050 A 
ATOM     16  C   UNL d   1      -7.612  -2.467  -0.545  0.00  0.00     0.009 A 
ATOM     17  C   UNL d   1      -6.754  -1.336  -0.648  0.00  0.00     0.025 A 
ENDBRANCH  10  13
ENDBRANCH   2   9
BRANCH   1  18
ATOM     18  N   UNL d   1      -2.760   1.509   1.240  0.00  0.00    -0.113 N 
ATOM     19  O   UNL d   1      -3.430   0.867   2.067  0.00  0.00    -0.532 OA
ATOM     20  O   UNL d   1      -2.821   2.738   1.083  0.00  0.00    -0.532 OA
ENDBRANCH   1  18
TORSDOF 3
