REMARK  5 active torsions:
REMARK  status: ('A' for Active; 'I' for Inactive)
REMARK    1  A    between atoms: C_7  and  C_1 
REMARK    2  A    between atoms: C_13  and  C_2 
REMARK    3  A    between atoms: C_14  and  C_4 
REMARK    4  A    between atoms: C_9  and  C_11 
REMARK    5  A    between atoms: O_24  and  C_13 
ROOT
ATOM      1  C   UNL d   1       1.353  -1.474  -0.005  0.00  0.00     0.062 A 
ATOM      2  C   UNL d   1      -1.263  -1.477   0.132  0.00  0.00     0.053 A 
ATOM      3  C   UNL d   1       0.034  -0.874   0.011  0.00  0.00     0.023 A 
ATOM      4  C   UNL d   1      -2.362   0.647  -0.028  0.00  0.00     0.045 A 
ATOM      5  N   UNL d   1      -1.163   1.237  -0.177  0.00  0.00    -0.355 N 
ATOM      6  HN  UNL d   1      -1.117   2.241  -0.351  1.00  0.00     0.166 HD
ATOM      7  C   UNL d   1      -0.029   0.530  -0.102  0.00  0.00     0.045 A 
ATOM      8  C   UNL d   1      -2.444  -0.717   0.136  0.00  0.00     0.049 A 
ATOM      9  C   UNL d   1       2.400   0.742  -0.033  0.00  0.00     0.050 A 
ATOM     10  C   UNL d   1       2.502  -0.645   0.011  0.00  0.00     0.033 A 
ATOM     11  C   UNL d   1       1.123   1.296  -0.119  0.00  0.00     0.046 A 
ENDROOT
BRANCH   4  12
ATOM     12  C   UNL d   1      -3.550   1.522  -0.065  0.00  0.00     0.008 A 
ATOM     13  C   UNL d   1      -3.641   2.763   0.604  0.00  0.00     0.023 A 
ATOM     14 BR   UNL d   1      -2.263   3.461   1.722  0.00  0.00    -0.050 Br
ATOM     15  C   UNL d   1      -4.804   3.545   0.523  0.00  0.00     0.020 A 
ATOM     16  C   UNL d   1      -5.905   3.105  -0.208  0.00  0.00     0.001 A 
ATOM     17  C   UNL d   1      -5.846   1.886  -0.870  0.00  0.00     0.001 A 
ATOM     18  C   UNL d   1      -4.684   1.113  -0.805  0.00  0.00     0.015 A 
ENDBRANCH   4  12
BRANCH   2  19
ATOM     19  C   UNL d   1      -1.470  -2.899   0.445  0.00  0.00     0.177 C 
ATOM     20  O   UNL d   1      -0.956  -3.435   1.405  0.00  0.00    -0.646 OA
BRANCH  19  21
ATOM     21  O   UNL d   1      -2.323  -3.507  -0.412  0.00  0.00    -0.773 OA
ATOM     22  H   UNL d   1      -2.575  -2.988  -1.196  0.00  0.00     0.167 HD
ENDBRANCH  19  21
ENDBRANCH   2  19
BRANCH   1  23
ATOM     23  C   UNL d   1       1.643  -2.964  -0.064  0.00  0.00     0.418 C 
ATOM     24  F   UNL d   1       0.690  -3.695  -0.695  0.00  0.00    -0.166 F 
ATOM     25  F   UNL d   1       2.784  -3.217  -0.779  0.00  0.00    -0.166 F 
ATOM     26  F   UNL d   1       1.862  -3.513   1.157  0.00  0.00    -0.166 F 
ENDBRANCH   1  23
BRANCH   9  27
ATOM     27  C   UNL d   1       3.612   1.640   0.002  0.00  0.00     0.417 C 
ATOM     28  F   UNL d   1       4.789   0.956   0.041  0.00  0.00    -0.166 F 
ATOM     29  F   UNL d   1       3.687   2.452  -1.087  0.00  0.00    -0.166 F 
ATOM     30  F   UNL d   1       3.619   2.460   1.087  0.00  0.00    -0.166 F 
ENDBRANCH   9  27
TORSDOF 5
