REMARK  5 active torsions:
REMARK  status: ('A' for Active; 'I' for Inactive)
REMARK    1  A    between atoms: N_2  and  C_1 
REMARK       I    between atoms: C_3  and  N_2 
REMARK    2  A    between atoms: C_5  and  C_3 
REMARK    3  A    between atoms: C_6  and  C_7 
REMARK    4  A    between atoms: O_13  and  C_6 
REMARK    5  A    between atoms: O_16  and  C_8 
ROOT
ATOM      1  N   UNL d   1       2.086   2.553   0.154  0.00  0.00    -0.321 N 
ATOM      2  C   UNL d   1       1.400   3.712  -0.117  0.00  0.00     0.246 C 
ATOM      3  O   UNL d   1       0.274   3.816  -0.591  0.00  0.00    -0.268 OA
ATOM      4  H   UNL d   1       3.006   2.627   0.575  0.00  0.00     0.169 HD
ENDROOT
BRANCH   1   5
ATOM      5  C   UNL d   1       1.651   1.223  -0.034  0.00  0.00     0.070 A 
ATOM      6  C   UNL d   1       0.374   0.877  -0.480  0.00  0.00     0.056 A 
ATOM      7  C   UNL d   1       0.009  -0.469  -0.571  0.00  0.00     0.036 A 
ATOM      8 CL   UNL d   1      -1.579  -0.888  -1.091  0.00  0.00    -0.084 Cl
ATOM      9  C   UNL d   1       0.906  -1.481  -0.227  0.00  0.00     0.026 A 
ATOM     10  C   UNL d   1       2.190  -1.148   0.201  0.00  0.00     0.041 A 
ATOM     11  C   UNL d   1       2.561   0.195   0.276  0.00  0.00     0.095 A 
BRANCH  11  12
ATOM     12  O   UNL d   1       3.821   0.486   0.737  0.00  0.00    -0.354 OA
ATOM     13  C   UNL d   1       4.709   0.818  -0.335  0.00  0.00     0.210 C 
ENDBRANCH  11  12
ENDBRANCH   1   5
BRANCH   2  14
ATOM     14  C   UNL d   1       2.189   4.919   0.228  0.00  0.00     0.081 C 
ATOM     15  C   UNL d   1       1.608   6.124   0.141  0.00  0.00     0.086 C 
BRANCH  15  16
ATOM     16  C   UNL d   1       2.401   7.315   0.477  0.00  0.00     0.165 C 
ATOM     17  O   UNL d   1       3.575   7.287   0.803  0.00  0.00    -0.647 OA
BRANCH  16  18
ATOM     18  O   UNL d   1       1.681   8.448   0.386  0.00  0.00    -0.773 OA
ATOM     19  H   UNL d   1       0.750   8.337   0.120  0.00  0.00     0.167 HD
ENDBRANCH  16  18
ENDBRANCH  15  16
ENDBRANCH   2  14
TORSDOF 5
