REMARK  1 active torsions:
REMARK  status: ('A' for Active; 'I' for Inactive)
REMARK    1  A    between atoms: N_3  and  N_1 
REMARK       I    between atoms: C_2  and  N_3 
REMARK       I    between atoms: N_4  and  C_2 
ROOT
ATOM      1  C   UNL d   1       1.186  -1.583   1.812  0.00  0.00     0.693 C 
ATOM      2  N   UNL d   1       0.604  -0.805   0.859  0.00  0.00    -0.072 N 
ATOM      3  N   UNL d   1       2.550  -1.654   1.615  0.00  0.00    -0.215 N 
ATOM      4  N   UNL d   1       0.639  -2.240   2.775  0.00  0.00    -0.233 N 
ATOM      5  HN  UNL d   1       1.136  -2.831   3.442  1.00  0.00     0.174 HD
ATOM      6  S   UNL d   1       5.236  -1.683   3.351  0.00  0.00    -0.166 SA
ATOM      7  C   UNL d   1       3.384  -0.437   1.696  0.00  0.00     0.151 C 
ATOM      8  C   UNL d   1       3.258  -2.928   1.853  0.00  0.00     0.151 C 
ATOM      9  C   UNL d   1       4.115  -0.288   3.033  0.00  0.00     0.094 C 
ATOM     10  C   UNL d   1       3.984  -2.998   3.196  0.00  0.00     0.094 C 
ATOM     11  H   UNL d   1       1.189  -0.555   0.081  0.00  0.00     0.212 HD
ATOM     12  H   UNL d   1      -0.380  -2.077   2.766  0.00  0.00     0.174 HD
ENDROOT
BRANCH   2  13
ATOM     13  N   UNL d   1      -0.698  -0.524   0.798  0.00  0.00    -0.024 N 
ATOM     14  O   UNL d   1      -1.002   0.164  -0.175  0.00  0.00    -0.516 OA
ATOM     15  O   UNL d   1      -1.449  -0.945   1.681  0.00  0.00    -0.516 OA
ENDBRANCH   2  13
TORSDOF 1
