REMARK  7 active torsions:
REMARK  status: ('A' for Active; 'I' for Inactive)
REMARK    1  A    between atoms: C_4  and  C_1 
REMARK    2  A    between atoms: N_6  and  C_2 
REMARK    3  A    between atoms: O_15  and  C_4 
REMARK       I    between atoms: C_7  and  N_6 
REMARK    4  A    between atoms: C_11  and  C_7 
REMARK    5  A    between atoms: O_16  and  C_8 
REMARK    6  A    between atoms: O_17  and  C_9 
REMARK    7  A    between atoms: N_10  and  C_11 
ROOT
ATOM      1  C   UNL d   1       1.351  -0.345   1.245  0.00  0.00     0.069 A 
ATOM      2  C   UNL d   1       0.630  -1.454   0.768  0.00  0.00     0.053 A 
ATOM      3  C   UNL d   1       0.734   0.912   1.244  0.00  0.00     0.059 A 
ATOM      4  C   UNL d   1      -0.724  -1.300   0.424  0.00  0.00     0.070 A 
ATOM      5  C   UNL d   1      -0.587   1.086   0.813  0.00  0.00     0.102 A 
ATOM      6  C   UNL d   1      -1.336  -0.034   0.419  0.00  0.00     0.103 A 
ENDROOT
BRANCH   2   7
ATOM      7  N   UNL d   1       1.208  -2.726   0.520  0.00  0.00    -0.325 N 
ATOM      8  C   UNL d   1       2.412  -2.835  -0.163  0.00  0.00     0.250 C 
ATOM      9  O   UNL d   1       3.037  -1.884  -0.639  0.00  0.00    -0.271 OA
ATOM     10  H   UNL d   1       0.602  -3.530   0.400  0.00  0.00     0.169 HD
BRANCH   8  11
ATOM     11  C   UNL d   1       2.901  -4.263  -0.361  0.00  0.00     0.375 C 
BRANCH  11  12
ATOM     12  N   UNL d   1       1.993  -5.065  -1.218  0.00  0.00     0.101 N 
ATOM     13  C   UNL d   1       2.593  -6.410  -1.438  0.00  0.00     0.299 C 
ATOM     14  C   UNL d   1       3.778  -6.423  -2.425  0.00  0.00     0.198 C 
ATOM     15  O   UNL d   1       3.389  -5.887  -3.694  0.00  0.00    -0.388 OA
ATOM     16  C   UNL d   1       2.919  -4.542  -3.547  0.00  0.00     0.198 C 
ATOM     17  C   UNL d   1       1.747  -4.463  -2.554  0.00  0.00     0.299 C 
ENDBRANCH  11  12
ENDBRANCH   8  11
ENDBRANCH   2   7
BRANCH   1  18
ATOM     18  C   UNL d   1       2.699  -0.485   1.874  0.00  0.00     0.295 C 
ATOM     19  O   UNL d   1       3.108  -1.503   2.415  0.00  0.00    -0.259 OA
BRANCH  18  20
ATOM     20  O   UNL d   1       3.361   0.699   1.807  0.00  0.00    -0.322 OA
ATOM     21  C   UNL d   1       4.645   0.737   2.432  0.00  0.00     0.213 C 
ENDBRANCH  18  20
ENDBRANCH   1  18
BRANCH   6  22
ATOM     22  O   UNL d   1      -2.612   0.174  -0.032  0.00  0.00    -0.353 OA
ATOM     23  C   UNL d   1      -3.486  -0.943  -0.117  0.00  0.00     0.210 C 
ENDBRANCH   6  22
BRANCH   5  24
ATOM     24  O   UNL d   1      -0.961   2.404   0.836  0.00  0.00    -0.353 OA
ATOM     25  C   UNL d   1      -2.335   2.730   0.707  0.00  0.00     0.210 C 
ENDBRANCH   5  24
TORSDOF 7
