REMARK  11 active torsions:
REMARK  status: ('A' for Active; 'I' for Inactive)
REMARK    1  A    between atoms: S_16  and  C_7 
REMARK    2  A    between atoms: S_15  and  C_8 
REMARK    3  A    between atoms: C_17  and  C_13 
REMARK    4  A    between atoms: C_14  and  C_18 
REMARK    5  A    between atoms: C_21  and  C_17 
REMARK    6  A    between atoms: C_18  and  C_22 
REMARK    7  A    between atoms: C_26  and  C_21 
REMARK    8  A    between atoms: C_22  and  C_25 
REMARK    9  A    between atoms: C_23  and  C_26 
REMARK   10  A    between atoms: C_24  and  C_23 
REMARK   11  A    between atoms: C_25  and  C_24 
ROOT
ATOM      1  C   UNL d   1      -4.317   4.006  -0.009  0.00  0.00     0.000 C 
ENDROOT
BRANCH   1   2
ATOM      2  C   UNL d   1      -2.788   3.925  -0.002  0.00  0.00     0.000 C 
BRANCH   2   3
ATOM      3  C   UNL d   1      -2.302   2.472   0.005  0.00  0.00     0.008 C 
BRANCH   3   4
ATOM      4  C   UNL d   1      -0.775   2.395   0.015  0.00  0.00     0.086 C 
BRANCH   4   5
ATOM      5  C   UNL d   1      -0.299   0.993  -0.042  0.00  0.00     0.141 A 
ATOM      6  N   UNL d   1      -0.050   0.238  -1.090  0.00  0.00    -0.281 N 
ATOM      7  N   UNL d   1       0.391  -0.971  -0.595  0.00  0.00    -0.272 N 
ATOM      8  HN  UNL d   1      -0.161   0.495  -2.071  1.00  0.00     0.189 HD
ATOM      9  C   UNL d   1       0.382  -0.873   0.720  0.00  0.00     0.203 A 
ATOM     10  HN  UNL d   1       0.670  -1.786  -1.141  1.00  0.00     0.189 HD
ATOM     11  O   UNL d   1      -0.052   0.359   1.144  0.00  0.00    -0.272 OA
BRANCH   9  12
ATOM     12  S   UNL d   1       0.862  -2.128   1.820  0.00  0.00    -0.089 SA
ATOM     13  C   UNL d   1       1.346  -3.420   0.653  0.00  0.00     0.099 C 
ENDBRANCH   9  12
ENDBRANCH   4   5
ENDBRANCH   3   4
ENDBRANCH   2   3
ENDBRANCH   1   2
BRANCH   1  14
ATOM     14  C   UNL d   1      -4.800   5.459  -0.020  0.00  0.00     0.000 C 
BRANCH  14  15
ATOM     15  C   UNL d   1      -6.328   5.549  -0.025  0.00  0.00     0.000 C 
BRANCH  15  16
ATOM     16  C   UNL d   1      -6.795   7.006  -0.035  0.00  0.00     0.008 C 
BRANCH  16  17
ATOM     17  C   UNL d   1      -8.321   7.116  -0.043  0.00  0.00     0.086 C 
BRANCH  17  18
ATOM     18  C   UNL d   1      -8.752   8.533  -0.000  0.00  0.00     0.141 A 
ATOM     19  O   UNL d   1      -8.927   9.178  -1.193  0.00  0.00    -0.272 OA
ATOM     20  C   UNL d   1      -9.296  10.434  -0.783  0.00  0.00     0.203 A 
ATOM     21  N   UNL d   1      -9.340  10.535   0.531  0.00  0.00    -0.272 N 
ATOM     22  N   UNL d   1      -8.987   9.303   1.040  0.00  0.00    -0.281 N 
ATOM     23  HN  UNL d   1      -9.588  11.366   1.068  1.00  0.00     0.189 HD
ATOM     24  HN  UNL d   1      -8.921   9.042   2.023  1.00  0.00     0.189 HD
BRANCH  20  25
ATOM     25  S   UNL d   1      -9.652  11.719  -1.897  0.00  0.00    -0.089 SA
ATOM     26  C   UNL d   1     -10.016  13.060  -0.743  0.00  0.00     0.099 C 
ENDBRANCH  20  25
ENDBRANCH  17  18
ENDBRANCH  16  17
ENDBRANCH  15  16
ENDBRANCH  14  15
ENDBRANCH   1  14
TORSDOF 11
