REMARK  2 active torsions:
REMARK  status: ('A' for Active; 'I' for Inactive)
REMARK    1  A    between atoms: C_9  and  C_4 
REMARK    2  A    between atoms: S_11  and  C_10 
ROOT
ATOM      1  C   UNL d   1      -2.077   0.330   0.045  0.00  0.00    -0.006 C 
ATOM      2  C   UNL d   1      -1.096  -0.804   0.008  0.00  0.00     0.189 C 
ATOM      3  C   UNL d   1       0.348  -0.417   0.011  0.00  0.00     0.021 A 
ATOM      4  C   UNL d   1      -3.285   0.133  -0.514  0.00  0.00     0.022 C 
ATOM      5  C   UNL d   1       0.736   0.935  -0.030  0.00  0.00    -0.044 A 
ATOM      6  C   UNL d   1      -1.565   1.596   0.667  0.00  0.00     0.047 C 
ATOM      7  O   UNL d   1      -1.447  -1.975  -0.043  0.00  0.00    -0.287 OA
ATOM      8  C   UNL d   1      -0.294   2.036  -0.048  0.00  0.00     0.044 C 
ATOM      9  C   UNL d   1       1.321  -1.424   0.018  0.00  0.00     0.016 A 
ATOM     10  C   UNL d   1       2.098   1.258  -0.101  0.00  0.00     0.008 A 
ATOM     11  C   UNL d   1       2.676  -1.088  -0.029  0.00  0.00     0.001 A 
ATOM     12  C   UNL d   1       3.062   0.250  -0.096  0.00  0.00     0.001 A 
ENDROOT
BRANCH   4  13
ATOM     13  C   UNL d   1      -4.281   1.194  -0.660  0.00  0.00    -0.035 A 
ATOM     14  C   UNL d   1      -4.275   1.994  -1.808  0.00  0.00     0.012 A 
ATOM     15  C   UNL d   1      -5.182   3.051  -1.942  0.00  0.00     0.019 A 
ATOM     16  C   UNL d   1      -6.103   3.329  -0.927  0.00  0.00    -0.000 A 
ATOM     17  C   UNL d   1      -6.118   2.509   0.209  0.00  0.00     0.019 A 
ATOM     18  C   UNL d   1      -5.212   1.452   0.347  0.00  0.00     0.012 A 
BRANCH  16  19
ATOM     19  S   UNL d   1      -7.311   4.643  -1.022  0.00  0.00    -0.134 SA
ATOM     20  C   UNL d   1      -6.431   5.916  -1.968  0.00  0.00     0.095 C 
ENDBRANCH  16  19
ENDBRANCH   4  13
TORSDOF 2
