REMARK  1 active torsions:
REMARK  status: ('A' for Active; 'I' for Inactive)
REMARK    1  A    between atoms: C_8  and  C_6 
ROOT
ATOM      1  N   UNL d   1       0.834   0.308  -0.982  0.00  0.00    -0.305 N 
ATOM      2  HN  UNL d   1       0.021  -0.292  -0.843  1.00  0.00     0.186 HD
ATOM      3  C   UNL d   1       0.984   1.258  -1.853  0.00  0.00     0.043 C 
ATOM      4  N   UNL d   1       2.004   0.294  -0.298  0.00  0.00    -0.322 N 
ATOM      5  C   UNL d   1       2.334   1.945  -1.845  0.00  0.00     0.067 C 
ATOM      6  C   UNL d   1       3.120   0.897  -1.038  0.00  0.00     0.151 C 
ATOM      7  C   UNL d   1      -0.006   1.657  -2.860  0.00  0.00    -0.005 A 
ATOM      8  C   UNL d   1      -0.389   3.001  -2.990  0.00  0.00    -0.046 A 
ATOM      9  C   UNL d   1       2.332  -0.753   0.645  0.00  0.00     0.171 C 
ATOM     10  C   UNL d   1       2.274   3.295  -1.134  0.00  0.00     0.013 C 
ATOM     11  C   UNL d   1      -0.452   0.687  -3.764  0.00  0.00     0.014 A 
ATOM     12  C   UNL d   1       1.480   4.346  -1.909  0.00  0.00     0.005 C 
ATOM     13  C   UNL d   1      -0.016   4.045  -1.968  0.00  0.00     0.039 C 
ATOM     14  C   UNL d   1      -1.187   3.362  -4.087  0.00  0.00     0.008 A 
ATOM     15  C   UNL d   1      -1.246   1.067  -4.845  0.00  0.00     0.001 A 
ATOM     16  C   UNL d   1      -1.599   2.404  -5.015  0.00  0.00     0.001 A 
ENDROOT
BRANCH   6  17
ATOM     17  C   UNL d   1       3.859  -0.042  -1.974  0.00  0.00     0.007 A 
ATOM     18  S   UNL d   1       5.496   0.299  -2.377  0.00  0.00    -0.104 SA
ATOM     19  C   UNL d   1       5.588  -1.040  -3.435  0.00  0.00     0.050 A 
ATOM     20  C   UNL d   1       4.409  -1.746  -3.479  0.00  0.00     0.008 A 
ATOM     21  C   UNL d   1       3.412  -1.169  -2.641  0.00  0.00     0.017 A 
ENDBRANCH   6  17
TORSDOF 1
