REMARK  2 active torsions:
REMARK  status: ('A' for Active; 'I' for Inactive)
REMARK    1  A    between atoms: O_8  and  C_4 
REMARK    2  A    between atoms: O_9  and  C_5 
ROOT
ATOM      1  N   UNL d   1       1.161   1.364  -0.018  0.00  0.00    -0.336 N 
ATOM      2  HN  UNL d   1       1.142   2.384  -0.034  1.00  0.00     0.168 HD
ATOM      3  C   UNL d   1       2.431  -0.674   0.025  0.00  0.00     0.093 A 
ATOM      4  C   UNL d   1       1.251  -1.403   0.030  0.00  0.00     0.082 A 
ATOM      5  C   UNL d   1       2.326   0.698  -0.001  0.00  0.00     0.142 A 
ATOM      6  C   UNL d   1      -0.005  -0.760   0.013  0.00  0.00     0.024 A 
ATOM      7  C   UNL d   1       0.023   0.653  -0.013  0.00  0.00     0.047 A 
ATOM      8  C   UNL d   1      -1.261  -1.418   0.020  0.00  0.00     0.016 A 
ATOM      9  C   UNL d   1      -1.179   1.347  -0.039  0.00  0.00     0.030 A 
ATOM     10  C   UNL d   1      -2.453  -0.694  -0.013  0.00  0.00     0.001 A 
ATOM     11  C   UNL d   1      -2.412   0.692  -0.045  0.00  0.00     0.002 A 
ENDROOT
BRANCH   4  12
ATOM     12  O   UNL d   1       1.411  -2.764   0.044  0.00  0.00    -0.360 OA
ATOM     13  H   UNL d   1       0.549  -3.196  -0.053  0.00  0.00     0.217 HD
ENDBRANCH   4  12
BRANCH   5  14
ATOM     14  O   UNL d   1       3.436   1.490  -0.024  0.00  0.00    -0.346 OA
ATOM     15  H   UNL d   1       4.212   0.914  -0.070  0.00  0.00     0.219 HD
ENDBRANCH   5  14
TORSDOF 2
