REMARK  3 active torsions:
REMARK  status: ('A' for Active; 'I' for Inactive)
REMARK    1  A    between atoms: C_7  and  C_3 
REMARK    2  A    between atoms: C_6  and  C_7 
REMARK       I    between atoms: N_12  and  C_6 
REMARK    3  A    between atoms: C_13  and  N_12 
ROOT
ATOM      1  C   UNL d   1       4.168   1.987   0.660  0.00  0.00     0.229 C 
ATOM      2  N   UNL d   1       3.172   1.489  -0.155  0.00  0.00    -0.327 N 
ATOM      3  O   UNL d   1       4.893   1.292   1.377  0.00  0.00    -0.273 OA
ATOM      4  H   UNL d   1       2.756   2.140  -0.820  0.00  0.00     0.169 HD
ENDROOT
BRANCH   1   5
ATOM      5  C   UNL d   1       4.423   3.482   0.642  0.00  0.00     0.181 C 
BRANCH   5   6
ATOM      6  C   UNL d   1       3.420   4.348  -0.015  0.00  0.00     0.112 A 
ATOM      7  N   UNL d   1       2.808   4.043  -1.212  0.00  0.00    -0.333 N 
ATOM      8  C   UNL d   1       2.129   5.139  -1.452  0.00  0.00     0.260 A 
ATOM      9  HN  UNL d   1       2.867   3.188  -1.765  1.00  0.00     0.168 HD
ATOM     10  O   UNL d   1       2.257   6.091  -0.493  0.00  0.00    -0.232 OA
ATOM     11  N   UNL d   1       3.121   5.564   0.467  0.00  0.00    -0.247 N 
ATOM     12  HN  UNL d   1       3.447   5.999   1.330  1.00  0.00     0.196 HD
ENDBRANCH   5   6
ENDBRANCH   1   5
BRANCH   2  13
ATOM     13  C   UNL d   1       2.688   0.158  -0.194  0.00  0.00     0.036 A 
ATOM     14  C   UNL d   1       3.094  -0.841   0.692  0.00  0.00     0.053 A 
ATOM     15  C   UNL d   1       2.541  -2.127   0.626  0.00  0.00     0.042 A 
ATOM     16 CL   UNL d   1       3.096  -3.303   1.768  0.00  0.00    -0.084 Cl
ATOM     17  C   UNL d   1       1.564  -2.442  -0.326  0.00  0.00    -0.040 A 
ATOM     18  C   UNL d   1       1.168  -1.442  -1.224  0.00  0.00     0.011 A 
ATOM     19  C   UNL d   1       0.938  -3.807  -0.396  0.00  0.00     0.050 C 
ATOM     20  C   UNL d   1       1.722  -0.156  -1.156  0.00  0.00     0.030 A 
ENDBRANCH   2  13
TORSDOF 3
