REMARK  2 active torsions:
REMARK  status: ('A' for Active; 'I' for Inactive)
REMARK    1  A    between atoms: C_3  and  C_1 
REMARK    2  A    between atoms: O_12  and  C_1 
ROOT
ATOM      1  C   UNL d   1      -1.436   0.037   2.841  0.00  0.00     0.043 A 
ATOM      2  C   UNL d   1       0.335   0.370   1.258  0.00  0.00     0.040 A 
ATOM      3  N   UNL d   1      -2.535  -0.494   3.477  0.00  0.00    -0.365 N 
ATOM      4  C   UNL d   1      -0.772  -0.382   1.681  0.00  0.00     0.048 A 
ATOM      5  C   UNL d   1      -2.841   0.248   4.587  0.00  0.00     0.089 A 
ATOM      6  C   UNL d   1      -1.042   1.161   3.570  0.00  0.00    -0.008 A 
ATOM      7  C   UNL d   1      -1.935   1.278   4.670  0.00  0.00     0.030 A 
ATOM      8  C   UNL d   1       0.737   1.514   1.957  0.00  0.00     0.019 A 
ATOM      9  C   UNL d   1       0.061   1.911   3.119  0.00  0.00     0.015 A 
ATOM     10  H   UNL d   1      -3.041  -1.312   3.163  0.00  0.00     0.165 HD
ENDROOT
BRANCH   2  11
ATOM     11  C   UNL d   1       1.032  -0.070   0.024  0.00  0.00     0.176 C 
ATOM     12  O   UNL d   1       0.457  -0.595  -0.914  0.00  0.00    -0.646 OA
BRANCH  11  13
ATOM     13  O   UNL d   1       2.368   0.119   0.061  0.00  0.00    -0.773 OA
ATOM     14  H   UNL d   1       2.719   0.371   0.936  0.00  0.00     0.167 HD
ENDBRANCH  11  13
ENDBRANCH   2  11
TORSDOF 2
