REMARK  5 active torsions:
REMARK  status: ('A' for Active; 'I' for Inactive)
REMARK    1  A    between atoms: S_8  and  C_2 
REMARK    2  A    between atoms: C_6  and  C_3 
REMARK    3  A    between atoms: O_14  and  C_6 
REMARK    4  A    between atoms: C_13  and  S_8 
REMARK    5  A    between atoms: C_21  and  O_14 
ROOT
ATOM      1  C   UNL d   1       1.009  -0.160   0.262  0.00  0.00     0.094 A 
ATOM      2  C   UNL d   1       0.312   1.040   0.145  0.00  0.00     0.097 A 
ATOM      3  C   UNL d   1       0.276  -1.343   0.121  0.00  0.00     0.065 A 
ATOM      4  N   UNL d   1      -1.040   1.094   0.011  0.00  0.00    -0.353 N 
ATOM      5  HN  UNL d   1      -1.518   1.992  -0.058  1.00  0.00     0.166 HD
ATOM      6  C   UNL d   1       2.401  -0.163   0.588  0.00  0.00     0.103 C 
ATOM      7  N   UNL d   1       3.521  -0.168   0.904  0.00  0.00    -0.191 NA
ATOM      8  C   UNL d   1      -1.117  -1.294  -0.015  0.00  0.00     0.043 A 
ATOM      9  C   UNL d   1      -1.741  -0.060  -0.029  0.00  0.00     0.007 A 
ATOM     10  C   UNL d   1      -3.234   0.057  -0.080  0.00  0.00     0.068 C 
ENDROOT
BRANCH   2  11
ATOM     11  S   UNL d   1       1.134   2.613  -0.043  0.00  0.00    -0.071 SA
BRANCH  11  12
ATOM     12  C   UNL d   1       1.115   3.290   1.602  0.00  0.00     0.007 A 
ATOM     13  C   UNL d   1       2.329   3.695   2.167  0.00  0.00     0.019 A 
ATOM     14  C   UNL d   1       2.355   4.367   3.391  0.00  0.00     0.008 A 
ATOM     15  C   UNL d   1       1.165   4.652   4.068  0.00  0.00    -0.062 A 
ATOM     16  C   UNL d   1      -0.048   4.220   3.519  0.00  0.00     0.008 A 
ATOM     17  C   UNL d   1       1.208   5.433   5.348  0.00  0.00     0.048 C 
ATOM     18  C   UNL d   1      -0.073   3.547   2.291  0.00  0.00     0.019 A 
ENDBRANCH  11  12
ENDBRANCH   2  11
BRANCH   3  19
ATOM     19  C   UNL d   1       0.881  -2.697   0.106  0.00  0.00     0.295 C 
ATOM     20  O   UNL d   1       0.291  -3.689   0.502  0.00  0.00    -0.259 OA
BRANCH  19  21
ATOM     21  O   UNL d   1       2.092  -2.666  -0.493  0.00  0.00    -0.318 OA
BRANCH  21  22
ATOM     22  C   UNL d   1       2.770  -3.928  -0.616  0.00  0.00     0.174 C 
ATOM     23  C   UNL d   1       3.417  -4.324   0.699  0.00  0.00     0.034 C 
ENDBRANCH  21  22
ENDBRANCH  19  21
ENDBRANCH   3  19
TORSDOF 5
