REMARK  4 active torsions:
REMARK  status: ('A' for Active; 'I' for Inactive)
REMARK    1  A    between atoms: N_2  and  C_9 
REMARK    2  A    between atoms: S_12  and  C_3 
REMARK    3  A    between atoms: C_15  and  S_12 
REMARK    4  A    between atoms: C_16  and  C_15 
ROOT
ATOM      1  C   UNL d   1       4.268  -0.389  -0.011  0.00  0.00     0.120 C 
ENDROOT
BRANCH   1   2
ATOM      2  S   UNL d   1       3.176   0.704  -0.970  0.00  0.00    -0.099 SA
BRANCH   2   3
ATOM      3  C   UNL d   1       1.601   0.018  -0.683  0.00  0.00     0.128 A 
ATOM      4  S   UNL d   1       0.172   0.812  -1.207  0.00  0.00    -0.050 SA
ATOM      5  C   UNL d   1      -0.706  -0.537  -0.612  0.00  0.00     0.065 A 
ATOM      6  N   UNL d   1       0.045  -1.459  -0.045  0.00  0.00    -0.297 N 
ATOM      7  C   UNL d   1      -2.181  -0.597  -0.767  0.00  0.00     0.078 C 
ATOM      8  N   UNL d   1       1.392  -1.134  -0.085  0.00  0.00    -0.287 N 
ATOM      9  HN  UNL d   1      -0.321  -2.313   0.376  1.00  0.00     0.187 HD
ATOM     10  HN  UNL d   1       2.133  -1.718   0.303  1.00  0.00     0.188 HD
ENDBRANCH   2   3
ENDBRANCH   1   2
BRANCH   1  11
ATOM     11  C   UNL d   1       5.720   0.066  -0.052  0.00  0.00    -0.048 A 
ATOM     12  C   UNL d   1       6.075   1.420   0.093  0.00  0.00     0.010 A 
ATOM     13  C   UNL d   1       7.409   1.832   0.023  0.00  0.00     0.036 A 
ATOM     14  C   UNL d   1       8.414   0.878  -0.152  0.00  0.00     0.102 A 
ATOM     15  C   UNL d   1       8.092  -0.481  -0.244  0.00  0.00     0.036 A 
ATOM     16  C   UNL d   1       6.751  -0.881  -0.191  0.00  0.00     0.010 A 
BRANCH  14  17
ATOM     17  N   UNL d   1       9.814   1.311  -0.241  0.00  0.00    -0.116 N 
ATOM     18  O   UNL d   1      10.683   0.434  -0.364  0.00  0.00    -0.532 OA
ATOM     19  O   UNL d   1      10.049   2.527  -0.190  0.00  0.00    -0.532 OA
ENDBRANCH  14  17
ENDBRANCH   1  11
TORSDOF 4
