REMARK  1 active torsions:
REMARK  status: ('A' for Active; 'I' for Inactive)
REMARK    1  A    between atoms: N_9  and  C_6 
ROOT
ATOM      1  C   UNL d   1       0.512  -1.465  -0.041  0.00  0.00     0.261 A 
ATOM      2  N   UNL d   1       1.789  -0.994  -0.055  0.00  0.00    -0.289 N 
ATOM      3  C   UNL d   1      -0.366  -0.292  -0.022  0.00  0.00     0.069 A 
ATOM      4  C   UNL d   1       1.838   0.364   0.000  0.00  0.00     0.259 A 
ATOM      5  C   UNL d   1       0.453   0.828   0.017  0.00  0.00     0.050 A 
ATOM      6  C   UNL d   1      -1.749  -0.200  -0.008  0.00  0.00     0.022 A 
ATOM      7  O   UNL d   1       0.149  -2.625  -0.005  0.00  0.00    -0.267 OA
ATOM      8  O   UNL d   1       2.820   1.076   0.041  0.00  0.00    -0.267 OA
ATOM      9  C   UNL d   1      -0.055   2.111   0.054  0.00  0.00     0.018 A 
ATOM     10  C   UNL d   1      -1.444   2.240   0.034  0.00  0.00     0.003 A 
ATOM     11  C   UNL d   1      -2.277   1.099  -0.017  0.00  0.00     0.024 A 
ATOM     12  H   UNL d   1       2.604  -1.585  -0.046  0.00  0.00     0.172 HD
ENDROOT
BRANCH   6  13
ATOM     13  N   UNL d   1      -2.580  -1.301  -0.220  0.00  0.00    -0.302 NA
ATOM     14  H   UNL d   1      -2.143  -2.197   0.012  0.00  0.00     0.124 HD
ATOM     15  H   UNL d   1      -3.522  -1.216   0.145  0.00  0.00     0.124 HD
ENDBRANCH   6  13
TORSDOF 1
