REMARK  4 active torsions:
REMARK  status: ('A' for Active; 'I' for Inactive)
REMARK    1  A    between atoms: S_2  and  C_1 
REMARK    2  A    between atoms: C_8  and  S_2 
REMARK    3  A    between atoms: C_7  and  C_4 
REMARK    4  A    between atoms: O_15  and  C_7 
ROOT
ATOM      1  C   UNL d   1       0.700   1.257   0.018  0.00  0.00     0.078 A 
ATOM      2  C   UNL d   1       1.319  -0.058  -0.027  0.00  0.00    -0.016 A 
ATOM      3  C   UNL d   1       0.345  -1.067  -0.049  0.00  0.00     0.087 A 
ATOM      4  S   UNL d   1      -1.245  -0.414  -0.052  0.00  0.00    -0.094 SA
ATOM      5  C   UNL d   1      -0.677   1.182   0.007  0.00  0.00     0.075 A 
ATOM      6  C   UNL d   1       2.794  -0.340  -0.030  0.00  0.00     0.051 C 
ENDROOT
BRANCH   1   7
ATOM      7  S   UNL d   1       1.493   2.816   0.071  0.00  0.00     0.207 S 
ATOM      8  O   UNL d   1       0.496   3.721   0.614  0.00  0.00    -0.217 OA
ATOM      9  O   UNL d   1       2.763   2.606   0.729  0.00  0.00    -0.217 OA
BRANCH   7  10
ATOM     10  C   UNL d   1       1.775   3.254  -1.626  0.00  0.00     0.064 A 
ATOM     11  C   UNL d   1       0.842   4.057  -2.295  0.00  0.00     0.025 A 
ATOM     12  C   UNL d   1       1.071   4.424  -3.623  0.00  0.00     0.025 A 
ATOM     13  C   UNL d   1       2.231   3.998  -4.271  0.00  0.00     0.034 A 
ATOM     14  C   UNL d   1       3.174   3.221  -3.596  0.00  0.00     0.025 A 
ATOM     15 CL   UNL d   1       2.504   4.439  -5.911  0.00  0.00    -0.084 Cl
ATOM     16  C   UNL d   1       2.953   2.854  -2.265  0.00  0.00     0.025 A 
ENDBRANCH   7  10
ENDBRANCH   1   7
BRANCH   3  17
ATOM     17  C   UNL d   1       0.452  -2.527  -0.065  0.00  0.00     0.300 C 
ATOM     18  O   UNL d   1      -0.481  -3.321  -0.093  0.00  0.00    -0.259 OA
BRANCH  17  19
ATOM     19  O   UNL d   1       1.760  -2.916  -0.045  0.00  0.00    -0.322 OA
ATOM     20  C   UNL d   1       1.962  -4.329  -0.042  0.00  0.00     0.213 C 
ENDBRANCH  17  19
ENDBRANCH   3  17
TORSDOF 4
