REMARK  2 active torsions:
REMARK  status: ('A' for Active; 'I' for Inactive)
REMARK    1  A    between atoms: N_10  and  C_3 
REMARK    2  A    between atoms: S_9  and  C_4 
ROOT
ATOM      1  N   UNL d   1       2.301  -0.166   0.043  0.00  0.00    -0.327 N 
ATOM      2  HN  UNL d   1       3.291   0.078   0.072  1.00  0.00     0.169 HD
ATOM      3  C   UNL d   1       1.344   0.770   0.069  0.00  0.00     0.092 A 
ATOM      4  C   UNL d   1       1.890  -1.440  -0.021  0.00  0.00     0.145 A 
ATOM      5  N   UNL d   1       0.610  -1.836  -0.060  0.00  0.00    -0.336 N 
ATOM      6  HN  UNL d   1       0.363  -2.824  -0.116  1.00  0.00     0.168 HD
ATOM      7  C   UNL d   1      -0.024   0.474   0.046  0.00  0.00     0.029 A 
ATOM      8  C   UNL d   1      -0.330  -0.888  -0.022  0.00  0.00     0.047 A 
ATOM      9  C   UNL d   1      -1.068   1.430   0.092  0.00  0.00     0.017 A 
ATOM     10  C   UNL d   1      -1.667  -1.266  -0.049  0.00  0.00     0.030 A 
ATOM     11  C   UNL d   1      -2.402   1.027   0.059  0.00  0.00     0.001 A 
ATOM     12  C   UNL d   1      -2.702  -0.327  -0.010  0.00  0.00     0.002 A 
ENDROOT
BRANCH   3  13
ATOM     13  N   UNL d   1       1.809   2.089   0.149  0.00  0.00    -0.288 NA
ATOM     14  H   UNL d   1       2.825   2.055   0.115  0.00  0.00     0.125 HD
ATOM     15  H   UNL d   1       1.429   2.661  -0.596  0.00  0.00     0.125 HD
ENDBRANCH   3  13
BRANCH   4  16
ATOM     16  S   UNL d   1       3.102  -2.742  -0.076  0.00  0.00    -0.098 SA
ATOM     17  C   UNL d   1       4.629  -1.776  -0.033  0.00  0.00     0.099 C 
ENDBRANCH   4  16
TORSDOF 2
