REMARK  3 active torsions:
REMARK  status: ('A' for Active; 'I' for Inactive)
REMARK    1  A    between atoms: C_10  and  N_3 
REMARK    2  A    between atoms: C_13  and  C_10 
REMARK    3  A    between atoms: O_20  and  C_17 
ROOT
ATOM      1  C   UNL d   1      -1.067   1.185  -0.196  0.00  0.00     0.054 A 
ATOM      2  C   UNL d   1      -0.834  -0.126   0.007  0.00  0.00     0.064 A 
ATOM      3  N   UNL d   1      -1.873  -1.003   0.295  0.00  0.00    -0.308 N 
ATOM      4  C   UNL d   1      -3.158  -0.510   0.622  0.00  0.00     0.259 C 
ATOM      5  C   UNL d   1       0.215   1.895  -0.312  0.00  0.00     0.196 A 
ATOM      6  C   UNL d   1      -2.409   1.737  -0.159  0.00  0.00    -0.004 A 
ATOM      7  C   UNL d   1       0.616  -0.359  -0.030  0.00  0.00     0.006 A 
ATOM      8  C   UNL d   1      -3.416   0.943   0.403  0.00  0.00     0.043 A 
ATOM      9  C   UNL d   1       1.248   0.879  -0.179  0.00  0.00     0.027 A 
ATOM     10  O   UNL d   1      -4.077  -1.220   1.024  0.00  0.00    -0.267 OA
ATOM     11  O   UNL d   1       0.403   3.088  -0.458  0.00  0.00    -0.286 OA
ATOM     12  C   UNL d   1      -2.728   3.015  -0.626  0.00  0.00     0.013 A 
ATOM     13  C   UNL d   1       1.425  -1.476   0.106  0.00  0.00     0.014 A 
ATOM     14  C   UNL d   1      -4.681   1.481   0.651  0.00  0.00     0.018 A 
ATOM     15  C   UNL d   1       2.621   1.070  -0.167  0.00  0.00     0.016 A 
ATOM     16  C   UNL d   1      -4.017   3.524  -0.451  0.00  0.00     0.001 A 
ATOM     17  C   UNL d   1       2.824  -1.323   0.103  0.00  0.00     0.001 A 
ATOM     18  C   UNL d   1      -4.977   2.779   0.231  0.00  0.00     0.001 A 
ATOM     19  C   UNL d   1       3.417  -0.058  -0.024  0.00  0.00     0.001 A 
ENDROOT
BRANCH   3  20
ATOM     20  C   UNL d   1      -1.738  -2.454   0.231  0.00  0.00     0.171 C 
BRANCH  20  21
ATOM     21  C   UNL d   1      -1.252  -3.146   1.484  0.00  0.00    -0.037 A 
ATOM     22  C   UNL d   1      -1.141  -2.489   2.719  0.00  0.00     0.045 A 
ATOM     23  C   UNL d   1      -0.646  -3.154   3.841  0.00  0.00     0.068 A 
ATOM     24  C   UNL d   1      -0.292  -4.501   3.738  0.00  0.00     0.037 A 
ATOM     25  C   UNL d   1      -0.428  -5.179   2.528  0.00  0.00     0.003 A 
ATOM     26  C   UNL d   1      -0.905  -4.505   1.407  0.00  0.00     0.009 A 
BRANCH  23  27
ATOM     27  O   UNL d   1      -0.456  -2.599   5.077  0.00  0.00    -0.356 OA
ATOM     28  C   UNL d   1      -0.780  -1.219   5.211  0.00  0.00     0.210 C 
ENDBRANCH  23  27
ENDBRANCH  20  21
ENDBRANCH   3  20
TORSDOF 3
