REMARK  2 active torsions:
REMARK  status: ('A' for Active; 'I' for Inactive)
REMARK    1  A    between atoms: N_2  and  C_1 
REMARK    2  A    between atoms: N_4  and  C_3 
ROOT
ATOM      1  C   UNL d   1       1.709   1.151   0.365  0.00  0.00     0.131 A 
ATOM      2  C   UNL d   1       2.512   0.039   0.031  0.00  0.00     0.063 A 
ATOM      3  C   UNL d   1       0.304   1.144   0.276  0.00  0.00     0.062 A 
ATOM      4  C   UNL d   1       1.802  -1.088  -0.433  0.00  0.00     0.033 A 
ATOM      5  C   UNL d   1      -0.338   0.002  -0.176  0.00  0.00     0.036 A 
ATOM      6  C   UNL d   1       0.405  -1.113  -0.540  0.00  0.00     0.026 A 
ATOM      7 CL   UNL d   1      -2.051  -0.032  -0.294  0.00  0.00    -0.084 Cl
ENDROOT
BRANCH   2   8
ATOM      8  N   UNL d   1       3.888  -0.064   0.161  0.00  0.00    -0.377 N 
ATOM      9  C   UNL d   1       4.660   0.577   1.240  0.00  0.00     0.133 C 
ATOM     10  C   UNL d   1       5.574  -0.437   1.940  0.00  0.00     0.093 C 
ATOM     11  S   UNL d   1       6.764  -1.237   0.809  0.00  0.00    -0.166 SA
ATOM     12  C   UNL d   1       5.576  -1.765  -0.472  0.00  0.00     0.093 C 
ATOM     13  C   UNL d   1       4.695  -0.607  -0.951  0.00  0.00     0.133 C 
ENDBRANCH   2   8
BRANCH   1  14
ATOM     14  N   UNL d   1       2.295   2.424   0.744  0.00  0.00    -0.113 N 
ATOM     15  O   UNL d   1       3.003   3.002  -0.088  0.00  0.00    -0.532 OA
ATOM     16  O   UNL d   1       2.005   2.855   1.869  0.00  0.00    -0.532 OA
ENDBRANCH   1  14
TORSDOF 2
