REMARK  7 active torsions:
REMARK  status: ('A' for Active; 'I' for Inactive)
REMARK    1  A    between atoms: C_8  and  N_1 
REMARK    2  A    between atoms: C_9  and  C_2 
REMARK    3  A    between atoms: S_14  and  C_5 
REMARK    4  A    between atoms: C_10  and  C_8 
REMARK    5  A    between atoms: C_12  and  C_13 
REMARK    6  A    between atoms: C_24  and  S_14 
REMARK    7  A    between atoms: C_22  and  C_24 
ROOT
ATOM      1  N   UNL d   1      -0.241  -1.198  -0.018  0.00  0.00    -0.305 N 
ATOM      2  C   UNL d   1       0.981  -0.544  -0.099  0.00  0.00     0.135 A 
ATOM      3  N   UNL d   1       0.746   0.758  -0.019  0.00  0.00    -0.283 N 
ATOM      4  HN  UNL d   1       1.460   1.486   0.014  1.00  0.00     0.188 HD
ATOM      5  C   UNL d   1      -1.188  -0.200  -0.021  0.00  0.00     0.163 A 
ATOM      6  N   UNL d   1      -0.605   0.971   0.012  0.00  0.00    -0.278 N 
ATOM      7  HN  UNL d   1      -1.072   1.877   0.053  1.00  0.00     0.189 HD
ENDROOT
BRANCH   2   8
ATOM      8  C   UNL d   1       2.333  -1.120  -0.158  0.00  0.00     0.009 A 
ATOM      9  C   UNL d   1       2.661  -2.283  -0.859  0.00  0.00     0.016 A 
ATOM     10  C   UNL d   1       3.961  -2.813  -0.810  0.00  0.00     0.009 A 
ATOM     11  C   UNL d   1       4.989  -2.188  -0.083  0.00  0.00    -0.051 A 
ATOM     12  C   UNL d   1       4.669  -0.979   0.551  0.00  0.00     0.009 A 
ATOM     13  C   UNL d   1       3.368  -0.458   0.514  0.00  0.00     0.016 A 
BRANCH  11  14
ATOM     14  C   UNL d   1       6.381  -2.836   0.029  0.00  0.00    -0.024 C 
ATOM     15  C   UNL d   1       7.378  -2.011   0.875  0.00  0.00     0.019 C 
ATOM     16  C   UNL d   1       6.246  -4.219   0.704  0.00  0.00     0.019 C 
ATOM     17  C   UNL d   1       7.013  -3.023  -1.367  0.00  0.00     0.019 C 
ENDBRANCH  11  14
ENDBRANCH   2   8
BRANCH   1  18
ATOM     18  C   UNL d   1      -0.502  -2.626  -0.026  0.00  0.00     0.198 C 
BRANCH  18  19
ATOM     19  C   UNL d   1       0.096  -3.388   1.103  0.00  0.00     0.070 A 
ATOM     20  O   UNL d   1      -0.101  -4.741   1.035  0.00  0.00    -0.325 OA
ATOM     21  C   UNL d   1       0.504  -5.295   2.114  0.00  0.00     0.142 A 
ATOM     22  C   UNL d   1       1.097  -4.323   2.881  0.00  0.00     0.027 A 
ATOM     23  C   UNL d   1       0.821  -3.089   2.240  0.00  0.00     0.036 A 
ENDBRANCH  18  19
ENDBRANCH   1  18
BRANCH   5  24
ATOM     24  S   UNL d   1      -2.898  -0.463  -0.085  0.00  0.00    -0.089 SA
BRANCH  24  25
ATOM     25  C   UNL d   1      -3.473   1.142  -0.717  0.00  0.00     0.108 C 
BRANCH  25  26
ATOM     26  C   UNL d   1      -4.969   1.106  -0.845  0.00  0.00    -0.026 C 
ATOM     27  C   UNL d   1      -5.646   1.258  -1.996  0.00  0.00     0.007 C 
ENDBRANCH  25  26
ENDBRANCH  24  25
ENDBRANCH   5  24
TORSDOF 7
