REMARK  4 active torsions:
REMARK  status: ('A' for Active; 'I' for Inactive)
REMARK    1  A    between atoms: N_2  and  S_1 
REMARK    2  A    between atoms: C_5  and  S_1 
REMARK    3  A    between atoms: C_6  and  C_9 
REMARK    4  A    between atoms: C_7  and  C_8 
ROOT
ATOM      1  C   UNL d   1       0.356   0.614  -1.456  0.00  0.00     0.081 A 
ATOM      2  C   UNL d   1      -0.984   0.455  -3.466  0.00  0.00     0.050 A 
ATOM      3  C   UNL d   1       0.205   2.534  -2.926  0.00  0.00     0.050 A 
ATOM      4  C   UNL d   1       0.701   1.933  -1.760  0.00  0.00     0.041 A 
ATOM      5  C   UNL d   1      -0.479  -0.127  -2.296  0.00  0.00     0.041 A 
ATOM      6  C   UNL d   1      -0.640   1.785  -3.767  0.00  0.00     0.032 A 
ENDROOT
BRANCH   1   7
ATOM      7  S   UNL d   1       1.057  -0.150  -0.006  0.00  0.00     0.265 S 
ATOM      8  O   UNL d   1       0.462  -1.470   0.115  0.00  0.00    -0.200 OA
ATOM      9  O   UNL d   1       2.496  -0.029  -0.160  0.00  0.00    -0.200 OA
BRANCH   7  10
ATOM     10  N   UNL d   1       0.557   0.776   1.216  0.00  0.00    -0.256 N 
ATOM     11  C   UNL d   1       0.926   0.482   2.419  0.00  0.00     0.162 C 
ATOM     12  N   UNL d   1       0.608   1.334   3.448  0.00  0.00    -0.264 NA
ATOM     13  N   UNL d   1       1.577  -0.638   2.855  0.00  0.00    -0.366 N 
ATOM     14  C   UNL d   1       1.492   1.515   4.591  0.00  0.00     0.097 C 
ATOM     15  H   UNL d   1      -0.358   1.206   3.734  0.00  0.00     0.130 HD
ATOM     16  C   UNL d   1       2.104   0.201   5.043  0.00  0.00     0.034 C 
ATOM     17  C   UNL d   1       2.635  -0.537   3.833  0.00  0.00     0.123 C 
ATOM     18  H   UNL d   1       1.762  -1.347   2.148  0.00  0.00     0.162 HD
ATOM     19  HN  UNL d   1      -0.041   1.583   1.041  1.00  0.00     0.181 HD
ENDBRANCH   7  10
ENDBRANCH   1   7
BRANCH   3  20
ATOM     20  C   UNL d   1       0.568   3.956  -3.291  0.00  0.00     0.417 C 
ATOM     21  F   UNL d   1       1.436   4.539  -2.420  0.00  0.00    -0.166 F 
ATOM     22  F   UNL d   1       1.152   4.041  -4.517  0.00  0.00    -0.166 F 
ATOM     23  F   UNL d   1      -0.522   4.770  -3.338  0.00  0.00    -0.166 F 
ENDBRANCH   3  20
BRANCH   2  24
ATOM     24  C   UNL d   1      -1.874  -0.334  -4.403  0.00  0.00     0.417 C 
ATOM     25  F   UNL d   1      -2.081  -1.617  -4.004  0.00  0.00    -0.166 F 
ATOM     26  F   UNL d   1      -3.106   0.226  -4.534  0.00  0.00    -0.166 F 
ATOM     27  F   UNL d   1      -1.357  -0.408  -5.659  0.00  0.00    -0.166 F 
ENDBRANCH   2  24
TORSDOF 4
