REMARK  2 active torsions:
REMARK  status: ('A' for Active; 'I' for Inactive)
REMARK    1  A    between atoms: S_21  and  C_6 
REMARK    2  A    between atoms: C_13  and  C_7 
ROOT
ATOM      1  N   UNL d   1      -2.155  -1.890  -0.400  0.00  0.00    -0.236 N 
ATOM      2  C   UNL d   1      -1.022  -1.194  -0.711  0.00  0.00     0.144 A 
ATOM      3  N   UNL d   1       0.086  -1.879  -0.797  0.00  0.00    -0.351 N 
ATOM      4  HN  UNL d   1       0.956  -1.672  -1.287  1.00  0.00     0.163 HD
ATOM      5  N   UNL d   1      -1.780  -3.178   0.025  0.00  0.00    -0.202 NA
ATOM      6  C   UNL d   1      -3.345  -1.266  -0.098  0.00  0.00     0.162 A 
ATOM      7  C   UNL d   1      -0.302  -3.054   0.037  0.00  0.00     0.210 C 
ATOM      8  C   UNL d   1      -1.109   0.270  -0.806  0.00  0.00     0.105 A 
ATOM      9  N   UNL d   1      -3.464   0.038  -0.142  0.00  0.00    -0.344 N 
ATOM     10  HN  UNL d   1      -4.355   0.501   0.040  1.00  0.00     0.167 HD
ATOM     11  C   UNL d   1      -2.313   0.760  -0.450  0.00  0.00     0.116 A 
ATOM     12  C   UNL d   1       0.045   1.064  -0.958  0.00  0.00     0.104 C 
ATOM     13  N   UNL d   1       0.986   1.743  -1.034  0.00  0.00    -0.191 NA
ATOM     14  H   UNL d   1      -2.023  -3.842  -0.711  0.00  0.00     0.150 HD
ENDROOT
BRANCH   6  15
ATOM     15  S   UNL d   1      -4.761  -2.236   0.281  0.00  0.00    -0.097 SA
ATOM     16  C   UNL d   1      -5.635  -1.110   1.389  0.00  0.00     0.099 C 
ENDBRANCH   6  15
BRANCH   7  17
ATOM     17  C   UNL d   1       0.253  -2.816   1.452  0.00  0.00    -0.017 A 
ATOM     18  C   UNL d   1      -0.424  -3.249   2.603  0.00  0.00     0.050 A 
ATOM     19  C   UNL d   1       0.162  -3.012   3.831  0.00  0.00     0.105 A 
ATOM     20  O   UNL d   1      -0.354  -3.380   5.035  0.00  0.00    -0.323 OA
ATOM     21  C   UNL d   1       1.372  -2.368   3.957  0.00  0.00     0.105 A 
ATOM     22  C   UNL d   1       0.705  -2.959   5.921  0.00  0.00     0.352 A 
ATOM     23  O   UNL d   1       1.777  -2.269   5.249  0.00  0.00    -0.323 OA
ATOM     24  C   UNL d   1       2.058  -1.902   2.862  0.00  0.00     0.040 A 
ATOM     25  C   UNL d   1       1.494  -2.133   1.605  0.00  0.00     0.013 A 
ENDBRANCH   7  17
TORSDOF 2
