REMARK  5 active torsions:
REMARK  status: ('A' for Active; 'I' for Inactive)
REMARK    1  A    between atoms: N_5  and  C_1 
REMARK    2  A    between atoms: N_7  and  C_1 
REMARK    3  A    between atoms: C_2  and  N_5 
REMARK    4  A    between atoms: N_3  and  C_4 
REMARK    5  A    between atoms: C_6  and  N_7 
ROOT
ATOM      1  N   UNL d   1       0.653  -0.942  -0.635  0.00  0.00    -0.331 N 
ATOM      2  H   UNL d   1      -0.346  -0.839  -0.768  0.00  0.00     0.168 HD
ENDROOT
BRANCH   1   3
ATOM      3  C   UNL d   1       1.304  -1.873  -1.478  0.00  0.00     0.062 A 
ATOM      4  C   UNL d   1       0.725  -2.333  -2.676  0.00  0.00     0.065 A 
ATOM      5  C   UNL d   1       1.292  -3.438  -3.341  0.00  0.00     0.033 A 
ATOM      6  C   UNL d   1       2.405  -4.096  -2.812  0.00  0.00     0.009 A 
ATOM      7  C   UNL d   1       2.970  -3.670  -1.611  0.00  0.00    -0.060 A 
ATOM      8  C   UNL d   1       2.438  -2.541  -0.975  0.00  0.00     0.038 A 
ATOM      9  C   UNL d   1       4.119  -4.421  -1.003  0.00  0.00     0.048 C 
BRANCH   4  10
ATOM     10  N   UNL d   1      -0.402  -1.699  -3.277  0.00  0.00    -0.331 N 
ATOM     11  C   UNL d   1      -0.744  -0.360  -3.205  0.00  0.00     0.097 A 
ATOM     12  C   UNL d   1      -1.933  -0.157  -3.869  0.00  0.00     0.019 A 
ATOM     13  C   UNL d   1      -2.324  -1.397  -4.412  0.00  0.00     0.019 A 
ATOM     14  C   UNL d   1      -1.356  -2.316  -4.067  0.00  0.00     0.097 A 
ENDBRANCH   4  10
ENDBRANCH   1   3
BRANCH   1  15
ATOM     15  C   UNL d   1       1.206   0.010   0.186  0.00  0.00     0.176 C 
ATOM     16  S   UNL d   1       2.684   0.767  -0.027  0.00  0.00    -0.041 SA
BRANCH  15  17
ATOM     17  N   UNL d   1       0.380   0.485   1.172  0.00  0.00    -0.331 N 
ATOM     18  H   UNL d   1       0.555   1.455   1.422  0.00  0.00     0.168 HD
BRANCH  17  19
ATOM     19  C   UNL d   1      -0.736  -0.120   1.801  0.00  0.00     0.062 A 
ATOM     20  C   UNL d   1      -1.769   0.730   2.250  0.00  0.00     0.061 A 
ATOM     21 CL   UNL d   1      -1.673   2.447   2.037  0.00  0.00    -0.082 Cl
ATOM     22  C   UNL d   1      -2.921   0.217   2.853  0.00  0.00     0.026 A 
ATOM     23  C   UNL d   1      -3.054  -1.153   3.036  0.00  0.00     0.002 A 
ATOM     24  C   UNL d   1      -2.017  -2.001   2.655  0.00  0.00     0.009 A 
ATOM     25  C   UNL d   1      -0.834  -1.500   2.074  0.00  0.00    -0.034 A 
ATOM     26  C   UNL d   1       0.279  -2.496   1.888  0.00  0.00     0.050 C 
ENDBRANCH  17  19
ENDBRANCH  15  17
ENDBRANCH   1  15
TORSDOF 5
