REMARK  1 active torsions:
REMARK  status: ('A' for Active; 'I' for Inactive)
REMARK    1  A    between atoms: C_11  and  C_6 
ROOT
ATOM      1  N   UNL d   1       1.017   0.420   0.132  0.00  0.00    -0.298 N 
ATOM      2  C   UNL d   1       0.342  -0.773   0.144  0.00  0.00     0.179 A 
ATOM      3  C   UNL d   1      -1.206   0.848   0.030  0.00  0.00     0.104 A 
ATOM      4  C   UNL d   1       0.152   1.479   0.059  0.00  0.00     0.274 A 
ATOM      5  N   UNL d   1      -1.014  -0.505   0.083  0.00  0.00    -0.329 N 
ATOM      6  C   UNL d   1      -2.359   1.517  -0.024  0.00  0.00     0.048 C 
ATOM      7  S   UNL d   1       1.026  -2.271   0.221  0.00  0.00    -0.040 SA
ATOM      8  O   UNL d   1       0.415   2.665   0.031  0.00  0.00    -0.266 OA
ATOM      9  H   UNL d   1       2.018   0.520   0.174  0.00  0.00     0.171 HD
ATOM     10  H   UNL d   1      -1.742  -1.208   0.078  0.00  0.00     0.168 HD
ENDROOT
BRANCH   6  11
ATOM     11  C   UNL d   1      -3.672   0.877  -0.010  0.00  0.00    -0.018 A 
ATOM     12  C   UNL d   1      -4.343   0.644   1.187  0.00  0.00     0.099 A 
ATOM     13  N   UNL d   1      -5.556   0.052   1.273  0.00  0.00    -0.374 N 
ATOM     14  C   UNL d   1      -6.133  -0.318   0.110  0.00  0.00     0.087 A 
ATOM     15  HN  UNL d   1      -6.012  -0.107   2.171  1.00  0.00     0.164 HD
ATOM     16  C   UNL d   1      -5.548  -0.134  -1.133  0.00  0.00     0.018 A 
ATOM     17  C   UNL d   1      -4.294   0.471  -1.191  0.00  0.00     0.014 A 
ENDBRANCH   6  11
TORSDOF 1
