REMARK  4 active torsions:
REMARK  status: ('A' for Active; 'I' for Inactive)
REMARK    1  A    between atoms: C_2  and  C_1 
REMARK       I    between atoms: N_4  and  C_2 
REMARK    2  A    between atoms: C_3  and  C_10 
REMARK       I    between atoms: N_9  and  C_3 
REMARK    3  A    between atoms: C_10  and  N_4 
REMARK    4  A    between atoms: N_13  and  N_9 
ROOT
ATOM      1  C   UNL d   1      -0.147   2.364  -0.047  0.00  0.00     0.258 C 
ATOM      2  N   UNL d   1      -1.328   3.074   0.004  0.00  0.00    -0.348 N 
ATOM      3  O   UNL d   1       0.940   2.928  -0.127  0.00  0.00    -0.267 OA
ATOM      4  H   UNL d   1      -2.225   2.613   0.135  0.00  0.00     0.163 HD
ENDROOT
BRANCH   1   5
ATOM      5  C   UNL d   1      -0.225   0.885   0.005  0.00  0.00     0.108 A 
ATOM      6  C   UNL d   1       0.798   0.115  -0.554  0.00  0.00     0.135 A 
ATOM      7  F   UNL d   1       1.835   0.684  -1.187  0.00  0.00    -0.205 F 
ATOM      8  C   UNL d   1       0.767  -1.280  -0.496  0.00  0.00     0.043 A 
ATOM      9  C   UNL d   1      -0.293  -1.929   0.133  0.00  0.00     0.006 A 
ATOM     10  C   UNL d   1      -1.319  -1.174   0.699  0.00  0.00     0.043 A 
ATOM     11  C   UNL d   1      -1.280   0.221   0.631  0.00  0.00     0.135 A 
ATOM     12  F   UNL d   1      -2.284   0.904   1.201  0.00  0.00    -0.205 F 
ENDBRANCH   1   5
BRANCH   2  13
ATOM     13  C   UNL d   1      -1.296   4.524   0.015  0.00  0.00     0.227 C 
BRANCH  13  14
ATOM     14  C   UNL d   1      -2.680   5.173  -0.020  0.00  0.00     0.249 C 
ATOM     15  O   UNL d   1      -3.733   4.541  -0.075  0.00  0.00    -0.270 OA
ATOM     16  N   UNL d   1      -2.611   6.567  -0.002  0.00  0.00    -0.293 N 
ATOM     17  H   UNL d   1      -1.728   7.027   0.215  0.00  0.00     0.183 HD
BRANCH  16  18
ATOM     18  N   UNL d   1      -3.794   7.332   0.049  0.00  0.00    -0.247 NA
ATOM     19  H   UNL d   1      -4.583   6.675   0.130  0.00  0.00     0.143 HD
ATOM     20  H   UNL d   1      -3.928   7.775  -0.865  0.00  0.00     0.143 HD
ENDBRANCH  16  18
ENDBRANCH  13  14
ENDBRANCH   2  13
TORSDOF 4
