REMARK  3 active torsions:
REMARK  status: ('A' for Active; 'I' for Inactive)
REMARK    1  A    between atoms: C_11  and  C_1 
REMARK    2  A    between atoms: C_8  and  C_6 
REMARK    3  A    between atoms: O_19  and  C_11 
ROOT
ATOM      1  C   UNL d   1      -3.959  -1.271  -0.161  0.00  0.00     0.003 C 
ATOM      2  C   UNL d   1      -3.992   0.208   0.015  0.00  0.00     0.190 C 
ATOM      3  C   UNL d   1      -5.068   0.761   0.895  0.00  0.00     0.033 A 
ATOM      4  C   UNL d   1      -2.755  -1.874  -0.111  0.00  0.00     0.025 C 
ATOM      5  S   UNL d   1      -6.197  -1.808   1.216  0.00  0.00    -0.124 SA
ATOM      6  C   UNL d   1      -6.028  -0.058   1.521  0.00  0.00     0.015 A 
ATOM      7  C   UNL d   1      -5.303  -1.883  -0.356  0.00  0.00     0.122 C 
ATOM      8  C   UNL d   1      -5.074   2.144   1.133  0.00  0.00     0.040 A 
ATOM      9  O   UNL d   1      -3.162   0.941  -0.513  0.00  0.00    -0.287 OA
ATOM     10  C   UNL d   1      -6.938   0.511   2.423  0.00  0.00     0.021 A 
ATOM     11  C   UNL d   1      -6.007   2.696   2.008  0.00  0.00     0.035 A 
ATOM     12  C   UNL d   1      -6.928   1.885   2.666  0.00  0.00     0.025 A 
ATOM     13 CL   UNL d   1      -6.022   4.393   2.286  0.00  0.00    -0.084 Cl
ENDROOT
BRANCH   4  14
ATOM     14  C   UNL d   1      -2.502  -3.280  -0.088  0.00  0.00    -0.018 A 
ATOM     15  C   UNL d   1      -3.312  -4.311   0.436  0.00  0.00     0.048 A 
ATOM     16  C   UNL d   1      -2.672  -5.534   0.272  0.00  0.00     0.110 A 
ATOM     17  N   UNL d   1      -1.442  -5.239  -0.283  0.00  0.00    -0.355 N 
ATOM     18  C   UNL d   1      -1.337  -3.880  -0.504  0.00  0.00     0.102 A 
ATOM     19  C   UNL d   1      -0.357  -6.152  -0.579  0.00  0.00     0.156 C 
BRANCH  16  20
ATOM     20  C   UNL d   1      -3.195  -6.840   0.629  0.00  0.00     0.309 C 
ATOM     21  O   UNL d   1      -2.623  -7.915   0.504  0.00  0.00    -0.258 OA
BRANCH  20  22
ATOM     22  O   UNL d   1      -4.460  -6.696   1.123  0.00  0.00    -0.321 OA
ATOM     23  C   UNL d   1      -5.106  -7.911   1.495  0.00  0.00     0.213 C 
ENDBRANCH  20  22
ENDBRANCH  16  20
ENDBRANCH   4  14
TORSDOF 3
