REMARK  5 active torsions:
REMARK  status: ('A' for Active; 'I' for Inactive)
REMARK    1  A    between atoms: C_18  and  C_7 
REMARK    2  A    between atoms: C_23  and  C_18 
REMARK    3  A    between atoms: C_22  and  C_23 
REMARK    4  A    between atoms: C_25  and  C_22 
REMARK    5  A    between atoms: C_26  and  C_25 
ROOT
ATOM      1  C   UNL d   1       3.024  -0.756   0.085  0.00  0.00    -0.036 C 
ATOM      2  C   UNL d   1      -1.394  -0.450  -0.443  0.00  0.00    -0.016 C 
ATOM      3  C   UNL d   1      -2.012   0.940  -0.248  0.00  0.00    -0.068 C 
ATOM      4  C   UNL d   1       2.319   0.589   0.391  0.00  0.00    -0.002 C 
ATOM      5  C   UNL d   1       0.021  -0.468   0.252  0.00  0.00     0.002 C 
ATOM      6  C   UNL d   1       0.929   0.694  -0.251  0.00  0.00    -0.004 C 
ATOM      7  C   UNL d   1       4.425  -0.496   0.739  0.00  0.00    -0.002 C 
ATOM      8  C   UNL d   1      -3.276   1.139   0.174  0.00  0.00     0.053 C 
ATOM      9  C   UNL d   1       2.155  -1.838   0.753  0.00  0.00     0.010 C 
ATOM     10  C   UNL d   1       0.720  -1.847   0.206  0.00  0.00     0.007 C 
ATOM     11  C   UNL d   1       3.354   1.633   0.005  0.00  0.00     0.006 C 
ATOM     12  C   UNL d   1      -2.286  -1.542   0.216  0.00  0.00     0.022 C 
ATOM     13  C   UNL d   1       4.699   0.997   0.394  0.00  0.00     0.006 C 
ATOM     14  C   UNL d   1       0.254   2.039   0.058  0.00  0.00     0.010 C 
ATOM     15  C   UNL d   1      -1.135   2.129  -0.572  0.00  0.00     0.035 C 
ATOM     16  C   UNL d   1      -4.213   0.011   0.379  0.00  0.00     0.149 C 
ATOM     17  O   UNL d   1      -5.341   0.233   0.811  0.00  0.00    -0.293 OA
ATOM     18  C   UNL d   1      -3.771  -1.361  -0.057  0.00  0.00     0.084 C 
ATOM     19  C   UNL d   1       3.172  -1.039  -1.434  0.00  0.00     0.016 C 
ATOM     20  C   UNL d   1      -1.305  -0.735  -1.962  0.00  0.00     0.020 C 
ENDROOT
BRANCH   7  21
ATOM     21  C   UNL d   1       5.601  -1.441   0.339  0.00  0.00    -0.014 C 
ATOM     22  C   UNL d   1       5.253  -2.909   0.635  0.00  0.00     0.010 C 
BRANCH  21  23
ATOM     23  C   UNL d   1       6.954  -1.068   1.021  0.00  0.00     0.005 C 
BRANCH  23  24
ATOM     24  C   UNL d   1       8.096  -1.957   0.502  0.00  0.00     0.001 C 
BRANCH  24  25
ATOM     25  C   UNL d   1       9.478  -1.704   1.105  0.00  0.00     0.004 C 
BRANCH  25  26
ATOM     26  C   UNL d   1      10.496  -2.764   0.613  0.00  0.00    -0.023 C 
ATOM     27  C   UNL d   1      10.665  -2.757  -0.910  0.00  0.00     0.009 C 
ATOM     28  C   UNL d   1      11.855  -2.568   1.283  0.00  0.00     0.009 C 
ENDBRANCH  25  26
ENDBRANCH  24  25
ENDBRANCH  23  24
ENDBRANCH  21  23
ENDBRANCH   7  21
TORSDOF 5
