REMARK  6 active torsions:
REMARK  status: ('A' for Active; 'I' for Inactive)
REMARK    1  A    between atoms: N_3  and  C_1 
REMARK    2  A    between atoms: C_5  and  C_2 
REMARK       I    between atoms: N_13  and  C_5 
REMARK       I    between atoms: C_9  and  N_14 
REMARK    3  A    between atoms: C_18  and  C_9 
REMARK    4  A    between atoms: O_19  and  C_12 
REMARK    5  A    between atoms: N_14  and  N_13 
REMARK    6  A    between atoms: O_20  and  C_15 
ROOT
ATOM      1  C   UNL d   1       1.271  -0.373   0.148  0.00  0.00     0.058 A 
ATOM      2  C   UNL d   1       0.332  -1.420   0.114  0.00  0.00     0.063 A 
ATOM      3  C   UNL d   1       0.780   0.946   0.211  0.00  0.00     0.070 A 
ATOM      4  C   UNL d   1      -1.051  -1.116   0.114  0.00  0.00     0.059 A 
ATOM      5  C   UNL d   1      -0.592   1.243   0.208  0.00  0.00     0.103 A 
ATOM      6  C   UNL d   1      -1.523   0.202   0.141  0.00  0.00     0.102 A 
ENDROOT
BRANCH   2   7
ATOM      7  C   UNL d   1       0.668  -2.871  -0.012  0.00  0.00     0.272 C 
ATOM      8  N   UNL d   1      -0.059  -3.704   0.825  0.00  0.00    -0.263 N 
ATOM      9  H   UNL d   1      -0.756  -3.375   1.492  0.00  0.00     0.190 HD
ATOM     10  O   UNL d   1       1.525  -3.276  -0.788  0.00  0.00    -0.266 OA
BRANCH   8  11
ATOM     11  N   UNL d   1       0.264  -5.063   0.923  0.00  0.00    -0.263 N 
ATOM     12  C   UNL d   1      -0.614  -5.868   1.629  0.00  0.00     0.270 C 
ATOM     13  O   UNL d   1      -1.625  -5.421   2.166  0.00  0.00    -0.266 OA
ATOM     14  H   UNL d   1       1.027  -5.401   0.341  0.00  0.00     0.190 HD
BRANCH  12  15
ATOM     15  C   UNL d   1      -0.301  -7.321   1.698  0.00  0.00     0.033 A 
ATOM     16  C   UNL d   1       1.010  -7.808   1.685  0.00  0.00     0.017 A 
ATOM     17  C   UNL d   1       1.247  -9.183   1.762  0.00  0.00     0.001 A 
ATOM     18  C   UNL d   1       0.174 -10.076   1.856  0.00  0.00     0.000 A 
ATOM     19  C   UNL d   1      -1.134  -9.596   1.891  0.00  0.00     0.001 A 
ATOM     20  C   UNL d   1      -1.371  -8.222   1.820  0.00  0.00     0.017 A 
ENDBRANCH  12  15
ENDBRANCH   8  11
ENDBRANCH   2   7
BRANCH   1  21
ATOM     21  N   UNL d   1       2.698  -0.555   0.180  0.00  0.00    -0.319 N 
ATOM     22  C   UNL d   1       3.410  -1.479   0.957  0.00  0.00     0.013 A 
ATOM     23  C   UNL d   1       4.758  -1.341   0.685  0.00  0.00     0.027 A 
ATOM     24  C   UNL d   1       2.847  -2.411   1.972  0.00  0.00     0.068 C 
ATOM     25  C   UNL d   1       4.913  -0.255  -0.178  0.00  0.00     0.027 A 
ATOM     26  C   UNL d   1       3.658   0.248  -0.465  0.00  0.00     0.013 A 
ATOM     27  C   UNL d   1       3.418   1.404  -1.383  0.00  0.00     0.068 C 
ENDBRANCH   1  21
BRANCH   6  28
ATOM     28  O   UNL d   1      -2.856   0.511   0.117  0.00  0.00    -0.353 OA
ATOM     29  C   UNL d   1      -3.741  -0.461  -0.430  0.00  0.00     0.210 C 
ENDBRANCH   6  28
BRANCH   5  30
ATOM     30  O   UNL d   1      -0.844   2.591   0.207  0.00  0.00    -0.353 OA
ATOM     31  C   UNL d   1      -2.067   3.031   0.782  0.00  0.00     0.210 C 
ENDBRANCH   5  30
TORSDOF 6
