REMARK  2 active torsions:
REMARK  status: ('A' for Active; 'I' for Inactive)
REMARK    1  A    between atoms: S_5  and  C_1 
REMARK    2  A    between atoms: C_10  and  C_6 
ROOT
ATOM      1  C   UNL d   1       0.612  -1.131  -0.035  0.00  0.00     0.166 A 
ATOM      2  C   UNL d   1      -0.340  -0.091  -0.029  0.00  0.00     0.113 A 
ATOM      3  N   UNL d   1       1.872  -0.663  -0.025  0.00  0.00    -0.288 N 
ATOM      4  HN  UNL d   1       2.744  -1.192  -0.036  1.00  0.00     0.188 HD
ATOM      5  C   UNL d   1       0.391   1.090   0.004  0.00  0.00     0.082 A 
ATOM      6  N   UNL d   1       1.704   0.671   0.003  0.00  0.00    -0.297 N 
ATOM      7  C   UNL d   1      -1.760  -0.230  -0.047  0.00  0.00     0.105 C 
ATOM      8  N   UNL d   1      -2.918  -0.307  -0.044  0.00  0.00    -0.191 NA
ATOM      9  H   UNL d   1       2.534   1.256   0.041  0.00  0.00     0.187 HD
ENDROOT
BRANCH   1  10
ATOM     10  S   UNL d   1       0.196  -2.819  -0.034  0.00  0.00     0.190 S 
ATOM     11  O   UNL d   1      -0.463  -3.020   1.240  0.00  0.00    -0.221 OA
ATOM     12  O   UNL d   1      -0.479  -3.019  -1.301  0.00  0.00    -0.221 OA
ATOM     13  C   UNL d   1       1.740  -3.687  -0.045  0.00  0.00     0.168 C 
ENDBRANCH   1  10
BRANCH   5  14
ATOM     14  C   UNL d   1       0.015   2.508   0.069  0.00  0.00    -0.006 A 
ATOM     15  C   UNL d   1      -1.170   2.913   0.699  0.00  0.00     0.014 A 
ATOM     16  C   UNL d   1      -1.514   4.267   0.787  0.00  0.00     0.007 A 
ATOM     17  C   UNL d   1      -0.675   5.250   0.259  0.00  0.00    -0.062 A 
ATOM     18  C   UNL d   1       0.504   4.857  -0.378  0.00  0.00     0.007 A 
ATOM     19  C   UNL d   1      -1.046   6.698   0.390  0.00  0.00     0.048 C 
ATOM     20  C   UNL d   1       0.842   3.501  -0.476  0.00  0.00     0.014 A 
ENDBRANCH   5  14
TORSDOF 2
