REMARK  7 active torsions:
REMARK  status: ('A' for Active; 'I' for Inactive)
REMARK    1  A    between atoms: N_8  and  C_1 
REMARK    2  A    between atoms: N_4  and  C_2 
REMARK    3  A    between atoms: N_5  and  C_3 
REMARK    4  A    between atoms: C_6  and  C_7 
REMARK    5  A    between atoms: N_12  and  N_8 
REMARK       I    between atoms: C_11  and  N_12 
REMARK    6  A    between atoms: C_17  and  C_11 
REMARK    7  A    between atoms: N_19  and  C_18 
ROOT
ATOM      1  C   UNL d   1       1.658  -0.065   0.364  0.00  0.00     0.093 A 
ATOM      2  C   UNL d   1       1.449   0.173   1.735  0.00  0.00     0.129 A 
ATOM      3  C   UNL d   1       0.682   0.506  -0.481  0.00  0.00     0.129 A 
ATOM      4  C   UNL d   1      -0.665   1.342   1.366  0.00  0.00     0.052 A 
ATOM      5  C   UNL d   1      -0.462   1.181  -0.008  0.00  0.00     0.054 A 
ATOM      6  C   UNL d   1       0.313   0.847   2.239  0.00  0.00     0.054 A 
ENDROOT
BRANCH   1   7
ATOM      7  N   UNL d   1       2.755  -0.749  -0.218  0.00  0.00    -0.198 NA
ATOM      8  H   UNL d   1       3.519  -0.096  -0.476  0.00  0.00     0.153 HD
BRANCH   7   9
ATOM      9  N   UNL d   1       3.280  -1.801   0.554  0.00  0.00    -0.282 N 
ATOM     10  C   UNL d   1       4.668  -1.907   0.594  0.00  0.00     0.266 C 
ATOM     11  O   UNL d   1       5.402  -1.079   0.064  0.00  0.00    -0.266 OA
ATOM     12  H   UNL d   1       2.724  -2.653   0.577  0.00  0.00     0.184 HD
BRANCH  10  13
ATOM     13  C   UNL d   1       5.217  -3.092   1.315  0.00  0.00     0.033 A 
ATOM     14  C   UNL d   1       4.447  -3.847   2.201  0.00  0.00     0.019 A 
ATOM     15  C   UNL d   1       5.011  -4.938   2.883  0.00  0.00     0.030 A 
ATOM     16  C   UNL d   1       6.351  -5.318   2.716  0.00  0.00     0.029 A 
ATOM     17  C   UNL d   1       7.103  -4.536   1.820  0.00  0.00     0.030 A 
ATOM     18  C   UNL d   1       6.556  -3.438   1.135  0.00  0.00     0.019 A 
BRANCH  16  19
ATOM     19  N   UNL d   1       6.898  -6.432   3.342  0.00  0.00    -0.390 N 
ATOM     20  C   UNL d   1       8.287  -6.413   3.801  0.00  0.00     0.149 C 
ATOM     21  C   UNL d   1       6.056  -7.413   4.024  0.00  0.00     0.149 C 
ENDBRANCH  16  19
ENDBRANCH  10  13
ENDBRANCH   7   9
ENDBRANCH   1   7
BRANCH   2  22
ATOM     22  N   UNL d   1       2.396  -0.277   2.732  0.00  0.00    -0.114 N 
ATOM     23  O   UNL d   1       3.449   0.361   2.842  0.00  0.00    -0.532 OA
ATOM     24  O   UNL d   1       2.042  -1.232   3.439  0.00  0.00    -0.532 OA
ENDBRANCH   2  22
BRANCH   3  25
ATOM     25  N   UNL d   1       0.807   0.366  -1.924  0.00  0.00    -0.114 N 
ATOM     26  O   UNL d   1       1.759   0.936  -2.464  0.00  0.00    -0.532 OA
ATOM     27  O   UNL d   1      -0.092  -0.268  -2.500  0.00  0.00    -0.532 OA
ENDBRANCH   3  25
BRANCH   4  28
ATOM     28  C   UNL d   1      -1.901   2.023   1.910  0.00  0.00     0.417 C 
ATOM     29  F   UNL d   1      -2.773   2.409   0.941  0.00  0.00    -0.166 F 
ATOM     30  F   UNL d   1      -2.601   1.216   2.751  0.00  0.00    -0.166 F 
ATOM     31  F   UNL d   1      -1.601   3.143   2.620  0.00  0.00    -0.166 F 
ENDBRANCH   4  28
TORSDOF 7
