REMARK  1 active torsions:
REMARK  status: ('A' for Active; 'I' for Inactive)
REMARK    1  A    between atoms: C_8  and  N_1 
ROOT
ATOM      1  N   UNL d   1       0.876  -0.781   0.059  0.00  0.00    -0.213 N 
ATOM      2  C   UNL d   1      -0.413  -1.055  -0.372  0.00  0.00     0.215 A 
ATOM      3  N   UNL d   1       0.890   0.482   0.613  0.00  0.00    -0.219 N 
ATOM      4  HN  UNL d   1       1.701   0.929   1.041  1.00  0.00     0.210 HD
ATOM      5  N   UNL d   1      -0.262   1.002   0.506  0.00  0.00    -0.225 N 
ATOM      6  HN  UNL d   1      -0.524   1.934   0.828  1.00  0.00     0.210 HD
ATOM      7  N   UNL d   1      -1.090   0.118  -0.107  0.00  0.00    -0.259 N 
ATOM      8  S   UNL d   1      -1.153  -2.413  -0.964  0.00  0.00    -0.037 SA
ATOM      9  H   UNL d   1      -2.074   0.296  -0.221  0.00  0.00     0.191 HD
ENDROOT
BRANCH   1  10
ATOM     10  C   UNL d   1       2.071  -1.521  -0.002  0.00  0.00     0.061 A 
ATOM     11  C   UNL d   1       2.303  -2.457  -1.014  0.00  0.00     0.039 A 
ATOM     12  C   UNL d   1       3.493  -3.201  -1.076  0.00  0.00    -0.054 A 
ATOM     13  C   UNL d   1       3.693  -4.162  -2.217  0.00  0.00     0.049 C 
ATOM     14  C   UNL d   1       4.468  -3.026  -0.079  0.00  0.00    -0.056 A 
ATOM     15  C   UNL d   1       4.253  -2.068   0.922  0.00  0.00     0.009 A 
ATOM     16  C   UNL d   1       5.736  -3.835  -0.072  0.00  0.00     0.049 C 
ATOM     17  C   UNL d   1       3.080  -1.307   0.948  0.00  0.00     0.032 A 
ENDBRANCH   1  10
TORSDOF 1
