REMARK  1 active torsions:
REMARK  status: ('A' for Active; 'I' for Inactive)
REMARK    1  A    between atoms: C_6  and  N_1 
ROOT
ATOM      1  N   UNL d   1      -2.296  -0.036  -0.287  0.00  0.00    -0.252 N 
ATOM      2  C   UNL d   1      -1.593  -1.145   0.127  0.00  0.00     0.236 C 
ATOM      3  C   UNL d   1      -1.512   1.094  -0.241  0.00  0.00     0.236 C 
ATOM      4  C   UNL d   1      -0.279  -0.716   0.742  0.00  0.00     0.096 C 
ATOM      5  C   UNL d   1      -0.303   0.798   0.619  0.00  0.00     0.095 C 
ATOM      6  C   UNL d   1       0.955   1.522   0.159  0.00  0.00     0.042 C 
ATOM      7  C   UNL d   1       0.904  -1.489   0.154  0.00  0.00     0.048 C 
ATOM      8  O   UNL d   1      -1.912  -2.324   0.026  0.00  0.00    -0.272 OA
ATOM      9  O   UNL d   1      -1.746   2.209  -0.682  0.00  0.00    -0.272 OA
ATOM     10  C   UNL d   1       2.010   0.667  -0.457  0.00  0.00    -0.023 C 
ATOM     11  C   UNL d   1       2.007  -0.672  -0.456  0.00  0.00    -0.087 C 
ATOM     12  C   UNL d   1       3.170  -1.431  -1.036  0.00  0.00     0.043 C 
ENDROOT
BRANCH   1  13
ATOM     13  C   UNL d   1      -3.668  -0.056  -0.688  0.00  0.00     0.045 A 
ATOM     14  C   UNL d   1      -4.527  -1.068  -0.225  0.00  0.00     0.031 A 
ATOM     15  C   UNL d   1      -5.902  -1.046  -0.498  0.00  0.00     0.020 A 
ATOM     16  C   UNL d   1      -6.440  -0.017  -1.262  0.00  0.00     0.006 A 
ATOM     17  C   UNL d   1      -5.608   0.984  -1.757  0.00  0.00     0.020 A 
ATOM     18  I   UNL d   1      -8.477   0.034  -1.647  0.00  0.00    -0.045 I 
ATOM     19  C   UNL d   1      -4.237   0.967  -1.464  0.00  0.00     0.031 A 
ENDBRANCH   1  13
TORSDOF 1
