REMARK  4 active torsions:
REMARK  status: ('A' for Active; 'I' for Inactive)
REMARK    1  A    between atoms: C_2  and  C_1 
REMARK       I    between atoms: N_3  and  C_1 
REMARK    2  A    between atoms: C_8  and  N_3 
REMARK    3  A    between atoms: C_9  and  N_4 
REMARK    4  A    between atoms: C_16  and  C_9 
ROOT
ATOM      1  N   UNL d   1      -2.334   1.717   1.786  0.00  0.00     0.092 N 
ATOM      2  C   UNL d   1      -1.062  -0.776   0.787  0.00  0.00     0.088 C 
ATOM      3  C   UNL d   1      -1.997   0.028  -0.114  0.00  0.00     0.055 C 
ATOM      4  C   UNL d   1      -1.585  -0.639   2.214  0.00  0.00     0.055 C 
ATOM      5  C   UNL d   1      -2.136   1.481   0.339  0.00  0.00     0.275 C 
ATOM      6  C   UNL d   1      -1.546   0.827   2.647  0.00  0.00     0.275 C 
ENDROOT
BRANCH   2   7
ATOM      7  N   UNL d   1       0.351  -0.370   0.745  0.00  0.00    -0.352 N 
ATOM      8  C   UNL d   1       1.163  -0.531  -0.357  0.00  0.00     0.255 C 
ATOM      9  O   UNL d   1       0.722  -0.858  -1.447  0.00  0.00    -0.268 OA
ATOM     10  H   UNL d   1       0.825  -0.348   1.639  0.00  0.00     0.163 HD
BRANCH   8  11
ATOM     11  C   UNL d   1       2.641  -0.357  -0.161  0.00  0.00     0.075 A 
ATOM     12  C   UNL d   1       3.317  -0.802   0.992  0.00  0.00     0.051 A 
ATOM     13 CL   UNL d   1       2.531  -1.355   2.434  0.00  0.00    -0.083 Cl
ATOM     14  C   UNL d   1       4.722  -0.827   1.039  0.00  0.00     0.025 A 
ATOM     15  C   UNL d   1       5.474  -0.411  -0.054  0.00  0.00     0.003 A 
ATOM     16  C   UNL d   1       4.824   0.100  -1.171  0.00  0.00     0.025 A 
ATOM     17  C   UNL d   1       3.421   0.149  -1.220  0.00  0.00     0.051 A 
ATOM     18 CL   UNL d   1       2.749   0.956  -2.600  0.00  0.00    -0.083 Cl
ENDBRANCH   8  11
ENDBRANCH   2   7
BRANCH   1  19
ATOM     19  C   UNL d   1      -2.001   3.142   2.043  0.00  0.00     0.311 C 
BRANCH  19  20
ATOM     20  C   UNL d   1      -2.078   3.600   3.482  0.00  0.00    -0.030 A 
ATOM     21  C   UNL d   1      -0.917   4.017   4.154  0.00  0.00     0.009 A 
ATOM     22  C   UNL d   1      -0.981   4.477   5.468  0.00  0.00     0.001 A 
ATOM     23  C   UNL d   1      -2.209   4.527   6.127  0.00  0.00     0.000 A 
ATOM     24  C   UNL d   1      -3.368   4.114   5.471  0.00  0.00     0.001 A 
ATOM     25  C   UNL d   1      -3.308   3.651   4.156  0.00  0.00     0.009 A 
ENDBRANCH  19  20
ENDBRANCH   1  19
TORSDOF 4
