REMARK  9 active torsions:
REMARK  status: ('A' for Active; 'I' for Inactive)
REMARK    1  A    between atoms: C_2  and  N_1 
REMARK    2  A    between atoms: C_4  and  C_2 
REMARK    3  A    between atoms: O_15  and  C_3 
REMARK    4  A    between atoms: C_5  and  C_4 
REMARK    5  A    between atoms: S_6  and  C_4 
REMARK    6  A    between atoms: C_11  and  S_6 
REMARK    7  A    between atoms: O_18  and  C_7 
REMARK    8  A    between atoms: O_17  and  C_8 
REMARK    9  A    between atoms: N_16  and  C_14 
ROOT
ATOM      1  C   UNL d   1       1.247   2.005   1.527  0.00  0.00     0.109 C 
ENDROOT
BRANCH   1   2
ATOM      2  C   UNL d   1      -0.264   2.011   1.276  0.00  0.00     0.221 C 
BRANCH   2   3
ATOM      3  N   UNL d   1      -0.559   1.385  -0.048  0.00  0.00    -0.154 N 
ATOM      4  O   UNL d   1      -1.072   2.097  -0.915  0.00  0.00    -0.536 OA
ATOM      5  O   UNL d   1      -0.304   0.175  -0.165  0.00  0.00    -0.536 OA
ENDBRANCH   2   3
ENDBRANCH   1   2
BRANCH   1   6
ATOM      6  C   UNL d   1       2.013   2.735   0.438  0.00  0.00    -0.037 A 
ATOM      7  C   UNL d   1       1.796   4.093   0.176  0.00  0.00     0.048 A 
ATOM      8  C   UNL d   1       2.465   4.766  -0.861  0.00  0.00     0.104 A 
ATOM      9  C   UNL d   1       3.340   4.062  -1.715  0.00  0.00     0.135 A 
ATOM     10  C   UNL d   1       3.524   2.681  -1.482  0.00  0.00     0.104 A 
ATOM     11  C   UNL d   1       2.893   2.044  -0.403  0.00  0.00     0.048 A 
BRANCH   8  12
ATOM     12  O   UNL d   1       2.204   6.099  -1.073  0.00  0.00    -0.353 OA
ATOM     13  C   UNL d   1       2.075   6.878   0.118  0.00  0.00     0.210 C 
ENDBRANCH   8  12
BRANCH   9  14
ATOM     14  O   UNL d   1       4.082   4.587  -2.739  0.00  0.00    -0.351 OA
ATOM     15  C   UNL d   1       4.068   5.983  -2.991  0.00  0.00     0.210 C 
ENDBRANCH   9  14
BRANCH  10  16
ATOM     16  O   UNL d   1       4.345   1.831  -2.186  0.00  0.00    -0.353 OA
ATOM     17  C   UNL d   1       4.430   2.015  -3.595  0.00  0.00     0.210 C 
ENDBRANCH  10  16
ENDBRANCH   1   6
BRANCH   1  18
ATOM     18  S   UNL d   1       1.447   2.803   3.198  0.00  0.00    -0.117 SA
BRANCH  18  19
ATOM     19  C   UNL d   1       3.204   2.617   3.494  0.00  0.00     0.022 A 
ATOM     20  C   UNL d   1       3.718   1.503   4.188  0.00  0.00     0.022 A 
ATOM     21  C   UNL d   1       5.099   1.423   4.408  0.00  0.00     0.024 A 
ATOM     22  C   UNL d   1       5.941   2.480   4.056  0.00  0.00     0.002 A 
ATOM     23  C   UNL d   1       5.417   3.611   3.438  0.00  0.00     0.001 A 
ATOM     24  C   UNL d   1       4.053   3.678   3.155  0.00  0.00     0.020 A 
BRANCH  20  25
ATOM     25  N   UNL d   1       2.911   0.385   4.487  0.00  0.00    -0.302 NA
ATOM     26  H   UNL d   1       1.939   0.656   4.613  0.00  0.00     0.124 HD
ATOM     27  H   UNL d   1       3.260  -0.155   5.274  0.00  0.00     0.124 HD
ENDBRANCH  20  25
ENDBRANCH  18  19
ENDBRANCH   1  18
TORSDOF 9
