REMARK  10 active torsions:
REMARK  status: ('A' for Active; 'I' for Inactive)
REMARK    1  A    between atoms: O_5  and  C_1 
REMARK    2  A    between atoms: C_12  and  C_4 
REMARK    3  A    between atoms: C_6  and  O_5 
REMARK       I    between atoms: N_11  and  C_6 
REMARK    4  A    between atoms: S_14  and  C_7 
REMARK    5  A    between atoms: C_26  and  N_11 
REMARK    6  A    between atoms: C_27  and  N_11 
REMARK    7  A    between atoms: C_19  and  C_12 
REMARK    8  A    between atoms: C_13  and  C_17 
REMARK    9  A    between atoms: C_16  and  C_13 
REMARK   10  A    between atoms: C_17  and  S_14 
ROOT
ATOM      1  C   UNL d   1       1.250  -1.261   0.068  0.00  0.00     0.163 C 
ATOM      2  N   UNL d   1       1.887  -0.123   0.430  0.00  0.00    -0.316 N 
ATOM      3  HN  UNL d   1       2.832  -0.128   0.814  1.00  0.00     0.170 HD
ATOM      4  C   UNL d   1       0.026  -1.315  -0.588  0.00  0.00     0.020 C 
ATOM      5  C   UNL d   1       1.197   1.007   0.252  0.00  0.00     0.146 C 
ATOM      6  N   UNL d   1      -0.063   1.056  -0.192  0.00  0.00    -0.340 N 
ATOM      7  HN  UNL d   1      -0.569   1.940  -0.238  1.00  0.00     0.167 HD
ATOM      8  C   UNL d   1      -0.648  -0.103  -0.580  0.00  0.00     0.018 C 
ATOM      9  C   UNL d   1      -2.131  -0.006  -0.790  0.00  0.00     0.069 C 
ENDROOT
BRANCH   1  10
ATOM     10  O   UNL d   1       1.940  -2.424   0.458  0.00  0.00    -0.243 OA
BRANCH  10  11
ATOM     11  C   UNL d   1       1.253  -3.217   1.381  0.00  0.00     0.369 C 
ATOM     12  N   UNL d   1       2.027  -4.262   1.889  0.00  0.00    -0.328 N 
ATOM     13  O   UNL d   1       0.073  -3.072   1.677  0.00  0.00    -0.238 OA
BRANCH  12  14
ATOM     14  C   UNL d   1       1.368  -5.289   2.693  0.00  0.00     0.123 C 
ATOM     15  C   UNL d   1       1.057  -4.869   4.121  0.00  0.00     0.026 C 
ENDBRANCH  12  14
BRANCH  12  16
ATOM     16  C   UNL d   1       3.488  -4.225   1.852  0.00  0.00     0.123 C 
ATOM     17  C   UNL d   1       4.077  -3.439   3.014  0.00  0.00     0.026 C 
ENDBRANCH  12  16
ENDBRANCH  10  11
ENDBRANCH   1  10
BRANCH   4  18
ATOM     18  C   UNL d   1      -0.556  -2.584  -1.162  0.00  0.00     0.083 C 
BRANCH  18  19
ATOM     19  C   UNL d   1      -0.688  -2.631  -2.676  0.00  0.00    -0.054 A 
ATOM     20  C   UNL d   1       0.442  -2.773  -3.494  0.00  0.00     0.008 A 
ATOM     21  C   UNL d   1       0.306  -2.909  -4.883  0.00  0.00     0.007 A 
ATOM     22  C   UNL d   1      -0.959  -2.885  -5.484  0.00  0.00    -0.062 A 
ATOM     23  C   UNL d   1      -2.084  -2.726  -4.673  0.00  0.00     0.007 A 
ATOM     24  C   UNL d   1      -1.101  -3.084  -6.964  0.00  0.00     0.048 C 
ATOM     25  C   UNL d   1      -1.951  -2.612  -3.285  0.00  0.00     0.008 A 
ENDBRANCH  18  19
ENDBRANCH   4  18
BRANCH   5  26
ATOM     26  S   UNL d   1       1.898   2.559   0.751  0.00  0.00    -0.086 SA
BRANCH  26  27
ATOM     27  C   UNL d   1       3.597   2.363   0.154  0.00  0.00     0.161 C 
BRANCH  27  28
ATOM     28  C   UNL d   1       4.431   3.575   0.558  0.00  0.00     0.144 C 
ATOM     29  O   UNL d   1       4.890   3.638   1.705  0.00  0.00    -0.296 OA
BRANCH  28  30
ATOM     30  C   UNL d   1       4.642   4.749  -0.433  0.00  0.00     0.010 C 
ATOM     31  C   UNL d   1       3.434   5.692  -0.392  0.00  0.00     0.022 C 
ATOM     32  C   UNL d   1       5.894   5.540   0.007  0.00  0.00     0.022 C 
ATOM     33  C   UNL d   1       4.879   4.269  -1.871  0.00  0.00     0.022 C 
ENDBRANCH  28  30
ENDBRANCH  27  28
ENDBRANCH  26  27
ENDBRANCH   5  26
TORSDOF 10
