REMARK  2 active torsions:
REMARK  status: ('A' for Active; 'I' for Inactive)
REMARK    1  A    between atoms: N_7  and  N_2 
REMARK    2  A    between atoms: C_4  and  N_7 
ROOT
ATOM      1  C   UNL d   1      -1.278  -0.062  -0.010  0.00  0.00     0.140 C 
ATOM      2  N   UNL d   1      -2.540   0.023   0.310  0.00  0.00    -0.293 N 
ATOM      3  HN  UNL d   1      -3.000   0.930   0.386  1.00  0.00     0.187 HD
ATOM      4  C   UNL d   1      -0.535   1.252  -0.231  0.00  0.00     0.181 C 
ATOM      5  C   UNL d   1      -0.539  -1.397  -0.131  0.00  0.00     0.181 C 
ATOM      6  C   UNL d   1       1.623  -0.076   0.058  0.00  0.00    -0.034 C 
ATOM      7  C   UNL d   1       0.927  -1.345  -0.447  0.00  0.00     0.095 C 
ATOM      8  C   UNL d   1       0.939   1.155  -0.552  0.00  0.00     0.095 C 
ATOM      9  O   UNL d   1      -1.132  -2.464  -0.028  0.00  0.00    -0.291 OA
ATOM     10  O   UNL d   1      -1.116   2.328  -0.209  0.00  0.00    -0.291 OA
ATOM     11  C   UNL d   1       3.091  -0.122  -0.411  0.00  0.00     0.015 C 
ATOM     12  C   UNL d   1       1.619  -0.006   1.598  0.00  0.00     0.015 C 
ENDROOT
BRANCH   2  13
ATOM     13  N   UNL d   1      -3.222  -1.121   0.539  0.00  0.00    -0.294 N 
ATOM     14  H   UNL d   1      -2.758  -2.038   0.583  0.00  0.00     0.187 HD
BRANCH  13  15
ATOM     15  C   UNL d   1      -4.582  -1.112   0.890  0.00  0.00     0.125 A 
ATOM     16  C   UNL d   1      -5.382   0.033   0.950  0.00  0.00     0.147 A 
ATOM     17  F   UNL d   1      -4.882   1.249   0.675  0.00  0.00    -0.204 F 
ATOM     18  C   UNL d   1      -6.737  -0.036   1.289  0.00  0.00     0.045 A 
ATOM     19  C   UNL d   1      -7.327  -1.266   1.575  0.00  0.00     0.006 A 
ATOM     20  C   UNL d   1      -6.558  -2.424   1.517  0.00  0.00     0.045 A 
ATOM     21  C   UNL d   1      -5.207  -2.337   1.177  0.00  0.00     0.147 A 
ATOM     22  F   UNL d   1      -4.491  -3.470   1.124  0.00  0.00    -0.204 F 
ENDBRANCH  13  15
ENDBRANCH   2  13
TORSDOF 2
