REMARK  5 active torsions:
REMARK  status: ('A' for Active; 'I' for Inactive)
REMARK    1  A    between atoms: S_8  and  C_1 
REMARK    2  A    between atoms: C_2  and  C_7 
REMARK       I    between atoms: C_5  and  N_6 
REMARK    3  A    between atoms: C_13  and  C_5 
REMARK    4  A    between atoms: N_6  and  C_9 
REMARK    5  A    between atoms: C_10  and  S_8 
ROOT
ATOM      1  C   UNL d   1      -2.214   3.095   0.611  0.00  0.00     0.052 A 
ATOM      2  C   UNL d   1      -1.734   3.284  -0.699  0.00  0.00     0.035 A 
ATOM      3  C   UNL d   1      -3.329   3.853   1.037  0.00  0.00     0.031 A 
ATOM      4  C   UNL d   1      -2.273   4.347  -1.460  0.00  0.00     0.021 A 
ATOM      5  C   UNL d   1      -3.873   4.867   0.249  0.00  0.00     0.002 A 
ATOM      6  C   UNL d   1      -3.318   5.140  -0.989  0.00  0.00     0.002 A 
ENDROOT
BRANCH   2   7
ATOM      7  S   UNL d   1      -0.547   2.320  -1.621  0.00  0.00    -0.052 SA
BRANCH   7   8
ATOM      8  C   UNL d   1      -0.842   0.631  -1.184  0.00  0.00     0.149 A 
ATOM      9  N   UNL d   1       0.225  -0.178  -1.290  0.00  0.00    -0.333 N 
ATOM     10  C   UNL d   1       0.079  -1.477  -0.941  0.00  0.00     0.119 A 
ATOM     11  HN  UNL d   1       1.121   0.176  -1.625  1.00  0.00     0.168 HD
ATOM     12  C   UNL d   1      -1.141  -1.980  -0.529  0.00  0.00     0.051 A 
ATOM     13  C   UNL d   1      -2.186  -1.087  -0.495  0.00  0.00     0.092 A 
ATOM     14  N   UNL d   1      -2.066   0.214  -0.820  0.00  0.00    -0.346 N 
ATOM     15  HN  UNL d   1      -2.862   0.850  -0.790  1.00  0.00     0.167 HD
BRANCH  10  16
ATOM     16  C   UNL d   1       1.293  -2.387  -0.975  0.00  0.00     0.432 C 
ATOM     17  F   UNL d   1       2.436  -1.794  -1.416  0.00  0.00    -0.165 F 
ATOM     18  F   UNL d   1       1.587  -2.895   0.259  0.00  0.00    -0.165 F 
ATOM     19  F   UNL d   1       1.105  -3.475  -1.777  0.00  0.00    -0.165 F 
ENDBRANCH  10  16
ENDBRANCH   7   8
ENDBRANCH   2   7
BRANCH   1  20
ATOM     20  N   UNL d   1      -1.695   2.247   1.625  0.00  0.00    -0.322 N 
ATOM     21  C   UNL d   1      -0.371   1.909   1.836  0.00  0.00     0.256 C 
ATOM     22  O   UNL d   1       0.588   2.181   1.123  0.00  0.00    -0.267 OA
ATOM     23  H   UNL d   1      -2.280   2.184   2.446  0.00  0.00     0.169 HD
BRANCH  21  24
ATOM     24  C   UNL d   1      -0.094   1.297   3.170  0.00  0.00     0.032 A 
ATOM     25  C   UNL d   1      -1.033   0.509   3.851  0.00  0.00     0.018 A 
ATOM     26  C   UNL d   1      -0.784   0.116   5.170  0.00  0.00     0.025 A 
ATOM     27  C   UNL d   1       0.405   0.492   5.798  0.00  0.00     0.034 A 
ATOM     28  C   UNL d   1       1.370   1.219   5.105  0.00  0.00     0.025 A 
ATOM     29 CL   UNL d   1       0.669   0.077   7.446  0.00  0.00    -0.084 Cl
ATOM     30  C   UNL d   1       1.124   1.614   3.789  0.00  0.00     0.018 A 
ENDBRANCH  21  24
ENDBRANCH   1  20
TORSDOF 5
