REMARK  4 active torsions:
REMARK  status: ('A' for Active; 'I' for Inactive)
REMARK    1  A    between atoms: C_10  and  C_3 
REMARK    2  A    between atoms: C_11  and  C_4 
REMARK    3  A    between atoms: C_9  and  C_5 
REMARK    4  A    between atoms: C_8  and  C_6 
ROOT
ATOM      1  N   UNL d   1       1.817   0.077  -0.103  0.00  0.00     0.103 N 
ATOM      2  C   UNL d   1      -1.064   0.025   0.213  0.00  0.00     0.140 C 
ATOM      3  C   UNL d   1      -0.305  -1.288   0.090  0.00  0.00     0.093 C 
ATOM      4  C   UNL d   1      -0.399   1.303  -0.265  0.00  0.00     0.093 C 
ATOM      5  C   UNL d   1       1.078   1.312   0.185  0.00  0.00     0.265 C 
ATOM      6  C   UNL d   1       1.097  -1.111  -0.550  0.00  0.00     0.265 C 
ATOM      7  O   UNL d   1      -2.199   0.045   0.696  0.00  0.00    -0.297 OA
ATOM      8  H   UNL d   1       2.465  -0.136   0.652  0.00  0.00     0.317 HD
ENDROOT
BRANCH   5   9
ATOM      9  C   UNL d   1       1.922   2.472  -0.362  0.00  0.00    -0.025 A 
ATOM     10  C   UNL d   1       3.073   2.877   0.339  0.00  0.00     0.009 A 
ATOM     11  C   UNL d   1       3.948   3.827  -0.195  0.00  0.00     0.001 A 
ATOM     12  C   UNL d   1       3.698   4.387  -1.446  0.00  0.00     0.000 A 
ATOM     13  C   UNL d   1       2.557   4.020  -2.147  0.00  0.00     0.001 A 
ATOM     14  C   UNL d   1       1.673   3.085  -1.603  0.00  0.00     0.009 A 
ENDBRANCH   5   9
BRANCH   4  15
ATOM     15  C   UNL d   1      -1.200   2.555   0.174  0.00  0.00     0.010 C 
ATOM     16  C   UNL d   1      -1.194   2.858   1.668  0.00  0.00     0.006 C 
ENDBRANCH   4  15
BRANCH   6  17
ATOM     17  C   UNL d   1       1.239  -1.320  -2.065  0.00  0.00    -0.025 A 
ATOM     18  C   UNL d   1       1.212  -0.267  -2.986  0.00  0.00     0.009 A 
ATOM     19  C   UNL d   1       1.389  -0.472  -4.357  0.00  0.00     0.001 A 
ATOM     20  C   UNL d   1       1.605  -1.751  -4.840  0.00  0.00     0.000 A 
ATOM     21  C   UNL d   1       1.646  -2.823  -3.951  0.00  0.00     0.001 A 
ATOM     22  C   UNL d   1       1.470  -2.608  -2.578  0.00  0.00     0.009 A 
ENDBRANCH   6  17
BRANCH   3  23
ATOM     23  C   UNL d   1      -1.137  -2.401  -0.582  0.00  0.00     0.010 C 
ATOM     24  C   UNL d   1      -2.397  -2.822   0.166  0.00  0.00     0.006 C 
ENDBRANCH   3  23
TORSDOF 4
