REMARK  4 active torsions:
REMARK  status: ('A' for Active; 'I' for Inactive)
REMARK    1  A    between atoms: N_8  and  C_2 
REMARK    2  A    between atoms: C_16  and  N_8 
REMARK    3  A    between atoms: O_14  and  C_9 
REMARK    4  A    between atoms: O_15  and  C_10 
ROOT
ATOM      1  C   UNL d   1       0.257   0.828  -0.054  0.00  0.00     0.032 A 
ATOM      2  C   UNL d   1      -1.017   1.421  -0.145  0.00  0.00     0.094 A 
ATOM      3  C   UNL d   1       0.293  -0.566  -0.168  0.00  0.00     0.049 A 
ATOM      4  C   UNL d   1       1.467   1.547   0.078  0.00  0.00     0.056 A 
ATOM      5  N   UNL d   1      -2.132   0.691  -0.305  0.00  0.00    -0.342 N 
ATOM      6  HN  UNL d   1      -3.052   1.125  -0.379  1.00  0.00     0.167 HD
ATOM      7  C   UNL d   1       1.533  -1.197  -0.173  0.00  0.00     0.070 A 
ATOM      8  C   UNL d   1       2.708   0.910   0.056  0.00  0.00     0.102 A 
ATOM      9  C   UNL d   1       2.733  -0.479  -0.062  0.00  0.00     0.103 A 
ATOM     10  N   UNL d   1      -0.814  -1.304  -0.302  0.00  0.00    -0.351 N 
ATOM     11  HN  UNL d   1      -0.777  -2.322  -0.355  1.00  0.00     0.166 HD
ATOM     12  C   UNL d   1      -1.974  -0.636  -0.363  0.00  0.00     0.182 A 
ENDROOT
BRANCH   2  13
ATOM     13  N   UNL d   1      -1.115   2.820  -0.117  0.00  0.00    -0.274 NA
ATOM     14  H   UNL d   1      -0.773   3.190   0.764  0.00  0.00     0.129 HD
BRANCH  13  15
ATOM     15  C   UNL d   1      -2.336   3.449  -0.609  0.00  0.00     0.053 C 
ATOM     16  C   UNL d   1      -3.347   3.652   0.514  0.00  0.00     0.026 C 
ATOM     17  C   UNL d   1      -1.935   4.797  -1.214  0.00  0.00     0.026 C 
ENDBRANCH  13  15
ENDBRANCH   2  13
BRANCH   8  18
ATOM     18  O   UNL d   1       3.759   1.775   0.176  0.00  0.00    -0.353 OA
ATOM     19  C   UNL d   1       5.040   1.326  -0.242  0.00  0.00     0.210 C 
ENDBRANCH   8  18
BRANCH   9  20
ATOM     20  O   UNL d   1       3.915  -1.165  -0.166  0.00  0.00    -0.353 OA
ATOM     21  C   UNL d   1       4.191  -1.910   1.018  0.00  0.00     0.210 C 
ENDBRANCH   9  20
TORSDOF 4
