REMARK  0 active torsions:
REMARK  status: ('A' for Active; 'I' for Inactive)
ROOT
ATOM      1  C   UNL d   1       1.056  -0.218  -0.016  0.00  0.00     0.280 A 
ATOM      2  C   UNL d   1       0.870  -1.790  -0.081  0.00  0.00     0.290 A 
ATOM      3  C   UNL d   1      -0.379   0.242   0.014  0.00  0.00     0.040 A 
ATOM      4  N   UNL d   1      -0.500  -2.044  -0.076  0.00  0.00    -0.321 N 
ATOM      5  C   UNL d   1      -1.228  -0.866  -0.024  0.00  0.00     0.047 A 
ATOM      6  O   UNL d   1       1.727   0.283  -1.175  0.00  0.00    -0.342 OA
ATOM      7  O   UNL d   1       1.750   0.191   1.164  0.00  0.00    -0.342 OA
ATOM      8  O   UNL d   1       1.743  -2.645  -0.124  0.00  0.00    -0.267 OA
ATOM      9  C   UNL d   1      -0.903   1.524   0.064  0.00  0.00     0.015 A 
ATOM     10  C   UNL d   1      -2.603  -0.748  -0.012  0.00  0.00     0.030 A 
ATOM     11  C   UNL d   1       3.085   0.385   0.703  0.00  0.00     0.198 C 
ATOM     12  C   UNL d   1       2.879   0.960  -0.672  0.00  0.00     0.198 C 
ATOM     13  C   UNL d   1      -2.295   1.668   0.073  0.00  0.00     0.001 A 
ATOM     14  C   UNL d   1      -3.137   0.542   0.036  0.00  0.00     0.002 A 
ATOM     15  H   UNL d   1      -0.881  -2.977  -0.112  0.00  0.00     0.169 HD
ENDROOT
TORSDOF 0
