REMARK  7 active torsions:
REMARK  status: ('A' for Active; 'I' for Inactive)
REMARK    1  A    between atoms: S_13  and  C_2 
REMARK    2  A    between atoms: C_20  and  C_3 
REMARK       I    between atoms: N_8  and  C_10 
REMARK    3  A    between atoms: C_26  and  N_9 
REMARK    4  A    between atoms: C_10  and  C_21 
REMARK    5  A    between atoms: C_21  and  S_13 
REMARK    6  A    between atoms: S_15  and  C_20 
REMARK    7  A    between atoms: C_19  and  S_15 
ROOT
ATOM      1  N   UNL d   1      -0.830   0.315  -0.738  0.00  0.00    -0.319 N 
ATOM      2  C   UNL d   1       0.115   1.139  -0.185  0.00  0.00     0.162 A 
ATOM      3  C   UNL d   1      -0.821  -0.842   0.020  0.00  0.00     0.109 A 
ATOM      4  N   UNL d   1       0.730   0.510   0.785  0.00  0.00    -0.278 N 
ATOM      5  HN  UNL d   1       1.499   0.876   1.347  1.00  0.00     0.189 HD
ATOM      6  N   UNL d   1       0.154  -0.732   0.910  0.00  0.00    -0.286 N 
ATOM      7  HN  UNL d   1       0.431  -1.451   1.579  1.00  0.00     0.188 HD
ATOM      8  C   UNL d   1      -1.647   0.552  -1.901  0.00  0.00     0.159 C 
ENDROOT
BRANCH   2   9
ATOM      9  S   UNL d   1       0.383   2.775  -0.673  0.00  0.00    -0.083 SA
BRANCH   9  10
ATOM     10  C   UNL d   1       2.088   3.084  -0.093  0.00  0.00     0.185 C 
BRANCH  10  11
ATOM     11  C   UNL d   1       2.458   4.569  -0.207  0.00  0.00     0.229 C 
ATOM     12  N   UNL d   1       3.775   4.930   0.063  0.00  0.00    -0.348 N 
ATOM     13  C   UNL d   1       4.859   4.048   0.528  0.00  0.00     0.145 C 
ATOM     14  C   UNL d   1       4.154   6.351   0.025  0.00  0.00     0.145 C 
ATOM     15  C   UNL d   1       5.455   4.511   1.885  0.00  0.00     0.143 C 
ATOM     16  N   UNL d   1       5.748   5.959   1.874  0.00  0.00    -0.378 N 
ATOM     17  C   UNL d   1       4.641   6.814   1.407  0.00  0.00     0.143 C 
ATOM     18  O   UNL d   1       1.629   5.429  -0.517  0.00  0.00    -0.273 OA
BRANCH  16  19
ATOM     19  C   UNL d   1       7.045   6.430   1.974  0.00  0.00     0.030 A 
ATOM     20  C   UNL d   1       7.937   5.901   2.919  0.00  0.00     0.029 A 
ATOM     21  C   UNL d   1       9.238   6.399   3.072  0.00  0.00     0.002 A 
ATOM     22  C   UNL d   1       9.684   7.442   2.268  0.00  0.00     0.000 A 
ATOM     23  C   UNL d   1       8.828   7.981   1.317  0.00  0.00     0.002 A 
ATOM     24  C   UNL d   1       7.527   7.482   1.178  0.00  0.00     0.029 A 
ENDBRANCH  16  19
ENDBRANCH  10  11
ENDBRANCH   9  10
ENDBRANCH   2   9
BRANCH   3  25
ATOM     25  C   UNL d   1      -1.762  -2.002  -0.172  0.00  0.00     0.157 C 
BRANCH  25  26
ATOM     26  S   UNL d   1      -1.663  -3.195   1.222  0.00  0.00    -0.121 SA
BRANCH  26  27
ATOM     27  C   UNL d   1      -2.663  -4.580   0.654  0.00  0.00     0.014 A 
ATOM     28  C   UNL d   1      -4.084  -4.596   0.645  0.00  0.00     0.007 A 
ATOM     29  C   UNL d   1      -4.713  -5.817   0.308  0.00  0.00     0.045 A 
ATOM     30  C   UNL d   1      -4.904  -3.491   0.981  0.00  0.00     0.017 A 
ATOM     31  C   UNL d   1      -6.099  -5.896   0.301  0.00  0.00     0.054 A 
ATOM     32  N   UNL d   1      -4.032  -6.931   0.010  0.00  0.00    -0.365 N 
ATOM     33  C   UNL d   1      -6.888  -4.795   0.616  0.00  0.00     0.036 A 
ATOM     34  C   UNL d   1      -6.296  -3.587   0.959  0.00  0.00     0.025 A 
ATOM     35 CL   UNL d   1      -8.602  -4.931   0.594  0.00  0.00    -0.084 Cl
ATOM     36  C   UNL d   1      -2.689  -6.892   0.054  0.00  0.00     0.089 A 
ATOM     37  HN  UNL d   1      -4.521  -7.790  -0.245  1.00  0.00     0.165 HD
ATOM     38  C   UNL d   1      -1.968  -5.756   0.363  0.00  0.00     0.036 A 
ENDBRANCH  26  27
ENDBRANCH  25  26
ENDBRANCH   3  25
TORSDOF 7
