REMARK  4 active torsions:
REMARK  status: ('A' for Active; 'I' for Inactive)
REMARK    1  A    between atoms: N_2  and  S_1 
REMARK    2  A    between atoms: C_16  and  S_1 
REMARK    3  A    between atoms: C_3  and  N_8 
REMARK    4  A    between atoms: C_4  and  C_5 
ROOT
ATOM      1  N   UNL d   1       0.635  -0.666  -1.310  0.00  0.00    -0.304 N 
ATOM      2  N   UNL d   1       2.436  -1.794  -3.246  0.00  0.00    -0.265 NA
ATOM      3  C   UNL d   1       0.809  -2.149  -1.444  0.00  0.00     0.150 C 
ATOM      4  C   UNL d   1       1.016   0.070  -2.557  0.00  0.00     0.150 C 
ATOM      5  C   UNL d   1       2.221  -2.501  -1.964  0.00  0.00     0.117 C 
ATOM      6  C   UNL d   1       2.419  -0.330  -3.062  0.00  0.00     0.117 C 
ENDROOT
BRANCH   2   7
ATOM      7  C   UNL d   1       3.478  -2.316  -4.019  0.00  0.00     0.104 A 
ATOM      8  N   UNL d   1       4.633  -1.616  -4.126  0.00  0.00    -0.354 N 
ATOM      9  C   UNL d   1       5.633  -2.125  -4.892  0.00  0.00     0.105 A 
ATOM     10  HN  UNL d   1       4.750  -0.726  -3.642  1.00  0.00     0.166 HD
ATOM     11  C   UNL d   1       5.551  -3.321  -5.587  0.00  0.00     0.065 A 
ATOM     12  C   UNL d   1       4.355  -4.032  -5.493  0.00  0.00     0.044 A 
ATOM     13  C   UNL d   1       3.312  -3.530  -4.715  0.00  0.00     0.073 A 
ATOM     14 CL   UNL d   1       1.822  -4.413  -4.720  0.00  0.00    -0.081 Cl
BRANCH  11  15
ATOM     15  C   UNL d   1       6.706  -3.802  -6.408  0.00  0.00     0.418 C 
ATOM     16  F   UNL d   1       6.462  -4.985  -7.037  0.00  0.00    -0.166 F 
ATOM     17  F   UNL d   1       7.051  -2.924  -7.387  0.00  0.00    -0.166 F 
ATOM     18  F   UNL d   1       7.827  -3.999  -5.664  0.00  0.00    -0.166 F 
ENDBRANCH  11  15
ENDBRANCH   2   7
BRANCH   1  19
ATOM     19  S   UNL d   1       1.069   0.018   0.174  0.00  0.00     0.260 S 
ATOM     20  O   UNL d   1       1.319   1.433  -0.013  0.00  0.00    -0.200 OA
ATOM     21  O   UNL d   1       2.045  -0.841   0.810  0.00  0.00    -0.200 OA
BRANCH  19  22
ATOM     22  C   UNL d   1      -0.466  -0.132   1.068  0.00  0.00     0.079 A 
ATOM     23  C   UNL d   1      -0.707  -1.251   1.871  0.00  0.00     0.025 A 
ATOM     24  C   UNL d   1      -1.914  -1.349   2.566  0.00  0.00     0.002 A 
ATOM     25  C   UNL d   1      -2.862  -0.328   2.472  0.00  0.00     0.000 A 
ATOM     26  C   UNL d   1      -2.608   0.797   1.686  0.00  0.00     0.002 A 
ATOM     27  C   UNL d   1      -1.407   0.899   0.983  0.00  0.00     0.025 A 
ENDBRANCH  19  22
ENDBRANCH   1  19
TORSDOF 4
