REMARK  7 active torsions:
REMARK  status: ('A' for Active; 'I' for Inactive)
REMARK    1  A    between atoms: C_6  and  C_1 
REMARK    2  A    between atoms: N_8  and  C_2 
REMARK    3  A    between atoms: C_7  and  C_4 
REMARK    4  A    between atoms: O_20  and  C_6 
REMARK       I    between atoms: C_9  and  N_8 
REMARK    5  A    between atoms: C_11  and  C_9 
REMARK    6  A    between atoms: C_12  and  C_13 
REMARK    7  A    between atoms: O_21  and  C_12 
ROOT
ATOM      1  C   UNL d   1      -1.643   3.689   1.059  0.00  0.00     0.107 C 
ATOM      2  C   UNL d   1      -1.479   5.047   0.834  0.00  0.00     0.059 C 
ATOM      3  S   UNL d   1      -3.304   3.273   1.148  0.00  0.00    -0.081 SA
ATOM      4  C   UNL d   1      -3.828   4.851   0.741  0.00  0.00     0.025 C 
ATOM      5  C   UNL d   1      -2.745   5.714   0.703  0.00  0.00     0.051 C 
ENDROOT
BRANCH   2   6
ATOM      6  N   UNL d   1      -0.234   5.652   0.670  0.00  0.00    -0.322 N 
ATOM      7  C   UNL d   1       0.088   6.973   0.851  0.00  0.00     0.245 C 
ATOM      8  O   UNL d   1       1.009   7.507   0.245  0.00  0.00    -0.268 OA
ATOM      9  H   UNL d   1       0.476   5.097   0.200  0.00  0.00     0.169 HD
BRANCH   7  10
ATOM     10  C   UNL d   1      -0.523   7.610   2.049  0.00  0.00     0.081 C 
ATOM     11  C   UNL d   1      -0.786   8.913   2.201  0.00  0.00     0.086 C 
BRANCH  11  12
ATOM     12  C   UNL d   1      -0.719   9.951   1.169  0.00  0.00     0.165 C 
ATOM     13  O   UNL d   1      -0.476  11.122   1.383  0.00  0.00    -0.647 OA
BRANCH  12  14
ATOM     14  O   UNL d   1      -1.128   9.509  -0.028  0.00  0.00    -0.773 OA
ATOM     15  H   UNL d   1      -1.053  10.297  -0.606  0.00  0.00     0.167 HD
ENDBRANCH  12  14
ENDBRANCH  11  12
ENDBRANCH   7  10
ENDBRANCH   2   6
BRANCH   1  16
ATOM     16  C   UNL d   1      -0.684   2.619   1.272  0.00  0.00     0.302 C 
ATOM     17  O   UNL d   1      -0.933   1.506   1.723  0.00  0.00    -0.259 OA
BRANCH  16  18
ATOM     18  O   UNL d   1       0.568   3.014   0.887  0.00  0.00    -0.322 OA
ATOM     19  C   UNL d   1       1.562   1.998   1.044  0.00  0.00     0.213 C 
ENDBRANCH  16  18
ENDBRANCH   1  16
BRANCH   4  20
ATOM     20  C   UNL d   1      -5.225   5.126   0.459  0.00  0.00     0.022 A 
ATOM     21  S   UNL d   1      -5.745   6.646  -0.162  0.00  0.00    -0.101 SA
ATOM     22  C   UNL d   1      -7.368   6.131  -0.297  0.00  0.00     0.050 A 
ATOM     23  C   UNL d   1      -7.535   4.838   0.137  0.00  0.00     0.008 A 
ATOM     24  C   UNL d   1      -6.306   4.263   0.576  0.00  0.00     0.021 A 
ENDBRANCH   4  20
TORSDOF 7
