REMARK  4 active torsions:
REMARK  status: ('A' for Active; 'I' for Inactive)
REMARK    1  A    between atoms: C_7  and  C_1 
REMARK       I    between atoms: N_12  and  C_1 
REMARK    2  A    between atoms: N_3  and  N_12 
REMARK    3  A    between atoms: C_9  and  C_10 
REMARK    4  A    between atoms: C_21  and  C_20 
ROOT
ATOM      1  C   UNL d   1       0.872  -0.119   0.074  0.00  0.00     0.270 C 
ATOM      2  N   UNL d   1       0.899   0.777   1.136  0.00  0.00    -0.266 N 
ATOM      3  O   UNL d   1       1.411  -1.222   0.063  0.00  0.00    -0.266 OA
ATOM      4  H   UNL d   1       0.537   1.717   1.041  0.00  0.00     0.190 HD
ENDROOT
BRANCH   2   5
ATOM      5  N   UNL d   1       1.475   0.399   2.311  0.00  0.00    -0.308 N 
ATOM      6  C   UNL d   1       1.471   1.277   3.263  0.00  0.00     0.118 C 
ATOM      7  HN  UNL d   1       1.887  -0.526   2.435  1.00  0.00     0.186 HD
BRANCH   6   8
ATOM      8  C   UNL d   1       2.038   0.961   4.591  0.00  0.00    -0.017 A 
ATOM      9  C   UNL d   1       1.989   1.929   5.599  0.00  0.00     0.052 A 
ATOM     10  C   UNL d   1       2.497   1.580   6.834  0.00  0.00     0.105 A 
ATOM     11  O   UNL d   1       2.518   2.377   7.936  0.00  0.00    -0.323 OA
ATOM     12  C   UNL d   1       3.041   0.338   7.076  0.00  0.00     0.105 A 
ATOM     13  C   UNL d   1       3.091   1.477   8.911  0.00  0.00     0.352 A 
ATOM     14  O   UNL d   1       3.471   0.201   8.359  0.00  0.00    -0.323 OA
ATOM     15  C   UNL d   1       3.113  -0.628   6.097  0.00  0.00     0.040 A 
ATOM     16  C   UNL d   1       2.600  -0.311   4.836  0.00  0.00     0.016 A 
ENDBRANCH   6   8
ENDBRANCH   2   5
BRANCH   1  17
ATOM     17  C   UNL d   1       0.134   0.338  -1.138  0.00  0.00     0.033 A 
ATOM     18  C   UNL d   1       0.519  -0.152  -2.389  0.00  0.00     0.017 A 
ATOM     19  C   UNL d   1      -0.168   0.238  -3.546  0.00  0.00     0.009 A 
ATOM     20  C   UNL d   1      -1.262   1.123  -3.488  0.00  0.00    -0.051 A 
ATOM     21  C   UNL d   1      -1.643   1.588  -2.217  0.00  0.00     0.009 A 
ATOM     22  C   UNL d   1      -0.962   1.200  -1.057  0.00  0.00     0.017 A 
BRANCH  20  23
ATOM     23  C   UNL d   1      -1.991   1.551  -4.776  0.00  0.00    -0.024 C 
ATOM     24  C   UNL d   1      -3.162   2.528  -4.521  0.00  0.00     0.019 C 
ATOM     25  C   UNL d   1      -1.000   2.261  -5.722  0.00  0.00     0.019 C 
ATOM     26  C   UNL d   1      -2.578   0.320  -5.500  0.00  0.00     0.019 C 
ENDBRANCH  20  23
ENDBRANCH   1  17
TORSDOF 4
