REMARK  2 active torsions:
REMARK  status: ('A' for Active; 'I' for Inactive)
REMARK    1  A    between atoms: C_8  and  C_1 
REMARK    2  A    between atoms: C_6  and  C_9 
ROOT
ATOM      1  C   UNL d   1      -0.579   2.513  -0.008  0.00  0.00     0.025 A 
ATOM      2  C   UNL d   1      -1.322   3.034   1.073  0.00  0.00     0.061 A 
ATOM      3  C   UNL d   1      -1.552   4.430   1.127  0.00  0.00     0.017 A 
ATOM      4  C   UNL d   1      -0.095   3.407  -0.988  0.00  0.00     0.016 A 
ATOM      5  C   UNL d   1      -1.055   5.294   0.155  0.00  0.00     0.001 A 
ATOM      6  C   UNL d   1      -0.324   4.781  -0.905  0.00  0.00     0.001 A 
ENDROOT
BRANCH   1   7
ATOM      7  C   UNL d   1      -0.288   1.091  -0.176  0.00  0.00     0.142 A 
ATOM      8  N   UNL d   1      -1.084   0.061   0.014  0.00  0.00    -0.270 N 
ATOM      9  N   UNL d   1      -0.346  -1.065  -0.267  0.00  0.00    -0.007 NA
ATOM     10  HN  UNL d   1      -2.059   0.092   0.311  1.00  0.00     0.185 HD
ATOM     11  N   UNL d   1       0.877  -0.744  -0.659  0.00  0.00    -0.007 NA
ATOM     12  N   UNL d   1       0.915   0.593  -0.614  0.00  0.00    -0.270 N 
ATOM     13  H   UNL d   1       1.757   1.079  -0.882  0.00  0.00     0.185 HD
ENDBRANCH   1   7
BRANCH   2  14
ATOM     14  C   UNL d   1      -1.902   2.231   2.220  0.00  0.00     0.418 C 
ATOM     15  F   UNL d   1      -1.533   0.932   2.315  0.00  0.00    -0.166 F 
ATOM     16  F   UNL d   1      -1.547   2.777   3.424  0.00  0.00    -0.166 F 
ATOM     17  F   UNL d   1      -3.265   2.247   2.214  0.00  0.00    -0.166 F 
ENDBRANCH   2  14
TORSDOF 2
