REMARK  2 active torsions:
REMARK  status: ('A' for Active; 'I' for Inactive)
REMARK    1  A    between atoms: N_5  and  C_1 
REMARK    2  A    between atoms: C_9  and  C_4 
REMARK       I    between atoms: C_7  and  N_5 
REMARK       I    between atoms: N_10  and  C_7 
ROOT
ATOM      1  C   UNL d   1      -0.261  -0.479  -0.992  0.00  0.00     0.164 A 
ATOM      2  N   UNL d   1       0.759   0.323  -1.205  0.00  0.00    -0.335 N 
ATOM      3  HN  UNL d   1       1.109   0.579  -2.129  1.00  0.00     0.168 HD
ATOM      4  C   UNL d   1       1.295   0.775  -0.018  0.00  0.00     0.051 A 
ATOM      5  S   UNL d   1      -0.636  -0.721   0.674  0.00  0.00    -0.063 SA
ATOM      6  C   UNL d   1       0.664   0.308   1.115  0.00  0.00     0.083 A 
ENDROOT
BRANCH   1   7
ATOM      7  N   UNL d   1      -0.974  -1.084  -1.962  0.00  0.00    -0.171 N 
ATOM      8  C   UNL d   1      -0.772  -0.977  -3.301  0.00  0.00     0.671 C 
ATOM      9  N   UNL d   1       0.107  -0.248  -3.903  0.00  0.00    -0.235 N 
ATOM     10  N   UNL d   1      -1.556  -1.764  -4.067  0.00  0.00    -0.235 N 
ATOM     11  H   UNL d   1       0.641   0.243  -3.156  0.00  0.00     0.174 HD
ATOM     12  HN  UNL d   1       0.250  -0.169  -4.910  1.00  0.00     0.174 HD
ATOM     13  H   UNL d   1      -2.473  -2.037  -3.759  0.00  0.00     0.174 HD
ATOM     14  H   UNL d   1      -1.506  -1.498  -5.045  0.00  0.00     0.174 HD
ATOM     15  H   UNL d   1      -1.683  -1.742  -1.672  0.00  0.00     0.186 HD
ENDBRANCH   1   7
BRANCH   4  16
ATOM     16  C   UNL d   1       2.466   1.642  -0.012  0.00  0.00    -0.009 A 
ATOM     17  C   UNL d   1       2.690   2.569   1.014  0.00  0.00     0.014 A 
ATOM     18  C   UNL d   1       3.829   3.377   1.000  0.00  0.00     0.007 A 
ATOM     19  C   UNL d   1       4.761   3.276  -0.039  0.00  0.00    -0.062 A 
ATOM     20  C   UNL d   1       4.532   2.355  -1.071  0.00  0.00     0.007 A 
ATOM     21  C   UNL d   1       5.988   4.137  -0.030  0.00  0.00     0.048 C 
ATOM     22  C   UNL d   1       3.395   1.550  -1.057  0.00  0.00     0.014 A 
ENDBRANCH   4  16
TORSDOF 2
