REMARK  8 active torsions:
REMARK  status: ('A' for Active; 'I' for Inactive)
REMARK    1  A    between atoms: C_8  and  C_1 
REMARK    2  A    between atoms: C_10  and  N_6 
REMARK    3  A    between atoms: C_12  and  C_10 
REMARK    4  A    between atoms: C_11  and  N_13 
REMARK    5  A    between atoms: N_14  and  C_11 
REMARK       I    between atoms: N_15  and  C_12 
REMARK    6  A    between atoms: N_13  and  N_15 
REMARK    7  A    between atoms: C_20  and  N_14 
REMARK    8  A    between atoms: O_28  and  C_23 
ROOT
ATOM      1  C   UNL d   1       3.049   0.641  -0.123  0.00  0.00     0.257 C 
ATOM      2  N   UNL d   1       3.387  -0.489  -0.851  0.00  0.00    -0.266 N 
ATOM      3  O   UNL d   1       1.892   0.859   0.272  0.00  0.00    -0.270 OA
ATOM      4  H   UNL d   1       4.355  -0.824  -0.794  0.00  0.00     0.190 HD
ENDROOT
BRANCH   1   5
ATOM      5  C   UNL d   1       4.146   1.659   0.083  0.00  0.00     0.271 C 
BRANCH   5   6
ATOM      6  N   UNL d   1       5.405   1.090   0.505  0.00  0.00    -0.207 N 
ATOM      7  N   UNL d   1       5.566  -0.227   0.700  0.00  0.00    -0.268 N 
ATOM      8  C   UNL d   1       6.778  -0.259   1.271  0.00  0.00     0.146 A 
ATOM      9  HN  UNL d   1       4.936  -0.996   0.475  1.00  0.00     0.190 HD
ATOM     10  N   UNL d   1       7.334   0.996   1.369  0.00  0.00    -0.266 N 
ATOM     11  N   UNL d   1       6.453   1.851   0.860  0.00  0.00    -0.002 NA
ATOM     12  HN  UNL d   1       8.248   1.227   1.758  1.00  0.00     0.186 HD
BRANCH   8  13
ATOM     13  C   UNL d   1       7.297  -1.440   1.944  0.00  0.00     0.034 A 
ATOM     14  C   UNL d   1       7.022  -2.756   1.511  0.00  0.00     0.069 A 
ATOM     15  C   UNL d   1       7.342  -3.837   2.349  0.00  0.00     0.056 A 
ATOM     16 CL   UNL d   1       6.320  -3.069  -0.052  0.00  0.00    -0.082 Cl
ATOM     17 CL   UNL d   1       6.960  -5.477   1.945  0.00  0.00    -0.083 Cl
ATOM     18  C   UNL d   1       7.966  -3.619   3.581  0.00  0.00     0.026 A 
ATOM     19  C   UNL d   1       8.302  -2.329   3.978  0.00  0.00     0.003 A 
ATOM     20  C   UNL d   1       7.970  -1.246   3.166  0.00  0.00     0.017 A 
ENDBRANCH   8  13
ENDBRANCH   5   6
ENDBRANCH   1   5
BRANCH   2  21
ATOM     21  N   UNL d   1       2.437  -1.508  -0.909  0.00  0.00    -0.273 N 
ATOM     22  H   UNL d   1       1.821  -1.601  -0.102  0.00  0.00     0.189 HD
BRANCH  21  23
ATOM     23  C   UNL d   1       2.342  -2.407  -1.951  0.00  0.00     0.191 C 
ATOM     24  S   UNL d   1       3.444  -2.573  -3.193  0.00  0.00    -0.039 SA
BRANCH  23  25
ATOM     25  N   UNL d   1       1.263  -3.264  -1.857  0.00  0.00    -0.332 N 
ATOM     26  H   UNL d   1       1.396  -4.199  -2.226  0.00  0.00     0.168 HD
BRANCH  25  27
ATOM     27  C   UNL d   1       0.008  -2.921  -1.317  0.00  0.00     0.034 A 
ATOM     28  C   UNL d   1      -0.437  -1.594  -1.335  0.00  0.00     0.032 A 
ATOM     29  C   UNL d   1      -1.605  -1.227  -0.677  0.00  0.00     0.039 A 
ATOM     30  C   UNL d   1      -2.341  -2.190   0.004  0.00  0.00     0.068 A 
ATOM     31  C   UNL d   1      -1.970  -3.535  -0.084  0.00  0.00     0.039 A 
ATOM     32  C   UNL d   1      -0.799  -3.907  -0.756  0.00  0.00     0.032 A 
BRANCH  30  33
ATOM     33  O   UNL d   1      -3.445  -1.904   0.761  0.00  0.00    -0.356 OA
ATOM     34  C   UNL d   1      -3.338  -0.673   1.480  0.00  0.00     0.210 C 
ENDBRANCH  30  33
ENDBRANCH  25  27
ENDBRANCH  23  25
ENDBRANCH  21  23
ENDBRANCH   2  21
TORSDOF 8
