REMARK  7 active torsions:
REMARK  status: ('A' for Active; 'I' for Inactive)
REMARK    1  A    between atoms: C_3  and  N_1 
REMARK    2  A    between atoms: N_2  and  C_4 
REMARK    3  A    between atoms: O_21  and  C_11 
REMARK    4  A    between atoms: C_12  and  O_22 
REMARK    5  A    between atoms: C_18  and  C_17 
REMARK    6  A    between atoms: C_27  and  O_21 
REMARK    7  A    between atoms: O_22  and  C_28 
ROOT
ATOM      1  C   UNL d   1      -1.507   7.096  -4.524  0.00  0.00    -0.026 A 
ATOM      2  C   UNL d   1      -1.048   7.539  -3.271  0.00  0.00     0.015 A 
ATOM      3  C   UNL d   1      -2.011   5.784  -4.599  0.00  0.00     0.015 A 
ATOM      4  C   UNL d   1      -1.695   5.451  -2.226  0.00  0.00     0.077 A 
ATOM      5  C   UNL d   1      -1.134   6.722  -2.135  0.00  0.00     0.038 A 
ATOM      6  C   UNL d   1      -2.095   4.966  -3.470  0.00  0.00     0.038 A 
ENDROOT
BRANCH   1   7
ATOM      7  C   UNL d   1      -1.482   7.959  -5.724  0.00  0.00    -0.026 A 
ATOM      8  C   UNL d   1      -2.547   7.933  -6.644  0.00  0.00     0.015 A 
ATOM      9  C   UNL d   1      -2.526   8.699  -7.811  0.00  0.00     0.038 A 
ATOM     10  C   UNL d   1      -1.423   9.500  -8.102  0.00  0.00     0.077 A 
ATOM     11  C   UNL d   1      -0.383   9.591  -7.179  0.00  0.00     0.038 A 
ATOM     12  C   UNL d   1      -0.410   8.823  -6.005  0.00  0.00     0.015 A 
BRANCH  10  13
ATOM     13  O   UNL d   1      -1.323  10.277  -9.235  0.00  0.00    -0.294 OA
BRANCH  13  14
ATOM     14  C   UNL d   1      -1.832   9.763 -10.420  0.00  0.00     0.148 A 
ATOM     15  N   UNL d   1      -1.811   8.426 -10.642  0.00  0.00    -0.344 N 
ATOM     16  C   UNL d   1      -2.365   7.978 -11.794  0.00  0.00     0.126 A 
ATOM     17  HN  UNL d   1      -1.395   7.783  -9.968  1.00  0.00     0.167 HD
ATOM     18  C   UNL d   1      -2.918   8.822 -12.743  0.00  0.00     0.118 A 
ATOM     19  C   UNL d   1      -2.889  10.204 -12.522  0.00  0.00     0.041 A 
ATOM     20  C   UNL d   1      -2.328  10.681 -11.338  0.00  0.00     0.059 A 
BRANCH  18  21
ATOM     21  N   UNL d   1      -3.533   8.263 -13.937  0.00  0.00    -0.114 N 
ATOM     22  O   UNL d   1      -3.560   7.030 -14.050  0.00  0.00    -0.532 OA
ATOM     23  O   UNL d   1      -4.002   9.056 -14.767  0.00  0.00    -0.532 OA
ENDBRANCH  18  21
ENDBRANCH  13  14
ENDBRANCH  10  13
ENDBRANCH   1   7
BRANCH   4  24
ATOM     24  O   UNL d   1      -1.761   4.706  -1.071  0.00  0.00    -0.294 OA
BRANCH  24  25
ATOM     25  C   UNL d   1      -2.891   3.921  -0.876  0.00  0.00     0.148 A 
ATOM     26  C   UNL d   1      -2.729   2.769  -0.117  0.00  0.00     0.059 A 
ATOM     27  C   UNL d   1      -3.832   1.935   0.071  0.00  0.00     0.041 A 
ATOM     28  C   UNL d   1      -5.054   2.296  -0.503  0.00  0.00     0.118 A 
ATOM     29  C   UNL d   1      -5.137   3.479  -1.218  0.00  0.00     0.126 A 
ATOM     30  N   UNL d   1      -4.080   4.304  -1.404  0.00  0.00    -0.344 N 
ATOM     31  HN  UNL d   1      -4.174   5.178  -1.921  1.00  0.00     0.167 HD
BRANCH  28  32
ATOM     32  N   UNL d   1      -6.228   1.445  -0.372  0.00  0.00    -0.114 N 
ATOM     33  O   UNL d   1      -7.270   1.811  -0.933  0.00  0.00    -0.532 OA
ATOM     34  O   UNL d   1      -6.111   0.403   0.286  0.00  0.00    -0.532 OA
ENDBRANCH  28  32
ENDBRANCH  24  25
ENDBRANCH   4  24
TORSDOF 7
