REMARK  2 active torsions:
REMARK  status: ('A' for Active; 'I' for Inactive)
REMARK    1  A    between atoms: N_7  and  C_3 
REMARK    2  A    between atoms: C_12  and  C_4 
ROOT
ATOM      1  C   UNL d   1       0.120  -0.548  -0.013  0.00  0.00     0.070 A 
ATOM      2  S   UNL d   1       1.826  -0.721  -0.025  0.00  0.00    -0.088 SA
ATOM      3  C   UNL d   1      -0.869  -1.543   0.035  0.00  0.00     0.103 A 
ATOM      4  C   UNL d   1       2.106   0.972  -0.061  0.00  0.00    -0.007 A 
ATOM      5  C   UNL d   1       0.896   1.650  -0.103  0.00  0.00     0.046 A 
ATOM      6  C   UNL d   1      -0.245   0.787  -0.089  0.00  0.00     0.054 A 
ATOM      7  N   UNL d   1      -2.158  -1.148  -0.051  0.00  0.00    -0.342 N 
ATOM      8  HN  UNL d   1      -2.916  -1.830  -0.060  1.00  0.00     0.167 HD
ATOM      9  N   UNL d   1      -1.538   1.184  -0.136  0.00  0.00    -0.351 N 
ATOM     10  HN  UNL d   1      -1.820   2.163  -0.176  1.00  0.00     0.166 HD
ATOM     11  C   UNL d   1      -2.416   0.171  -0.125  0.00  0.00     0.182 A 
ENDROOT
BRANCH   3  12
ATOM     12  N   UNL d   1      -0.521  -2.887   0.127  0.00  0.00    -0.267 NA
ATOM     13  C   UNL d   1      -1.427  -3.848  -0.506  0.00  0.00     0.107 C 
ATOM     14  C   UNL d   1      -0.644  -5.127  -0.843  0.00  0.00     0.089 C 
ATOM     15  S   UNL d   1       0.101  -5.931   0.629  0.00  0.00    -0.167 SA
ATOM     16  C   UNL d   1       0.897  -4.456   1.363  0.00  0.00     0.089 C 
ATOM     17  C   UNL d   1      -0.078  -3.281   1.475  0.00  0.00     0.107 C 
ENDBRANCH   3  12
BRANCH   4  18
ATOM     18  C   UNL d   1       3.543   1.504  -0.053  0.00  0.00    -0.018 C 
ATOM     19  C   UNL d   1       4.300   1.017  -1.306  0.00  0.00     0.020 C 
ATOM     20  C   UNL d   1       3.568   3.044  -0.054  0.00  0.00     0.020 C 
ATOM     21  C   UNL d   1       4.287   1.023   1.211  0.00  0.00     0.020 C 
ENDBRANCH   4  18
TORSDOF 2
