REMARK  6 active torsions:
REMARK  status: ('A' for Active; 'I' for Inactive)
REMARK    1  A    between atoms: C_4  and  C_3 
REMARK    2  A    between atoms: C_16  and  C_5 
REMARK    3  A    between atoms: N_6  and  C_12 
REMARK    4  A    between atoms: O_14  and  C_11 
REMARK    5  A    between atoms: C_19  and  O_14 
REMARK    6  A    between atoms: O_25  and  C_20 
ROOT
ATOM      1  C   UNL d   1       1.118  -2.325   0.091  0.00  0.00     0.053 A 
ATOM      2  C   UNL d   1       1.922  -2.759   1.169  0.00  0.00     0.054 A 
ATOM      3  C   UNL d   1       0.788  -3.252  -0.915  0.00  0.00     0.090 A 
ATOM      4  C   UNL d   1       2.343  -4.091   1.256  0.00  0.00     0.104 A 
ATOM      5  C   UNL d   1       1.146  -4.606  -0.768  0.00  0.00     0.041 A 
ATOM      6  C   UNL d   1       1.941  -5.025   0.299  0.00  0.00     0.039 A 
ENDROOT
BRANCH   1   7
ATOM      7  C   UNL d   1       0.698  -0.929   0.092  0.00  0.00     0.185 A 
ATOM      8  N   UNL d   1       1.283   0.106   0.653  0.00  0.00    -0.318 N 
ATOM      9  C   UNL d   1       0.386   1.128   0.424  0.00  0.00     0.138 A 
ATOM     10  HN  UNL d   1       2.179   0.144   1.138  1.00  0.00     0.169 HD
ATOM     11  N   UNL d   1      -0.730   0.734  -0.214  0.00  0.00    -0.242 N 
ATOM     12  O   UNL d   1      -0.523  -0.630  -0.436  0.00  0.00    -0.217 OA
ATOM     13  HN  UNL d   1      -1.539   1.298  -0.475  1.00  0.00     0.196 HD
BRANCH   9  14
ATOM     14  C   UNL d   1       0.670   2.509   0.811  0.00  0.00     0.010 A 
ATOM     15  C   UNL d   1       1.894   2.835   1.418  0.00  0.00     0.015 A 
ATOM     16  C   UNL d   1       2.208   4.162   1.727  0.00  0.00     0.001 A 
ATOM     17  C   UNL d   1       1.300   5.178   1.440  0.00  0.00     0.000 A 
ATOM     18  C   UNL d   1       0.072   4.868   0.860  0.00  0.00     0.001 A 
ATOM     19  C   UNL d   1      -0.243   3.542   0.550  0.00  0.00     0.015 A 
ENDBRANCH   9  14
ENDBRANCH   1   7
BRANCH   3  20
ATOM     20  O   UNL d   1       0.116  -2.816  -2.047  0.00  0.00    -0.310 OA
BRANCH  20  21
ATOM     21  C   UNL d   1       0.453  -3.401  -3.255  0.00  0.00     0.076 A 
ATOM     22  C   UNL d   1      -0.589  -3.738  -4.120  0.00  0.00     0.040 A 
ATOM     23  C   UNL d   1      -0.319  -4.419  -5.317  0.00  0.00     0.039 A 
ATOM     24  C   UNL d   1       0.994  -4.758  -5.651  0.00  0.00     0.068 A 
ATOM     25  C   UNL d   1       2.035  -4.365  -4.806  0.00  0.00     0.039 A 
ATOM     26  C   UNL d   1       1.773  -3.663  -3.628  0.00  0.00     0.040 A 
BRANCH  24  27
ATOM     27  O   UNL d   1       1.399  -5.466  -6.747  0.00  0.00    -0.356 OA
ATOM     28  C   UNL d   1       0.402  -5.847  -7.684  0.00  0.00     0.210 C 
ENDBRANCH  24  27
ENDBRANCH  20  21
ENDBRANCH   3  20
BRANCH   4  29
ATOM     29  N   UNL d   1       3.212  -4.515   2.359  0.00  0.00    -0.116 N 
ATOM     30  O   UNL d   1       3.489  -3.675   3.229  0.00  0.00    -0.532 OA
ATOM     31  O   UNL d   1       3.623  -5.682   2.354  0.00  0.00    -0.532 OA
ENDBRANCH   4  29
TORSDOF 6
