REMARK  0 active torsions:
REMARK  status: ('A' for Active; 'I' for Inactive)
ROOT
ATOM      1  C   UNL d   1      -0.273  -0.684  -0.000  0.00  0.00     0.067 A 
ATOM      2  C   UNL d   1      -0.246   0.701  -0.002  0.00  0.00     0.067 A 
ATOM      3  N   UNL d   1      -1.572  -1.149   0.001  0.00  0.00    -0.344 N 
ATOM      4  HN  UNL d   1      -1.876  -2.122   0.002  1.00  0.00     0.167 HD
ATOM      5  N   UNL d   1      -1.575   1.058  -0.003  0.00  0.00    -0.344 N 
ATOM      6  C   UNL d   1       0.931  -1.414  -0.001  0.00  0.00    -0.026 A 
ATOM      7  C   UNL d   1       0.930   1.466  -0.001  0.00  0.00    -0.026 A 
ATOM      8  C   UNL d   1       2.159   0.737   0.003  0.00  0.00    -0.047 A 
ATOM      9  C   UNL d   1       2.163  -0.687  -0.002  0.00  0.00    -0.047 A 
ATOM     10  C   UNL d   1      -2.337  -0.080  -0.001  0.00  0.00     0.078 A 
ATOM     11  C   UNL d   1       0.905   2.970  -0.005  0.00  0.00     0.051 C 
ATOM     12  C   UNL d   1       0.909  -2.921   0.000  0.00  0.00     0.051 C 
ATOM     13  C   UNL d   1       3.434   1.556   0.012  0.00  0.00     0.049 C 
ATOM     14  C   UNL d   1       3.438  -1.505  -0.008  0.00  0.00     0.049 C 
ATOM     15  C   UNL d   1      -3.817  -0.041   0.001  0.00  0.00     0.089 C 
ATOM     16  H   UNL d   1      -1.931   2.001  -0.005  0.00  0.00     0.167 HD
ENDROOT
TORSDOF 0
