REMARK  6 active torsions:
REMARK  status: ('A' for Active; 'I' for Inactive)
REMARK    1  A    between atoms: N_3  and  S_1 
REMARK    2  A    between atoms: C_9  and  S_1 
REMARK    3  A    between atoms: C_2  and  N_3 
REMARK    4  A    between atoms: N_10  and  C_4 
REMARK    5  A    between atoms: C_17  and  N_10 
REMARK    6  A    between atoms: O_26  and  C_18 
ROOT
ATOM      1  C   UNL d   1       0.869  -2.347  -1.256  0.00  0.00     0.139 A 
ATOM      2  C   UNL d   1      -0.146  -3.149  -1.804  0.00  0.00     0.146 A 
ATOM      3  N   UNL d   1       2.112  -2.251  -1.759  0.00  0.00    -0.341 N 
ATOM      4  HN  UNL d   1       2.807  -1.611  -1.373  1.00  0.00     0.167 HD
ATOM      5  N   UNL d   1       0.117  -3.886  -2.909  0.00  0.00    -0.338 N 
ATOM      6  HN  UNL d   1      -0.614  -4.428  -3.369  1.00  0.00     0.167 HD
ATOM      7  C   UNL d   1       2.379  -3.051  -2.800  0.00  0.00     0.060 A 
ATOM      8  C   UNL d   1       1.382  -3.875  -3.378  0.00  0.00     0.060 A 
ATOM      9  C   UNL d   1       1.736  -4.712  -4.428  0.00  0.00     0.032 A 
ATOM     10  C   UNL d   1       3.676  -3.099  -3.290  0.00  0.00     0.032 A 
ATOM     11  C   UNL d   1       4.021  -3.955  -4.335  0.00  0.00     0.002 A 
ATOM     12  C   UNL d   1       3.046  -4.764  -4.906  0.00  0.00     0.002 A 
ENDROOT
BRANCH   1  13
ATOM     13  N   UNL d   1       0.732  -1.630  -0.037  0.00  0.00    -0.163 NA
ATOM     14  H   UNL d   1       1.284  -0.777  -0.074  0.00  0.00     0.147 HD
BRANCH  13  15
ATOM     15  S   UNL d   1       1.178  -2.538   1.321  0.00  0.00     0.247 S 
ATOM     16  O   UNL d   1       0.466  -3.799   1.263  0.00  0.00    -0.205 OA
ATOM     17  O   UNL d   1       1.064  -1.665   2.468  0.00  0.00    -0.205 OA
BRANCH  15  18
ATOM     18  C   UNL d   1       2.919  -2.838   1.076  0.00  0.00     0.074 A 
ATOM     19  C   UNL d   1       3.791  -1.744   1.020  0.00  0.00     0.025 A 
ATOM     20  C   UNL d   1       5.139  -1.951   0.726  0.00  0.00     0.008 A 
ATOM     21  C   UNL d   1       5.628  -3.246   0.512  0.00  0.00    -0.062 A 
ATOM     22  C   UNL d   1       4.751  -4.336   0.607  0.00  0.00     0.008 A 
ATOM     23  C   UNL d   1       7.075  -3.446   0.161  0.00  0.00     0.048 C 
ATOM     24  C   UNL d   1       3.396  -4.137   0.889  0.00  0.00     0.025 A 
ENDBRANCH  15  18
ENDBRANCH  13  15
ENDBRANCH   1  13
BRANCH   2  25
ATOM     25  N   UNL d   1      -1.427  -3.175  -1.214  0.00  0.00    -0.340 N 
ATOM     26  H   UNL d   1      -1.371  -3.491  -0.249  0.00  0.00     0.167 HD
BRANCH  25  27
ATOM     27  C   UNL d   1      -2.669  -3.348  -1.846  0.00  0.00     0.033 A 
ATOM     28  C   UNL d   1      -3.743  -3.909  -1.143  0.00  0.00     0.032 A 
ATOM     29  C   UNL d   1      -5.013  -4.002  -1.724  0.00  0.00     0.039 A 
ATOM     30  C   UNL d   1      -5.221  -3.511  -3.006  0.00  0.00     0.065 A 
ATOM     31  C   UNL d   1      -4.173  -2.960  -3.732  0.00  0.00     0.039 A 
ATOM     32  C   UNL d   1      -2.901  -2.890  -3.153  0.00  0.00     0.032 A 
BRANCH  30  33
ATOM     33  O   UNL d   1      -6.483  -3.575  -3.518  0.00  0.00    -0.361 OA
ATOM     34  H   UNL d   1      -6.496  -3.099  -4.364  0.00  0.00     0.217 HD
ENDBRANCH  30  33
ENDBRANCH  25  27
ENDBRANCH   2  25
TORSDOF 6
