REMARK  12 active torsions:
REMARK  status: ('A' for Active; 'I' for Inactive)
REMARK    1  A    between atoms: C_7  and  C_1 
REMARK    2  A    between atoms: C_9  and  C_2 
REMARK    3  A    between atoms: C_8  and  C_3 
REMARK    4  A    between atoms: C_10  and  C_4 
REMARK    5  A    between atoms: C_11  and  C_5 
REMARK    6  A    between atoms: C_12  and  C_6 
REMARK    7  A    between atoms: O_19  and  C_7 
REMARK    8  A    between atoms: O_24  and  C_8 
REMARK    9  A    between atoms: O_22  and  C_9 
REMARK   10  A    between atoms: O_21  and  C_10 
REMARK   11  A    between atoms: O_23  and  C_11 
REMARK   12  A    between atoms: O_20  and  C_12 
ROOT
ATOM      1  C   UNL d   1      -1.347   0.364  -0.264  0.00  0.00     0.114 C 
ATOM      2  C   UNL d   1      -0.355   1.454   0.246  0.00  0.00     0.114 C 
ATOM      3  C   UNL d   1      -0.956  -1.085   0.182  0.00  0.00     0.114 C 
ATOM      4  C   UNL d   1       1.094   1.029  -0.046  0.00  0.00     0.114 C 
ATOM      5  C   UNL d   1       0.543  -1.419  -0.081  0.00  0.00     0.114 C 
ATOM      6  C   UNL d   1       1.500  -0.333   0.536  0.00  0.00     0.114 C 
ENDROOT
BRANCH   1   7
ATOM      7  C   UNL d   1      -1.459   0.542  -1.779  0.00  0.00     0.145 C 
ATOM      8  O   UNL d   1      -0.488   0.518  -2.525  0.00  0.00    -0.650 OA
BRANCH   7   9
ATOM      9  O   UNL d   1      -2.692   0.847  -2.222  0.00  0.00    -0.776 OA
ATOM     10  H   UNL d   1      -3.413   0.560  -1.624  0.00  0.00     0.167 HD
ENDBRANCH   7   9
ENDBRANCH   1   7
BRANCH   2  11
ATOM     11  C   UNL d   1      -0.688   1.775   1.701  0.00  0.00     0.145 C 
ATOM     12  O   UNL d   1      -1.395   1.057   2.392  0.00  0.00    -0.650 OA
BRANCH  11  13
ATOM     13  O   UNL d   1      -0.205   2.938   2.163  0.00  0.00    -0.776 OA
ATOM     14  H   UNL d   1       0.451   3.426   1.626  0.00  0.00     0.167 HD
ENDBRANCH  11  13
ENDBRANCH   2  11
BRANCH   3  15
ATOM     15  C   UNL d   1      -1.966  -2.069  -0.412  0.00  0.00     0.145 C 
ATOM     16  O   UNL d   1      -2.677  -1.800  -1.371  0.00  0.00    -0.650 OA
BRANCH  15  17
ATOM     17  O   UNL d   1      -2.109  -3.229   0.249  0.00  0.00    -0.776 OA
ATOM     18  H   UNL d   1      -1.431  -3.410   0.950  0.00  0.00     0.167 HD
ENDBRANCH  15  17
ENDBRANCH   3  15
BRANCH   4  19
ATOM     19  C   UNL d   1       2.095   2.128   0.178  0.00  0.00     0.145 C 
ATOM     20  O   UNL d   1       2.334   2.574   1.291  0.00  0.00    -0.650 OA
BRANCH  19  21
ATOM     21  O   UNL d   1       2.718   2.584  -0.918  0.00  0.00    -0.776 OA
ATOM     22  H   UNL d   1       2.466   2.203  -1.785  0.00  0.00     0.167 HD
ENDBRANCH  19  21
ENDBRANCH   4  19
BRANCH   5  23
ATOM     23  C   UNL d   1       0.922  -2.816   0.396  0.00  0.00     0.145 C 
ATOM     24  O   UNL d   1       0.186  -3.533   1.059  0.00  0.00    -0.650 OA
BRANCH  23  25
ATOM     25  O   UNL d   1       2.127  -3.238  -0.032  0.00  0.00    -0.776 OA
ATOM     26  H   UNL d   1       2.619  -2.650  -0.634  0.00  0.00     0.167 HD
ENDBRANCH  23  25
ENDBRANCH   5  23
BRANCH   6  27
ATOM     27  C   UNL d   1       1.555  -0.425   2.064  0.00  0.00     0.145 C 
ATOM     28  O   UNL d   1       0.967  -1.293   2.692  0.00  0.00    -0.650 OA
BRANCH  27  29
ATOM     29  O   UNL d   1       2.361   0.440   2.695  0.00  0.00    -0.776 OA
ATOM     30  H   UNL d   1       2.719   1.235   2.242  0.00  0.00     0.167 HD
ENDBRANCH  27  29
ENDBRANCH   6  27
TORSDOF 12
