REMARK  7 active torsions:
REMARK  status: ('A' for Active; 'I' for Inactive)
REMARK    1  A    between atoms: C_2  and  N_1 
REMARK       I    between atoms: C_3  and  N_1 
REMARK    2  A    between atoms: C_9  and  C_3 
REMARK    3  A    between atoms: C_5  and  C_4 
REMARK    4  A    between atoms: C_6  and  C_10 
REMARK    5  A    between atoms: O_12  and  C_6 
REMARK    6  A    between atoms: C_11  and  C_9 
REMARK    7  A    between atoms: C_10  and  C_11 
ROOT
ATOM      1  N   UNL d   1       1.087  -0.404  -0.210  0.00  0.00    -0.327 N 
ATOM      2  C   UNL d   1       0.722   0.358  -1.313  0.00  0.00     0.222 C 
ATOM      3  O   UNL d   1      -0.398   0.802  -1.542  0.00  0.00    -0.273 OA
ATOM      4  H   UNL d   1       2.075  -0.521  -0.051  0.00  0.00     0.169 HD
ENDROOT
BRANCH   1   5
ATOM      5  C   UNL d   1       0.224  -0.962   0.757  0.00  0.00     0.041 A 
ATOM      6  C   UNL d   1       0.612  -1.135   2.109  0.00  0.00    -0.024 A 
ATOM      7  C   UNL d   1      -0.257  -1.910   2.929  0.00  0.00     0.010 A 
ATOM      8  C   UNL d   1      -1.456  -2.448   2.465  0.00  0.00     0.001 A 
ATOM      9  C   UNL d   1      -1.839  -2.221   1.155  0.00  0.00     0.002 A 
ATOM     10  C   UNL d   1      -1.007  -1.486   0.311  0.00  0.00     0.030 A 
BRANCH   6  11
ATOM     11  C   UNL d   1       1.793  -0.444   2.845  0.00  0.00    -0.022 C 
ATOM     12  C   UNL d   1       2.760   0.420   2.008  0.00  0.00     0.019 C 
ATOM     13  C   UNL d   1       1.199   0.525   3.906  0.00  0.00     0.019 C 
ATOM     14  C   UNL d   1       2.675  -1.500   3.555  0.00  0.00     0.019 C 
ENDBRANCH   6  11
ENDBRANCH   1   5
BRANCH   2  15
ATOM     15  C   UNL d   1       1.899   0.571  -2.260  0.00  0.00     0.108 C 
BRANCH  15  16
ATOM     16  C   UNL d   1       1.675   1.584  -3.401  0.00  0.00    -0.000 C 
ATOM     17  C   UNL d   1       2.829   1.489  -4.410  0.00  0.00     0.011 C 
BRANCH  16  18
ATOM     18  C   UNL d   1       1.459   3.050  -2.970  0.00  0.00     0.114 C 
BRANCH  18  19
ATOM     19  C   UNL d   1       2.649   3.716  -2.315  0.00  0.00     0.139 C 
ATOM     20  O   UNL d   1       3.445   3.150  -1.575  0.00  0.00    -0.650 OA
BRANCH  19  21
ATOM     21  O   UNL d   1       2.749   5.037  -2.596  0.00  0.00    -0.776 OA
ATOM     22  H   UNL d   1       2.041   5.380  -3.172  0.00  0.00     0.167 HD
ENDBRANCH  19  21
ENDBRANCH  18  19
ENDBRANCH  16  18
ENDBRANCH  15  16
ENDBRANCH   2  15
TORSDOF 7
