REMARK  4 active torsions:
REMARK  status: ('A' for Active; 'I' for Inactive)
REMARK    1  A    between atoms: C_6  and  C_1 
REMARK    2  A    between atoms: C_3  and  C_2 
REMARK       I    between atoms: N_7  and  C_3 
REMARK       I    between atoms: C_10  and  N_7 
REMARK    3  A    between atoms: O_17  and  C_10 
REMARK    4  A    between atoms: C_20  and  O_17 
ROOT
ATOM      1  C   UNL d   1       2.107  -7.203   1.033  0.00  0.00    -0.091 C 
ATOM      2  C   UNL d   1       2.687  -7.604   2.003  0.00  0.00     0.014 C 
ATOM      3  C   UNL d   1       1.399  -6.706  -0.155  0.00  0.00     0.273 C 
ENDROOT
BRANCH   3   4
ATOM      4  O   UNL d   1       1.064  -5.328   0.046  0.00  0.00    -0.292 OA
BRANCH   4   5
ATOM      5  C   UNL d   1       1.428  -4.474  -0.931  0.00  0.00     0.368 C 
ATOM      6  N   UNL d   1       1.086  -3.166  -0.703  0.00  0.00    -0.269 N 
ATOM      7  C   UNL d   1       0.192  -2.640   0.217  0.00  0.00     0.264 C 
ATOM      8  H   UNL d   1       1.361  -2.576  -1.474  0.00  0.00     0.174 HD
ATOM      9  O   UNL d   1      -0.392  -3.262   1.097  0.00  0.00    -0.267 OA
ATOM     10  O   UNL d   1       2.011  -4.781  -1.968  0.00  0.00    -0.238 OA
BRANCH   7  11
ATOM     11  C   UNL d   1      -0.049  -1.226   0.005  0.00  0.00     0.093 C 
ATOM     12  C   UNL d   1      -1.286  -0.500  -0.012  0.00  0.00     0.086 C 
ATOM     13  N   UNL d   1      -1.054   0.779  -0.358  0.00  0.00    -0.259 N 
ATOM     14  O   UNL d   1       0.306   0.936  -0.420  0.00  0.00    -0.241 OA
ATOM     15  HN  UNL d   1      -1.757   1.496  -0.540  1.00  0.00     0.195 HD
ATOM     16  C   UNL d   1       0.914  -0.252  -0.186  0.00  0.00     0.090 C 
ATOM     17  C   UNL d   1       2.390  -0.203  -0.149  0.00  0.00     0.080 C 
BRANCH  12  18
ATOM     18  C   UNL d   1      -2.665  -0.940   0.242  0.00  0.00     0.037 A 
ATOM     19  C   UNL d   1      -3.490  -0.226   1.144  0.00  0.00     0.048 A 
ATOM     20 CL   UNL d   1      -2.934   1.129   2.078  0.00  0.00    -0.083 Cl
ATOM     21  C   UNL d   1      -4.827  -0.594   1.355  0.00  0.00     0.025 A 
ATOM     22  C   UNL d   1      -5.362  -1.700   0.708  0.00  0.00     0.003 A 
ATOM     23  C   UNL d   1      -4.566  -2.427  -0.171  0.00  0.00     0.025 A 
ATOM     24  C   UNL d   1      -3.240  -2.040  -0.424  0.00  0.00     0.048 A 
ATOM     25 CL   UNL d   1      -2.416  -2.942  -1.655  0.00  0.00    -0.083 Cl
ENDBRANCH  12  18
ENDBRANCH   7  11
ENDBRANCH   4   5
ENDBRANCH   3   4
TORSDOF 4
