REMARK  4 active torsions:
REMARK  status: ('A' for Active; 'I' for Inactive)
REMARK    1  A    between atoms: C_2  and  C_1 
REMARK       I    between atoms: N_6  and  C_1 
REMARK    2  A    between atoms: C_9  and  C_5 
REMARK    3  A    between atoms: C_11  and  N_6 
REMARK    4  A    between atoms: O_19  and  C_9 
ROOT
ATOM      1  C   UNL d   1       0.659   0.220  -0.222  0.00  0.00     0.228 C 
ATOM      2  N   UNL d   1       0.430   1.290   0.618  0.00  0.00    -0.327 N 
ATOM      3  O   UNL d   1       1.152  -0.859   0.113  0.00  0.00    -0.273 OA
ATOM      4  H   UNL d   1      -0.181   2.023   0.279  0.00  0.00     0.169 HD
ENDROOT
BRANCH   1   5
ATOM      5  C   UNL d   1       0.086   0.338  -1.627  0.00  0.00     0.100 C 
ATOM      6  C   UNL d   1      -0.027   1.723  -2.304  0.00  0.00     0.022 C 
ATOM      7  C   UNL d   1       1.318   2.404  -2.305  0.00  0.00    -0.025 C 
ATOM      8  C   UNL d   1      -0.071   1.316  -3.785  0.00  0.00     0.018 C 
ATOM      9  C   UNL d   1       2.104   1.712  -3.140  0.00  0.00    -0.025 C 
ATOM     10  C   UNL d   1       1.274   0.586  -3.731  0.00  0.00     0.023 C 
ATOM     11  C   UNL d   1       1.022  -0.451  -2.612  0.00  0.00     0.105 C 
BRANCH  11  12
ATOM     12  C   UNL d   1       0.325  -1.695  -3.107  0.00  0.00     0.145 C 
ATOM     13  O   UNL d   1       0.023  -1.911  -4.268  0.00  0.00    -0.650 OA
BRANCH  12  14
ATOM     14  O   UNL d   1       0.057  -2.577  -2.111  0.00  0.00    -0.776 OA
ATOM     15  H   UNL d   1       0.418  -2.311  -1.234  0.00  0.00     0.167 HD
ENDBRANCH  12  14
ENDBRANCH  11  12
ENDBRANCH   1   5
BRANCH   2  16
ATOM     16  C   UNL d   1       0.847   1.401   1.966  0.00  0.00     0.037 A 
ATOM     17  C   UNL d   1       1.813   0.577   2.551  0.00  0.00     0.053 A 
ATOM     18  C   UNL d   1       2.127   0.712   3.908  0.00  0.00     0.037 A 
ATOM     19 CL   UNL d   1       3.311  -0.319   4.618  0.00  0.00    -0.084 Cl
ATOM     20  C   UNL d   1       1.490   1.664   4.697  0.00  0.00     0.048 A 
ATOM     21  C   UNL d   1       0.556   2.507   4.107  0.00  0.00     0.037 A 
ATOM     22  C   UNL d   1       0.245   2.394   2.749  0.00  0.00     0.053 A 
ATOM     23 CL   UNL d   1      -0.247   3.690   5.066  0.00  0.00    -0.084 Cl
ENDBRANCH   2  16
TORSDOF 4
