REMARK  7 active torsions:
REMARK  status: ('A' for Active; 'I' for Inactive)
REMARK    1  A    between atoms: C_10  and  N_1 
REMARK    2  A    between atoms: C_3  and  O_8 
REMARK    3  A    between atoms: C_11  and  C_3 
REMARK    4  A    between atoms: O_8  and  C_4 
REMARK    5  A    between atoms: O_27  and  C_9 
REMARK    6  A    between atoms: C_12  and  C_11 
REMARK    7  A    between atoms: C_23  and  C_14 
ROOT
ATOM      1  C   UNL d   1       4.510  -3.072   1.838  0.00  0.00     0.112 A 
ATOM      2  C   UNL d   1       4.754  -1.779   2.341  0.00  0.00     0.102 A 
ATOM      3  C   UNL d   1       4.137  -0.680   1.727  0.00  0.00     0.052 A 
ATOM      4  C   UNL d   1       3.717  -3.246   0.700  0.00  0.00     0.041 A 
ATOM      5  C   UNL d   1       3.266  -0.874   0.650  0.00  0.00    -0.018 A 
ATOM      6  C   UNL d   1       3.086  -2.148   0.112  0.00  0.00     0.016 A 
ENDROOT
BRANCH   5   7
ATOM      7  C   UNL d   1       2.408   0.223   0.153  0.00  0.00     0.100 C 
ATOM      8  N   UNL d   1       2.383   1.389   0.720  0.00  0.00    -0.363 N 
ATOM      9  HN  UNL d   1       3.062   1.635   1.440  1.00  0.00     0.165 HD
BRANCH   8  10
ATOM     10  C   UNL d   1       1.391   2.307   0.314  0.00  0.00     0.071 A 
ATOM     11  C   UNL d   1       0.044   1.954   0.108  0.00  0.00     0.145 A 
ATOM     12  C   UNL d   1      -0.929   2.902  -0.195  0.00  0.00     0.086 A 
ATOM     13  F   UNL d   1      -0.346   0.672   0.218  0.00  0.00    -0.204 F 
ATOM     14  C   UNL d   1      -0.560   4.234  -0.275  0.00  0.00     0.119 A 
ATOM     15  C   UNL d   1       0.758   4.626  -0.065  0.00  0.00     0.044 A 
ATOM     16  F   UNL d   1      -1.490   5.160  -0.542  0.00  0.00    -0.206 F 
ATOM     17  C   UNL d   1       1.731   3.662   0.230  0.00  0.00     0.036 A 
ENDBRANCH   8  10
ENDBRANCH   5   7
BRANCH   2  18
ATOM     18  O   UNL d   1       5.572  -1.686   3.440  0.00  0.00    -0.353 OA
ATOM     19  C   UNL d   1       5.569  -0.436   4.125  0.00  0.00     0.210 C 
ENDBRANCH   2  18
BRANCH   1  20
ATOM     20  O   UNL d   1       4.988  -4.168   2.626  0.00  0.00    -0.273 OA
BRANCH  20  21
ATOM     21  C   UNL d   1       4.734  -5.509   2.360  0.00  0.00     0.288 C 
ATOM     22  O   UNL d   1       4.299  -5.987   1.323  0.00  0.00    -0.260 OA
BRANCH  21  23
ATOM     23  C   UNL d   1       4.992  -6.390   3.520  0.00  0.00     0.084 C 
BRANCH  23  24
ATOM     24  C   UNL d   1       5.475  -6.026   4.713  0.00  0.00     0.025 C 
ATOM     25  C   UNL d   1       5.662  -6.973   5.771  0.00  0.00     0.005 A 
ATOM     26  S   UNL d   1       6.457  -6.456   7.218  0.00  0.00    -0.102 SA
ATOM     27  C   UNL d   1       5.312  -8.311   5.879  0.00  0.00     0.019 A 
ATOM     28  C   UNL d   1       6.347  -8.002   7.933  0.00  0.00     0.050 A 
ATOM     29  C   UNL d   1       5.707  -8.903   7.116  0.00  0.00     0.008 A 
ENDBRANCH  23  24
ENDBRANCH  21  23
ENDBRANCH  20  21
ENDBRANCH   1  20
TORSDOF 7
