REMARK  3 active torsions:
REMARK  status: ('A' for Active; 'I' for Inactive)
REMARK    1  A    between atoms: O_9  and  C_8 
REMARK    2  A    between atoms: C_11  and  O_9 
REMARK    3  A    between atoms: C_12  and  C_11 
ROOT
ATOM      1  C   UNL d   1      -0.307  -0.734  -0.068  0.00  0.00    -0.005 A 
ATOM      2  N   UNL d   1      -1.608   1.069  -0.051  0.00  0.00    -0.365 N 
ATOM      3  C   UNL d   1      -0.294   0.659  -0.059  0.00  0.00     0.042 A 
ATOM      4  C   UNL d   1      -2.445  -0.016  -0.045  0.00  0.00     0.089 A 
ATOM      5  C   UNL d   1      -1.666  -1.149  -0.064  0.00  0.00     0.030 A 
ATOM      6  C   UNL d   1       0.918  -1.426  -0.068  0.00  0.00     0.050 A 
ATOM      7  C   UNL d   1       0.892   1.402  -0.059  0.00  0.00     0.033 A 
ATOM      8  C   UNL d   1       2.117  -0.705  -0.006  0.00  0.00     0.070 A 
ATOM      9  C   UNL d   1       2.098   0.690  -0.033  0.00  0.00     0.039 A 
ATOM     10  H   UNL d   1      -1.906   2.034  -0.037  0.00  0.00     0.165 HD
ENDROOT
BRANCH   8  11
ATOM     11  O   UNL d   1       3.359  -1.281   0.093  0.00  0.00    -0.347 OA
BRANCH  11  12
ATOM     12  C   UNL d   1       3.352  -2.614   0.614  0.00  0.00     0.214 C 
BRANCH  12  13
ATOM     13  C   UNL d   1       4.706  -3.007   1.151  0.00  0.00    -0.034 A 
ATOM     14  C   UNL d   1       4.779  -3.854   2.269  0.00  0.00     0.009 A 
ATOM     15  C   UNL d   1       6.014  -4.267   2.768  0.00  0.00     0.001 A 
ATOM     16  C   UNL d   1       7.188  -3.848   2.146  0.00  0.00     0.000 A 
ATOM     17  C   UNL d   1       7.128  -3.020   1.026  0.00  0.00     0.001 A 
ATOM     18  C   UNL d   1       5.892  -2.605   0.526  0.00  0.00     0.009 A 
ENDBRANCH  12  13
ENDBRANCH  11  12
ENDBRANCH   8  11
TORSDOF 3
