REMARK  10 active torsions:
REMARK  status: ('A' for Active; 'I' for Inactive)
REMARK    1  A    between atoms: C_3  and  N_1 
REMARK    2  A    between atoms: C_5  and  C_2 
REMARK    3  A    between atoms: C_6  and  C_2 
REMARK    4  A    between atoms: C_4  and  N_8 
REMARK    5  A    between atoms: O_17  and  C_5 
REMARK    6  A    between atoms: O_16  and  C_6 
REMARK    7  A    between atoms: N_8  and  C_9 
REMARK    8  A    between atoms: O_19  and  C_15 
REMARK    9  A    between atoms: C_21  and  O_16 
REMARK   10  A    between atoms: C_20  and  O_17 
ROOT
ATOM      1  N   UNL d   1      -1.190  -1.633  -0.615  0.00  0.00    -0.363 N 
ATOM      2  H   UNL d   1      -2.124  -1.198  -0.669  0.00  0.00     0.165 HD
ENDROOT
BRANCH   1   3
ATOM      3  C   UNL d   1      -0.514  -1.592  -1.814  0.00  0.00     0.112 C 
ATOM      4  C   UNL d   1      -0.886  -1.894  -3.074  0.00  0.00     0.129 C 
BRANCH   4   5
ATOM      5  C   UNL d   1      -2.197  -2.471  -3.443  0.00  0.00     0.300 C 
ATOM      6  O   UNL d   1      -2.419  -3.052  -4.498  0.00  0.00    -0.259 OA
BRANCH   5   7
ATOM      7  O   UNL d   1      -3.124  -2.207  -2.488  0.00  0.00    -0.318 OA
BRANCH   7   8
ATOM      8  C   UNL d   1      -4.492  -2.329  -2.897  0.00  0.00     0.174 C 
ATOM      9  C   UNL d   1      -4.931  -0.969  -3.404  0.00  0.00     0.034 C 
ENDBRANCH   7   8
ENDBRANCH   5   7
ENDBRANCH   4   5
BRANCH   4  10
ATOM     10  C   UNL d   1       0.102  -1.522  -4.116  0.00  0.00     0.300 C 
ATOM     11  O   UNL d   1       1.292  -1.343  -3.904  0.00  0.00    -0.259 OA
BRANCH  10  12
ATOM     12  O   UNL d   1      -0.546  -1.219  -5.267  0.00  0.00    -0.318 OA
BRANCH  12  13
ATOM     13  C   UNL d   1       0.156  -0.379  -6.192  0.00  0.00     0.174 C 
ATOM     14  C   UNL d   1      -0.286   1.048  -5.926  0.00  0.00     0.034 C 
ENDBRANCH  12  13
ENDBRANCH  10  12
ENDBRANCH   4  10
ENDBRANCH   1   3
BRANCH   1  15
ATOM     15  C   UNL d   1      -1.242  -2.765   0.245  0.00  0.00     0.065 A 
ATOM     16  C   UNL d   1      -2.036  -2.799   1.416  0.00  0.00     0.132 A 
ATOM     17  C   UNL d   1      -1.928  -3.850   2.351  0.00  0.00     0.075 A 
ATOM     18  C   UNL d   1      -1.050  -4.907   2.113  0.00  0.00     0.070 A 
ATOM     19  C   UNL d   1      -0.302  -4.913   0.940  0.00  0.00     0.039 A 
ATOM     20  C   UNL d   1      -0.378  -3.853   0.033  0.00  0.00     0.035 A 
BRANCH  16  21
ATOM     21  N   UNL d   1      -3.043  -1.756   1.689  0.00  0.00    -0.113 N 
ATOM     22  O   UNL d   1      -3.714  -1.858   2.729  0.00  0.00    -0.532 OA
ATOM     23  O   UNL d   1      -3.207  -0.854   0.853  0.00  0.00    -0.532 OA
ENDBRANCH  16  21
BRANCH  18  24
ATOM     24  O   UNL d   1      -0.838  -5.973   2.941  0.00  0.00    -0.356 OA
ATOM     25  C   UNL d   1      -1.481  -5.948   4.207  0.00  0.00     0.210 C 
ENDBRANCH  18  24
ENDBRANCH   1  15
TORSDOF 10
