REMARK  8 active torsions:
REMARK  status: ('A' for Active; 'I' for Inactive)
REMARK    1  A    between atoms: N_3  and  C_1 
REMARK    2  A    between atoms: N_9  and  C_1 
REMARK    3  A    between atoms: C_2  and  N_3 
REMARK       I    between atoms: C_4  and  N_10 
REMARK    4  A    between atoms: C_13  and  C_4 
REMARK    5  A    between atoms: C_6  and  C_18 
REMARK    6  A    between atoms: N_10  and  N_9 
REMARK    7  A    between atoms: O_22  and  C_13 
REMARK    8  A    between atoms: N_14  and  O_22 
ROOT
ATOM      1  C   UNL d   1      -1.932   0.000  -2.471  0.00  0.00     0.262 C 
ATOM      2  N   UNL d   1      -1.190   0.279  -1.332  0.00  0.00    -0.266 N 
ATOM      3  O   UNL d   1      -3.140  -0.221  -2.433  0.00  0.00    -0.269 OA
ATOM      4  H   UNL d   1      -0.184   0.141  -1.343  0.00  0.00     0.190 HD
ENDROOT
BRANCH   2   5
ATOM      5  N   UNL d   1      -1.818   0.024  -0.107  0.00  0.00    -0.273 N 
ATOM      6  H   UNL d   1      -2.765  -0.359  -0.186  0.00  0.00     0.189 HD
BRANCH   5   7
ATOM      7  C   UNL d   1      -1.529   0.719   1.049  0.00  0.00     0.191 C 
ATOM      8  S   UNL d   1      -0.582   2.088   1.157  0.00  0.00    -0.039 SA
BRANCH   7   9
ATOM      9  N   UNL d   1      -2.109   0.189   2.181  0.00  0.00    -0.331 N 
ATOM     10  H   UNL d   1      -2.271   0.825   2.958  0.00  0.00     0.168 HD
BRANCH   9  11
ATOM     11  C   UNL d   1      -2.297  -1.197   2.447  0.00  0.00     0.057 A 
ATOM     12  C   UNL d   1      -1.537  -2.165   1.770  0.00  0.00     0.055 A 
ATOM     13  C   UNL d   1      -1.704  -3.520   2.044  0.00  0.00     0.036 A 
ATOM     14 CL   UNL d   1      -0.759  -4.679   1.196  0.00  0.00    -0.084 Cl
ATOM     15  C   UNL d   1      -2.620  -3.933   3.005  0.00  0.00     0.026 A 
ATOM     16  C   UNL d   1      -3.359  -2.980   3.710  0.00  0.00     0.028 A 
ATOM     17  C   UNL d   1      -3.187  -1.616   3.444  0.00  0.00     0.060 A 
ATOM     18 CL   UNL d   1      -4.138  -0.481   4.333  0.00  0.00    -0.082 Cl
ENDBRANCH   9  11
ENDBRANCH   7   9
ENDBRANCH   5   7
ENDBRANCH   2   5
BRANCH   1  19
ATOM     19  C   UNL d   1      -1.112  -0.037  -3.751  0.00  0.00     0.305 C 
BRANCH  19  20
ATOM     20  O   UNL d   1      -0.795  -1.390  -4.066  0.00  0.00    -0.272 OA
BRANCH  20  21
ATOM     21  N   UNL d   1      -0.081  -1.403  -5.275  0.00  0.00    -0.277 N 
ATOM     22  C   UNL d   1       0.120  -2.632  -5.645  0.00  0.00     0.127 C 
ATOM     23  HN  UNL d   1       0.231  -0.576  -5.784  1.00  0.00     0.193 HD
BRANCH  22  24
ATOM     24  C   UNL d   1       0.842  -2.952  -6.897  0.00  0.00     0.003 A 
ATOM     25  C   UNL d   1       1.105  -4.274  -7.286  0.00  0.00     0.047 A 
ATOM     26  C   UNL d   1       1.804  -4.532  -8.472  0.00  0.00     0.048 A 
ATOM     27 CL   UNL d   1       0.607  -5.642  -6.355  0.00  0.00    -0.083 Cl
ATOM     28  C   UNL d   1       2.233  -3.473  -9.271  0.00  0.00     0.035 A 
ATOM     29  C   UNL d   1       1.967  -2.158  -8.903  0.00  0.00     0.025 A 
ATOM     30 CL   UNL d   1       3.098  -3.795 -10.723  0.00  0.00    -0.084 Cl
ATOM     31  C   UNL d   1       1.273  -1.897  -7.718  0.00  0.00     0.016 A 
ENDBRANCH  22  24
ENDBRANCH  20  21
ENDBRANCH  19  20
ENDBRANCH   1  19
TORSDOF 8
