REMARK  1 active torsions:
REMARK  status: ('A' for Active; 'I' for Inactive)
REMARK    1  A    between atoms: C_7  and  N_1 
ROOT
ATOM      1  N   UNL d   1      -2.765   0.244   0.455  0.00  0.00    -0.251 N 
ATOM      2  C   UNL d   1      -2.464  -0.699  -0.524  0.00  0.00     0.232 C 
ATOM      3  C   UNL d   1      -1.772   1.115   0.881  0.00  0.00     0.232 C 
ATOM      4  C   UNL d   1      -1.107  -1.359  -0.410  0.00  0.00     0.113 C 
ATOM      5  C   UNL d   1      -0.466   0.422   1.189  0.00  0.00     0.113 C 
ATOM      6  C   UNL d   1       0.030  -0.423   0.011  0.00  0.00    -0.024 C 
ATOM      7  O   UNL d   1      -1.885   2.325   1.069  0.00  0.00    -0.273 OA
ATOM      8  O   UNL d   1      -3.235  -1.056  -1.417  0.00  0.00    -0.273 OA
ATOM      9  C   UNL d   1       1.229  -1.292   0.463  0.00  0.00     0.010 C 
ATOM     10  C   UNL d   1       0.480   0.459  -1.179  0.00  0.00     0.010 C 
ATOM     11  C   UNL d   1       2.470  -0.470   0.802  0.00  0.00     0.001 C 
ATOM     12  C   UNL d   1       1.721   1.296  -0.863  0.00  0.00     0.001 C 
ATOM     13  C   UNL d   1       2.877   0.441  -0.351  0.00  0.00     0.000 C 
ENDROOT
BRANCH   1  14
ATOM     14  C   UNL d   1      -4.132   0.431   0.854  0.00  0.00     0.060 A 
ATOM     15  C   UNL d   1      -4.638   1.606   1.410  0.00  0.00     0.117 A 
ATOM     16  N   UNL d   1      -5.874   1.730   1.964  0.00  0.00    -0.373 N 
ATOM     17  C   UNL d   1      -6.651   0.630   1.982  0.00  0.00     0.088 A 
ATOM     18  HN  UNL d   1      -6.198   2.617   2.349  1.00  0.00     0.164 HD
ATOM     19  C   UNL d   1      -6.262  -0.583   1.449  0.00  0.00     0.019 A 
ATOM     20  C   UNL d   1      -4.998  -0.674   0.871  0.00  0.00     0.033 A 
ENDBRANCH   1  14
TORSDOF 1
