REMARK  5 active torsions:
REMARK  status: ('A' for Active; 'I' for Inactive)
REMARK    1  A    between atoms: C_3  and  C_1 
REMARK    2  A    between atoms: C_2  and  C_7 
REMARK    3  A    between atoms: O_15  and  C_3 
REMARK    4  A    between atoms: C_12  and  C_4 
REMARK    5  A    between atoms: C_18  and  O_15 
ROOT
ATOM      1  C   UNL d   1       0.986   0.034   0.036  0.00  0.00     0.120 C 
ATOM      2  C   UNL d   1       0.338   1.049   0.639  0.00  0.00     0.040 C 
ATOM      3  C   UNL d   1       0.317  -1.076  -0.556  0.00  0.00     0.105 C 
ATOM      4  N   UNL d   1      -0.250  -1.965  -1.041  0.00  0.00    -0.191 NA
ENDROOT
BRANCH   1   5
ATOM      5  C   UNL d   1       2.462   0.163  -0.052  0.00  0.00     0.303 C 
ATOM      6  O   UNL d   1       3.094   1.119   0.377  0.00  0.00    -0.258 OA
BRANCH   5   7
ATOM      7  O   UNL d   1       2.990  -0.876  -0.744  0.00  0.00    -0.317 OA
BRANCH   7   8
ATOM      8  C   UNL d   1       4.323  -0.678  -1.238  0.00  0.00     0.174 C 
ATOM      9  C   UNL d   1       4.221   0.003  -2.591  0.00  0.00     0.034 C 
ENDBRANCH   7   8
ENDBRANCH   5   7
ENDBRANCH   1   5
BRANCH   2  10
ATOM     10  C   UNL d   1      -1.115   1.138   0.775  0.00  0.00    -0.035 A 
ATOM     11  C   UNL d   1      -1.745   0.591   1.895  0.00  0.00     0.012 A 
ATOM     12  C   UNL d   1      -3.133   0.669   2.026  0.00  0.00     0.017 A 
ATOM     13  C   UNL d   1      -3.909   1.297   1.040  0.00  0.00     0.048 A 
ATOM     14  C   UNL d   1      -3.267   1.839  -0.085  0.00  0.00     0.017 A 
ATOM     15  C   UNL d   1      -1.879   1.761  -0.216  0.00  0.00     0.012 A 
BRANCH  13  16
ATOM     16  C   UNL d   1      -5.409   1.405   1.180  0.00  0.00     0.417 C 
ATOM     17  F   UNL d   1      -5.894   0.823   2.312  0.00  0.00    -0.166 F 
ATOM     18  F   UNL d   1      -5.832   2.700   1.217  0.00  0.00    -0.166 F 
ATOM     19  F   UNL d   1      -6.076   0.824   0.145  0.00  0.00    -0.166 F 
ENDBRANCH  13  16
ENDBRANCH   2  10
TORSDOF 5
