REMARK  4 active torsions:
REMARK  status: ('A' for Active; 'I' for Inactive)
REMARK    1  A    between atoms: C_2  and  S_1 
REMARK    2  A    between atoms: C_6  and  S_1 
REMARK    3  A    between atoms: C_3  and  C_2 
REMARK    4  A    between atoms: C_7  and  C_3 
ROOT
ATOM      1  C   UNL d   1       0.630  -0.866  -1.500  0.00  0.00     0.229 C 
ENDROOT
BRANCH   1   2
ATOM      2  S   UNL d   1       1.047  -0.038  -0.000  0.00  0.00     0.182 S 
ATOM      3  O   UNL d   1       2.457   0.312  -0.050  0.00  0.00    -0.222 OA
ATOM      4  O   UNL d   1       0.553  -0.857   1.092  0.00  0.00    -0.222 OA
BRANCH   2   5
ATOM      5  C   UNL d   1       0.114   1.470   0.012  0.00  0.00     0.059 A 
ATOM      6  C   UNL d   1      -1.188   1.473   0.520  0.00  0.00     0.023 A 
ATOM      7  C   UNL d   1      -1.924   2.658   0.507  0.00  0.00     0.002 A 
ATOM      8  C   UNL d   1      -1.355   3.830   0.005  0.00  0.00     0.000 A 
ATOM      9  C   UNL d   1      -0.040   3.829  -0.462  0.00  0.00     0.002 A 
ATOM     10  C   UNL d   1       0.704   2.650  -0.450  0.00  0.00     0.023 A 
ENDBRANCH   2   5
ENDBRANCH   1   2
BRANCH   1  11
ATOM     11  C   UNL d   1       0.872  -0.005  -2.700  0.00  0.00     0.173 C 
ATOM     12  O   UNL d   1      -0.033   0.702  -3.145  0.00  0.00    -0.291 OA
BRANCH  11  13
ATOM     13  C   UNL d   1       2.197  -0.001  -3.400  0.00  0.00     0.011 A 
ATOM     14  C   UNL d   1       3.325  -0.674  -2.917  0.00  0.00     0.017 A 
ATOM     15  C   UNL d   1       4.549  -0.573  -3.593  0.00  0.00     0.025 A 
ATOM     16  C   UNL d   1       4.648   0.187  -4.756  0.00  0.00     0.034 A 
ATOM     17  C   UNL d   1       3.526   0.833  -5.267  0.00  0.00     0.025 A 
ATOM     18 CL   UNL d   1       6.163   0.343  -5.553  0.00  0.00    -0.084 Cl
ATOM     19  C   UNL d   1       2.305   0.738  -4.591  0.00  0.00     0.017 A 
ENDBRANCH  11  13
ENDBRANCH   1  11
TORSDOF 4
