REMARK  4 active torsions:
REMARK  status: ('A' for Active; 'I' for Inactive)
REMARK    1  A    between atoms: C_6  and  C_1 
REMARK    2  A    between atoms: C_7  and  C_2 
REMARK    3  A    between atoms: C_9  and  C_5 
REMARK       I    between atoms: N_8  and  C_6 
REMARK    4  A    between atoms: C_18  and  N_8 
ROOT
ATOM      1  C   UNL d   1       1.119   0.693   0.128  0.00  0.00     0.073 A 
ATOM      2  C   UNL d   1      -0.180   1.153  -0.043  0.00  0.00     0.175 A 
ATOM      3  O   UNL d   1      -1.055   0.096  -0.006  0.00  0.00    -0.304 OA
ATOM      4  C   UNL d   1       0.987  -0.719   0.337  0.00  0.00     0.058 A 
ATOM      5  C   UNL d   1      -0.343  -1.044   0.215  0.00  0.00     0.087 A 
ENDROOT
BRANCH   1   6
ATOM      6  C   UNL d   1       2.412   1.379   0.118  0.00  0.00     0.259 C 
ATOM      7  N   UNL d   1       2.472   2.580  -0.556  0.00  0.00    -0.322 N 
ATOM      8  H   UNL d   1       1.610   3.020  -0.847  0.00  0.00     0.169 HD
ATOM      9  O   UNL d   1       3.376   0.833   0.643  0.00  0.00    -0.267 OA
BRANCH   7  10
ATOM     10  C   UNL d   1       3.651   3.275  -0.917  0.00  0.00     0.050 A 
ATOM     11  C   UNL d   1       4.951   2.820  -0.707  0.00  0.00     0.117 A 
ATOM     12  N   UNL d   1       6.066   3.482  -1.111  0.00  0.00    -0.373 N 
ATOM     13  C   UNL d   1       5.883   4.653  -1.752  0.00  0.00     0.088 A 
ATOM     14  HN  UNL d   1       7.000   3.109  -0.938  1.00  0.00     0.164 HD
ATOM     15  C   UNL d   1       4.636   5.197  -2.005  0.00  0.00     0.019 A 
ATOM     16  C   UNL d   1       3.507   4.495  -1.582  0.00  0.00     0.032 A 
ENDBRANCH   7  10
ENDBRANCH   1   6
BRANCH   2  17
ATOM     17  C   UNL d   1      -0.815   2.478  -0.241  0.00  0.00     0.440 C 
ATOM     18  F   UNL d   1       0.095   3.489  -0.206  0.00  0.00    -0.164 F 
ATOM     19  F   UNL d   1      -1.426   2.571  -1.450  0.00  0.00    -0.164 F 
ATOM     20  F   UNL d   1      -1.746   2.759   0.703  0.00  0.00    -0.164 F 
ENDBRANCH   2  17
BRANCH   5  21
ATOM     21  C   UNL d   1      -1.092  -2.297   0.267  0.00  0.00    -0.002 A 
ATOM     22  C   UNL d   1      -0.435  -3.501   0.571  0.00  0.00     0.016 A 
ATOM     23  C   UNL d   1      -1.135  -4.711   0.621  0.00  0.00     0.024 A 
ATOM     24  C   UNL d   1      -2.503  -4.729   0.365  0.00  0.00     0.034 A 
ATOM     25  C   UNL d   1      -3.173  -3.549   0.056  0.00  0.00     0.024 A 
ATOM     26 CL   UNL d   1      -3.366  -6.215   0.430  0.00  0.00    -0.084 Cl
ATOM     27  C   UNL d   1      -2.471  -2.339   0.007  0.00  0.00     0.016 A 
ENDBRANCH   5  21
TORSDOF 4
