REMARK  7 active torsions:
REMARK  status: ('A' for Active; 'I' for Inactive)
REMARK    1  A    between atoms: S_2  and  C_1 
REMARK    2  A    between atoms: N_8  and  S_2 
REMARK    3  A    between atoms: C_7  and  C_3 
REMARK    4  A    between atoms: C_11  and  N_6 
REMARK    5  A    between atoms: O_16  and  C_7 
REMARK    6  A    between atoms: C_13  and  N_8 
REMARK    7  A    between atoms: C_25  and  O_16 
ROOT
ATOM      1  C   UNL d   1      -0.171  -1.226   0.031  0.00  0.00     0.115 A 
ATOM      2  C   UNL d   1       1.158  -0.711  -0.060  0.00  0.00     0.086 A 
ATOM      3  C   UNL d   1      -1.053  -0.140   0.090  0.00  0.00     0.037 A 
ATOM      4  C   UNL d   1       1.049   0.679  -0.015  0.00  0.00     0.031 A 
ATOM      5  N   UNL d   1      -0.299   1.037  -0.002  0.00  0.00    -0.317 N 
ATOM      6  C   UNL d   1       2.175   1.664   0.083  0.00  0.00     0.070 C 
ATOM      7  C   UNL d   1      -2.552  -0.145   0.093  0.00  0.00     0.070 C 
ENDROOT
BRANCH   1   8
ATOM      8  S   UNL d   1      -0.619  -2.916   0.019  0.00  0.00     0.248 S 
ATOM      9  O   UNL d   1      -1.863  -2.977  -0.712  0.00  0.00    -0.205 OA
ATOM     10  O   UNL d   1       0.512  -3.665  -0.476  0.00  0.00    -0.205 OA
BRANCH   8  11
ATOM     11  N   UNL d   1      -0.980  -3.404   1.603  0.00  0.00    -0.181 NA
ATOM     12  H   UNL d   1      -1.517  -4.269   1.535  0.00  0.00     0.146 HD
BRANCH  11  13
ATOM     13  C   UNL d   1       0.085  -3.469   2.552  0.00  0.00     0.022 A 
ATOM     14  C   UNL d   1       0.439  -2.328   3.274  0.00  0.00     0.026 A 
ATOM     15  C   UNL d   1       1.448  -2.395   4.240  0.00  0.00     0.026 A 
ATOM     16  C   UNL d   1       2.101  -3.604   4.474  0.00  0.00     0.034 A 
ATOM     17  C   UNL d   1       1.763  -4.742   3.740  0.00  0.00     0.026 A 
ATOM     18 CL   UNL d   1       3.333  -3.693   5.671  0.00  0.00    -0.084 Cl
ATOM     19  C   UNL d   1       0.761  -4.671   2.768  0.00  0.00     0.026 A 
ENDBRANCH  11  13
ENDBRANCH   8  11
ENDBRANCH   1   8
BRANCH   2  20
ATOM     20  C   UNL d   1       2.436  -1.414  -0.216  0.00  0.00     0.296 C 
ATOM     21  O   UNL d   1       3.316  -0.999  -0.961  0.00  0.00    -0.259 OA
BRANCH  20  22
ATOM     22  O   UNL d   1       2.551  -2.526   0.556  0.00  0.00    -0.318 OA
BRANCH  22  23
ATOM     23  C   UNL d   1       3.559  -3.464   0.145  0.00  0.00     0.174 C 
ATOM     24  C   UNL d   1       4.560  -3.673   1.260  0.00  0.00     0.034 C 
ENDBRANCH  22  23
ENDBRANCH  20  22
ENDBRANCH   2  20
BRANCH   5  25
ATOM     25  C   UNL d   1      -0.812   2.377  -0.106  0.00  0.00     0.039 A 
ATOM     26  C   UNL d   1      -1.929   2.788   0.633  0.00  0.00     0.030 A 
ATOM     27  C   UNL d   1      -2.449   4.079   0.484  0.00  0.00     0.002 A 
ATOM     28  C   UNL d   1      -1.843   4.983  -0.383  0.00  0.00     0.000 A 
ATOM     29  C   UNL d   1      -0.719   4.595  -1.107  0.00  0.00     0.002 A 
ATOM     30  C   UNL d   1      -0.212   3.297  -0.979  0.00  0.00     0.030 A 
ENDBRANCH   5  25
TORSDOF 7
