REMARK  5 active torsions:
REMARK  status: ('A' for Active; 'I' for Inactive)
REMARK    1  A    between atoms: C_7  and  C_1 
REMARK    2  A    between atoms: C_9  and  C_4 
REMARK    3  A    between atoms: C_10  and  C_7 
REMARK    4  A    between atoms: C_11  and  O_14 
REMARK    5  A    between atoms: O_14  and  C_13 
ROOT
ATOM      1  C   UNL d   1       5.043  -3.061   0.527  0.00  0.00     0.089 A 
ATOM      2  O   UNL d   1       4.773  -1.744   0.773  0.00  0.00    -0.310 OA
ATOM      3  C   UNL d   1       3.678  -1.372   0.031  0.00  0.00     0.077 A 
ATOM      4  C   UNL d   1       4.089  -3.566  -0.322  0.00  0.00     0.041 A 
ATOM      5  C   UNL d   1       3.255  -2.482  -0.686  0.00  0.00     0.040 A 
ENDROOT
BRANCH   3   6
ATOM      6  C   UNL d   1       3.114  -0.076   0.087  0.00  0.00     0.056 C 
BRANCH   6   7
ATOM      7  C   UNL d   1       3.563   0.940  -0.656  0.00  0.00     0.068 A 
ATOM      8  C   UNL d   1       4.648   0.977  -1.672  0.00  0.00     0.197 A 
ATOM      9  C   UNL d   1       4.703   2.373  -2.125  0.00  0.00     0.029 A 
ATOM     10  O   UNL d   1       5.338   0.076  -2.096  0.00  0.00    -0.286 OA
ATOM     11  C   UNL d   1       5.561   2.928  -3.057  0.00  0.00     0.016 A 
ATOM     12  C   UNL d   1       3.728   3.134  -1.483  0.00  0.00     0.029 A 
ATOM     13  C   UNL d   1       5.418   4.291  -3.335  0.00  0.00     0.001 A 
ATOM     14  C   UNL d   1       4.431   5.061  -2.688  0.00  0.00     0.001 A 
ATOM     15  C   UNL d   1       3.570   4.483  -1.749  0.00  0.00     0.016 A 
ATOM     16  C   UNL d   1       2.965   2.299  -0.547  0.00  0.00     0.197 A 
ATOM     17  O   UNL d   1       2.046   2.662   0.152  0.00  0.00    -0.286 OA
ENDBRANCH   6   7
ENDBRANCH   3   6
BRANCH   1  18
ATOM     18  C   UNL d   1       6.237  -3.598   1.186  0.00  0.00     0.031 A 
ATOM     19  C   UNL d   1       7.046  -4.618   0.641  0.00  0.00     0.091 A 
ATOM     20  C   UNL d   1       8.126  -5.122   1.383  0.00  0.00     0.038 A 
ATOM     21  C   UNL d   1       8.429  -4.616   2.648  0.00  0.00     0.003 A 
ATOM     22  C   UNL d   1       7.649  -3.599   3.186  0.00  0.00     0.001 A 
ATOM     23  C   UNL d   1       6.569  -3.098   2.459  0.00  0.00     0.017 A 
BRANCH  19  24
ATOM     24  O   UNL d   1       6.793  -5.305  -0.514  0.00  0.00    -0.254 OA
BRANCH  24  25
ATOM     25  C   UNL d   1       6.791  -4.578  -1.739  0.00  0.00     0.530 C 
ATOM     26  F   UNL d   1       6.829  -3.242  -1.594  0.00  0.00    -0.144 F 
ATOM     27  F   UNL d   1       7.857  -4.956  -2.481  0.00  0.00    -0.144 F 
ATOM     28  F   UNL d   1       5.677  -4.920  -2.429  0.00  0.00    -0.144 F 
ENDBRANCH  24  25
ENDBRANCH  19  24
ENDBRANCH   1  18
TORSDOF 5
