REMARK  4 active torsions:
REMARK  status: ('A' for Active; 'I' for Inactive)
REMARK    1  A    between atoms: C_11  and  C_3 
REMARK    2  A    between atoms: N_6  and  C_10 
REMARK    3  A    between atoms: N_7  and  C_12 
REMARK    4  A    between atoms: C_19  and  C_9 
ROOT
ATOM      1  N   UNL d   1       1.588  -0.082  -0.004  0.00  0.00    -0.331 N 
ATOM      2  HN  UNL d   1       2.538  -0.450  -0.049  1.00  0.00     0.168 HD
ATOM      3  C   UNL d   1       1.198   1.150   0.038  0.00  0.00     0.162 A 
ATOM      4  C   UNL d   1       0.401  -0.771   0.028  0.00  0.00     0.111 A 
ATOM      5  O   UNL d   1      -0.131   1.391   0.100  0.00  0.00    -0.256 OA
ATOM      6  C   UNL d   1      -0.748   0.183   0.083  0.00  0.00     0.316 A 
ATOM      7  C   UNL d   1       0.316  -2.108   0.010  0.00  0.00     0.047 C 
ATOM      8  O   UNL d   1      -1.946  -0.015   0.112  0.00  0.00    -0.257 OA
ENDROOT
BRANCH   7   9
ATOM      9  C   UNL d   1      -0.945  -2.846   0.000  0.00  0.00    -0.032 A 
ATOM     10  C   UNL d   1      -1.550  -3.164  -1.221  0.00  0.00     0.047 A 
ATOM     11  C   UNL d   1      -2.818  -3.759  -1.229  0.00  0.00     0.103 A 
ATOM     12  C   UNL d   1      -3.465  -4.084  -0.029  0.00  0.00     0.036 A 
ATOM     13  C   UNL d   1      -2.845  -3.786   1.185  0.00  0.00     0.003 A 
ATOM     14  C   UNL d   1      -1.594  -3.164   1.201  0.00  0.00     0.011 A 
BRANCH  11  15
ATOM     15  N   UNL d   1      -3.494  -3.994  -2.510  0.00  0.00    -0.116 N 
ATOM     16  O   UNL d   1      -2.905  -3.648  -3.545  0.00  0.00    -0.532 OA
ATOM     17  O   UNL d   1      -4.616  -4.519  -2.484  0.00  0.00    -0.532 OA
ENDBRANCH  11  15
ENDBRANCH   7   9
BRANCH   3  18
ATOM     18  C   UNL d   1       2.033   2.356   0.013  0.00  0.00     0.018 A 
ATOM     19  C   UNL d   1       3.421   2.233  -0.124  0.00  0.00     0.052 A 
ATOM     20  C   UNL d   1       4.203   3.395  -0.170  0.00  0.00     0.103 A 
ATOM     21  C   UNL d   1       3.610   4.664  -0.085  0.00  0.00     0.036 A 
ATOM     22  C   UNL d   1       2.229   4.774   0.067  0.00  0.00     0.003 A 
ATOM     23  C   UNL d   1       1.443   3.624   0.116  0.00  0.00     0.016 A 
BRANCH  20  24
ATOM     24  N   UNL d   1       5.662   3.286  -0.296  0.00  0.00    -0.116 N 
ATOM     25  O   UNL d   1       6.153   2.150  -0.341  0.00  0.00    -0.532 OA
ATOM     26  O   UNL d   1       6.314   4.338  -0.344  0.00  0.00    -0.532 OA
ENDBRANCH  20  24
ENDBRANCH   3  18
TORSDOF 4
