REMARK  4 active torsions:
REMARK  status: ('A' for Active; 'I' for Inactive)
REMARK    1  A    between atoms: S_8  and  C_2 
REMARK    2  A    between atoms: C_14  and  S_8 
REMARK    3  A    between atoms: O_16  and  C_9 
REMARK    4  A    between atoms: O_17  and  C_10 
ROOT
ATOM      1  C   UNL d   1       0.173   0.777   0.187  0.00  0.00     0.027 A 
ATOM      2  C   UNL d   1      -1.098   1.373   0.138  0.00  0.00     0.088 A 
ATOM      3  C   UNL d   1       0.179  -0.613   0.045  0.00  0.00     0.049 A 
ATOM      4  C   UNL d   1       1.405   1.463   0.312  0.00  0.00     0.056 A 
ATOM      5  N   UNL d   1      -2.243   0.670   0.054  0.00  0.00    -0.346 N 
ATOM      6  HN  UNL d   1      -3.158   1.121   0.050  1.00  0.00     0.167 HD
ATOM      7  C   UNL d   1       1.417  -1.259  -0.064  0.00  0.00     0.070 A 
ATOM      8  C   UNL d   1       2.640   0.813   0.207  0.00  0.00     0.102 A 
ATOM      9  C   UNL d   1       2.638  -0.562  -0.012  0.00  0.00     0.103 A 
ATOM     10  N   UNL d   1      -0.948  -1.330  -0.040  0.00  0.00    -0.351 N 
ATOM     11  HN  UNL d   1      -0.926  -2.347  -0.115  1.00  0.00     0.166 HD
ATOM     12  C   UNL d   1      -2.105  -0.656  -0.022  0.00  0.00     0.181 A 
ENDROOT
BRANCH   2  13
ATOM     13  S   UNL d   1      -1.305   3.139  -0.096  0.00  0.00    -0.072 SA
BRANCH  13  14
ATOM     14  C   UNL d   1      -1.571   3.803   1.534  0.00  0.00     0.007 A 
ATOM     15  C   UNL d   1      -1.147   5.121   1.772  0.00  0.00     0.020 A 
ATOM     16  C   UNL d   1      -1.397   5.744   2.998  0.00  0.00     0.025 A 
ATOM     17  C   UNL d   1      -2.076   5.053   3.994  0.00  0.00     0.034 A 
ATOM     18  C   UNL d   1      -2.499   3.743   3.776  0.00  0.00     0.025 A 
ATOM     19 CL   UNL d   1      -2.414   5.824   5.494  0.00  0.00    -0.084 Cl
ATOM     20  C   UNL d   1      -2.250   3.121   2.546  0.00  0.00     0.020 A 
ENDBRANCH  13  14
ENDBRANCH   2  13
BRANCH   8  21
ATOM     21  O   UNL d   1       3.677   1.695   0.292  0.00  0.00    -0.353 OA
ATOM     22  C   UNL d   1       5.012   1.232   0.226  0.00  0.00     0.210 C 
ENDBRANCH   8  21
BRANCH   9  23
ATOM     23  O   UNL d   1       3.758  -1.252  -0.392  0.00  0.00    -0.353 OA
ATOM     24  C   UNL d   1       4.463  -1.844   0.697  0.00  0.00     0.210 C 
ENDBRANCH   9  23
TORSDOF 4
