REMARK  1 active torsions:
REMARK  status: ('A' for Active; 'I' for Inactive)
REMARK    1  A    between atoms: C_12  and  C_3 
ROOT
ATOM      1  C   UNL d   1       2.243   0.780  -0.214  0.00  0.00     0.167 A 
ATOM      2  C   UNL d   1       3.526   1.433  -0.126  0.00  0.00     0.076 A 
ATOM      3  C   UNL d   1       4.065   2.279   0.902  0.00  0.00     0.084 A 
ATOM      4  N   UNL d   1       2.188  -0.421  -0.690  0.00  0.00    -0.335 N 
ATOM      5  HN  UNL d   1       3.015  -0.879  -1.074  1.00  0.00     0.168 HD
ATOM      6  N   UNL d   1       5.330   2.611   0.598  0.00  0.00    -0.259 N 
ATOM      7  HN  UNL d   1       5.961   3.179   1.164  1.00  0.00     0.195 HD
ATOM      8  O   UNL d   1       1.211   1.502   0.270  0.00  0.00    -0.256 OA
ATOM      9  C   UNL d   1      -0.023   0.941   0.339  0.00  0.00     0.302 A 
ATOM     10  C   UNL d   1      -0.171  -0.435  -0.143  0.00  0.00     0.067 A 
ATOM     11  C   UNL d   1       0.956  -1.062  -0.656  0.00  0.00     0.050 A 
ATOM     12  O   UNL d   1       5.612   2.040  -0.620  0.00  0.00    -0.241 OA
ATOM     13  C   UNL d   1       4.544   1.330  -1.050  0.00  0.00     0.089 A 
ATOM     14  C   UNL d   1      -1.400  -1.097  -0.069  0.00  0.00     0.038 A 
ATOM     15  O   UNL d   1      -0.978   1.549   0.804  0.00  0.00    -0.259 OA
ATOM     16  C   UNL d   1       0.854  -2.379  -1.102  0.00  0.00     0.032 A 
ATOM     17  C   UNL d   1      -1.492  -2.412  -0.521  0.00  0.00     0.007 A 
ATOM     18  C   UNL d   1      -0.366  -3.059  -1.036  0.00  0.00     0.020 A 
ATOM     19  I   UNL d   1      -3.304  -3.419  -0.417  0.00  0.00    -0.045 I 
ATOM     20  C   UNL d   1       4.689   0.645  -2.350  0.00  0.00     0.080 C 
ENDROOT
BRANCH   3  21
ATOM     21  C   UNL d   1       3.443   2.704   2.166  0.00  0.00     0.015 A 
ATOM     22  C   UNL d   1       3.574   4.000   2.699  0.00  0.00     0.046 A 
ATOM     23 CL   UNL d   1       4.514   5.252   1.960  0.00  0.00    -0.083 Cl
ATOM     24  C   UNL d   1       2.893   4.356   3.874  0.00  0.00     0.025 A 
ATOM     25  C   UNL d   1       2.064   3.442   4.520  0.00  0.00     0.002 A 
ATOM     26  C   UNL d   1       1.944   2.151   4.022  0.00  0.00     0.001 A 
ATOM     27  C   UNL d   1       2.650   1.779   2.875  0.00  0.00     0.015 A 
ENDBRANCH   3  21
TORSDOF 1
