REMARK  6 active torsions:
REMARK  status: ('A' for Active; 'I' for Inactive)
REMARK    1  A    between atoms: C_9  and  C_1 
REMARK    2  A    between atoms: C_8  and  C_2 
REMARK    3  A    between atoms: C_7  and  C_3 
REMARK    4  A    between atoms: O_18  and  C_8 
REMARK    5  A    between atoms: O_19  and  C_9 
REMARK    6  A    between atoms: O_22  and  C_15 
ROOT
ATOM      1  C   UNL d   1      -1.258  -1.066   0.106  0.00  0.00     0.052 C 
ATOM      2  C   UNL d   1       1.308  -1.032   0.087  0.00  0.00     0.052 C 
ATOM      3  C   UNL d   1       0.040  -1.881  -0.077  0.00  0.00     0.102 C 
ATOM      4  C   UNL d   1      -1.223   0.289   0.027  0.00  0.00     0.018 C 
ATOM      5  C   UNL d   1       1.234   0.318   0.019  0.00  0.00     0.018 C 
ATOM      6  N   UNL d   1       0.001   0.929  -0.137  0.00  0.00    -0.362 N 
ATOM      7  C   UNL d   1      -2.393   1.236   0.115  0.00  0.00     0.069 C 
ATOM      8  C   UNL d   1       2.421   1.244   0.115  0.00  0.00     0.069 C 
ATOM      9  H   UNL d   1      -0.015   1.947  -0.124  0.00  0.00     0.165 HD
ENDROOT
BRANCH   3  10
ATOM     10  C   UNL d   1       0.036  -2.569  -1.456  0.00  0.00    -0.023 A 
ATOM     11  C   UNL d   1      -0.002  -3.964  -1.632  0.00  0.00     0.044 A 
ATOM     12  C   UNL d   1      -0.028  -4.520  -2.918  0.00  0.00     0.060 A 
ATOM     13 CL   UNL d   1      -0.010  -5.075  -0.310  0.00  0.00    -0.084 Cl
ATOM     14  C   UNL d   1      -0.004  -3.696  -4.036  0.00  0.00     0.067 A 
ATOM     15  C   UNL d   1       0.040  -2.318  -3.899  0.00  0.00     0.037 A 
ATOM     16  C   UNL d   1       0.056  -1.762  -2.619  0.00  0.00     0.012 A 
BRANCH  14  17
ATOM     17  O   UNL d   1      -0.023  -4.284  -5.265  0.00  0.00    -0.361 OA
ATOM     18  H   UNL d   1       0.006  -3.591  -5.945  0.00  0.00     0.217 HD
ENDBRANCH  14  17
ENDBRANCH   3  10
BRANCH   2  19
ATOM     19  C   UNL d   1       2.606  -1.721   0.315  0.00  0.00     0.291 C 
ATOM     20  O   UNL d   1       3.703  -1.248   0.050  0.00  0.00    -0.260 OA
BRANCH  19  21
ATOM     21  O   UNL d   1       2.408  -2.929   0.897  0.00  0.00    -0.323 OA
ATOM     22  C   UNL d   1       3.618  -3.631   1.198  0.00  0.00     0.213 C 
ENDBRANCH  19  21
ENDBRANCH   2  19
BRANCH   1  23
ATOM     23  C   UNL d   1      -2.513  -1.835   0.345  0.00  0.00     0.291 C 
ATOM     24  O   UNL d   1      -3.638  -1.471   0.051  0.00  0.00    -0.260 OA
BRANCH  23  25
ATOM     25  O   UNL d   1      -2.215  -3.013   0.951  0.00  0.00    -0.323 OA
ATOM     26  C   UNL d   1      -3.327  -3.883   1.171  0.00  0.00     0.213 C 
ENDBRANCH  23  25
ENDBRANCH   1  23
TORSDOF 6
