REMARK  2 active torsions:
REMARK  status: ('A' for Active; 'I' for Inactive)
REMARK    1  A    between atoms: N_2  and  C_1 
REMARK    2  A    between atoms: C_3  and  N_2 
ROOT
ATOM      1  C   UNL d   1       0.966  -2.733  -0.288  0.00  0.00     0.073 A 
ATOM      2  C   UNL d   1       2.075  -3.111   0.481  0.00  0.00     0.145 A 
ATOM      3  C   UNL d   1       2.743  -4.309   0.255  0.00  0.00     0.086 A 
ATOM      4  C   UNL d   1       0.563  -3.561  -1.339  0.00  0.00     0.036 A 
ATOM      5  C   UNL d   1       2.308  -5.130  -0.775  0.00  0.00     0.119 A 
ATOM      6  F   UNL d   1       2.498  -2.312   1.473  0.00  0.00    -0.204 F 
ATOM      7  C   UNL d   1       1.233  -4.764  -1.580  0.00  0.00     0.044 A 
ATOM      8  F   UNL d   1       2.940  -6.287  -1.008  0.00  0.00    -0.206 F 
ENDROOT
BRANCH   1   9
ATOM      9  N   UNL d   1       0.356  -1.494   0.004  0.00  0.00    -0.331 N 
ATOM     10  H   UNL d   1       0.956  -0.831   0.488  0.00  0.00     0.168 HD
BRANCH   9  11
ATOM     11  C   UNL d   1      -0.804  -0.967  -0.451  0.00  0.00     0.171 C 
ATOM     12  S   UNL d   1      -0.944   0.684  -0.643  0.00  0.00    -0.041 SA
ATOM     13  N   UNL d   1      -1.890  -1.745  -0.686  0.00  0.00    -0.371 N 
ATOM     14  C   UNL d   1      -2.248  -2.938   0.059  0.00  0.00     0.148 C 
ATOM     15  H   UNL d   1      -2.678  -1.213  -1.038  0.00  0.00     0.161 HD
ENDBRANCH   9  11
ENDBRANCH   1   9
TORSDOF 2
