REMARK  5 active torsions:
REMARK  status: ('A' for Active; 'I' for Inactive)
REMARK    1  A    between atoms: C_6  and  C_1 
REMARK    2  A    between atoms: C_7  and  C_2 
REMARK    3  A    between atoms: S_12  and  C_5 
REMARK    4  A    between atoms: O_16  and  C_7 
REMARK    5  A    between atoms: C_17  and  S_12 
ROOT
ATOM      1  C   UNL d   1      -0.092  -1.402  -0.007  0.00  0.00     0.027 A 
ATOM      2  C   UNL d   1       1.297  -1.301  -0.000  0.00  0.00     0.094 A 
ATOM      3  C   UNL d   1      -0.721  -0.099   0.015  0.00  0.00     0.081 A 
ATOM      4  S   UNL d   1       1.800   0.340   0.018  0.00  0.00    -0.075 SA
ATOM      5  C   UNL d   1       0.198   0.935   0.030  0.00  0.00     0.063 A 
ATOM      6  C   UNL d   1      -2.133   0.145  -0.072  0.00  0.00     0.102 C 
ATOM      7  N   UNL d   1      -3.273   0.365  -0.132  0.00  0.00    -0.191 NA
ENDROOT
BRANCH   1   8
ATOM      8  C   UNL d   1      -0.838  -2.725  -0.066  0.00  0.00     0.018 A 
ATOM      9  S   UNL d   1      -2.367  -2.998   0.661  0.00  0.00    -0.101 SA
ATOM     10  C   UNL d   1      -2.418  -4.621   0.136  0.00  0.00     0.050 A 
ATOM     11  C   UNL d   1      -1.301  -4.959  -0.590  0.00  0.00     0.008 A 
ATOM     12  C   UNL d   1      -0.396  -3.863  -0.714  0.00  0.00     0.020 A 
ENDBRANCH   1   8
BRANCH   5  13
ATOM     13  S   UNL d   1      -0.082   2.679  -0.061  0.00  0.00    -0.121 SA
BRANCH  13  14
ATOM     14  C   UNL d   1      -1.051   3.019   1.440  0.00  0.00     0.075 C 
ATOM     15  C   UNL d   1      -1.343   4.509   1.545  0.00  0.00     0.016 C 
ENDBRANCH  13  14
ENDBRANCH   5  13
BRANCH   2  16
ATOM     16  C   UNL d   1       2.300  -2.353   0.090  0.00  0.00     0.300 C 
ATOM     17  O   UNL d   1       2.160  -3.419   0.677  0.00  0.00    -0.259 OA
BRANCH  16  18
ATOM     18  O   UNL d   1       3.423  -2.032  -0.622  0.00  0.00    -0.322 OA
ATOM     19  C   UNL d   1       4.391  -3.083  -0.671  0.00  0.00     0.213 C 
ENDBRANCH  16  18
ENDBRANCH   2  16
TORSDOF 5
