REMARK  5 active torsions:
REMARK  status: ('A' for Active; 'I' for Inactive)
REMARK    1  A    between atoms: C_3  and  C_1 
REMARK    2  A    between atoms: C_2  and  C_4 
REMARK       I    between atoms: C_5  and  N_8 
REMARK    3  A    between atoms: O_18  and  C_5 
REMARK    4  A    between atoms: N_8  and  C_7 
REMARK    5  A    between atoms: C_19  and  O_18 
ROOT
ATOM      1  C   UNL d   1       0.617   0.406   1.323  0.00  0.00     0.050 A 
ATOM      2  C   UNL d   1       0.013  -0.113   3.625  0.00  0.00     0.050 A 
ATOM      3  C   UNL d   1       0.285  -0.528   2.312  0.00  0.00     0.032 A 
ATOM      4  C   UNL d   1       0.393   2.206   2.960  0.00  0.00     0.038 A 
ATOM      5  C   UNL d   1       0.076   1.259   3.939  0.00  0.00     0.045 A 
ATOM      6  C   UNL d   1       0.660   1.766   1.661  0.00  0.00     0.045 A 
ENDROOT
BRANCH   4   7
ATOM      7  N   UNL d   1       0.480   3.557   3.341  0.00  0.00    -0.303 N 
ATOM      8  C   UNL d   1       0.739   4.623   2.520  0.00  0.00     0.365 C 
ATOM      9  O   UNL d   1       0.776   4.623   1.297  0.00  0.00    -0.238 OA
ATOM     10  H   UNL d   1       0.411   3.795   4.320  0.00  0.00     0.171 HD
BRANCH   8  11
ATOM     11  O   UNL d   1       1.013   5.714   3.284  0.00  0.00    -0.304 OA
BRANCH  11  12
ATOM     12  C   UNL d   1       1.586   6.812   2.554  0.00  0.00     0.176 C 
ATOM     13  C   UNL d   1       3.090   6.613   2.453  0.00  0.00     0.034 C 
ENDBRANCH  11  12
ENDBRANCH   8  11
ENDBRANCH   4   7
BRANCH   1  14
ATOM     14  C   UNL d   1       0.951  -0.008  -0.090  0.00  0.00     0.417 C 
ATOM     15  F   UNL d   1       0.909  -1.356  -0.282  0.00  0.00    -0.166 F 
ATOM     16  F   UNL d   1       2.202   0.381  -0.462  0.00  0.00    -0.166 F 
ATOM     17  F   UNL d   1       0.100   0.527  -1.006  0.00  0.00    -0.166 F 
ENDBRANCH   1  14
BRANCH   2  18
ATOM     18  C   UNL d   1      -0.335  -1.115   4.699  0.00  0.00     0.417 C 
ATOM     19  F   UNL d   1      -0.319  -2.405   4.265  0.00  0.00    -0.166 F 
ATOM     20  F   UNL d   1       0.526  -1.065   5.753  0.00  0.00    -0.166 F 
ATOM     21  F   UNL d   1      -1.575  -0.909   5.219  0.00  0.00    -0.166 F 
ENDBRANCH   2  18
TORSDOF 5
