REMARK  2 active torsions:
REMARK  status: ('A' for Active; 'I' for Inactive)
REMARK    1  A    between atoms: C_9  and  C_4 
REMARK    2  A    between atoms: C_8  and  C_10 
ROOT
ATOM      1  C   UNL d   1       1.315  -1.367   0.044  0.00  0.00     0.305 A 
ATOM      2  N   UNL d   1       1.175   1.428  -0.044  0.00  0.00    -0.335 N 
ATOM      3  HN  UNL d   1       1.164   2.447  -0.090  1.00  0.00     0.168 HD
ATOM      4  C   UNL d   1       2.283   0.766   0.000  0.00  0.00     0.162 A 
ATOM      5  O   UNL d   1       2.416  -0.575   0.043  0.00  0.00    -0.256 OA
ATOM      6  C   UNL d   1       0.011  -0.701   0.007  0.00  0.00     0.105 A 
ATOM      7  C   UNL d   1      -0.004   0.687  -0.025  0.00  0.00     0.053 A 
ATOM      8  O   UNL d   1       1.423  -2.584   0.083  0.00  0.00    -0.259 OA
ATOM      9  C   UNL d   1      -1.186  -1.414   0.006  0.00  0.00     0.135 A 
ATOM     10  F   UNL d   1      -1.204  -2.753   0.031  0.00  0.00    -0.205 F 
ATOM     11  C   UNL d   1      -1.230   1.359  -0.044  0.00  0.00     0.031 A 
ATOM     12  C   UNL d   1      -2.432   0.648  -0.044  0.00  0.00     0.005 A 
ATOM     13  C   UNL d   1      -2.408  -0.745  -0.022  0.00  0.00     0.043 A 
ENDROOT
BRANCH   4  14
ATOM     14  C   UNL d   1       3.617   1.413  -0.022  0.00  0.00     0.016 A 
ATOM     15  C   UNL d   1       3.743   2.702  -0.559  0.00  0.00     0.032 A 
ATOM     16  C   UNL d   1       4.992   3.345  -0.588  0.00  0.00     0.048 A 
ATOM     17  C   UNL d   1       6.112   2.677  -0.066  0.00  0.00     0.016 A 
ATOM     18  C   UNL d   1       5.989   1.398   0.476  0.00  0.00     0.002 A 
ATOM     19  C   UNL d   1       4.746   0.766   0.499  0.00  0.00     0.016 A 
BRANCH  16  20
ATOM     20  C   UNL d   1       5.147   4.733  -1.159  0.00  0.00     0.417 C 
ATOM     21  F   UNL d   1       3.985   5.265  -1.628  0.00  0.00    -0.166 F 
ATOM     22  F   UNL d   1       5.620   5.621  -0.241  0.00  0.00    -0.166 F 
ATOM     23  F   UNL d   1       6.023   4.771  -2.202  0.00  0.00    -0.166 F 
ENDBRANCH  16  20
ENDBRANCH   4  14
TORSDOF 2
