REMARK  3 active torsions:
REMARK  status: ('A' for Active; 'I' for Inactive)
REMARK    1  A    between atoms: C_4  and  N_1 
REMARK    2  A    between atoms: O_6  and  C_5 
REMARK    3  A    between atoms: C_7  and  O_6 
ROOT
ATOM      1  C   UNL d   1       0.105   2.306  -0.188  0.00  0.00     0.079 A 
ATOM      2  C   UNL d   1      -0.584   3.071   0.776  0.00  0.00     0.103 A 
ATOM      3  C   UNL d   1       0.903   2.983  -1.129  0.00  0.00     0.033 A 
ATOM      4  C   UNL d   1      -0.391   4.465   0.822  0.00  0.00     0.039 A 
ATOM      5  C   UNL d   1       1.021   4.373  -1.120  0.00  0.00     0.002 A 
ATOM      6  C   UNL d   1       0.385   5.114  -0.134  0.00  0.00     0.003 A 
ENDROOT
BRANCH   2   7
ATOM      7  O   UNL d   1      -1.323   2.421   1.749  0.00  0.00    -0.307 OA
BRANCH   7   8
ATOM      8  C   UNL d   1      -2.430   3.058   2.276  0.00  0.00     0.098 A 
ATOM      9  C   UNL d   1      -2.661   2.975   3.655  0.00  0.00     0.069 A 
ATOM     10  C   UNL d   1      -3.744   3.643   4.232  0.00  0.00     0.050 A 
ATOM     11 CL   UNL d   1      -1.613   2.068   4.687  0.00  0.00    -0.081 Cl
ATOM     12  C   UNL d   1      -4.602   4.387   3.426  0.00  0.00     0.035 A 
ATOM     13  C   UNL d   1      -4.413   4.439   2.046  0.00  0.00     0.026 A 
ATOM     14 CL   UNL d   1      -5.911   5.250   4.137  0.00  0.00    -0.084 Cl
ATOM     15  C   UNL d   1      -3.342   3.753   1.468  0.00  0.00     0.041 A 
ENDBRANCH   7   8
ENDBRANCH   2   7
BRANCH   1  16
ATOM     16  N   UNL d   1       0.045   0.885  -0.238  0.00  0.00    -0.250 N 
ATOM     17  C   UNL d   1       1.126   0.093  -0.547  0.00  0.00     0.231 C 
ATOM     18  C   UNL d   1       0.709  -1.345  -0.498  0.00  0.00     0.113 C 
ATOM     19  O   UNL d   1       2.279   0.428  -0.786  0.00  0.00    -0.273 OA
ATOM     20  C   UNL d   1      -0.792  -1.298  -0.343  0.00  0.00     0.113 C 
ATOM     21  C   UNL d   1      -1.115   0.156  -0.134  0.00  0.00     0.231 C 
ATOM     22  O   UNL d   1      -2.266   0.555  -0.029  0.00  0.00    -0.273 OA
ENDBRANCH   1  16
TORSDOF 3
