REMARK  7 active torsions:
REMARK  status: ('A' for Active; 'I' for Inactive)
REMARK    1  A    between atoms: C_2  and  C_1 
REMARK    2  A    between atoms: O_11  and  C_1 
REMARK    3  A    between atoms: C_3  and  C_5 
REMARK       I    between atoms: N_4  and  C_3 
REMARK    4  A    between atoms: C_8  and  N_4 
REMARK    5  A    between atoms: C_5  and  C_9 
REMARK    6  A    between atoms: N_6  and  O_11 
REMARK    7  A    between atoms: N_21  and  C_9 
ROOT
ATOM      1  N   UNL d   1      -1.654   2.950   0.351  0.00  0.00    -0.245 N 
ATOM      2  HN  UNL d   1      -1.429   3.940   0.448  1.00  0.00     0.196 HD
ATOM      3  C   UNL d   1      -1.565   2.320  -0.782  0.00  0.00     0.104 C 
ENDROOT
BRANCH   3   4
ATOM      4  C   UNL d   1      -0.837   3.059  -1.887  0.00  0.00     0.180 C 
BRANCH   4   5
ATOM      5  C   UNL d   1       0.683   3.005  -1.841  0.00  0.00     0.229 C 
ATOM      6  N   UNL d   1       1.248   2.201  -0.877  0.00  0.00    -0.324 N 
ATOM      7  H   UNL d   1       0.665   1.509  -0.397  0.00  0.00     0.169 HD
ATOM      8  O   UNL d   1       1.336   3.626  -2.683  0.00  0.00    -0.273 OA
BRANCH   6   9
ATOM      9  C   UNL d   1       2.622   2.094  -0.581  0.00  0.00     0.073 A 
ATOM     10  C   UNL d   1       3.087   0.868  -0.085  0.00  0.00     0.145 A 
ATOM     11  C   UNL d   1       4.414   0.685   0.275  0.00  0.00     0.086 A 
ATOM     12  F   UNL d   1       2.249  -0.177  -0.007  0.00  0.00    -0.204 F 
ATOM     13  C   UNL d   1       5.282   1.762   0.180  0.00  0.00     0.119 A 
ATOM     14  C   UNL d   1       4.847   2.998  -0.294  0.00  0.00     0.044 A 
ATOM     15  F   UNL d   1       6.559   1.611   0.555  0.00  0.00    -0.206 F 
ATOM     16  C   UNL d   1       3.516   3.162  -0.696  0.00  0.00     0.036 A 
ENDBRANCH   6   9
ENDBRANCH   4   5
ENDBRANCH   3   4
BRANCH   3  17
ATOM     17  N   UNL d   1      -1.994   1.043  -1.046  0.00  0.00    -0.387 N 
ATOM     18  H   UNL d   1      -2.025   0.705  -2.002  0.00  0.00     0.157 HD
ATOM     19  H   UNL d   1      -2.668   0.626  -0.417  0.00  0.00     0.157 HD
ENDBRANCH   3  17
BRANCH   1  20
ATOM     20  O   UNL d   1      -2.088   2.152   1.442  0.00  0.00    -0.193 OA
BRANCH  20  21
ATOM     21  C   UNL d   1      -1.007   1.449   1.945  0.00  0.00     0.322 C 
ATOM     22  O   UNL d   1      -0.101   0.997   1.240  0.00  0.00    -0.257 OA
BRANCH  21  23
ATOM     23  C   UNL d   1      -1.063   1.336   3.390  0.00  0.00     0.082 A 
ATOM     24  S   UNL d   1      -0.011   0.196   4.136  0.00  0.00    -0.096 SA
ATOM     25  C   UNL d   1      -0.467   0.684   5.702  0.00  0.00     0.050 A 
ATOM     26  C   UNL d   1      -1.418   1.681   5.673  0.00  0.00     0.009 A 
ATOM     27  C   UNL d   1      -1.778   2.048   4.339  0.00  0.00     0.026 A 
ENDBRANCH  21  23
ENDBRANCH  20  21
ENDBRANCH   1  20
TORSDOF 7
