REMARK  6 active torsions:
REMARK  status: ('A' for Active; 'I' for Inactive)
REMARK    1  A    between atoms: C_2  and  C_1 
REMARK    2  A    between atoms: C_3  and  C_1 
REMARK    3  A    between atoms: C_5  and  C_2 
REMARK    4  A    between atoms: N_4  and  C_3 
REMARK    5  A    between atoms: C_6  and  C_3 
REMARK    6  A    between atoms: C_10  and  N_4 
ROOT
ATOM      1  C   UNL d   1       2.353  -0.151   0.342  0.00  0.00     0.122 C 
ENDROOT
BRANCH   1   2
ATOM      2  C   UNL d   1       0.873  -0.244  -0.069  0.00  0.00     0.109 C 
BRANCH   2   3
ATOM      3  C   UNL d   1       0.505  -1.597  -0.658  0.00  0.00     0.136 C 
ATOM      4  O   UNL d   1       1.363  -2.454  -0.877  0.00  0.00    -0.297 OA
BRANCH   3   5
ATOM      5  C   UNL d   1      -0.957  -1.825  -1.107  0.00  0.00     0.009 C 
ATOM      6  C   UNL d   1      -1.057  -1.389  -2.575  0.00  0.00     0.022 C 
ATOM      7  C   UNL d   1      -1.298  -3.320  -0.987  0.00  0.00     0.022 C 
ATOM      8  C   UNL d   1      -1.964  -1.037  -0.260  0.00  0.00     0.022 C 
ENDBRANCH   3   5
ENDBRANCH   2   3
ENDBRANCH   1   2
BRANCH   1   9
ATOM      9  N   UNL d   1       2.643   1.222   0.793  0.00  0.00    -0.381 N 
ATOM     10  H   UNL d   1       3.163   1.239   1.667  0.00  0.00     0.160 HD
BRANCH   9  11
ATOM     11  C   UNL d   1       3.084   2.220  -0.080  0.00  0.00     0.028 A 
ATOM     12  C   UNL d   1       2.857   2.218  -1.461  0.00  0.00     0.029 A 
ATOM     13  C   UNL d   1       3.229   3.305  -2.262  0.00  0.00     0.002 A 
ATOM     14  C   UNL d   1       3.831   4.424  -1.694  0.00  0.00     0.000 A 
ATOM     15  C   UNL d   1       4.052   4.457  -0.322  0.00  0.00     0.002 A 
ATOM     16  C   UNL d   1       3.666   3.373   0.473  0.00  0.00     0.029 A 
ENDBRANCH   9  11
ENDBRANCH   1   9
BRANCH   1  17
ATOM     17  C   UNL d   1       2.765  -1.091   1.483  0.00  0.00    -0.035 A 
ATOM     18  C   UNL d   1       4.117  -1.468   1.591  0.00  0.00     0.011 A 
ATOM     19  C   UNL d   1       4.545  -2.336   2.600  0.00  0.00     0.024 A 
ATOM     20  C   UNL d   1       3.626  -2.836   3.517  0.00  0.00     0.034 A 
ATOM     21  C   UNL d   1       2.289  -2.457   3.446  0.00  0.00     0.024 A 
ATOM     22 CL   UNL d   1       4.142  -3.923   4.745  0.00  0.00    -0.084 Cl
ATOM     23  C   UNL d   1       1.863  -1.580   2.445  0.00  0.00     0.011 A 
ENDBRANCH   1  17
TORSDOF 6
