REMARK  6 active torsions:
REMARK  status: ('A' for Active; 'I' for Inactive)
REMARK    1  A    between atoms: C_10  and  C_3 
REMARK    2  A    between atoms: C_11  and  C_6 
REMARK    3  A    between atoms: N_8  and  C_11 
REMARK    4  A    between atoms: C_9  and  C_12 
REMARK    5  A    between atoms: O_21  and  C_9 
REMARK    6  A    between atoms: C_25  and  O_21 
ROOT
ATOM      1  N   UNL d   1       0.062  -2.406  -2.283  0.00  0.00    -0.321 N 
ATOM      2  HN  UNL d   1       0.165  -1.453  -2.633  1.00  0.00     0.169 HD
ATOM      3  C   UNL d   1      -0.526  -3.491  -2.898  0.00  0.00     0.137 A 
ATOM      4  N   UNL d   1      -0.510  -4.612  -2.155  0.00  0.00    -0.242 N 
ATOM      5  HN  UNL d   1      -0.888  -5.529  -2.392  1.00  0.00     0.196 HD
ATOM      6  C   UNL d   1       0.456  -2.908  -1.133  0.00  0.00     0.177 A 
ATOM      7  O   UNL d   1       0.143  -4.225  -0.984  0.00  0.00    -0.221 OA
ENDROOT
BRANCH   6   8
ATOM      8  C   UNL d   1       1.124  -2.223   0.012  0.00  0.00     0.358 C 
BRANCH   8   9
ATOM      9  N   UNL d   1       2.611  -2.241  -0.019  0.00  0.00     0.096 N 
ATOM     10  C   UNL d   1       3.125  -1.585  -1.234  0.00  0.00     0.273 C 
ATOM     11  C   UNL d   1       4.655  -1.474  -1.233  0.00  0.00     0.045 C 
ATOM     12  C   UNL d   1       5.170  -0.744   0.011  0.00  0.00     0.089 C 
ATOM     13  C   UNL d   1       4.640  -1.492   1.241  0.00  0.00     0.045 C 
ATOM     14  C   UNL d   1       3.113  -1.603   1.211  0.00  0.00     0.273 C 
BRANCH  12  15
ATOM     15  C   UNL d   1       4.752   0.725   0.072  0.00  0.00     0.263 C 
ATOM     16  O   UNL d   1       4.602   1.349   1.115  0.00  0.00    -0.265 OA
BRANCH  15  17
ATOM     17  O   UNL d   1       4.545   1.240  -1.170  0.00  0.00    -0.322 OA
BRANCH  17  18
ATOM     18  C   UNL d   1       3.789   2.459  -1.237  0.00  0.00     0.174 C 
ATOM     19  C   UNL d   1       4.668   3.612  -1.673  0.00  0.00     0.034 C 
ENDBRANCH  17  18
ENDBRANCH  15  17
ENDBRANCH  12  15
ENDBRANCH   8   9
ENDBRANCH   6   8
BRANCH   3  20
ATOM     20  C   UNL d   1      -1.107  -3.393  -4.233  0.00  0.00     0.010 A 
ATOM     21  C   UNL d   1      -1.077  -2.167  -4.918  0.00  0.00     0.017 A 
ATOM     22  C   UNL d   1      -1.611  -2.054  -6.206  0.00  0.00     0.025 A 
ATOM     23  C   UNL d   1      -2.184  -3.166  -6.817  0.00  0.00     0.034 A 
ATOM     24  C   UNL d   1      -2.230  -4.389  -6.149  0.00  0.00     0.025 A 
ATOM     25 CL   UNL d   1      -2.832  -3.030  -8.404  0.00  0.00    -0.084 Cl
ATOM     26  C   UNL d   1      -1.696  -4.501  -4.861  0.00  0.00     0.017 A 
ENDBRANCH   3  20
TORSDOF 6
