REMARK  3 active torsions:
REMARK  status: ('A' for Active; 'I' for Inactive)
REMARK    1  A    between atoms: N_15  and  C_7 
REMARK    2  A    between atoms: N_13  and  N_15 
REMARK    3  A    between atoms: C_17  and  C_16 
ROOT
ATOM      1  C   UNL d   1      -0.202   0.976  -0.084  0.00  0.00     0.072 A 
ATOM      2  C   UNL d   1       0.121  -0.369  -0.070  0.00  0.00     0.138 A 
ATOM      3  N   UNL d   1       2.083   0.787  -0.202  0.00  0.00    -0.307 N 
ATOM      4  HN  UNL d   1       3.077   1.007  -0.260  1.00  0.00     0.186 HD
ATOM      5  N   UNL d   1       1.490  -0.426  -0.144  0.00  0.00    -0.281 N 
ATOM      6  C   UNL d   1       1.044   1.630  -0.165  0.00  0.00     0.126 A 
ATOM      7  C   UNL d   1      -1.560   1.322  -0.024  0.00  0.00     0.136 A 
ATOM      8  N   UNL d   1      -0.740  -1.399  -0.001  0.00  0.00    -0.337 N 
ATOM      9  HN  UNL d   1      -0.466  -2.381   0.008  1.00  0.00     0.168 HD
ATOM     10  N   UNL d   1      -2.465   0.309   0.047  0.00  0.00    -0.337 N 
ATOM     11  HN  UNL d   1      -3.464   0.506   0.093  1.00  0.00     0.168 HD
ATOM     12  C   UNL d   1      -2.011  -0.963   0.056  0.00  0.00     0.183 A 
ATOM     13  C   UNL d   1       2.313  -1.607  -0.172  0.00  0.00     0.179 C 
ENDROOT
BRANCH   7  14
ATOM     14  N   UNL d   1      -2.051   2.633  -0.034  0.00  0.00    -0.285 N 
ATOM     15  H   UNL d   1      -3.062   2.702   0.006  0.00  0.00     0.188 HD
BRANCH  14  16
ATOM     16  N   UNL d   1      -1.199   3.675  -0.101  0.00  0.00    -0.309 N 
ATOM     17  C   UNL d   1      -1.724   4.856  -0.121  0.00  0.00     0.118 C 
ATOM     18  HN  UNL d   1      -0.189   3.539  -0.135  1.00  0.00     0.186 HD
BRANCH  17  19
ATOM     19  C   UNL d   1      -0.860   6.055  -0.196  0.00  0.00    -0.019 A 
ATOM     20  C   UNL d   1       0.534   5.920  -0.234  0.00  0.00     0.014 A 
ATOM     21  C   UNL d   1       1.350   7.049  -0.310  0.00  0.00     0.024 A 
ATOM     22  C   UNL d   1       0.769   8.314  -0.347  0.00  0.00     0.034 A 
ATOM     23  C   UNL d   1      -0.620   8.456  -0.308  0.00  0.00     0.024 A 
ATOM     24 CL   UNL d   1       1.772   9.707  -0.443  0.00  0.00    -0.084 Cl
ATOM     25  C   UNL d   1      -1.440   7.324  -0.232  0.00  0.00     0.014 A 
ENDBRANCH  17  19
ENDBRANCH  14  16
ENDBRANCH   7  14
TORSDOF 3
