REMARK  2 active torsions:
REMARK  status: ('A' for Active; 'I' for Inactive)
REMARK       I    between atoms: N_2  and  C_1 
REMARK    1  A    between atoms: C_4  and  C_1 
REMARK    2  A    between atoms: C_3  and  N_2 
ROOT
ATOM      1  C   UNL d   1       1.021  -2.466  -0.747  0.00  0.00     0.073 A 
ATOM      2  C   UNL d   1       2.232  -2.812  -0.139  0.00  0.00     0.143 A 
ATOM      3  F   UNL d   1       2.718  -2.047   0.849  0.00  0.00    -0.204 F 
ATOM      4  C   UNL d   1       0.538  -3.260  -1.786  0.00  0.00     0.033 A 
ATOM      5  C   UNL d   1       2.918  -3.967  -0.501  0.00  0.00     0.044 A 
ATOM      6  C   UNL d   1       1.236  -4.411  -2.173  0.00  0.00     0.002 A 
ATOM      7  C   UNL d   1       2.416  -4.772  -1.521  0.00  0.00     0.003 A 
ENDROOT
BRANCH   1   8
ATOM      8  N   UNL d   1       0.362  -1.307  -0.289  0.00  0.00    -0.322 N 
ATOM      9  C   UNL d   1      -1.002  -1.060  -0.374  0.00  0.00     0.255 C 
ATOM     10  O   UNL d   1      -1.823  -1.853  -0.846  0.00  0.00    -0.270 OA
ATOM     11  H   UNL d   1       0.891  -0.722   0.355  0.00  0.00     0.169 HD
BRANCH   9  12
ATOM     12  C   UNL d   1      -1.456   0.310   0.121  0.00  0.00     0.270 C 
ATOM     13 CL   UNL d   1      -0.529   0.812   1.555  0.00  0.00    -0.098 Cl
ATOM     14 CL   UNL d   1      -1.258   1.482  -1.194  0.00  0.00    -0.098 Cl
ENDBRANCH   9  12
ENDBRANCH   1   8
TORSDOF 2
