REMARK  3 active torsions:
REMARK  status: ('A' for Active; 'I' for Inactive)
REMARK    1  A    between atoms: C_3  and  C_1 
REMARK    2  A    between atoms: C_4  and  C_1 
REMARK       I    between atoms: C_7  and  N_2 
REMARK    3  A    between atoms: O_18  and  C_7 
ROOT
ATOM      1  C   UNL d   1       0.588   1.274   0.206  0.00  0.00     0.240 C 
ATOM      2  N   UNL d   1       1.715   0.321  -0.156  0.00  0.00    -0.293 N 
ATOM      3  C   UNL d   1      -0.484   0.203   0.650  0.00  0.00     0.057 C 
ATOM      4  C   UNL d   1       1.289  -1.051   0.111  0.00  0.00     0.114 C 
ATOM      5  C   UNL d   1       3.008   0.636  -0.450  0.00  0.00     0.364 C 
ATOM      6  C   UNL d   1      -0.890  -0.643  -0.543  0.00  0.00    -0.021 C 
ATOM      7  C   UNL d   1       0.200  -1.351  -0.892  0.00  0.00    -0.005 C 
ATOM      8  C   UNL d   1       0.400  -0.859   1.339  0.00  0.00     0.041 C 
ATOM      9  O   UNL d   1       3.893  -0.194  -0.609  0.00  0.00    -0.238 OA
ENDROOT
BRANCH   1  10
ATOM     10  C   UNL d   1       0.872   2.229   1.367  0.00  0.00     0.422 C 
ATOM     11  F   UNL d   1       1.540   1.612   2.373  0.00  0.00    -0.168 F 
ATOM     12  F   UNL d   1       1.602   3.313   1.039  0.00  0.00    -0.168 F 
ATOM     13  F   UNL d   1      -0.283   2.689   1.910  0.00  0.00    -0.168 F 
ENDBRANCH   1  10
BRANCH   1  14
ATOM     14  C   UNL d   1       0.070   2.166  -0.919  0.00  0.00     0.422 C 
ATOM     15  F   UNL d   1      -0.141   1.484  -2.070  0.00  0.00    -0.168 F 
ATOM     16  F   UNL d   1      -1.120   2.723  -0.581  0.00  0.00    -0.168 F 
ATOM     17  F   UNL d   1       0.902   3.179  -1.236  0.00  0.00    -0.168 F 
ENDBRANCH   1  14
BRANCH   5  18
ATOM     18  O   UNL d   1       3.194   1.974  -0.482  0.00  0.00    -0.309 OA
ATOM     19  C   UNL d   1       4.560   2.375  -0.616  0.00  0.00     0.215 C 
ENDBRANCH   5  18
TORSDOF 3
