REMARK  1 active torsions:
REMARK  status: ('A' for Active; 'I' for Inactive)
REMARK    1  A    between atoms: C_8  and  N_3 
ROOT
ATOM      1  N   UNL d   1      -0.244  -1.267   0.029  0.00  0.00    -0.263 N 
ATOM      2  C   UNL d   1       1.032  -0.729  -0.081  0.00  0.00     0.342 A 
ATOM      3  N   UNL d   1       0.998   0.666   0.098  0.00  0.00    -0.228 N 
ATOM      4  C   UNL d   1      -1.264  -0.384   0.227  0.00  0.00     0.310 A 
ATOM      5  S   UNL d   1      -0.592   1.223   0.404  0.00  0.00     0.060 SA
ATOM      6  O   UNL d   1       2.024  -1.421  -0.281  0.00  0.00    -0.245 OA
ATOM      7  O   UNL d   1      -2.461  -0.625   0.276  0.00  0.00    -0.258 OA
ATOM      8  C   UNL d   1      -0.501  -2.683  -0.084  0.00  0.00     0.165 C 
ENDROOT
BRANCH   3   9
ATOM      9  C   UNL d   1       2.111   1.548   0.007  0.00  0.00     0.051 A 
ATOM     10  C   UNL d   1       3.283   1.175  -0.668  0.00  0.00     0.031 A 
ATOM     11  C   UNL d   1       4.373   2.047  -0.770  0.00  0.00     0.002 A 
ATOM     12  C   UNL d   1       4.320   3.306  -0.184  0.00  0.00     0.000 A 
ATOM     13  C   UNL d   1       3.172   3.697   0.497  0.00  0.00     0.002 A 
ATOM     14  C   UNL d   1       2.076   2.832   0.582  0.00  0.00     0.031 A 
ENDBRANCH   3   9
TORSDOF 1
