REMARK  7 active torsions:
REMARK  status: ('A' for Active; 'I' for Inactive)
REMARK       I    between atoms: N_3  and  C_1 
REMARK       I    between atoms: N_4  and  C_1 
REMARK    1  A    between atoms: C_15  and  N_3 
REMARK    2  A    between atoms: C_14  and  N_4 
REMARK    3  A    between atoms: C_5  and  S_7 
REMARK    4  A    between atoms: S_7  and  C_16 
REMARK    5  A    between atoms: O_13  and  C_17 
REMARK    6  A    between atoms: C_16  and  C_14 
REMARK    7  A    between atoms: C_17  and  C_15 
ROOT
ATOM      1  C   UNL d   1       2.501  -1.443   0.299  0.00  0.00     0.316 C 
ATOM      2  O   UNL d   1       3.229  -2.241  -0.270  0.00  0.00    -0.247 OA
ATOM      3  N   UNL d   1       1.616  -1.784   1.287  0.00  0.00    -0.341 N 
ATOM      4  N   UNL d   1       2.462  -0.099   0.024  0.00  0.00    -0.342 N 
ATOM      5  H   UNL d   1       1.359  -1.056   1.939  0.00  0.00     0.164 HD
ATOM      6  H   UNL d   1       1.603   0.364   0.284  0.00  0.00     0.164 HD
ENDROOT
BRANCH   4   7
ATOM      7  C   UNL d   1       3.179   0.446  -1.121  0.00  0.00     0.135 C 
BRANCH   7   8
ATOM      8  C   UNL d   1       4.699   0.384  -0.961  0.00  0.00     0.099 C 
BRANCH   8   9
ATOM      9  S   UNL d   1       5.530   1.150  -2.399  0.00  0.00    -0.128 SA
BRANCH   9  10
ATOM     10  C   UNL d   1       7.230   0.885  -1.925  0.00  0.00     0.000 A 
ATOM     11  C   UNL d   1       7.746  -0.407  -1.760  0.00  0.00     0.021 A 
ATOM     12  C   UNL d   1       9.076  -0.589  -1.376  0.00  0.00     0.043 A 
ATOM     13  C   UNL d   1       9.887   0.519  -1.168  0.00  0.00     0.116 A 
ATOM     14  C   UNL d   1       9.396   1.808  -1.346  0.00  0.00     0.043 A 
ATOM     15  F   UNL d   1      11.161   0.345  -0.794  0.00  0.00    -0.206 F 
ATOM     16  C   UNL d   1       8.066   1.991  -1.730  0.00  0.00     0.021 A 
ENDBRANCH   9  10
ENDBRANCH   8   9
ENDBRANCH   7   8
ENDBRANCH   4   7
BRANCH   3  17
ATOM     17  C   UNL d   1       1.594  -3.135   1.823  0.00  0.00     0.150 C 
BRANCH  17  18
ATOM     18  C   UNL d   1       2.659  -3.340   2.901  0.00  0.00     0.183 C 
BRANCH  18  19
ATOM     19  O   UNL d   1       2.358  -2.519   4.031  0.00  0.00    -0.399 OA
ATOM     20  H   UNL d   1       3.059  -2.683   4.687  0.00  0.00     0.209 HD
ENDBRANCH  18  19
ENDBRANCH  17  18
ENDBRANCH   3  17
TORSDOF 7
