REMARK  2 active torsions:
REMARK  status: ('A' for Active; 'I' for Inactive)
REMARK    1  A    between atoms: N_8  and  N_5 
REMARK    2  A    between atoms: C_13  and  N_8 
ROOT
ATOM      1  C   UNL d   1       1.411   0.965   0.017  0.00  0.00     0.129 A 
ATOM      2  C   UNL d   1      -0.011   0.389  -0.004  0.00  0.00     0.275 A 
ATOM      3  C   UNL d   1       2.307  -0.182  -0.058  0.00  0.00     0.027 A 
ATOM      4  N   UNL d   1       0.148  -0.978  -0.108  0.00  0.00    -0.321 N 
ATOM      5  N   UNL d   1       1.783   2.202   0.090  0.00  0.00    -0.294 N 
ATOM      6  HN  UNL d   1       2.768   2.469   0.085  1.00  0.00     0.187 HD
ATOM      7  C   UNL d   1       1.498  -1.317  -0.132  0.00  0.00     0.048 A 
ATOM      8  C   UNL d   1       3.683  -0.248  -0.038  0.00  0.00     0.058 A 
ATOM      9  O   UNL d   1      -1.036   1.032   0.071  0.00  0.00    -0.266 OA
ATOM     10  C   UNL d   1       2.042  -2.583  -0.198  0.00  0.00     0.033 A 
ATOM     11  C   UNL d   1       4.239  -1.523  -0.096  0.00  0.00     0.117 A 
ATOM     12  C   UNL d   1       3.438  -2.678  -0.178  0.00  0.00     0.044 A 
ATOM     13  F   UNL d   1       5.570  -1.659  -0.065  0.00  0.00    -0.206 F 
ATOM     14  H   UNL d   1      -0.629  -1.622  -0.133  0.00  0.00     0.169 HD
ENDROOT
BRANCH   5  15
ATOM     15  N   UNL d   1       0.792   3.121   0.174  0.00  0.00    -0.300 N 
ATOM     16  H   UNL d   1      -0.194   2.854   0.242  0.00  0.00     0.187 HD
BRANCH  15  17
ATOM     17  C   UNL d   1       1.098   4.487   0.273  0.00  0.00     0.048 A 
ATOM     18  C   UNL d   1       2.406   4.972   0.153  0.00  0.00     0.031 A 
ATOM     19  C   UNL d   1       2.680   6.339   0.245  0.00  0.00     0.002 A 
ATOM     20  C   UNL d   1       1.645   7.243   0.470  0.00  0.00     0.000 A 
ATOM     21  C   UNL d   1       0.339   6.779   0.605  0.00  0.00     0.002 A 
ATOM     22  C   UNL d   1       0.069   5.410   0.505  0.00  0.00     0.031 A 
ENDBRANCH  15  17
ENDBRANCH   5  15
TORSDOF 2
