REMARK  4 active torsions:
REMARK  status: ('A' for Active; 'I' for Inactive)
REMARK    1  A    between atoms: C_6  and  N_1 
REMARK    2  A    between atoms: C_7  and  C_4 
REMARK    3  A    between atoms: C_11  and  C_7 
REMARK    4  A    between atoms: S_13  and  C_12 
ROOT
ATOM      1  N   UNL d   1      -1.438   0.511  -0.306  0.00  0.00    -0.238 N 
ATOM      2  C   UNL d   1      -1.002  -0.794  -0.191  0.00  0.00     0.298 A 
ATOM      3  C   UNL d   1      -0.447   1.480  -0.231  0.00  0.00     0.273 A 
ATOM      4  C   UNL d   1       0.903   0.857  -0.090  0.00  0.00     0.079 A 
ATOM      5  S   UNL d   1       0.757  -0.853  -0.095  0.00  0.00    -0.023 SA
ATOM      6  O   UNL d   1      -1.650  -1.828  -0.176  0.00  0.00    -0.259 OA
ATOM      7  O   UNL d   1      -0.617   2.692  -0.210  0.00  0.00    -0.266 OA
ENDROOT
BRANCH   1   8
ATOM      8  C   UNL d   1      -2.826   0.872  -0.406  0.00  0.00     0.047 A 
ATOM      9  C   UNL d   1      -3.844   0.059   0.126  0.00  0.00     0.048 A 
ATOM     10  C   UNL d   1      -5.191   0.457   0.107  0.00  0.00     0.002 A 
ATOM     11  C   UNL d   1      -5.526   1.681  -0.481  0.00  0.00     0.018 A 
ATOM     12  C   UNL d   1      -4.544   2.486  -1.046  0.00  0.00     0.004 A 
ATOM     13  C   UNL d   1      -3.211   2.082  -1.009  0.00  0.00     0.030 A 
BRANCH  10  14
ATOM     14  S   UNL d   1      -6.549  -0.472   0.816  0.00  0.00    -0.134 SA
ATOM     15  C   UNL d   1      -5.747  -1.944   1.503  0.00  0.00     0.095 C 
ENDBRANCH  10  14
ENDBRANCH   1   8
BRANCH   4  16
ATOM     16  C   UNL d   1       2.072   1.498   0.069  0.00  0.00     0.036 C 
BRANCH  16  17
ATOM     17  C   UNL d   1       2.178   2.957   0.163  0.00  0.00    -0.035 A 
ATOM     18  C   UNL d   1       2.057   3.577   1.411  0.00  0.00     0.012 A 
ATOM     19  C   UNL d   1       1.969   4.968   1.499  0.00  0.00     0.007 A 
ATOM     20  C   UNL d   1       2.009   5.755   0.342  0.00  0.00    -0.062 A 
ATOM     21  C   UNL d   1       2.173   5.133  -0.902  0.00  0.00     0.007 A 
ATOM     22  C   UNL d   1       1.812   7.238   0.443  0.00  0.00     0.048 C 
ATOM     23  C   UNL d   1       2.263   3.741  -0.992  0.00  0.00     0.012 A 
ENDBRANCH  16  17
ENDBRANCH   4  16
TORSDOF 4
