REMARK  4 active torsions:
REMARK  status: ('A' for Active; 'I' for Inactive)
REMARK    1  A    between atoms: N_7  and  C_1 
REMARK    2  A    between atoms: C_12  and  N_2 
REMARK    3  A    between atoms: C_9  and  C_6 
REMARK       I    between atoms: C_8  and  N_7 
REMARK       I    between atoms: N_13  and  C_8 
REMARK    4  A    between atoms: C_15  and  N_13 
ROOT
ATOM      1  C   UNL d   1      -0.165  -0.896   0.330  0.00  0.00     0.128 C 
ATOM      2  N   UNL d   1       1.156  -0.614   0.030  0.00  0.00    -0.267 N 
ATOM      3  N   UNL d   1       1.385   0.712  -0.060  0.00  0.00    -0.300 N 
ATOM      4  HN  UNL d   1       2.225   1.180  -0.403  1.00  0.00     0.187 HD
ATOM      5  C   UNL d   1      -0.723   0.315   0.697  0.00  0.00     0.077 C 
ATOM      6  C   UNL d   1       0.269   1.273   0.401  0.00  0.00     0.034 C 
ENDROOT
BRANCH   1   7
ATOM      7  N   UNL d   1      -0.712  -2.163   0.239  0.00  0.00    -0.293 N 
ATOM      8  C   UNL d   1      -1.640  -2.666   1.148  0.00  0.00     0.326 C 
ATOM      9  N   UNL d   1      -1.928  -3.980   0.795  0.00  0.00    -0.309 N 
ATOM     10  O   UNL d   1      -2.061  -2.074   2.131  0.00  0.00    -0.247 OA
ATOM     11  H   UNL d   1      -1.846  -4.186  -0.189  0.00  0.00     0.170 HD
ATOM     12  H   UNL d   1      -0.172  -2.873  -0.229  0.00  0.00     0.172 HD
BRANCH   9  13
ATOM     13  C   UNL d   1      -2.436  -5.013   1.606  0.00  0.00     0.036 A 
ATOM     14  C   UNL d   1      -2.602  -4.906   2.987  0.00  0.00     0.029 A 
ATOM     15  C   UNL d   1      -3.041  -6.008   3.731  0.00  0.00     0.002 A 
ATOM     16  C   UNL d   1      -3.312  -7.221   3.102  0.00  0.00     0.000 A 
ATOM     17  C   UNL d   1      -3.149  -7.337   1.724  0.00  0.00     0.002 A 
ATOM     18  C   UNL d   1      -2.712  -6.237   0.982  0.00  0.00     0.029 A 
ENDBRANCH   9  13
ENDBRANCH   1   7
BRANCH   2  19
ATOM     19  C   UNL d   1       2.307  -1.535  -0.080  0.00  0.00     0.044 C 
ATOM     20  C   UNL d   1       2.332  -2.166  -1.482  0.00  0.00     0.039 C 
ATOM     21  C   UNL d   1       3.644  -0.781   0.137  0.00  0.00     0.039 C 
ATOM     22  C   UNL d   1       2.263  -2.637   1.003  0.00  0.00     0.039 C 
ENDBRANCH   2  19
BRANCH   6  23
ATOM     23  C   UNL d   1       0.194   2.783   0.528  0.00  0.00     0.037 A 
ATOM     24  C   UNL d   1      -0.585   3.405   1.665  0.00  0.00     0.011 A 
ATOM     25  C   UNL d   1      -1.106   3.515   0.274  0.00  0.00     0.011 A 
ENDBRANCH   6  23
TORSDOF 4
