REMARK  2 active torsions:
REMARK  status: ('A' for Active; 'I' for Inactive)
REMARK    1  A    between atoms: S_8  and  C_1 
REMARK    2  A    between atoms: C_13  and  S_8 
ROOT
ATOM      1  C   UNL d   1       1.412   4.459  -0.896  0.00  0.00     0.088 A 
ATOM      2  C   UNL d   1       0.032   4.671  -1.031  0.00  0.00     0.032 A 
ATOM      3  C   UNL d   1      -0.325   5.809  -1.740  0.00  0.00     0.087 A 
ATOM      4  N   UNL d   1       2.287   5.333  -1.438  0.00  0.00    -0.346 N 
ATOM      5  HN  UNL d   1       3.293   5.191  -1.349  1.00  0.00     0.167 HD
ATOM      6  N   UNL d   1       0.512   6.702  -2.293  0.00  0.00    -0.346 N 
ATOM      7  HN  UNL d   1       0.202   7.526  -2.807  1.00  0.00     0.167 HD
ATOM      8  S   UNL d   1      -2.014   6.008  -1.868  0.00  0.00    -0.083 SA
ATOM      9  C   UNL d   1       1.796   6.390  -2.097  0.00  0.00     0.182 A 
ATOM     10  C   UNL d   1      -2.312   4.579  -0.979  0.00  0.00     0.053 A 
ATOM     11  C   UNL d   1      -1.142   3.963  -0.593  0.00  0.00     0.024 A 
ENDROOT
BRANCH   1  12
ATOM     12  S   UNL d   1       1.982   3.033  -0.010  0.00  0.00    -0.072 SA
BRANCH  12  13
ATOM     13  C   UNL d   1       3.752   3.209  -0.057  0.00  0.00     0.007 A 
ATOM     14  C   UNL d   1       4.424   3.856   0.984  0.00  0.00     0.019 A 
ATOM     15  C   UNL d   1       5.818   3.957   0.970  0.00  0.00     0.008 A 
ATOM     16  C   UNL d   1       6.559   3.406  -0.083  0.00  0.00    -0.062 A 
ATOM     17  C   UNL d   1       5.884   2.753  -1.121  0.00  0.00     0.008 A 
ATOM     18  C   UNL d   1       8.055   3.518  -0.084  0.00  0.00     0.048 C 
ATOM     19  C   UNL d   1       4.490   2.653  -1.106  0.00  0.00     0.019 A 
ENDBRANCH  12  13
ENDBRANCH   1  12
TORSDOF 2
