REMARK  4 active torsions:
REMARK  status: ('A' for Active; 'I' for Inactive)
REMARK    1  A    between atoms: N_12  and  C1_1 
REMARK    2  A    between atoms: CA_14  and  N_12 
REMARK    3  A    between atoms: C_13  and  CA_14 
REMARK    4  A    between atoms: OXT_16  and  C_13 
ROOT
ATOM      1  C1  <1> d   1       1.212  -1.017  -0.103  0.00  0.00     0.186 C 
ATOM      2  N1  <1> d   1      -1.236  -1.021   0.058  0.00  0.00    -0.271 N 
ATOM      3  C2  <1> d   1      -0.104  -1.771   0.142  0.00  0.00     0.294 C 
ATOM      4  N2  <1> d   1       1.193   0.226  -0.488  0.00  0.00    -0.277 N 
ATOM      5  H2  <1> d   1       2.058   0.745  -0.641  1.00  0.00     0.189 HD
ATOM      6  C3  <1> d   1      -1.246   0.249  -0.422  0.00  0.00     0.341 C 
ATOM      7  N3  <1> d   1      -0.025   0.811  -0.682  0.00  0.00    -0.250 N 
ATOM      8  O1  <1> d   1      -0.069  -2.965   0.401  0.00  0.00    -0.264 OA
ATOM      9  O2  <1> d   1      -2.297   0.848  -0.625  0.00  0.00    -0.245 OA
ATOM     10  H1  <1> d   1      -2.125  -1.466   0.216  0.00  0.00     0.174 HD
ATOM     11  H2  <1> d   1      -0.021   1.760  -1.044  0.00  0.00     0.192 HD
ENDROOT
BRANCH   1  12
ATOM     12  N   ALA d   1       2.380  -1.724   0.120  0.00  0.00    -0.357 N 
ATOM     13  H   ALA d   1       2.280  -2.727  -0.069  0.00  0.00     0.162 HD
BRANCH  12  14
ATOM     14  CA  ALA d   1       3.713  -1.162  -0.149  0.00  0.00     0.177 C 
ATOM     15  CB  ALA d   1       4.025  -1.169  -1.638  0.00  0.00     0.043 C 
BRANCH  14  16
ATOM     16  C   ALA d   1       4.759  -1.977   0.631  0.00  0.00     0.163 C 
ATOM     17  O   ALA d   1       5.944  -2.066   0.349  0.00  0.00    -0.648 OA
BRANCH  16  18
ATOM     18  OXT ALA d   1       4.220  -2.592   1.718  0.00  0.00    -0.775 OA
ATOM     19  HXT ALA d   1       3.265  -2.368   1.783  0.00  0.00     0.167 HD
ENDBRANCH  16  18
ENDBRANCH  14  16
ENDBRANCH  12  14
ENDBRANCH   1  12
TORSDOF 4
