REMARK  3 active torsions:
REMARK  status: ('A' for Active; 'I' for Inactive)
REMARK    1  A    between atoms: C_2  and  C_1 
REMARK       I    between atoms: N_3  and  C_2 
REMARK    2  A    between atoms: C_8  and  C_4 
REMARK    3  A    between atoms: S_15  and  C_7 
ROOT
ATOM      1  C   UNL d   1      -0.209  -1.324  -0.029  0.00  0.00     0.093 A 
ATOM      2  C   UNL d   1      -1.468  -0.676   0.203  0.00  0.00     0.085 A 
ATOM      3  N   UNL d   1      -1.297   0.656   0.255  0.00  0.00    -0.259 N 
ATOM      4  HN  UNL d   1      -2.026   1.356   0.391  1.00  0.00     0.195 HD
ATOM      5  O   UNL d   1       0.042   0.897   0.090  0.00  0.00    -0.241 OA
ATOM      6  C   UNL d   1       0.697  -0.278  -0.051  0.00  0.00     0.090 A 
ATOM      7  C   UNL d   1       2.168  -0.188  -0.156  0.00  0.00     0.080 C 
ENDROOT
BRANCH   1   8
ATOM      8  C   UNL d   1       0.201  -2.721  -0.086  0.00  0.00     0.264 C 
ATOM      9  N   UNL d   1      -0.494  -3.607  -0.916  0.00  0.00    -0.292 N 
ATOM     10  C   UNL d   1      -0.343  -4.991  -1.028  0.00  0.00     0.144 A 
ATOM     11  C   UNL d   1      -1.438  -3.229  -1.935  0.00  0.00     0.154 A 
ATOM     12  N   UNL d   1      -1.034  -5.584  -1.948  0.00  0.00    -0.369 N 
ATOM     13  C   UNL d   1      -1.784  -4.526  -2.640  0.00  0.00     0.142 A 
ATOM     14  HN  UNL d   1      -1.054  -6.584  -2.151  1.00  0.00     0.161 HD
ATOM     15  O   UNL d   1       1.199  -3.045   0.553  0.00  0.00    -0.267 OA
BRANCH  10  16
ATOM     16  S   UNL d   1       0.699  -5.887   0.029  0.00  0.00    -0.098 SA
ATOM     17  C   UNL d   1       0.704  -7.504  -0.770  0.00  0.00     0.099 C 
ENDBRANCH  10  16
ENDBRANCH   1   8
BRANCH   2  18
ATOM     18  C   UNL d   1      -2.790  -1.247   0.457  0.00  0.00     0.015 A 
ATOM     19  C   UNL d   1      -3.960  -0.758  -0.162  0.00  0.00     0.046 A 
ATOM     20 CL   UNL d   1      -3.955   0.510  -1.343  0.00  0.00    -0.083 Cl
ATOM     21  C   UNL d   1      -5.204  -1.344   0.109  0.00  0.00     0.025 A 
ATOM     22  C   UNL d   1      -5.294  -2.431   0.975  0.00  0.00     0.002 A 
ATOM     23  C   UNL d   1      -4.146  -2.932   1.582  0.00  0.00     0.001 A 
ATOM     24  C   UNL d   1      -2.905  -2.339   1.334  0.00  0.00     0.015 A 
ENDBRANCH   2  18
TORSDOF 3
