REMARK  8 active torsions:
REMARK  status: ('A' for Active; 'I' for Inactive)
REMARK    1  A    between atoms: N_2  and  C_1 
REMARK    2  A    between atoms: C_3  and  C_1 
REMARK    3  A    between atoms: C_4  and  C_1 
REMARK    4  A    between atoms: N_6  and  C_1 
REMARK       I    between atoms: C_5  and  N_2 
REMARK    5  A    between atoms: C_7  and  C_5 
REMARK    6  A    between atoms: C_8  and  N_6 
REMARK    7  A    between atoms: O_21  and  C_12 
REMARK    8  A    between atoms: C_27  and  O_21 
ROOT
ATOM      1  C   UNL d   1       1.104   0.073   0.432  0.00  0.00     0.307 C 
ENDROOT
BRANCH   1   2
ATOM      2  N   UNL d   1       0.328   0.682  -0.662  0.00  0.00    -0.315 N 
ATOM      3  C   UNL d   1      -0.962   1.124  -0.512  0.00  0.00     0.256 C 
ATOM      4  O   UNL d   1      -1.517   1.014   0.573  0.00  0.00    -0.267 OA
ATOM      5  H   UNL d   1       0.815   0.698  -1.548  0.00  0.00     0.165 HD
BRANCH   3   6
ATOM      6  C   UNL d   1      -1.615   1.755  -1.703  0.00  0.00     0.065 A 
ATOM      7  C   UNL d   1      -3.021   1.813  -1.814  0.00  0.00     0.084 A 
ATOM      8  C   UNL d   1      -3.596   2.463  -2.914  0.00  0.00     0.038 A 
ATOM      9  C   UNL d   1      -2.796   3.063  -3.889  0.00  0.00     0.003 A 
ATOM     10  C   UNL d   1      -1.411   3.010  -3.782  0.00  0.00     0.001 A 
ATOM     11  C   UNL d   1      -0.822   2.363  -2.694  0.00  0.00     0.020 A 
BRANCH   7  12
ATOM     12  O   UNL d   1      -3.760   1.157  -0.868  0.00  0.00    -0.350 OA
BRANCH  12  13
ATOM     13  C   UNL d   1      -5.114   1.544  -0.642  0.00  0.00     0.171 C 
ATOM     14  C   UNL d   1      -6.044   0.525  -1.276  0.00  0.00     0.034 C 
ENDBRANCH  12  13
ENDBRANCH   7  12
ENDBRANCH   3   6
ENDBRANCH   1   2
BRANCH   1  15
ATOM     15  C   UNL d   1       0.608  -1.337   0.891  0.00  0.00     0.441 C 
ATOM     16  F   UNL d   1      -0.675  -1.405   1.292  0.00  0.00    -0.166 F 
ATOM     17  F   UNL d   1       0.721  -2.221  -0.142  0.00  0.00    -0.166 F 
ATOM     18  F   UNL d   1       1.375  -1.837   1.890  0.00  0.00    -0.166 F 
ENDBRANCH   1  15
BRANCH   1  19
ATOM     19  C   UNL d   1       1.137   0.868   1.772  0.00  0.00     0.441 C 
ATOM     20  F   UNL d   1       1.108   2.212   1.555  0.00  0.00    -0.166 F 
ATOM     21  F   UNL d   1       0.127   0.583   2.619  0.00  0.00    -0.166 F 
ATOM     22  F   UNL d   1       2.284   0.627   2.462  0.00  0.00    -0.166 F 
ENDBRANCH   1  19
BRANCH   1  23
ATOM     23  N   UNL d   1       2.392  -0.100  -0.307  0.00  0.00    -0.335 N 
ATOM     24  H   UNL d   1       2.659  -1.083  -0.410  0.00  0.00     0.164 HD
BRANCH  23  25
ATOM     25  C   UNL d   1       3.564   0.592  -0.227  0.00  0.00     0.103 A 
ATOM     26  N   UNL d   1       4.624  -0.193  -0.485  0.00  0.00    -0.347 N 
ATOM     27  C   UNL d   1       5.861   0.360  -0.563  0.00  0.00     0.007 A 
ATOM     28  HN  UNL d   1       4.499  -1.196  -0.622  1.00  0.00     0.167 HD
ATOM     29  C   UNL d   1       6.994  -0.550  -0.905  0.00  0.00     0.068 C 
ATOM     30  C   UNL d   1       6.068   1.724  -0.387  0.00  0.00     0.025 A 
ATOM     31  C   UNL d   1       4.970   2.521  -0.107  0.00  0.00     0.006 A 
ATOM     32  C   UNL d   1       3.695   1.954  -0.030  0.00  0.00     0.048 A 
ENDBRANCH  23  25
ENDBRANCH   1  23
TORSDOF 8
