REMARK  3 active torsions:
REMARK  status: ('A' for Active; 'I' for Inactive)
REMARK    1  A    between atoms: C_2  and  C_1 
REMARK       I    between atoms: N_4  and  C_2 
REMARK    2  A    between atoms: C_8  and  N_4 
REMARK    3  A    between atoms: O_17  and  C_13 
ROOT
ATOM      1  C   UNL d   1      -2.375  -0.287   0.021  0.00  0.00     0.102 A 
ATOM      2  N   UNL d   1      -1.609   0.865  -0.007  0.00  0.00    -0.351 N 
ATOM      3  C   UNL d   1      -1.474  -1.331   0.154  0.00  0.00     0.049 A 
ATOM      4  C   UNL d   1      -0.154  -0.810   0.082  0.00  0.00    -0.004 A 
ATOM      5  C   UNL d   1      -0.264   0.571  -0.011  0.00  0.00     0.043 A 
ATOM      6  C   UNL d   1       1.129  -1.390   0.098  0.00  0.00     0.050 A 
ATOM      7  C   UNL d   1       0.855   1.410  -0.077  0.00  0.00     0.033 A 
ATOM      8  C   UNL d   1       2.266  -0.577   0.015  0.00  0.00     0.069 A 
ATOM      9  C   UNL d   1       2.124   0.808  -0.064  0.00  0.00     0.039 A 
ATOM     10  H   UNL d   1      -2.006   1.796  -0.040  0.00  0.00     0.166 HD
ENDROOT
BRANCH   1  11
ATOM     11  C   UNL d   1      -3.830  -0.217  -0.002  0.00  0.00     0.274 C 
ATOM     12  N   UNL d   1      -4.568  -1.277  -0.559  0.00  0.00    -0.315 N 
ATOM     13  C   UNL d   1      -3.994  -2.473  -1.172  0.00  0.00     0.160 C 
ATOM     14  O   UNL d   1      -4.376   0.777   0.483  0.00  0.00    -0.265 OA
BRANCH  12  15
ATOM     15  C   UNL d   1      -6.000  -1.226  -0.571  0.00  0.00     0.058 A 
ATOM     16  C   UNL d   1      -6.731  -0.197  -1.194  0.00  0.00     0.060 A 
ATOM     17 CL   UNL d   1      -5.979   1.057  -2.124  0.00  0.00    -0.082 Cl
ATOM     18  C   UNL d   1      -8.131  -0.241  -1.211  0.00  0.00     0.026 A 
ATOM     19  C   UNL d   1      -8.814  -1.308  -0.625  0.00  0.00     0.002 A 
ATOM     20  C   UNL d   1      -8.100  -2.339  -0.022  0.00  0.00     0.002 A 
ATOM     21  C   UNL d   1      -6.704  -2.301  -0.000  0.00  0.00     0.031 A 
ENDBRANCH  12  15
ENDBRANCH   1  11
BRANCH   8  22
ATOM     22  O   UNL d   1       3.448  -1.269   0.021  0.00  0.00    -0.356 OA
ATOM     23  C   UNL d   1       4.646  -0.511  -0.069  0.00  0.00     0.210 C 
ENDBRANCH   8  22
TORSDOF 3
