REMARK  11 active torsions:
REMARK  status: ('A' for Active; 'I' for Inactive)
REMARK    1  A    between atoms: C_7  and  C_1 
REMARK    2  A    between atoms: O_12  and  C_1 
REMARK    3  A    between atoms: C_8  and  C_2 
REMARK    4  A    between atoms: O_13  and  C_2 
REMARK    5  A    between atoms: C_9  and  C_4 
REMARK    6  A    between atoms: C_10  and  C_5 
REMARK    7  A    between atoms: C_11  and  C_6 
REMARK    8  A    between atoms: O_24  and  C_9 
REMARK    9  A    between atoms: O_25  and  C_10 
REMARK   10  A    between atoms: C_31  and  O_24 
REMARK   11  A    between atoms: C_30  and  O_25 
ROOT
ATOM      1  C   UNL d   1       0.759   1.322  -0.364  0.00  0.00     0.371 C 
ATOM      2  C   UNL d   1       0.810  -1.168  -0.282  0.00  0.00     0.371 C 
ATOM      3  N   UNL d   1       1.477   0.102   0.044  0.00  0.00     0.174 N 
ATOM      4  C   UNL d   1      -0.590  -1.203   0.397  0.00  0.00     0.170 C 
ATOM      5  C   UNL d   1      -0.696   1.362   0.188  0.00  0.00     0.170 C 
ATOM      6  C   UNL d   1      -1.443   0.024  -0.049  0.00  0.00     0.056 C 
ATOM      7  H   UNL d   1       2.382   0.124  -0.431  0.00  0.00     0.324 HD
ENDROOT
BRANCH   6   8
ATOM      8  C   UNL d   1      -2.877  -0.029   0.472  0.00  0.00    -0.052 A 
ATOM      9  C   UNL d   1      -3.266   0.540   1.694  0.00  0.00     0.010 A 
ATOM     10  C   UNL d   1      -4.603   0.500   2.104  0.00  0.00     0.043 A 
ATOM     11  C   UNL d   1      -5.554  -0.112   1.299  0.00  0.00     0.116 A 
ATOM     12  C   UNL d   1      -5.193  -0.698   0.095  0.00  0.00     0.043 A 
ATOM     13  F   UNL d   1      -6.833  -0.139   1.692  0.00  0.00    -0.206 F 
ATOM     14  C   UNL d   1      -3.858  -0.662  -0.315  0.00  0.00     0.010 A 
ENDBRANCH   6   8
BRANCH   4  15
ATOM     15  C   UNL d   1      -0.376  -1.234   1.911  0.00  0.00     0.269 C 
ATOM     16  O   UNL d   1      -0.288  -0.240   2.623  0.00  0.00    -0.265 OA
BRANCH  15  17
ATOM     17  O   UNL d   1      -0.213  -2.511   2.356  0.00  0.00    -0.321 OA
BRANCH  17  18
ATOM     18  C   UNL d   1       0.433  -2.624   3.637  0.00  0.00     0.174 C 
ATOM     19  C   UNL d   1       1.941  -2.580   3.454  0.00  0.00     0.034 C 
ENDBRANCH  17  18
ENDBRANCH  15  17
ENDBRANCH   4  15
BRANCH   5  20
ATOM     20  C   UNL d   1      -1.411   2.510  -0.486  0.00  0.00     0.269 C 
ATOM     21  O   UNL d   1      -1.460   2.639  -1.712  0.00  0.00    -0.265 OA
BRANCH  20  22
ATOM     22  O   UNL d   1      -1.905   3.399   0.406  0.00  0.00    -0.321 OA
BRANCH  22  23
ATOM     23  C   UNL d   1      -2.544   4.556  -0.149  0.00  0.00     0.174 C 
ATOM     24  C   UNL d   1      -1.514   5.574  -0.611  0.00  0.00     0.034 C 
ENDBRANCH  22  23
ENDBRANCH  20  22
ENDBRANCH   5  20
BRANCH   2  25
ATOM     25  C   UNL d   1       0.690  -1.612  -1.818  0.00  0.00     0.449 C 
ATOM     26  F   UNL d   1       1.710  -1.109  -2.553  0.00  0.00    -0.166 F 
ATOM     27  F   UNL d   1       0.802  -2.966  -1.914  0.00  0.00    -0.166 F 
ATOM     28  F   UNL d   1      -0.473  -1.283  -2.409  0.00  0.00    -0.166 F 
ENDBRANCH   2  25
BRANCH   2  29
ATOM     29  O   UNL d   1       1.641  -2.161   0.352  0.00  0.00    -0.355 OA
ATOM     30  H   UNL d   1       2.396  -2.339  -0.236  0.00  0.00     0.213 HD
ENDBRANCH   2  29
BRANCH   1  31
ATOM     31  C   UNL d   1       1.518   2.641   0.130  0.00  0.00     0.449 C 
ATOM     32  F   UNL d   1       2.812   2.384   0.444  0.00  0.00    -0.166 F 
ATOM     33  F   UNL d   1       1.524   3.583  -0.843  0.00  0.00    -0.166 F 
ATOM     34  F   UNL d   1       0.944   3.198   1.220  0.00  0.00    -0.166 F 
ENDBRANCH   1  31
BRANCH   1  35
ATOM     35  O   UNL d   1       0.755   1.232  -1.792  0.00  0.00    -0.355 OA
ATOM     36  H   UNL d   1       0.254   1.996  -2.156  0.00  0.00     0.213 HD
ENDBRANCH   1  35
TORSDOF 11
