REMARK  5 active torsions:
REMARK  status: ('A' for Active; 'I' for Inactive)
REMARK    1  A    between atoms: C_6  and  CA_1 
REMARK    2  A    between atoms: OXT_12  and  C_6 
REMARK    3  A    between atoms: O_11  and  C_10 
REMARK    4  A    between atoms: C_14  and  O_11 
REMARK    5  A    between atoms: C_15  and  C_14 
ROOT
ATOM      1  CA  UNL d   1      -2.474  -0.117  -0.132  0.00  0.00     0.107 A 
ATOM      2  N   UNL d   1      -1.653   0.990  -0.050  0.00  0.00    -0.350 N 
ATOM      3  C   UNL d   1      -1.646  -1.224  -0.100  0.00  0.00     0.050 A 
ATOM      4  C   UNL d   1      -0.304  -0.770  -0.077  0.00  0.00    -0.004 A 
ATOM      5  C   UNL d   1      -0.328   0.620  -0.059  0.00  0.00     0.043 A 
ATOM      6  C   UNL d   1       0.932  -1.435  -0.059  0.00  0.00     0.050 A 
ATOM      7  C   UNL d   1       0.842   1.389  -0.044  0.00  0.00     0.033 A 
ATOM      8  C   UNL d   1       2.114  -0.693   0.014  0.00  0.00     0.070 A 
ATOM      9  C   UNL d   1       2.065   0.701  -0.012  0.00  0.00     0.039 A 
ATOM     10  H   UNL d   1      -1.992   1.944  -0.011  0.00  0.00     0.166 HD
ENDROOT
BRANCH   8  11
ATOM     11  O   UNL d   1       3.365  -1.252   0.125  0.00  0.00    -0.347 OA
BRANCH  11  12
ATOM     12  C   UNL d   1       3.362  -2.599   0.611  0.00  0.00     0.214 C 
BRANCH  12  13
ATOM     13  C   UNL d   1       4.719  -3.016   1.118  0.00  0.00    -0.034 A 
ATOM     14  C   UNL d   1       4.804  -3.866   2.233  0.00  0.00     0.009 A 
ATOM     15  C   UNL d   1       6.042  -4.309   2.694  0.00  0.00     0.001 A 
ATOM     16  C   UNL d   1       7.207  -3.913   2.043  0.00  0.00     0.000 A 
ATOM     17  C   UNL d   1       7.135  -3.078   0.928  0.00  0.00     0.001 A 
ATOM     18  C   UNL d   1       5.895  -2.636   0.463  0.00  0.00     0.009 A 
ENDBRANCH  12  13
ENDBRANCH  11  12
ENDBRANCH   8  11
BRANCH   1  19
ATOM     19  C   UNL d   1      -3.908  -0.004  -0.191  0.00  0.00     0.193 C 
ATOM     20  O   UNL d   1      -4.545   0.984   0.137  0.00  0.00    -0.645 OA
BRANCH  19  21
ATOM     21  OXT UNL d   1      -4.491  -1.114  -0.703  0.00  0.00    -0.772 OA
ATOM     22  HXT UNL d   1      -3.852  -1.758  -1.051  0.00  0.00     0.167 HD
ENDBRANCH  19  21
ENDBRANCH   1  19
TORSDOF 5
