REMARK  4 active torsions:
REMARK  status: ('A' for Active; 'I' for Inactive)
REMARK    1  A    between atoms: C_8  and  C_3 
REMARK    2  A    between atoms: C_11  and  C_7 
REMARK    3  A    between atoms: O_18  and  C_12 
REMARK    4  A    between atoms: C_22  and  O_18 
ROOT
ATOM      1  N   UNL d   1       1.568  -0.077   0.065  0.00  0.00    -0.331 N 
ATOM      2  HN  UNL d   1       2.516  -0.454   0.064  1.00  0.00     0.168 HD
ATOM      3  C   UNL d   1       1.192   1.162   0.052  0.00  0.00     0.162 A 
ATOM      4  C   UNL d   1       0.375  -0.757   0.079  0.00  0.00     0.111 A 
ATOM      5  O   UNL d   1      -0.136   1.417   0.062  0.00  0.00    -0.256 OA
ATOM      6  C   UNL d   1      -0.764   0.208   0.085  0.00  0.00     0.316 A 
ATOM      7  C   UNL d   1       0.290  -2.093   0.068  0.00  0.00     0.047 C 
ATOM      8  O   UNL d   1      -1.963   0.021   0.108  0.00  0.00    -0.257 OA
ENDROOT
BRANCH   7   9
ATOM      9  C   UNL d   1      -0.949  -2.866   0.015  0.00  0.00    -0.034 A 
ATOM     10  C   UNL d   1      -1.486  -3.215  -1.228  0.00  0.00     0.014 A 
ATOM     11  C   UNL d   1      -2.667  -3.958  -1.306  0.00  0.00     0.037 A 
ATOM     12  C   UNL d   1      -3.325  -4.362  -0.143  0.00  0.00     0.068 A 
ATOM     13  C   UNL d   1      -2.784  -4.014   1.099  0.00  0.00     0.037 A 
ATOM     14  C   UNL d   1      -1.602  -3.269   1.181  0.00  0.00     0.014 A 
BRANCH  12  15
ATOM     15  O   UNL d   1      -4.485  -5.087  -0.093  0.00  0.00    -0.352 OA
BRANCH  15  16
ATOM     16  C   UNL d   1      -5.073  -5.436  -1.346  0.00  0.00     0.171 C 
ATOM     17  C   UNL d   1      -6.355  -6.205  -1.086  0.00  0.00     0.034 C 
ENDBRANCH  15  16
ENDBRANCH  12  15
ENDBRANCH   7   9
BRANCH   3  18
ATOM     18  C   UNL d   1       2.055   2.353   0.027  0.00  0.00     0.016 A 
ATOM     19  C   UNL d   1       1.509   3.643   0.097  0.00  0.00     0.022 A 
ATOM     20  C   UNL d   1       2.343   4.768   0.098  0.00  0.00    -0.061 A 
ATOM     21  C   UNL d   1       1.766   6.150   0.196  0.00  0.00     0.048 C 
ATOM     22  C   UNL d   1       3.730   4.591   0.016  0.00  0.00     0.007 A 
ATOM     23  C   UNL d   1       4.277   3.308  -0.062  0.00  0.00     0.002 A 
ATOM     24  C   UNL d   1       3.442   2.190  -0.054  0.00  0.00     0.016 A 
ENDBRANCH   3  18
TORSDOF 4
