REMARK  7 active torsions:
REMARK  status: ('A' for Active; 'I' for Inactive)
REMARK       I    between atoms: N_2  and  C_1 
REMARK    1  A    between atoms: C_6  and  C_1 
REMARK    2  A    between atoms: C_5  and  N_2 
REMARK    3  A    between atoms: C_3  and  C_6 
REMARK    4  A    between atoms: C_9  and  C_3 
REMARK    5  A    between atoms: C_4  and  C_9 
REMARK    6  A    between atoms: O_13  and  C_4 
REMARK    7  A    between atoms: S_12  and  C_11 
ROOT
ATOM      1  C   UNL d   1       0.999   0.045  -0.038  0.00  0.00     0.222 C 
ATOM      2  N   UNL d   1       2.356   0.197  -0.287  0.00  0.00    -0.327 N 
ATOM      3  O   UNL d   1       0.496  -0.658   0.831  0.00  0.00    -0.273 OA
ATOM      4  H   UNL d   1       2.613   0.789  -1.068  0.00  0.00     0.169 HD
ENDROOT
BRANCH   1   5
ATOM      5  C   UNL d   1       0.151   0.865  -1.005  0.00  0.00     0.113 C 
BRANCH   5   6
ATOM      6  C   UNL d   1      -1.388   0.747  -0.837  0.00  0.00    -0.023 C 
ATOM      7  C   UNL d   1      -1.869  -0.689  -1.158  0.00  0.00     0.010 C 
ATOM      8  C   UNL d   1      -3.270  -0.563  -1.758  0.00  0.00     0.001 C 
ATOM      9  C   UNL d   1      -3.465   0.905  -2.111  0.00  0.00     0.001 C 
ATOM     10  C   UNL d   1      -2.094   1.548  -1.956  0.00  0.00     0.010 C 
BRANCH   6  11
ATOM     11  C   UNL d   1      -1.900   1.166   0.572  0.00  0.00     0.119 C 
BRANCH  11  12
ATOM     12  C   UNL d   1      -1.562   2.577   1.008  0.00  0.00     0.140 C 
ATOM     13  O   UNL d   1      -0.962   3.408   0.345  0.00  0.00    -0.650 OA
BRANCH  12  14
ATOM     14  O   UNL d   1      -2.018   2.850   2.254  0.00  0.00    -0.776 OA
ATOM     15  H   UNL d   1      -2.460   2.092   2.684  0.00  0.00     0.167 HD
ENDBRANCH  12  14
ENDBRANCH  11  12
ENDBRANCH   6  11
ENDBRANCH   5   6
ENDBRANCH   1   5
BRANCH   2  16
ATOM     16  C   UNL d   1       3.429  -0.392   0.421  0.00  0.00     0.035 A 
ATOM     17  C   UNL d   1       3.258  -1.197   1.552  0.00  0.00     0.048 A 
ATOM     18  C   UNL d   1       4.350  -1.756   2.228  0.00  0.00     0.002 A 
ATOM     19  C   UNL d   1       5.638  -1.495   1.747  0.00  0.00     0.018 A 
ATOM     20  C   UNL d   1       5.827  -0.691   0.623  0.00  0.00     0.004 A 
ATOM     21  C   UNL d   1       4.726  -0.142  -0.038  0.00  0.00     0.029 A 
BRANCH  18  22
ATOM     22  S   UNL d   1       4.214  -2.794   3.682  0.00  0.00    -0.134 SA
ATOM     23  C   UNL d   1       2.422  -2.894   3.956  0.00  0.00     0.095 C 
ENDBRANCH  18  22
ENDBRANCH   2  16
TORSDOF 7
