REMARK  3 active torsions:
REMARK  status: ('A' for Active; 'I' for Inactive)
REMARK    1  A    between atoms: C_2  and  C_3 
REMARK       I    between atoms: N_5  and  C_2 
REMARK    2  A    between atoms: C_3  and  C_6 
REMARK    3  A    between atoms: C_4  and  N_5 
ROOT
ATOM      1  C   UNL d   1      -1.936   2.794  -1.306  0.00  0.00     0.224 C 
ATOM      2  N   UNL d   1      -1.962   2.183  -2.547  0.00  0.00    -0.326 N 
ATOM      3  O   UNL d   1      -2.848   3.461  -0.821  0.00  0.00    -0.273 OA
ATOM      4  H   UNL d   1      -1.088   1.762  -2.876  0.00  0.00     0.169 HD
ENDROOT
BRANCH   1   5
ATOM      5  C   UNL d   1      -0.599   2.717  -0.598  0.00  0.00     0.148 C 
BRANCH   5   6
ATOM      6  C   UNL d   1      -0.184   1.359  -0.026  0.00  0.00     0.320 C 
ATOM      7  C   UNL d   1       0.374   0.424  -1.116  0.00  0.00     0.251 C 
ATOM      8  N   UNL d   1       0.897  -0.789  -0.759  0.00  0.00    -0.359 N 
ATOM      9  O   UNL d   1       0.400   0.747  -2.302  0.00  0.00    -0.271 OA
ATOM     10  C   UNL d   1       0.677  -1.562   0.450  0.00  0.00     0.124 C 
ATOM     11  H   UNL d   1       1.208  -1.311  -1.571  0.00  0.00     0.162 HD
ATOM     12  C   UNL d   1       0.550  -0.766   1.738  0.00  0.00     0.050 C 
ATOM     13  C   UNL d   1      -0.805  -0.069   1.873  0.00  0.00     0.272 C 
ATOM     14  N   UNL d   1      -1.265   0.705   0.725  0.00  0.00     0.097 N 
ATOM     15  H   UNL d   1      -1.826   0.126   0.098  0.00  0.00     0.317 HD
ENDBRANCH   5   6
ENDBRANCH   1   5
BRANCH   2  16
ATOM     16  C   UNL d   1      -2.966   2.365  -3.535  0.00  0.00     0.058 A 
ATOM     17  C   UNL d   1      -4.247   2.843  -3.233  0.00  0.00     0.055 A 
ATOM     18  C   UNL d   1      -5.157   3.125  -4.254  0.00  0.00     0.036 A 
ATOM     19 CL   UNL d   1      -6.718   3.740  -3.865  0.00  0.00    -0.084 Cl
ATOM     20  C   UNL d   1      -4.812   2.927  -5.588  0.00  0.00     0.026 A 
ATOM     21  C   UNL d   1      -3.559   2.403  -5.903  0.00  0.00     0.028 A 
ATOM     22  C   UNL d   1      -2.648   2.108  -4.883  0.00  0.00     0.060 A 
ATOM     23 CL   UNL d   1      -1.103   1.480  -5.341  0.00  0.00    -0.082 Cl
ENDBRANCH   2  16
TORSDOF 3
