REMARK  3 active torsions:
REMARK  status: ('A' for Active; 'I' for Inactive)
REMARK    1  A    between atoms: N_5  and  C_1 
REMARK    2  A    between atoms: C_12  and  C_4 
REMARK       I    between atoms: C_7  and  N_5 
REMARK    3  A    between atoms: C_8  and  C_7 
ROOT
ATOM      1  C   UNL d   1       0.471  -0.880   0.190  0.00  0.00     0.172 A 
ATOM      2  C   UNL d   1      -0.258   0.239   0.534  0.00  0.00     0.098 A 
ATOM      3  O   UNL d   1       1.762  -0.520  -0.067  0.00  0.00    -0.291 OA
ATOM      4  C   UNL d   1       1.844   0.834   0.093  0.00  0.00     0.089 A 
ATOM      5  C   UNL d   1       0.604   1.352   0.401  0.00  0.00     0.065 A 
ATOM      6  C   UNL d   1      -1.605   0.253   0.986  0.00  0.00     0.104 C 
ATOM      7  N   UNL d   1      -2.696   0.242   1.381  0.00  0.00    -0.191 NA
ENDROOT
BRANCH   1   8
ATOM      8  N   UNL d   1       0.082  -2.196   0.096  0.00  0.00    -0.301 N 
ATOM      9  C   UNL d   1       0.903  -3.234  -0.290  0.00  0.00     0.264 C 
ATOM     10  O   UNL d   1       2.108  -3.139  -0.493  0.00  0.00    -0.267 OA
ATOM     11  H   UNL d   1      -0.891  -2.417   0.274  0.00  0.00     0.171 HD
BRANCH   9  12
ATOM     12  C   UNL d   1       0.203  -4.516  -0.461  0.00  0.00     0.072 A 
ATOM     13  S   UNL d   1      -1.490  -4.683  -0.216  0.00  0.00    -0.097 SA
ATOM     14  C   UNL d   1      -1.464  -6.338  -0.641  0.00  0.00     0.050 A 
ATOM     15  C   UNL d   1      -0.195  -6.770  -0.953  0.00  0.00     0.009 A 
ATOM     16  C   UNL d   1       0.764  -5.721  -0.845  0.00  0.00     0.025 A 
ENDBRANCH   9  12
ENDBRANCH   1   8
BRANCH   4  17
ATOM     17  C   UNL d   1       3.162   1.443   0.044  0.00  0.00    -0.002 A 
ATOM     18  C   UNL d   1       3.336   2.721  -0.506  0.00  0.00     0.014 A 
ATOM     19  C   UNL d   1       4.544   3.403  -0.345  0.00  0.00     0.001 A 
ATOM     20  C   UNL d   1       5.586   2.813   0.367  0.00  0.00     0.000 A 
ATOM     21  C   UNL d   1       5.439   1.526   0.881  0.00  0.00     0.001 A 
ATOM     22  C   UNL d   1       4.236   0.837   0.708  0.00  0.00     0.014 A 
ENDBRANCH   4  17
TORSDOF 3
