REMARK  3 active torsions:
REMARK  status: ('A' for Active; 'I' for Inactive)
REMARK    1  A    between atoms: C_5  and  C_2 
REMARK       I    between atoms: N_7  and  C_5 
REMARK    2  A    between atoms: C_16  and  N_9 
REMARK    3  A    between atoms: C_19  and  C_16 
ROOT
ATOM      1  C   UNL d   1      -4.601   0.634  -0.010  0.00  0.00     0.260 C 
ATOM      2  N   UNL d   1      -5.532  -0.412  -0.008  0.00  0.00    -0.344 N 
ATOM      3  N   UNL d   1      -6.930  -2.925  -0.636  0.00  0.00     0.095 N 
ATOM      4  O   UNL d   1      -4.824   1.659  -0.659  0.00  0.00    -0.267 OA
ATOM      5  C   UNL d   1      -5.594  -1.510   0.961  0.00  0.00     0.156 C 
ATOM      6  C   UNL d   1      -6.683  -0.373  -0.915  0.00  0.00     0.156 C 
ATOM      7  C   UNL d   1      -6.944  -1.760  -1.561  0.00  0.00     0.292 C 
ATOM      8  C   UNL d   1      -5.717  -2.845   0.209  0.00  0.00     0.292 C 
ENDROOT
BRANCH   1   9
ATOM      9  C   UNL d   1      -3.366   0.446   0.750  0.00  0.00     0.074 C 
ATOM     10  S   UNL d   1      -2.609   1.787   1.518  0.00  0.00    -0.084 SA
ATOM     11  C   UNL d   1      -1.424   0.798   2.236  0.00  0.00     0.023 C 
ATOM     12  C   UNL d   1      -1.605  -0.534   1.913  0.00  0.00    -0.038 C 
ATOM     13  C   UNL d   1      -0.337   1.249   3.117  0.00  0.00    -0.012 A 
ATOM     14  C   UNL d   1      -2.621  -0.704   0.937  0.00  0.00     0.033 C 
ATOM     15  C   UNL d   1      -0.750  -1.600   2.526  0.00  0.00     0.044 C 
ATOM     16  C   UNL d   1      -0.248  -1.162   3.914  0.00  0.00     0.044 C 
ATOM     17  C   UNL d   1       0.297   0.257   3.910  0.00  0.00    -0.046 A 
ATOM     18  C   UNL d   1       1.393   0.592   4.712  0.00  0.00     0.008 A 
ATOM     19  C   UNL d   1       1.888   1.894   4.703  0.00  0.00     0.001 A 
ATOM     20  C   UNL d   1       1.276   2.871   3.917  0.00  0.00     0.001 A 
ATOM     21  C   UNL d   1       0.162   2.554   3.132  0.00  0.00     0.013 A 
ENDBRANCH   1   9
BRANCH   3  22
ATOM     22  C   UNL d   1      -8.174  -2.984   0.156  0.00  0.00     0.311 C 
BRANCH  22  23
ATOM     23  C   UNL d   1      -8.228  -4.140   1.137  0.00  0.00    -0.030 A 
ATOM     24  C   UNL d   1      -8.257  -3.903   2.521  0.00  0.00     0.009 A 
ATOM     25  C   UNL d   1      -8.310  -4.967   3.424  0.00  0.00     0.001 A 
ATOM     26  C   UNL d   1      -8.336  -6.278   2.955  0.00  0.00     0.000 A 
ATOM     27  C   UNL d   1      -8.301  -6.528   1.584  0.00  0.00     0.001 A 
ATOM     28  C   UNL d   1      -8.244  -5.465   0.679  0.00  0.00     0.009 A 
ENDBRANCH  22  23
ENDBRANCH   3  22
TORSDOF 3
