REMARK  5 active torsions:
REMARK  status: ('A' for Active; 'I' for Inactive)
REMARK    1  A    between atoms: N_3  and  C_2 
REMARK    2  A    between atoms: S_13  and  C_4 
REMARK    3  A    between atoms: C_15  and  C_5 
REMARK    4  A    between atoms: C_10  and  C_14 
REMARK    5  A    between atoms: C_11  and  S_13 
ROOT
ATOM      1  N   UNL d   1      -0.004   0.459   0.973  0.00  0.00    -0.320 N 
ATOM      2  C   UNL d   1      -0.386   1.167  -0.122  0.00  0.00     0.165 A 
ATOM      3  C   UNL d   1       0.283  -0.810   0.533  0.00  0.00     0.132 A 
ATOM      4  N   UNL d   1       0.055  -0.845  -0.771  0.00  0.00    -0.283 N 
ATOM      5  HN  UNL d   1       0.172  -1.660  -1.373  1.00  0.00     0.188 HD
ATOM      6  N   UNL d   1      -0.368   0.403  -1.183  0.00  0.00    -0.278 N 
ATOM      7  HN  UNL d   1      -0.620   0.676  -2.133  1.00  0.00     0.189 HD
ATOM      8  H   UNL d   1       0.027   0.809   1.919  0.00  0.00     0.169 HD
ENDROOT
BRANCH   2   9
ATOM      9  S   UNL d   1      -0.770   2.842  -0.021  0.00  0.00    -0.050 SA
BRANCH   9  10
ATOM     10  C   UNL d   1      -2.551   2.695   0.030  0.00  0.00     0.041 A 
ATOM     11  C   UNL d   1      -3.319   2.723   1.204  0.00  0.00     0.120 A 
ATOM     12  C   UNL d   1      -4.724   2.680   1.177  0.00  0.00     0.053 A 
ATOM     13  C   UNL d   1      -5.397   2.601  -0.050  0.00  0.00     0.050 A 
ATOM     14  C   UNL d   1      -4.639   2.578  -1.231  0.00  0.00     0.017 A 
ATOM     15  C   UNL d   1      -3.239   2.628  -1.191  0.00  0.00     0.022 A 
BRANCH  11  16
ATOM     16  N   UNL d   1      -2.682   2.801   2.508  0.00  0.00    -0.114 N 
ATOM     17  O   UNL d   1      -1.864   1.916   2.801  0.00  0.00    -0.532 OA
ATOM     18  O   UNL d   1      -3.033   3.728   3.249  0.00  0.00    -0.532 OA
ENDBRANCH  11  16
BRANCH  13  19
ATOM     19  C   UNL d   1      -6.907   2.543  -0.118  0.00  0.00     0.417 C 
ATOM     20  F   UNL d   1      -7.499   2.516   1.107  0.00  0.00    -0.166 F 
ATOM     21  F   UNL d   1      -7.438   3.612  -0.769  0.00  0.00    -0.166 F 
ATOM     22  F   UNL d   1      -7.354   1.439  -0.775  0.00  0.00    -0.166 F 
ENDBRANCH  13  19
ENDBRANCH   9  10
ENDBRANCH   2   9
BRANCH   3  23
ATOM     23  C   UNL d   1       0.758  -1.918   1.368  0.00  0.00     0.009 A 
ATOM     24  C   UNL d   1       0.919  -1.801   2.757  0.00  0.00     0.017 A 
ATOM     25  C   UNL d   1       1.368  -2.887   3.519  0.00  0.00     0.025 A 
ATOM     26  C   UNL d   1       1.661  -4.100   2.900  0.00  0.00     0.034 A 
ATOM     27  C   UNL d   1       1.514  -4.235   1.524  0.00  0.00     0.025 A 
ATOM     28 CL   UNL d   1       2.202  -5.433   3.842  0.00  0.00    -0.084 Cl
ATOM     29  C   UNL d   1       1.066  -3.149   0.764  0.00  0.00     0.017 A 
ENDBRANCH   3  23
TORSDOF 5
