REMARK  8 active torsions:
REMARK  status: ('A' for Active; 'I' for Inactive)
REMARK    1  A    between atoms: C_3  and  C_1 
REMARK    2  A    between atoms: C_4  and  C_2 
REMARK    3  A    between atoms: O_16  and  C_3 
REMARK    4  A    between atoms: O_15  and  C_4 
REMARK    5  A    between atoms: C_13  and  C_5 
REMARK    6  A    between atoms: C_6  and  C_14 
REMARK    7  A    between atoms: C_21  and  O_15 
REMARK    8  A    between atoms: C_22  and  O_16 
ROOT
ATOM      1  C   UNL d   1      -8.757   5.572  -3.698  0.00  0.00     0.120 C 
ATOM      2  C   UNL d   1      -8.357   4.316  -3.981  0.00  0.00     0.040 C 
ATOM      3  C   UNL d   1      -8.484   6.216  -2.456  0.00  0.00     0.105 C 
ATOM      4  N   UNL d   1      -8.257   6.734  -1.445  0.00  0.00    -0.191 NA
ENDROOT
BRANCH   1   5
ATOM      5  C   UNL d   1      -9.470   6.308  -4.771  0.00  0.00     0.303 C 
ATOM      6  O   UNL d   1      -9.688   5.855  -5.886  0.00  0.00    -0.258 OA
BRANCH   5   7
ATOM      7  O   UNL d   1      -9.777   7.563  -4.358  0.00  0.00    -0.317 OA
BRANCH   7   8
ATOM      8  C   UNL d   1     -10.181   8.480  -5.384  0.00  0.00     0.174 C 
ATOM      9  C   UNL d   1      -8.938   9.155  -5.933  0.00  0.00     0.034 C 
ENDBRANCH   7   8
ENDBRANCH   5   7
ENDBRANCH   1   5
BRANCH   2  10
ATOM     10  C   UNL d   1      -7.610   3.476  -3.046  0.00  0.00    -0.035 A 
ATOM     11  C   UNL d   1      -8.291   2.654  -2.147  0.00  0.00     0.012 A 
ATOM     12  C   UNL d   1      -7.581   1.922  -1.190  0.00  0.00     0.012 A 
ATOM     13  C   UNL d   1      -6.184   2.004  -1.114  0.00  0.00    -0.035 A 
ATOM     14  C   UNL d   1      -5.508   2.779  -2.066  0.00  0.00     0.012 A 
ATOM     15  C   UNL d   1      -6.215   3.525  -3.014  0.00  0.00     0.012 A 
BRANCH  13  16
ATOM     16  C   UNL d   1      -5.490   1.216  -0.077  0.00  0.00     0.040 C 
ATOM     17  C   UNL d   1      -4.409   1.571   0.650  0.00  0.00     0.120 C 
ATOM     18  C   UNL d   1      -3.748   2.825   0.515  0.00  0.00     0.105 C 
ATOM     19  N   UNL d   1      -3.206   3.840   0.358  0.00  0.00    -0.191 NA
BRANCH  17  20
ATOM     20  C   UNL d   1      -3.786   0.631   1.624  0.00  0.00     0.303 C 
ATOM     21  O   UNL d   1      -2.751   0.879   2.224  0.00  0.00    -0.258 OA
BRANCH  20  22
ATOM     22  O   UNL d   1      -4.463  -0.545   1.696  0.00  0.00    -0.317 OA
BRANCH  22  23
ATOM     23  C   UNL d   1      -3.760  -1.622   2.338  0.00  0.00     0.174 C 
ATOM     24  C   UNL d   1      -2.982  -2.374   1.274  0.00  0.00     0.034 C 
ENDBRANCH  22  23
ENDBRANCH  20  22
ENDBRANCH  17  20
ENDBRANCH  13  16
ENDBRANCH   2  10
TORSDOF 8
