REMARK  3 active torsions:
REMARK  status: ('A' for Active; 'I' for Inactive)
REMARK    1  A    between atoms: N_10  and  C_3 
REMARK    2  A    between atoms: C_13  and  C_4 
REMARK    3  A    between atoms: N_7  and  N_10 
ROOT
ATOM      1  N   UNL d   1       1.312  -0.741  -0.565  0.00  0.00    -0.334 N 
ATOM      2  HN  UNL d   1       2.105  -1.203  -1.010  1.00  0.00     0.168 HD
ATOM      3  C   UNL d   1       0.240  -1.366  -0.125  0.00  0.00     0.163 A 
ATOM      4  C   UNL d   1       1.226   0.622  -0.346  0.00  0.00     0.051 A 
ATOM      5  S   UNL d   1      -0.975  -0.317   0.511  0.00  0.00    -0.062 SA
ATOM      6  C   UNL d   1       0.051   1.035   0.246  0.00  0.00     0.083 A 
ENDROOT
BRANCH   3   7
ATOM      7  N   UNL d   1       0.059  -2.720  -0.120  0.00  0.00    -0.280 N 
ATOM      8  H   UNL d   1      -0.803  -3.049   0.305  0.00  0.00     0.189 HD
BRANCH   7   9
ATOM      9  N   UNL d   1       1.145  -3.540  -0.134  0.00  0.00    -0.306 N 
ATOM     10  C   UNL d   1       0.999  -4.826  -0.104  0.00  0.00     0.012 A 
ATOM     11  C   UNL d   1       2.241  -5.703  -0.065  0.00  0.00     0.093 A 
ATOM     12  C   UNL d   1      -0.277  -5.656  -0.104  0.00  0.00     0.093 A 
ATOM     13  C   UNL d   1       1.667  -7.081  -0.094  0.00  0.00    -0.046 A 
ATOM     14  C   UNL d   1       2.377  -8.270  -0.102  0.00  0.00     0.008 A 
ATOM     15  C   UNL d   1       0.261  -7.062  -0.119  0.00  0.00    -0.046 A 
ATOM     16  C   UNL d   1       1.663  -9.466  -0.140  0.00  0.00     0.001 A 
ATOM     17  C   UNL d   1       0.260  -9.457  -0.167  0.00  0.00     0.001 A 
ATOM     18  C   UNL d   1      -0.451  -8.252  -0.155  0.00  0.00     0.008 A 
ATOM     19  HN  UNL d   1       2.081  -3.137  -0.169  1.00  0.00     0.186 HD
ENDBRANCH   7   9
ENDBRANCH   3   7
BRANCH   4  20
ATOM     20  C   UNL d   1       2.314   1.510  -0.749  0.00  0.00    -0.009 A 
ATOM     21  C   UNL d   1       3.084   1.179  -1.875  0.00  0.00     0.015 A 
ATOM     22  C   UNL d   1       4.148   1.991  -2.281  0.00  0.00     0.020 A 
ATOM     23  C   UNL d   1       4.456   3.136  -1.551  0.00  0.00     0.011 A 
ATOM     24  C   UNL d   1       3.706   3.480  -0.429  0.00  0.00     0.020 A 
ATOM     25 BR   UNL d   1       5.913   4.221  -2.077  0.00  0.00    -0.051 Br
ATOM     26  C   UNL d   1       2.636   2.669  -0.029  0.00  0.00     0.015 A 
ENDBRANCH   4  20
TORSDOF 3
