REMARK  6 active torsions:
REMARK  status: ('A' for Active; 'I' for Inactive)
REMARK    1  A    between atoms: O_4  and  C_1 
REMARK       I    between atoms: C_2  and  N_3 
REMARK       I    between atoms: N_7  and  C_2 
REMARK    2  A    between atoms: N_3  and  C_12 
REMARK    3  A    between atoms: C_13  and  O_4 
REMARK    4  A    between atoms: C_6  and  C_19 
REMARK    5  A    between atoms: C_18  and  N_7 
REMARK    6  A    between atoms: C_19  and  C_18 
ROOT
ATOM      1  C   UNL d   1       3.770  -5.944   2.509  0.00  0.00     0.320 C 
ATOM      2  N   UNL d   1       2.474  -5.498   2.632  0.00  0.00    -0.309 N 
ATOM      3  O   UNL d   1       4.696  -5.341   1.975  0.00  0.00    -0.247 OA
ATOM      4  N   UNL d   1       3.964  -7.197   3.057  0.00  0.00    -0.343 N 
ATOM      5  H   UNL d   1       1.798  -6.169   2.965  0.00  0.00     0.170 HD
ATOM      6  H   UNL d   1       3.367  -7.444   3.832  0.00  0.00     0.164 HD
ENDROOT
BRANCH   2   7
ATOM      7  C   UNL d   1       1.987  -4.232   2.225  0.00  0.00     0.036 A 
ATOM      8  C   UNL d   1       2.801  -3.230   1.689  0.00  0.00     0.032 A 
ATOM      9  C   UNL d   1       2.284  -1.981   1.323  0.00  0.00     0.039 A 
ATOM     10  C   UNL d   1       0.941  -1.696   1.529  0.00  0.00     0.078 A 
ATOM     11  C   UNL d   1       0.108  -2.704   2.024  0.00  0.00     0.039 A 
ATOM     12  C   UNL d   1       0.624  -3.961   2.373  0.00  0.00     0.032 A 
BRANCH  10  13
ATOM     13  O   UNL d   1       0.328  -0.500   1.300  0.00  0.00    -0.255 OA
BRANCH  13  14
ATOM     14  C   UNL d   1       1.142   0.656   1.157  0.00  0.00     0.530 C 
ATOM     15  F   UNL d   1       2.222   0.643   1.968  0.00  0.00    -0.144 F 
ATOM     16  F   UNL d   1       0.403   1.741   1.482  0.00  0.00    -0.144 F 
ATOM     17  F   UNL d   1       1.546   0.790  -0.124  0.00  0.00    -0.144 F 
ENDBRANCH  13  14
ENDBRANCH  10  13
ENDBRANCH   2   7
BRANCH   4  18
ATOM     18  C   UNL d   1       5.334  -7.683   3.095  0.00  0.00     0.128 C 
BRANCH  18  19
ATOM     19  C   UNL d   1       5.500  -9.143   3.516  0.00  0.00     0.053 C 
BRANCH  19  20
ATOM     20  C   UNL d   1       4.792 -10.165   2.653  0.00  0.00    -0.082 C 
ATOM     21  C   UNL d   1       3.962 -11.073   3.197  0.00  0.00    -0.024 C 
ATOM     22  C   UNL d   1       3.307 -12.180   2.424  0.00  0.00     0.027 C 
ATOM     23  C   UNL d   1       3.902 -12.380   1.032  0.00  0.00     0.004 C 
ATOM     24  C   UNL d   1       4.162 -11.043   0.349  0.00  0.00     0.005 C 
ATOM     25  C   UNL d   1       5.116 -10.175   1.174  0.00  0.00     0.034 C 
ENDBRANCH  19  20
ENDBRANCH  18  19
ENDBRANCH   4  18
TORSDOF 6
