REMARK  7 active torsions:
REMARK  status: ('A' for Active; 'I' for Inactive)
REMARK    1  A    between atoms: C_2  and  C_1 
REMARK       I    between atoms: N_5  and  C_1 
REMARK    2  A    between atoms: O_9  and  C_3 
REMARK    3  A    between atoms: C_6  and  C_4 
REMARK    4  A    between atoms: C_7  and  N_5 
REMARK       I    between atoms: N_8  and  C_6 
REMARK    5  A    between atoms: N_12  and  N_8 
REMARK    6  A    between atoms: C_21  and  O_9 
REMARK    7  A    between atoms: C_13  and  N_12 
ROOT
ATOM      1  C   UNL d   1      -1.872   1.114  -0.912  0.00  0.00     0.060 A 
ATOM      2  C   UNL d   1      -1.117   0.056  -1.472  0.00  0.00     0.050 A 
ATOM      3  C   UNL d   1      -3.277   1.062  -0.974  0.00  0.00     0.019 A 
ATOM      4  C   UNL d   1      -1.786  -0.945  -2.195  0.00  0.00     0.030 A 
ATOM      5  C   UNL d   1      -3.925   0.022  -1.640  0.00  0.00     0.001 A 
ATOM      6  C   UNL d   1      -3.180  -0.963  -2.275  0.00  0.00     0.002 A 
ENDROOT
BRANCH   2   7
ATOM      7  N   UNL d   1       0.299  -0.082  -1.407  0.00  0.00    -0.322 N 
ATOM      8  C   UNL d   1       1.065   0.203  -0.276  0.00  0.00     0.260 C 
ATOM      9  O   UNL d   1       0.576   0.469   0.812  0.00  0.00    -0.267 OA
ATOM     10  H   UNL d   1       0.701  -0.777  -2.026  0.00  0.00     0.169 HD
BRANCH   8  11
ATOM     11  C   UNL d   1       2.546   0.176  -0.490  0.00  0.00     0.083 A 
ATOM     12  C   UNL d   1       3.453   0.126   0.568  0.00  0.00     0.163 A 
ATOM     13  N   UNL d   1       4.803   0.111   0.379  0.00  0.00    -0.346 N 
ATOM     14  C   UNL d   1       5.277   0.221  -0.874  0.00  0.00     0.090 A 
ATOM     15  HN  UNL d   1       5.440   0.019   1.171  1.00  0.00     0.167 HD
ATOM     16  C   UNL d   1       4.462   0.313  -1.982  0.00  0.00     0.018 A 
ATOM     17  C   UNL d   1       3.083   0.284  -1.787  0.00  0.00     0.023 A 
BRANCH  12  18
ATOM     18  O   UNL d   1       2.978   0.042   1.872  0.00  0.00    -0.293 OA
BRANCH  18  19
ATOM     19  C   UNL d   1       3.868   0.307   2.889  0.00  0.00     0.077 A 
ATOM     20  C   UNL d   1       4.617   1.487   2.945  0.00  0.00     0.037 A 
ATOM     21  C   UNL d   1       5.532   1.683   3.980  0.00  0.00     0.003 A 
ATOM     22  C   UNL d   1       5.668   0.720   4.979  0.00  0.00     0.000 A 
ATOM     23  C   UNL d   1       4.878  -0.430   4.956  0.00  0.00     0.003 A 
ATOM     24  C   UNL d   1       3.970  -0.633   3.914  0.00  0.00     0.037 A 
ENDBRANCH  18  19
ENDBRANCH  12  18
ENDBRANCH   8  11
ENDBRANCH   2   7
BRANCH   1  25
ATOM     25  C   UNL d   1      -1.307   2.423  -0.439  0.00  0.00     0.268 C 
ATOM     26  N   UNL d   1      -0.154   2.811  -1.105  0.00  0.00    -0.283 N 
ATOM     27  H   UNL d   1       0.336   2.072  -1.593  0.00  0.00     0.184 HD
ATOM     28  O   UNL d   1      -1.899   3.133   0.363  0.00  0.00    -0.266 OA
BRANCH  26  29
ATOM     29  N   UNL d   1       0.684   3.738  -0.473  0.00  0.00    -0.203 NA
ATOM     30  H   UNL d   1       0.181   4.558  -0.120  0.00  0.00     0.153 HD
BRANCH  29  31
ATOM     31  C   UNL d   1       1.875   4.020  -1.175  0.00  0.00     0.030 A 
ATOM     32  C   UNL d   1       2.029   3.759  -2.545  0.00  0.00     0.049 A 
ATOM     33  C   UNL d   1       3.263   3.925  -3.168  0.00  0.00     0.037 A 
ATOM     34 CL   UNL d   1       3.437   3.495  -4.825  0.00  0.00    -0.084 Cl
ATOM     35  C   UNL d   1       4.361   4.395  -2.450  0.00  0.00     0.047 A 
ATOM     36  C   UNL d   1       4.201   4.703  -1.105  0.00  0.00     0.037 A 
ATOM     37  C   UNL d   1       2.970   4.530  -0.468  0.00  0.00     0.049 A 
ATOM     38 CL   UNL d   1       5.554   5.272  -0.207  0.00  0.00    -0.084 Cl
ENDBRANCH  29  31
ENDBRANCH  26  29
ENDBRANCH   1  25
TORSDOF 7
