REMARK  0 active torsions:
REMARK  status: ('A' for Active; 'I' for Inactive)
ROOT
ATOM      1  N   UNL d   1       0.012  -1.655   0.000  0.00  0.00    -0.350 N 
ATOM      2  C   UNL d   1       0.728   0.458  -0.000  0.00  0.00     0.005 A 
ATOM      3  C   UNL d   1       1.151  -0.875   0.000  0.00  0.00     0.045 A 
ATOM      4  C   UNL d   1      -1.125  -0.870   0.000  0.00  0.00     0.045 A 
ATOM      5  C   UNL d   1      -0.703   0.460  -0.000  0.00  0.00     0.003 A 
ATOM      6  C   UNL d   1       2.514  -1.218   0.000  0.00  0.00     0.032 A 
ATOM      7  C   UNL d   1       1.698   1.484  -0.001  0.00  0.00     0.038 A 
ATOM      8  C   UNL d   1       3.052   1.144  -0.001  0.00  0.00     0.035 A 
ATOM      9  C   UNL d   1      -0.021  -3.102  -0.000  0.00  0.00     0.156 C 
ATOM     10  C   UNL d   1       3.457  -0.185  -0.000  0.00  0.00     0.026 A 
ATOM     11 CL   UNL d   1       4.238   2.393  -0.001  0.00  0.00    -0.084 Cl
ATOM     12  C   UNL d   1      -2.486  -1.219  -0.000  0.00  0.00     0.030 A 
ATOM     13  C   UNL d   1      -1.677   1.481  -0.000  0.00  0.00     0.014 A 
ATOM     14  C   UNL d   1      -3.034   1.144  -0.000  0.00  0.00     0.001 A 
ATOM     15  C   UNL d   1      -3.431  -0.189  -0.000  0.00  0.00     0.002 A 
ENDROOT
TORSDOF 0
