REMARK  6 active torsions:
REMARK  status: ('A' for Active; 'I' for Inactive)
REMARK    1  A    between atoms: C_10  and  C_4 
REMARK    2  A    between atoms: C_11  and  C_4 
REMARK    3  A    between atoms: C_7  and  N_6 
REMARK    4  A    between atoms: O_12  and  C_9 
REMARK    5  A    between atoms: O_14  and  C_10 
REMARK    6  A    between atoms: O_13  and  C_11 
ROOT
ATOM      1  C   UNL d   1      -0.102  -1.091  -0.232  0.00  0.00     0.141 C 
ATOM      2  N   UNL d   1       0.766  -0.139  -0.115  0.00  0.00    -0.356 N 
ATOM      3  HN  UNL d   1       1.732  -0.275   0.182  1.00  0.00     0.162 HD
ATOM      4  C   UNL d   1       0.176   1.181  -0.470  0.00  0.00     0.083 C 
ATOM      5  S   UNL d   1      -1.693  -0.633  -0.799  0.00  0.00    -0.091 SA
ATOM      6  N   UNL d   1       0.069  -2.412   0.029  0.00  0.00    -0.335 N 
ATOM      7  C   UNL d   1      -1.026   0.944  -1.391  0.00  0.00     0.117 C 
ATOM      8  H   UNL d   1      -0.769  -2.965   0.098  0.00  0.00     0.168 HD
ENDROOT
BRANCH   6   9
ATOM      9  C   UNL d   1       1.291  -3.088   0.199  0.00  0.00     0.067 A 
ATOM     10  C   UNL d   1       1.402  -4.229   1.013  0.00  0.00     0.094 A 
ATOM     11  C   UNL d   1       2.659  -4.780   1.300  0.00  0.00     0.039 A 
ATOM     12  C   UNL d   1       3.821  -4.226   0.762  0.00  0.00     0.003 A 
ATOM     13  C   UNL d   1       3.732  -3.119  -0.069  0.00  0.00     0.002 A 
ATOM     14  C   UNL d   1       2.480  -2.564  -0.344  0.00  0.00     0.032 A 
BRANCH  10  15
ATOM     15  O   UNL d   1       0.349  -4.786   1.697  0.00  0.00    -0.354 OA
ATOM     16  C   UNL d   1      -0.682  -5.316   0.870  0.00  0.00     0.210 C 
ENDBRANCH  10  15
ENDBRANCH   6   9
BRANCH   4  17
ATOM     17  C   UNL d   1       1.292   1.979  -1.179  0.00  0.00     0.198 C 
BRANCH  17  18
ATOM     18  O   UNL d   1       1.741   1.282  -2.343  0.00  0.00    -0.398 OA
ATOM     19  H   UNL d   1       2.014   0.404  -2.016  0.00  0.00     0.209 HD
ENDBRANCH  17  18
ENDBRANCH   4  17
BRANCH   4  20
ATOM     20  C   UNL d   1      -0.236   1.900   0.833  0.00  0.00     0.198 C 
BRANCH  20  21
ATOM     21  O   UNL d   1       0.864   1.972   1.738  0.00  0.00    -0.398 OA
ATOM     22  H   UNL d   1       1.245   1.070   1.755  0.00  0.00     0.209 HD
ENDBRANCH  20  21
ENDBRANCH   4  20
TORSDOF 6
