REMARK  3 active torsions:
REMARK  status: ('A' for Active; 'I' for Inactive)
REMARK    1  A    between atoms: C_9  and  N_6 
REMARK    2  A    between atoms: C_10  and  C_9 
REMARK       I    between atoms: N_12  and  C_10 
REMARK    3  A    between atoms: N_14  and  N_12 
ROOT
ATOM      1  C   UNL d   1      -0.090  -1.390   0.056  0.00  0.00     0.709 A 
ATOM      2  N   UNL d   1       1.138  -0.937   0.332  0.00  0.00    -0.115 N 
ATOM      3  HN  UNL d   1       1.970  -1.447   0.628  1.00  0.00     0.207 HD
ATOM      4  N   UNL d   1      -0.951  -0.377  -0.295  0.00  0.00    -0.113 N 
ATOM      5  HN  UNL d   1      -1.937  -0.476  -0.536  1.00  0.00     0.203 HD
ATOM      6  N   UNL d   1       0.970   0.380   0.111  0.00  0.00    -0.194 N 
ATOM      7  N   UNL d   1      -0.260   0.754  -0.262  0.00  0.00     0.011 NA
ATOM      8  N   UNL d   1      -0.459  -2.686   0.008  0.00  0.00    -0.211 N 
ATOM      9  O   UNL d   1      -1.175  -5.428  -0.212  0.00  0.00    -0.388 OA
ATOM     10  C   UNL d   1       0.390  -3.721   0.606  0.00  0.00     0.167 C 
ATOM     11  C   UNL d   1      -1.868  -3.067  -0.120  0.00  0.00     0.167 C 
ATOM     12  C   UNL d   1       0.206  -5.035  -0.168  0.00  0.00     0.188 C 
ATOM     13  C   UNL d   1      -1.963  -4.413  -0.857  0.00  0.00     0.188 C 
ENDROOT
BRANCH   6  14
ATOM     14  C   UNL d   1       2.102   1.272   0.052  0.00  0.00     0.271 C 
BRANCH  14  15
ATOM     15  C   UNL d   1       2.874   1.106  -1.234  0.00  0.00     0.252 C 
ATOM     16  O   UNL d   1       3.395   2.069  -1.805  0.00  0.00    -0.270 OA
ATOM     17  N   UNL d   1       3.048  -0.197  -1.686  0.00  0.00    -0.292 N 
ATOM     18  H   UNL d   1       2.647  -0.991  -1.172  0.00  0.00     0.183 HD
BRANCH  17  19
ATOM     19  N   UNL d   1       3.782  -0.444  -2.864  0.00  0.00    -0.247 NA
ATOM     20  H   UNL d   1       4.347   0.397  -3.050  0.00  0.00     0.143 HD
ATOM     21  H   UNL d   1       3.120  -0.471  -3.648  0.00  0.00     0.143 HD
ENDBRANCH  17  19
ENDBRANCH  14  15
ENDBRANCH   6  14
TORSDOF 3
