REMARK  8 active torsions:
REMARK  status: ('A' for Active; 'I' for Inactive)
REMARK    1  A    between atoms: C_9  and  C_1 
REMARK    2  A    between atoms: S_2  and  N_11 
REMARK    3  A    between atoms: C_3  and  S_2 
REMARK    4  A    between atoms: C_12  and  C_4 
REMARK    5  A    between atoms: C_14  and  C_5 
REMARK    6  A    between atoms: C_17  and  N_6 
REMARK    7  A    between atoms: N_11  and  N_13 
REMARK       I    between atoms: N_13  and  C_12 
REMARK    8  A    between atoms: O_28  and  C_14 
ROOT
ATOM      1  C   UNL d   1      -0.754  -2.623  -0.066  0.00  0.00     0.274 C 
ATOM      2  N   UNL d   1       0.071  -3.721   0.046  0.00  0.00    -0.256 N 
ATOM      3  O   UNL d   1      -1.978  -2.765  -0.105  0.00  0.00    -0.266 OA
ATOM      4  H   UNL d   1       1.088  -3.679   0.103  0.00  0.00     0.191 HD
ENDROOT
BRANCH   1   5
ATOM      5  C   UNL d   1      -0.162  -1.284  -0.091  0.00  0.00     0.084 A 
ATOM      6  C   UNL d   1       1.136  -0.782  -0.236  0.00  0.00     0.157 A 
ATOM      7  N   UNL d   1       1.042   0.610  -0.193  0.00  0.00    -0.251 N 
ATOM      8  N   UNL d   1      -0.226   0.990   0.106  0.00  0.00    -0.303 N 
ATOM      9  C   UNL d   1      -0.942  -0.124   0.088  0.00  0.00     0.127 A 
ATOM     10  HN  UNL d   1      -0.558   1.934   0.304  1.00  0.00     0.186 HD
BRANCH   6  11
ATOM     11  C   UNL d   1       2.431  -1.461  -0.354  0.00  0.00     0.435 C 
ATOM     12  F   UNL d   1       2.357  -2.755   0.054  0.00  0.00    -0.165 F 
ATOM     13  F   UNL d   1       2.868  -1.501  -1.634  0.00  0.00    -0.165 F 
ATOM     14  F   UNL d   1       3.400  -0.892   0.401  0.00  0.00    -0.165 F 
ENDBRANCH   6  11
BRANCH   7  15
ATOM     15  C   UNL d   1       1.999   1.662  -0.406  0.00  0.00     0.057 A 
ATOM     16  C   UNL d   1       3.173   1.501  -1.149  0.00  0.00     0.033 A 
ATOM     17  C   UNL d   1       4.052   2.580  -1.338  0.00  0.00     0.026 A 
ATOM     18  C   UNL d   1       3.761   3.829  -0.795  0.00  0.00     0.034 A 
ATOM     19  C   UNL d   1       2.592   4.014  -0.068  0.00  0.00     0.026 A 
ATOM     20 CL   UNL d   1       4.839   5.146  -1.040  0.00  0.00    -0.084 Cl
ATOM     21  C   UNL d   1       1.713   2.941   0.117  0.00  0.00     0.033 A 
ENDBRANCH   7  15
ENDBRANCH   1   5
BRANCH   2  22
ATOM     22  N   UNL d   1      -0.545  -5.048   0.206  0.00  0.00    -0.220 N 
ATOM     23  H   UNL d   1      -1.550  -5.133   0.015  0.00  0.00     0.200 HD
BRANCH  22  24
ATOM     24  S   UNL d   1       0.423  -6.401   0.068  0.00  0.00     0.277 S 
ATOM     25  O   UNL d   1       0.763  -6.545  -1.331  0.00  0.00    -0.199 OA
ATOM     26  O   UNL d   1       1.463  -6.261   1.068  0.00  0.00    -0.199 OA
BRANCH  24  27
ATOM     27  C   UNL d   1      -0.300  -7.932   0.456  0.00  0.00     0.104 A 
ATOM     28  C   UNL d   1      -1.621  -8.309   0.670  0.00  0.00     0.103 A 
ATOM     29  S   UNL d   1      -1.711 -10.024   0.975  0.00  0.00    -0.094 SA
ATOM     30  C   UNL d   1      -0.041 -10.248   0.806  0.00  0.00     0.052 A 
ATOM     31  C   UNL d   1       0.596  -9.066   0.533  0.00  0.00     0.034 A 
BRANCH  28  32
ATOM     32  C   UNL d   1      -2.912  -7.640   0.697  0.00  0.00     0.301 C 
ATOM     33  O   UNL d   1      -3.989  -8.182   0.913  0.00  0.00    -0.259 OA
BRANCH  32  34
ATOM     34  O   UNL d   1      -2.804  -6.304   0.455  0.00  0.00    -0.322 OA
ATOM     35  C   UNL d   1      -4.069  -5.628   0.541  0.00  0.00     0.213 C 
ENDBRANCH  32  34
ENDBRANCH  28  32
ENDBRANCH  24  27
ENDBRANCH  22  24
ENDBRANCH   2  22
TORSDOF 8
