REMARK  7 active torsions:
REMARK  status: ('A' for Active; 'I' for Inactive)
REMARK    1  A    between atoms: C_14  and  N_2 
REMARK    2  A    between atoms: C_6  and  O_12 
REMARK    3  A    between atoms: C_8  and  O_21 
REMARK    4  A    between atoms: C_11  and  C_8 
REMARK    5  A    between atoms: O_12  and  C_20 
REMARK    6  A    between atoms: C_24  and  C_14 
REMARK    7  A    between atoms: O_21  and  C_24 
ROOT
ATOM      1  O   UNL d   1       6.015  -1.199  -0.134  0.00  0.00    -0.316 OA
ENDROOT
BRANCH   1   2
ATOM      2  C   UNL d   1       6.611  -1.474  -1.317  0.00  0.00     0.293 C 
ATOM      3  O   UNL d   1       6.540  -0.807  -2.339  0.00  0.00    -0.259 OA
BRANCH   2   4
ATOM      4  C   UNL d   1       7.197  -2.835  -1.274  0.00  0.00     0.039 A 
ATOM      5  C   UNL d   1       7.576  -3.455  -0.081  0.00  0.00     0.020 A 
ATOM      6  C   UNL d   1       8.064  -4.764  -0.109  0.00  0.00     0.038 A 
ATOM      7  C   UNL d   1       8.162  -5.475  -1.312  0.00  0.00     0.078 A 
ATOM      8  C   UNL d   1       7.806  -4.846  -2.504  0.00  0.00     0.038 A 
ATOM      9  C   UNL d   1       7.315  -3.535  -2.482  0.00  0.00     0.020 A 
BRANCH   7  10
ATOM     10  O   UNL d   1       8.658  -6.734  -1.176  0.00  0.00    -0.255 OA
BRANCH  10  11
ATOM     11  C   UNL d   1       8.339  -7.739  -2.126  0.00  0.00     0.530 C 
ATOM     12  F   UNL d   1       7.322  -7.418  -2.951  0.00  0.00    -0.144 F 
ATOM     13  F   UNL d   1       9.432  -8.025  -2.865  0.00  0.00    -0.144 F 
ATOM     14  F   UNL d   1       7.983  -8.857  -1.452  0.00  0.00    -0.144 F 
ENDBRANCH  10  11
ENDBRANCH   7  10
ENDBRANCH   2   4
ENDBRANCH   1   2
BRANCH   1  15
ATOM     15  C   UNL d   1       4.840  -0.369  -0.225  0.00  0.00     0.201 C 
BRANCH  15  16
ATOM     16  C   UNL d   1       3.642  -1.313  -0.266  0.00  0.00     0.179 C 
BRANCH  16  17
ATOM     17  N   UNL d   1       2.358  -0.638  -0.334  0.00  0.00    -0.255 N 
ATOM     18  C   UNL d   1       1.706  -0.283   0.846  0.00  0.00     0.273 A 
ATOM     19  C   UNL d   1       0.342   0.251   0.703  0.00  0.00     0.045 A 
ATOM     20  O   UNL d   1       2.192  -0.416   1.968  0.00  0.00    -0.266 OA
ATOM     21  C   UNL d   1      -0.182   0.418  -0.571  0.00  0.00    -0.004 A 
ATOM     22  C   UNL d   1      -0.442   0.557   1.819  0.00  0.00     0.018 A 
ATOM     23  C   UNL d   1       0.664   0.073  -1.704  0.00  0.00     0.119 A 
ATOM     24  C   UNL d   1      -1.486   0.881  -0.760  0.00  0.00     0.014 A 
ATOM     25  N   UNL d   1       1.852  -0.427  -1.597  0.00  0.00    -0.306 N 
ATOM     26  HN  UNL d   1       2.399  -0.659  -2.426  1.00  0.00     0.186 HD
ATOM     27  C   UNL d   1      -2.270   1.179   0.356  0.00  0.00     0.001 A 
ATOM     28  C   UNL d   1      -1.748   1.019   1.642  0.00  0.00     0.001 A 
ENDBRANCH  16  17
ENDBRANCH  15  16
ENDBRANCH   1  15
TORSDOF 7
