REMARK  2 active torsions:
REMARK  status: ('A' for Active; 'I' for Inactive)
REMARK    1  A    between atoms: C_9  and  C_7 
REMARK    2  A    between atoms: O_17  and  C_8 
ROOT
ATOM      1  C   UNL d   1       1.616  -0.021   0.589  0.00  0.00     0.101 A 
ATOM      2  N   UNL d   1      -0.388   1.319   0.767  0.00  0.00    -0.299 N 
ATOM      3  N   UNL d   1      -0.445  -0.881   1.503  0.00  0.00    -0.299 N 
ATOM      4  C   UNL d   1       0.922   1.275   0.369  0.00  0.00     0.263 A 
ATOM      5  C   UNL d   1       0.848  -1.166   1.153  0.00  0.00     0.263 A 
ATOM      6  C   UNL d   1      -1.091   0.302   1.334  0.00  0.00     0.181 A 
ATOM      7  C   UNL d   1       2.922  -0.070   0.262  0.00  0.00     0.034 C 
ATOM      8  S   UNL d   1      -2.674   0.499   1.799  0.00  0.00    -0.040 SA
ATOM      9  O   UNL d   1       1.286  -2.297   1.315  0.00  0.00    -0.267 OA
ATOM     10  O   UNL d   1       1.459   2.260  -0.130  0.00  0.00    -0.267 OA
ATOM     11  H   UNL d   1      -0.862   2.201   0.623  0.00  0.00     0.171 HD
ATOM     12  H   UNL d   1      -0.964  -1.654   1.901  0.00  0.00     0.171 HD
ENDROOT
BRANCH   7  13
ATOM     13  C   UNL d   1       3.796  -1.238   0.382  0.00  0.00    -0.034 A 
ATOM     14  C   UNL d   1       3.913  -2.128  -0.686  0.00  0.00     0.021 A 
ATOM     15  C   UNL d   1       4.693  -3.285  -0.564  0.00  0.00    -0.028 A 
ATOM     16  C   UNL d   1       4.763  -4.261  -1.705  0.00  0.00     0.051 C 
ATOM     17  C   UNL d   1       5.376  -3.531   0.640  0.00  0.00     0.077 A 
ATOM     18  C   UNL d   1       5.286  -2.642   1.721  0.00  0.00    -0.028 A 
ATOM     19  C   UNL d   1       4.487  -1.492   1.571  0.00  0.00     0.021 A 
ATOM     20  C   UNL d   1       5.964  -2.830   3.049  0.00  0.00     0.051 C 
BRANCH  17  21
ATOM     21  O   UNL d   1       6.117  -4.681   0.682  0.00  0.00    -0.360 OA
ATOM     22  H   UNL d   1       6.489  -4.807   1.565  0.00  0.00     0.217 HD
ENDBRANCH  17  21
ENDBRANCH   7  13
TORSDOF 2
