REMARK  7 active torsions:
REMARK  status: ('A' for Active; 'I' for Inactive)
REMARK    1  A    between atoms: C_7  and  C_18 
REMARK    2  A    between atoms: C_17  and  C_8 
REMARK    3  A    between atoms: C_21  and  C_17 
REMARK    4  A    between atoms: C_18  and  C_22 
REMARK    5  A    between atoms: C_24  and  C_21 
REMARK    6  A    between atoms: C_22  and  C_23 
REMARK    7  A    between atoms: C_23  and  C_24 
ROOT
ATOM      1  C   UNL d   1       5.993   2.514  -0.298  0.00  0.00     0.000 C 
ENDROOT
BRANCH   1   2
ATOM      2  C   UNL d   1       6.991   3.669  -0.353  0.00  0.00     0.005 C 
BRANCH   2   3
ATOM      3  C   UNL d   1       8.436   3.169  -0.394  0.00  0.00     0.043 C 
BRANCH   3   4
ATOM      4  C   UNL d   1       9.426   4.302  -0.397  0.00  0.00    -0.004 A 
ATOM      5  C   UNL d   1       9.909   4.826   0.738  0.00  0.00     0.066 A 
ATOM      6  C   UNL d   1      10.911   5.908   0.761  0.00  0.00     0.178 A 
ATOM      7  O   UNL d   1      11.288   6.376   1.827  0.00  0.00    -0.288 OA
ATOM      8  C   UNL d   1      11.443   6.379  -0.540  0.00  0.00    -0.008 A 
ATOM      9  C   UNL d   1      10.964   5.861  -1.683  0.00  0.00     0.066 A 
ATOM     10  C   UNL d   1      12.510   7.427  -0.493  0.00  0.00     0.052 C 
ATOM     11  C   UNL d   1       9.911   4.823  -1.704  0.00  0.00     0.178 A 
ATOM     12  O   UNL d   1       9.473   4.418  -2.773  0.00  0.00    -0.288 OA
ENDBRANCH   3   4
ENDBRANCH   2   3
ENDBRANCH   1   2
BRANCH   1  13
ATOM     13  C   UNL d   1       4.558   3.043  -0.274  0.00  0.00     0.000 C 
BRANCH  13  14
ATOM     14  C   UNL d   1       3.566   1.883  -0.215  0.00  0.00     0.005 C 
BRANCH  14  15
ATOM     15  C   UNL d   1       2.117   2.372  -0.167  0.00  0.00     0.043 C 
BRANCH  15  16
ATOM     16  C   UNL d   1       1.112   1.248  -0.168  0.00  0.00    -0.004 A 
ATOM     17  C   UNL d   1       0.213   1.109  -1.151  0.00  0.00     0.066 A 
ATOM     18  C   UNL d   1      -0.786   0.024  -1.182  0.00  0.00     0.178 A 
ATOM     19  C   UNL d   1      -0.747  -0.977  -0.090  0.00  0.00    -0.008 A 
ATOM     20  O   UNL d   1      -1.604  -0.035  -2.092  0.00  0.00    -0.288 OA
ATOM     21  C   UNL d   1       0.140  -0.840   0.904  0.00  0.00     0.066 A 
ATOM     22  C   UNL d   1      -1.728  -2.103  -0.172  0.00  0.00     0.052 C 
ATOM     23  C   UNL d   1       1.097   0.287   0.969  0.00  0.00     0.178 A 
ATOM     24  O   UNL d   1       1.840   0.396   1.937  0.00  0.00    -0.288 OA
ENDBRANCH  15  16
ENDBRANCH  14  15
ENDBRANCH  13  14
ENDBRANCH   1  13
TORSDOF 7
