REMARK  1 active torsions:
REMARK  status: ('A' for Active; 'I' for Inactive)
REMARK    1  A    between atoms: C_8  and  C_7 
ROOT
ATOM      1  C   UNL d   1      -1.264   0.119  -0.092  0.00  0.00     0.116 C 
ATOM      2  C   UNL d   1      -0.525   1.335   0.275  0.00  0.00     0.302 C 
ATOM      3  C   UNL d   1      -0.657  -1.183   0.203  0.00  0.00     0.302 C 
ATOM      4  O   UNL d   1       0.817   1.212   0.244  0.00  0.00    -0.280 OA
ATOM      5  O   UNL d   1       0.689  -1.170   0.316  0.00  0.00    -0.280 OA
ATOM      6  C   UNL d   1       1.397  -0.025  -0.166  0.00  0.00     0.175 C 
ATOM      7  C   UNL d   1      -2.452   0.113  -0.727  0.00  0.00     0.053 C 
ATOM      8  O   UNL d   1      -1.058   2.373   0.643  0.00  0.00    -0.259 OA
ATOM      9  O   UNL d   1      -1.305  -2.213   0.338  0.00  0.00    -0.259 OA
ATOM     10  C   UNL d   1       1.536  -0.080  -1.691  0.00  0.00     0.080 C 
ATOM     11  C   UNL d   1       2.787  -0.068   0.469  0.00  0.00     0.080 C 
ENDROOT
BRANCH   7  12
ATOM     12  C   UNL d   1      -3.063   1.289  -1.218  0.00  0.00     0.033 A 
ATOM     13  N   UNL d   1      -3.898   2.007  -0.397  0.00  0.00    -0.366 N 
ATOM     14  C   UNL d   1      -4.334   3.128  -1.057  0.00  0.00     0.088 A 
ATOM     15  H   UNL d   1      -4.114   1.781   0.566  0.00  0.00     0.165 HD
ATOM     16  C   UNL d   1      -3.793   3.114  -2.323  0.00  0.00     0.019 A 
ATOM     17  C   UNL d   1      -3.005   1.943  -2.432  0.00  0.00     0.031 A 
ENDBRANCH   7  12
TORSDOF 1
