REMARK  16 active torsions:
REMARK  status: ('A' for Active; 'I' for Inactive)
REMARK    1  A    between atoms: C_2  and  C_1 
REMARK    2  A    between atoms: C_4  and  C_1 
REMARK    3  A    between atoms: C_1  and  O_6 
REMARK    4  A    between atoms: C_2  and  O_7 
REMARK    5  A    between atoms: C_3  and  C_2 
REMARK    6  A    between atoms: C_3  and  O_9 
REMARK    7  A    between atoms: C_3  and  C_5 
REMARK       I    between atoms: N_8  and  C_4 
REMARK    8  A    between atoms: C_5  and  O_10 
REMARK    9  A    between atoms: C_17  and  C_5 
REMARK   10  A    between atoms: C_12  and  O_6 
REMARK   11  A    between atoms: C_11  and  O_7 
REMARK   12  A    between atoms: C_24  and  N_8 
REMARK   13  A    between atoms: C_13  and  O_9 
REMARK   14  A    between atoms: C_14  and  O_10 
REMARK   15  A    between atoms: C_15  and  O_18 
REMARK   16  A    between atoms: O_18  and  C_17 
ROOT
ATOM      1  C   UNL d   1      -1.651  -2.664   0.251  0.00  0.00     0.202 C 
ENDROOT
BRANCH   1   2
ATOM      2  C   UNL d   1      -0.715  -3.796  -0.230  0.00  0.00     0.256 C 
BRANCH   2   3
ATOM      3  C   UNL d   1      -0.500  -3.854  -1.752  0.00  0.00     0.254 C 
ATOM      4  N   UNL d   1       0.462  -3.003  -2.262  0.00  0.00    -0.325 N 
ATOM      5  H   UNL d   1       0.807  -2.240  -1.692  0.00  0.00     0.169 HD
ATOM      6  O   UNL d   1      -1.183  -4.605  -2.450  0.00  0.00    -0.270 OA
BRANCH   4   7
ATOM      7  C   UNL d   1       0.904  -3.018  -3.600  0.00  0.00     0.034 A 
ATOM      8  C   UNL d   1       1.186  -1.792  -4.201  0.00  0.00     0.031 A 
ATOM      9  C   UNL d   1       1.715  -1.726  -5.490  0.00  0.00     0.021 A 
ATOM     10  C   UNL d   1       1.986  -2.903  -6.177  0.00  0.00     0.011 A 
ATOM     11  C   UNL d   1       1.694  -4.138  -5.598  0.00  0.00     0.021 A 
ATOM     12 BR   UNL d   1       2.758  -2.820  -7.900  0.00  0.00    -0.051 Br
ATOM     13  C   UNL d   1       1.134  -4.195  -4.314  0.00  0.00     0.031 A 
ENDBRANCH   4   7
ENDBRANCH   2   3
BRANCH   2  14
ATOM     14  O   UNL d   1       0.568  -3.840   0.413  0.00  0.00    -0.304 OA
BRANCH  14  15
ATOM     15  C   UNL d   1       0.564  -4.424   1.644  0.00  0.00     0.255 C 
ATOM     16  O   UNL d   1      -0.428  -4.606   2.332  0.00  0.00    -0.266 OA
ATOM     17  C   UNL d   1       1.945  -4.829   2.058  0.00  0.00     0.126 C 
ENDBRANCH  14  15
ENDBRANCH   2  14
ENDBRANCH   1   2
BRANCH   1  18
ATOM     18  O   UNL d   1      -2.903  -2.736  -0.497  0.00  0.00    -0.310 OA
BRANCH  18  19
ATOM     19  C   UNL d   1      -3.842  -3.608  -0.050  0.00  0.00     0.255 C 
ATOM     20  O   UNL d   1      -3.713  -4.361   0.906  0.00  0.00    -0.266 OA
ATOM     21  C   UNL d   1      -5.104  -3.451  -0.842  0.00  0.00     0.126 C 
ENDBRANCH  18  19
ENDBRANCH   1  18
BRANCH   1  22
ATOM     22  C   UNL d   1      -1.210  -1.178   0.150  0.00  0.00     0.196 C 
BRANCH  22  23
ATOM     23  O   UNL d   1      -2.270  -0.452   0.843  0.00  0.00    -0.311 OA
BRANCH  23  24
ATOM     24  C   UNL d   1      -2.957   0.509   0.185  0.00  0.00     0.255 C 
ATOM     25  O   UNL d   1      -2.783   0.833  -0.978  0.00  0.00    -0.266 OA
ATOM     26  C   UNL d   1      -4.000   1.091   1.096  0.00  0.00     0.126 C 
ENDBRANCH  23  24
ENDBRANCH  22  23
BRANCH  22  27
ATOM     27  C   UNL d   1       0.110  -0.816   0.869  0.00  0.00     0.188 C 
BRANCH  27  28
ATOM     28  O   UNL d   1       0.037  -1.220   2.270  0.00  0.00    -0.311 OA
BRANCH  28  29
ATOM     29  C   UNL d   1      -0.642  -0.459   3.174  0.00  0.00     0.255 C 
ATOM     30  O   UNL d   1      -0.951   0.714   3.041  0.00  0.00    -0.266 OA
ATOM     31  C   UNL d   1      -1.003  -1.257   4.387  0.00  0.00     0.126 C 
ENDBRANCH  28  29
ENDBRANCH  27  28
BRANCH  27  32
ATOM     32  C   UNL d   1       0.577   0.643   0.660  0.00  0.00     0.213 C 
BRANCH  32  33
ATOM     33  O   UNL d   1       0.656   1.099  -0.703  0.00  0.00    -0.319 OA
BRANCH  33  34
ATOM     34  C   UNL d   1       1.656   0.611  -1.472  0.00  0.00     0.254 C 
ATOM     35  O   UNL d   1       2.268  -0.421  -1.238  0.00  0.00    -0.266 OA
ATOM     36  C   UNL d   1       1.924   1.528  -2.633  0.00  0.00     0.126 C 
ENDBRANCH  33  34
ENDBRANCH  32  33
ENDBRANCH  27  32
ENDBRANCH  22  27
ENDBRANCH   1  22
TORSDOF 16
