REMARK  11 active torsions:
REMARK  status: ('A' for Active; 'I' for Inactive)
REMARK    1  A    between atoms: C_7  and  C_1 
REMARK    2  A    between atoms: N_5  and  C_2 
REMARK    3  A    between atoms: S_10  and  C_2 
REMARK    4  A    between atoms: C_3  and  C_4 
REMARK    5  A    between atoms: C_6  and  N_5 
REMARK    6  A    between atoms: O_18  and  C_7 
REMARK    7  A    between atoms: C_17  and  S_10 
REMARK    8  A    between atoms: C_11  and  C_17 
REMARK    9  A    between atoms: O_19  and  C_11 
REMARK   10  A    between atoms: C_22  and  O_18 
REMARK   11  A    between atoms: C_23  and  O_19 
ROOT
ATOM      1  C   UNL d   1       0.873  -0.054  -0.001  0.00  0.00     0.153 C 
ATOM      2  C   UNL d   1       0.182   0.973   0.565  0.00  0.00     0.098 C 
ATOM      3  C   UNL d   1       0.159  -1.208  -0.456  0.00  0.00     0.108 C 
ATOM      4  N   UNL d   1      -0.441  -2.127  -0.829  0.00  0.00    -0.191 NA
ENDROOT
BRANCH   1   5
ATOM      5  C   UNL d   1       2.361  -0.108  -0.145  0.00  0.00     0.306 C 
ATOM      6  O   UNL d   1       3.173   0.533   0.500  0.00  0.00    -0.258 OA
BRANCH   5   7
ATOM      7  O   UNL d   1       2.695  -1.003  -1.119  0.00  0.00    -0.317 OA
BRANCH   7   8
ATOM      8  C   UNL d   1       4.097  -1.163  -1.397  0.00  0.00     0.174 C 
ATOM      9  C   UNL d   1       4.735  -2.131  -0.416  0.00  0.00     0.034 C 
ENDBRANCH   7   8
ENDBRANCH   5   7
ENDBRANCH   1   5
BRANCH   2  10
ATOM     10  N   UNL d   1      -1.204   0.922   0.780  0.00  0.00    -0.349 N 
ATOM     11  H   UNL d   1      -1.741   0.577  -0.019  0.00  0.00     0.166 HD
BRANCH  10  12
ATOM     12  C   UNL d   1      -1.831   0.653   2.030  0.00  0.00     0.048 A 
ATOM     13  C   UNL d   1      -3.236   0.708   2.169  0.00  0.00     0.074 A 
ATOM     14  C   UNL d   1      -3.822   0.551   3.448  0.00  0.00     0.018 A 
ATOM     15  C   UNL d   1      -3.042   0.340   4.580  0.00  0.00     0.001 A 
ATOM     16  C   UNL d   1      -1.663   0.276   4.452  0.00  0.00     0.002 A 
ATOM     17  C   UNL d   1      -1.068   0.444   3.197  0.00  0.00     0.030 A 
BRANCH  13  18
ATOM     18  C   UNL d   1      -4.186   0.919   1.017  0.00  0.00     0.419 C 
ATOM     19  F   UNL d   1      -3.587   1.086  -0.195  0.00  0.00    -0.166 F 
ATOM     20  F   UNL d   1      -5.033  -0.139   0.856  0.00  0.00    -0.166 F 
ATOM     21  F   UNL d   1      -4.990   2.005   1.192  0.00  0.00    -0.166 F 
ENDBRANCH  13  18
ENDBRANCH  10  12
ENDBRANCH   2  10
BRANCH   2  22
ATOM     22  S   UNL d   1       0.969   2.489   1.061  0.00  0.00    -0.101 SA
BRANCH  22  23
ATOM     23  C   UNL d   1       1.587   3.175  -0.498  0.00  0.00     0.191 C 
BRANCH  23  24
ATOM     24  C   UNL d   1       0.527   3.387  -1.553  0.00  0.00     0.268 C 
ATOM     25  O   UNL d   1      -0.169   2.498  -2.029  0.00  0.00    -0.264 OA
BRANCH  24  26
ATOM     26  O   UNL d   1       0.580   4.673  -2.008  0.00  0.00    -0.321 OA
BRANCH  26  27
ATOM     27  C   UNL d   1      -0.068   4.938  -3.263  0.00  0.00     0.174 C 
ATOM     28  C   UNL d   1       0.957   4.759  -4.370  0.00  0.00     0.034 C 
ENDBRANCH  26  27
ENDBRANCH  24  26
ENDBRANCH  23  24
ENDBRANCH  22  23
ENDBRANCH   2  22
TORSDOF 11
