REMARK  3 active torsions:
REMARK  status: ('A' for Active; 'I' for Inactive)
REMARK    1  A    between atoms: C_4  and  N_1 
REMARK    2  A    between atoms: N_6  and  C_4 
REMARK    3  A    between atoms: C_9  and  N_6 
ROOT
ATOM      1  N   UNL d   1       1.449  -2.952  -0.230  0.00  0.00    -0.275 NA
ATOM      2  H   UNL d   1       2.248  -2.565   0.267  0.00  0.00     0.129 HD
ENDROOT
BRANCH   1   3
ATOM      3  C   UNL d   1       0.232  -2.266   0.183  0.00  0.00     0.228 C 
BRANCH   3   4
ATOM      4  N   UNL d   1       0.394  -0.852  -0.062  0.00  0.00    -0.280 N 
ATOM      5  C   UNL d   1       0.099  -0.161  -1.202  0.00  0.00     0.178 A 
ATOM      6  N   UNL d   1       0.308   1.184  -0.965  0.00  0.00    -0.358 N 
ATOM      7  S   UNL d   1      -0.447  -0.706  -2.667  0.00  0.00    -0.041 SA
ATOM      8  C   UNL d   1       0.735   1.433   0.384  0.00  0.00     0.225 A 
ATOM      9  H   UNL d   1       0.132   1.891  -1.669  0.00  0.00     0.162 HD
ATOM     10  C   UNL d   1       0.770   0.017   0.933  0.00  0.00     0.244 A 
ATOM     11  O   UNL d   1       1.069  -0.275   2.083  0.00  0.00    -0.271 OA
ENDBRANCH   3   4
ENDBRANCH   1   3
BRANCH   1  12
ATOM     12  C   UNL d   1       1.475  -4.355  -0.096  0.00  0.00     0.015 A 
ATOM     13  C   UNL d   1       2.322  -5.113  -0.931  0.00  0.00    -0.039 A 
ATOM     14  C   UNL d   1       2.398  -6.512  -0.771  0.00  0.00     0.032 A 
ATOM     15  C   UNL d   1       3.093  -4.500  -2.071  0.00  0.00     0.050 C 
ATOM     16  C   UNL d   1       1.688  -7.148   0.241  0.00  0.00     0.034 A 
ATOM     17  C   UNL d   1       0.898  -6.407   1.107  0.00  0.00     0.026 A 
ATOM     18 CL   UNL d   1       1.798  -8.854   0.430  0.00  0.00    -0.084 Cl
ATOM     19  C   UNL d   1       0.803  -5.021   0.944  0.00  0.00     0.026 A 
ENDBRANCH   1  12
TORSDOF 3
