REMARK  4 active torsions:
REMARK  status: ('A' for Active; 'I' for Inactive)
REMARK    1  A    between atoms: C_3  and  N_1 
REMARK    2  A    between atoms: C_2  and  C_4 
REMARK    3  A    between atoms: C_4  and  C_15 
REMARK    4  A    between atoms: N_5  and  C_7 
ROOT
ATOM      1  N   UNL d   1      -2.315   2.885   3.458  0.00  0.00    -0.367 N 
ATOM      2  C   UNL d   1      -4.953   3.507   4.458  0.00  0.00     0.064 C 
ATOM      3  C   UNL d   1      -2.978   4.066   2.915  0.00  0.00     0.125 C 
ATOM      4  C   UNL d   1      -2.640   2.503   4.821  0.00  0.00     0.125 C 
ATOM      5  C   UNL d   1      -4.148   2.296   4.939  0.00  0.00     0.032 C 
ATOM      6  C   UNL d   1      -4.495   3.937   3.053  0.00  0.00     0.032 C 
ENDROOT
BRANCH   1   7
ATOM      7  C   UNL d   1      -1.436   2.179   2.673  0.00  0.00     0.103 A 
ATOM      8  C   UNL d   1      -0.339   1.510   3.223  0.00  0.00     0.051 A 
ATOM      9  C   UNL d   1       0.534   0.787   2.408  0.00  0.00     0.041 A 
ATOM     10  C   UNL d   1       0.280   0.743   1.042  0.00  0.00     0.118 A 
ATOM     11  C   UNL d   1      -0.815   1.426   0.550  0.00  0.00     0.125 A 
ATOM     12  N   UNL d   1      -1.656   2.142   1.338  0.00  0.00    -0.350 N 
ATOM     13  HN  UNL d   1      -2.444   2.644   0.930  1.00  0.00     0.166 HD
BRANCH  10  14
ATOM     14  N   UNL d   1       1.146   0.003   0.138  0.00  0.00    -0.114 N 
ATOM     15  O   UNL d   1       0.845  -0.015  -1.063  0.00  0.00    -0.532 OA
ATOM     16  O   UNL d   1       2.132  -0.567   0.625  0.00  0.00    -0.532 OA
ENDBRANCH  10  14
ENDBRANCH   1   7
BRANCH   2  17
ATOM     17  C   UNL d   1      -4.868   4.663   5.455  0.00  0.00     0.166 C 
ATOM     18  O   UNL d   1      -3.957   5.489   5.424  0.00  0.00    -0.292 OA
BRANCH  17  19
ATOM     19  C   UNL d   1      -5.921   4.838   6.494  0.00  0.00     0.049 A 
ATOM     20  C   UNL d   1      -6.691   3.786   6.993  0.00  0.00     0.133 A 
ATOM     21  C   UNL d   1      -7.652   4.002   7.976  0.00  0.00     0.085 A 
ATOM     22  F   UNL d   1      -6.523   2.530   6.563  0.00  0.00    -0.205 F 
ATOM     23  C   UNL d   1      -7.854   5.288   8.457  0.00  0.00     0.119 A 
ATOM     24  C   UNL d   1      -7.102   6.356   7.981  0.00  0.00     0.043 A 
ATOM     25  F   UNL d   1      -8.786   5.502   9.393  0.00  0.00    -0.206 F 
ATOM     26  C   UNL d   1      -6.128   6.131   7.004  0.00  0.00     0.021 A 
ENDBRANCH  17  19
ENDBRANCH   2  17
TORSDOF 4
