REMARK  5 active torsions:
REMARK  status: ('A' for Active; 'I' for Inactive)
REMARK    1  A    between atoms: S_2  and  C_1 
REMARK    2  A    between atoms: C_10  and  S_2 
REMARK    3  A    between atoms: C_7  and  C_3 
REMARK    4  A    between atoms: N_11  and  C_4 
REMARK    5  A    between atoms: O_13  and  C_7 
ROOT
ATOM      1  C   UNL d   1      -0.667  -1.219   0.008  0.00  0.00     0.098 A 
ATOM      2  C   UNL d   1      -0.283   1.093  -0.026  0.00  0.00     0.107 A 
ATOM      3  C   UNL d   1      -1.242   0.090   0.018  0.00  0.00     0.071 A 
ATOM      4  S   UNL d   1       1.302   0.420  -0.088  0.00  0.00    -0.092 SA
ATOM      5  C   UNL d   1       0.710  -1.178  -0.048  0.00  0.00     0.076 A 
ENDROOT
BRANCH   1   6
ATOM      6  S   UNL d   1      -1.543  -2.718   0.037  0.00  0.00     0.209 S 
ATOM      7  O   UNL d   1      -0.665  -3.631   0.743  0.00  0.00    -0.217 OA
ATOM      8  O   UNL d   1      -2.872  -2.399   0.524  0.00  0.00    -0.217 OA
BRANCH   6   9
ATOM      9  C   UNL d   1      -1.670  -3.231  -1.653  0.00  0.00     0.064 A 
ATOM     10  C   UNL d   1      -1.076  -4.430  -2.060  0.00  0.00     0.024 A 
ATOM     11  C   UNL d   1      -1.193  -4.837  -3.389  0.00  0.00     0.002 A 
ATOM     12  C   UNL d   1      -1.901  -4.053  -4.301  0.00  0.00     0.000 A 
ATOM     13  C   UNL d   1      -2.499  -2.861  -3.888  0.00  0.00     0.002 A 
ATOM     14  C   UNL d   1      -2.389  -2.446  -2.560  0.00  0.00     0.024 A 
ENDBRANCH   6   9
ENDBRANCH   1   6
BRANCH   3  15
ATOM     15  N   UNL d   1      -2.575   0.325   0.063  0.00  0.00    -0.397 N 
ATOM     16  H   UNL d   1      -2.923   1.262   0.273  0.00  0.00     0.156 HD
ATOM     17  H   UNL d   1      -3.210  -0.406   0.403  0.00  0.00     0.156 HD
ENDBRANCH   3  15
BRANCH   2  18
ATOM     18  C   UNL d   1      -0.401   2.544  -0.023  0.00  0.00     0.302 C 
ATOM     19  O   UNL d   1       0.524   3.347  -0.102  0.00  0.00    -0.259 OA
BRANCH  18  20
ATOM     20  O   UNL d   1      -1.713   2.920   0.087  0.00  0.00    -0.322 OA
ATOM     21  C   UNL d   1      -1.921   4.333   0.076  0.00  0.00     0.213 C 
ENDBRANCH  18  20
ENDBRANCH   2  18
TORSDOF 5
