REMARK  2 active torsions:
REMARK  status: ('A' for Active; 'I' for Inactive)
REMARK       I    between atoms: C_3  and  N_1 
REMARK       I    between atoms: C_4  and  N_2 
REMARK    1  A    between atoms: C_12  and  C_3 
REMARK    2  A    between atoms: C_11  and  C_4 
ROOT
ATOM      1  N   UNL d   1      -1.183   0.599   0.504  0.00  0.00    -0.349 N 
ATOM      2  N   UNL d   1       1.524   0.435  -0.451  0.00  0.00    -0.349 N 
ATOM      3  C   UNL d   1      -2.388   0.520   1.194  0.00  0.00     0.224 C 
ATOM      4  C   UNL d   1       2.522   0.225  -1.397  0.00  0.00     0.224 C 
ATOM      5  C   UNL d   1       0.874  -0.732   0.155  0.00  0.00     0.145 C 
ATOM      6  C   UNL d   1       1.021   1.718   0.077  0.00  0.00     0.145 C 
ATOM      7  C   UNL d   1      -0.640  -0.654  -0.049  0.00  0.00     0.145 C 
ATOM      8  C   UNL d   1      -0.525   1.811  -0.014  0.00  0.00     0.145 C 
ATOM      9  O   UNL d   1      -2.894  -0.575   1.438  0.00  0.00    -0.273 OA
ATOM     10  O   UNL d   1       2.837  -0.914  -1.750  0.00  0.00    -0.273 OA
ENDROOT
BRANCH   3  11
ATOM     11  C   UNL d   1      -3.098   1.810   1.651  0.00  0.00     0.078 C 
ATOM     12  C   UNL d   1      -2.378   2.549   2.783  0.00  0.00     0.014 C 
ATOM     13  C   UNL d   1      -2.426   1.789   4.102  0.00  0.00     0.001 C 
ATOM     14  C   UNL d   1      -3.851   1.478   4.543  0.00  0.00     0.000 C 
ATOM     15  C   UNL d   1      -4.708   0.855   3.447  0.00  0.00     0.001 C 
ATOM     16  C   UNL d   1      -4.556   1.531   2.079  0.00  0.00     0.014 C 
ENDBRANCH   3  11
BRANCH   4  17
ATOM     17  C   UNL d   1       3.219   1.445  -2.012  0.00  0.00     0.078 C 
ATOM     18  C   UNL d   1       2.300   2.191  -2.989  0.00  0.00     0.014 C 
ATOM     19  C   UNL d   1       2.227   1.554  -4.373  0.00  0.00     0.001 C 
ATOM     20  C   UNL d   1       3.608   1.379  -4.985  0.00  0.00     0.000 C 
ATOM     21  C   UNL d   1       4.505   0.545  -4.082  0.00  0.00     0.001 C 
ATOM     22  C   UNL d   1       4.577   1.092  -2.656  0.00  0.00     0.014 C 
ENDBRANCH   4  17
TORSDOF 2
