REMARK  1 active torsions:
REMARK  status: ('A' for Active; 'I' for Inactive)
REMARK    1  A    between atoms: C_7  and  C_3 
ROOT
ATOM      1  N   UNL d   1       1.634  -1.203   0.019  0.00  0.00    -0.334 N 
ATOM      2  HN  UNL d   1       1.972  -2.165  -0.002  1.00  0.00     0.168 HD
ATOM      3  C   UNL d   1       2.344  -0.088   0.049  0.00  0.00     0.159 A 
ATOM      4  O   UNL d   1       1.596   1.064   0.076  0.00  0.00    -0.291 OA
ATOM      5  C   UNL d   1       0.335  -0.762   0.022  0.00  0.00     0.069 A 
ATOM      6  C   UNL d   1       0.307   0.621   0.054  0.00  0.00     0.104 A 
ATOM      7  C   UNL d   1      -0.876  -1.465  -0.004  0.00  0.00     0.039 A 
ATOM      8  C   UNL d   1      -0.849   1.390   0.056  0.00  0.00     0.040 A 
ATOM      9  C   UNL d   1      -2.079  -0.734   0.003  0.00  0.00    -0.060 A 
ATOM     10  C   UNL d   1      -2.053   0.674   0.028  0.00  0.00     0.009 A 
ATOM     11  C   UNL d   1      -3.399  -1.450  -0.012  0.00  0.00     0.048 C 
ENDROOT
BRANCH   3  12
ATOM     12  C   UNL d   1       3.796   0.072   0.029  0.00  0.00     0.016 A 
ATOM     13  C   UNL d   1       4.406   1.335   0.119  0.00  0.00     0.022 A 
ATOM     14  C   UNL d   1       5.801   1.469   0.076  0.00  0.00    -0.061 A 
ATOM     15  C   UNL d   1       6.446   2.822   0.146  0.00  0.00     0.048 C 
ATOM     16  C   UNL d   1       6.594   0.324  -0.058  0.00  0.00     0.007 A 
ATOM     17  C   UNL d   1       6.003  -0.936  -0.142  0.00  0.00     0.002 A 
ATOM     18  C   UNL d   1       4.613  -1.060  -0.097  0.00  0.00     0.016 A 
ENDBRANCH   3  12
TORSDOF 1
