REMARK  5 active torsions:
REMARK  status: ('A' for Active; 'I' for Inactive)
REMARK    1  A    between atoms: C_6  and  C_1 
REMARK    2  A    between atoms: N_9  and  C_6 
REMARK    3  A    between atoms: C_13  and  N_9 
REMARK    4  A    between atoms: C_10  and  C_14 
REMARK    5  A    between atoms: C_14  and  C_13 
ROOT
ATOM      1  C   UNL d   1       0.204  -0.462  -0.622  0.00  0.00     0.139 C 
ATOM      2  C   UNL d   1       1.228   0.349  -0.064  0.00  0.00     0.112 C 
ATOM      3  C   UNL d   1      -0.902   0.167  -1.264  0.00  0.00     0.112 C 
ATOM      4  N   UNL d   1       2.074   0.995   0.402  0.00  0.00    -0.191 NA
ATOM      5  N   UNL d   1      -1.805   0.663  -1.796  0.00  0.00    -0.191 NA
ENDROOT
BRANCH   1   6
ATOM      6  C   UNL d   1       0.269  -1.807  -0.577  0.00  0.00     0.117 C 
BRANCH   6   7
ATOM      7  N   UNL d   1       1.244  -2.633  -0.055  0.00  0.00    -0.397 N 
ATOM      8  H   UNL d   1       1.988  -2.196   0.490  0.00  0.00     0.158 HD
BRANCH   7   9
ATOM      9  C   UNL d   1       1.167  -4.091   0.003  0.00  0.00     0.123 C 
BRANCH   9  10
ATOM     10  C   UNL d   1       2.573  -4.702   0.008  0.00  0.00     0.058 C 
BRANCH  10  11
ATOM     11  C   UNL d   1       2.560  -6.210   0.041  0.00  0.00    -0.054 A 
ATOM     12  C   UNL d   1       2.557  -6.960  -1.138  0.00  0.00     0.024 A 
ATOM     13  C   UNL d   1       2.558  -8.346  -1.047  0.00  0.00     0.088 A 
ATOM     14  N   UNL d   1       2.554  -9.022   0.121  0.00  0.00    -0.375 N 
ATOM     15  C   UNL d   1       2.553  -8.281   1.248  0.00  0.00     0.088 A 
ATOM     16  HN  UNL d   1       2.552 -10.042   0.150  1.00  0.00     0.164 HD
ATOM     17  C   UNL d   1       2.552  -6.894   1.260  0.00  0.00     0.024 A 
ENDBRANCH  10  11
ENDBRANCH   9  10
ENDBRANCH   7   9
ENDBRANCH   6   7
ENDBRANCH   1   6
TORSDOF 5
