REMARK  3 active torsions:
REMARK  status: ('A' for Active; 'I' for Inactive)
REMARK    1  A    between atoms: N_12  and  C_3 
REMARK    2  A    between atoms: C_15  and  N_12 
REMARK    3  A    between atoms: C_13  and  C_15 
ROOT
ATOM      1  C   UNL d   1       0.217   0.979   0.027  0.00  0.00     0.036 A 
ATOM      2  C   UNL d   1      -0.024  -0.386  -0.028  0.00  0.00     0.088 A 
ATOM      3  C   UNL d   1       1.572   1.374   0.057  0.00  0.00     0.094 A 
ATOM      4  N   UNL d   1       0.898  -1.362  -0.057  0.00  0.00    -0.346 N 
ATOM      5  HN  UNL d   1       0.674  -2.356  -0.093  1.00  0.00     0.167 HD
ATOM      6  N   UNL d   1       2.519   0.408   0.011  0.00  0.00    -0.342 N 
ATOM      7  HN  UNL d   1       3.508   0.656   0.010  1.00  0.00     0.167 HD
ATOM      8  S   UNL d   1      -1.686  -0.766  -0.053  0.00  0.00    -0.083 SA
ATOM      9  C   UNL d   1       2.141  -0.878  -0.034  0.00  0.00     0.182 A 
ATOM     10  C   UNL d   1      -2.127   0.884  -0.006  0.00  0.00     0.053 A 
ATOM     11  C   UNL d   1      -1.023   1.708   0.038  0.00  0.00     0.025 A 
ENDROOT
BRANCH   3  12
ATOM     12  N   UNL d   1       1.957   2.707   0.185  0.00  0.00    -0.275 NA
ATOM     13  H   UNL d   1       1.202   3.366   0.052  0.00  0.00     0.129 HD
BRANCH  12  14
ATOM     14  C   UNL d   1       3.187   3.089  -0.480  0.00  0.00     0.120 C 
BRANCH  14  15
ATOM     15  C   UNL d   1       3.686   4.314   0.223  0.00  0.00    -0.022 C 
ATOM     16  C   UNL d   1       3.887   5.513  -0.343  0.00  0.00     0.008 C 
ENDBRANCH  14  15
ENDBRANCH  12  14
ENDBRANCH   3  12
TORSDOF 3
