REMARK  4 active torsions:
REMARK  status: ('A' for Active; 'I' for Inactive)
REMARK    1  A    between atoms: C_2  and  C_1 
REMARK       I    between atoms: N_6  and  C_1 
REMARK    2  A    between atoms: C_9  and  C_3 
REMARK    3  A    between atoms: C_10  and  N_6 
REMARK    4  A    between atoms: O_18  and  C_9 
ROOT
ATOM      1  C   UNL d   1       0.233   0.901   0.553  0.00  0.00     0.096 C 
ATOM      2  C   UNL d   1      -1.297   0.966   0.438  0.00  0.00     0.101 C 
ATOM      3  C   UNL d   1       0.234   3.369  -0.265  0.00  0.00    -0.081 C 
ATOM      4  C   UNL d   1      -1.012   3.239  -0.763  0.00  0.00    -0.081 C 
ATOM      5  C   UNL d   1       0.927   2.271   0.506  0.00  0.00     0.049 C 
ATOM      6  C   UNL d   1      -1.839   1.989  -0.566  0.00  0.00     0.050 C 
ATOM      7  C   UNL d   1      -1.698   4.291  -1.604  0.00  0.00     0.043 C 
ATOM      8  C   UNL d   1       1.071   4.611  -0.464  0.00  0.00     0.043 C 
ENDROOT
BRANCH   1   9
ATOM      9  C   UNL d   1       0.803  -0.063  -0.487  0.00  0.00     0.227 C 
ATOM     10  N   UNL d   1       2.114  -0.432  -0.231  0.00  0.00    -0.324 N 
ATOM     11  H   UNL d   1       2.650   0.118   0.433  0.00  0.00     0.169 HD
ATOM     12  O   UNL d   1       0.144  -0.438  -1.451  0.00  0.00    -0.273 OA
BRANCH  10  13
ATOM     13  C   UNL d   1       2.876  -1.310  -1.031  0.00  0.00     0.073 A 
ATOM     14  C   UNL d   1       4.269  -1.158  -1.023  0.00  0.00     0.145 A 
ATOM     15  C   UNL d   1       5.084  -1.915  -1.856  0.00  0.00     0.086 A 
ATOM     16  F   UNL d   1       4.826  -0.222  -0.238  0.00  0.00    -0.204 F 
ATOM     17  C   UNL d   1       4.496  -2.869  -2.675  0.00  0.00     0.119 A 
ATOM     18  C   UNL d   1       3.122  -3.086  -2.656  0.00  0.00     0.044 A 
ATOM     19  F   UNL d   1       5.264  -3.592  -3.499  0.00  0.00    -0.206 F 
ATOM     20  C   UNL d   1       2.308  -2.303  -1.833  0.00  0.00     0.036 A 
ENDBRANCH  10  13
ENDBRANCH   1   9
BRANCH   2  21
ATOM     21  C   UNL d   1      -1.904   1.081   1.820  0.00  0.00     0.144 C 
ATOM     22  O   UNL d   1      -2.274   0.106   2.460  0.00  0.00    -0.650 OA
BRANCH  21  23
ATOM     23  O   UNL d   1      -1.928   2.324   2.340  0.00  0.00    -0.776 OA
ATOM     24  H   UNL d   1      -1.592   3.018   1.748  0.00  0.00     0.167 HD
ENDBRANCH  21  23
ENDBRANCH   2  21
TORSDOF 4
