REMARK  10 active torsions:
REMARK  status: ('A' for Active; 'I' for Inactive)
REMARK    1  A    between atoms: C_3  and  C_1 
REMARK    2  A    between atoms: N_2  and  C_4 
REMARK    3  A    between atoms: C_16  and  N_7 
REMARK    4  A    between atoms: C_19  and  C_16 
REMARK    5  A    between atoms: O_27  and  C_19 
REMARK    6  A    between atoms: C_29  and  C_19 
REMARK    7  A    between atoms: O_28  and  C_20 
REMARK    8  A    between atoms: O_21  and  C_29 
REMARK    9  A    between atoms: C_30  and  O_21 
REMARK   10  A    between atoms: C_22  and  C_30 
ROOT
ATOM      1  N   UNL d   1      -0.318   4.859  -2.380  0.00  0.00    -0.364 N 
ATOM      2  N   UNL d   1      -1.068   6.438  -4.763  0.00  0.00     0.094 N 
ATOM      3  C   UNL d   1      -1.730   5.126  -2.695  0.00  0.00     0.154 C 
ATOM      4  C   UNL d   1       0.707   5.642  -3.092  0.00  0.00     0.154 C 
ATOM      5  C   UNL d   1      -1.959   5.402  -4.193  0.00  0.00     0.292 C 
ATOM      6  C   UNL d   1       0.319   5.946  -4.562  0.00  0.00     0.292 C 
ENDROOT
BRANCH   2   7
ATOM      7  C   UNL d   1      -1.223   7.779  -4.149  0.00  0.00     0.306 C 
BRANCH   7   8
ATOM      8  C   UNL d   1      -2.600   8.488  -4.282  0.00  0.00     0.170 C 
BRANCH   8   9
ATOM      9  O   UNL d   1      -3.652   7.780  -3.615  0.00  0.00    -0.392 OA
ATOM     10  H   UNL d   1      -3.410   7.698  -2.678  0.00  0.00     0.210 HD
ENDBRANCH   8   9
BRANCH   8  11
ATOM     11  C   UNL d   1      -2.532   9.895  -3.659  0.00  0.00     0.201 C 
BRANCH  11  12
ATOM     12  O   UNL d   1      -1.508  10.657  -4.277  0.00  0.00    -0.384 OA
BRANCH  12  13
ATOM     13  C   UNL d   1      -1.365  11.953  -3.701  0.00  0.00     0.206 C 
BRANCH  13  14
ATOM     14  C   UNL d   1      -0.264  12.693  -4.418  0.00  0.00    -0.034 A 
ATOM     15  C   UNL d   1       0.016  12.442  -5.768  0.00  0.00     0.012 A 
ATOM     16  C   UNL d   1       1.033  13.134  -6.425  0.00  0.00     0.037 A 
ATOM     17  C   UNL d   1       1.765  14.114  -5.756  0.00  0.00     0.068 A 
ATOM     18  C   UNL d   1       1.490  14.382  -4.416  0.00  0.00     0.037 A 
ATOM     19  C   UNL d   1       0.477  13.678  -3.752  0.00  0.00     0.012 A 
BRANCH  17  20
ATOM     20  O   UNL d   1       2.747  14.711  -6.498  0.00  0.00    -0.356 OA
ATOM     21  C   UNL d   1       3.089  16.035  -6.111  0.00  0.00     0.210 C 
ENDBRANCH  17  20
ENDBRANCH  13  14
ENDBRANCH  12  13
ENDBRANCH  11  12
ENDBRANCH   8  11
ENDBRANCH   7   8
ENDBRANCH   2   7
BRANCH   1  22
ATOM     22  C   UNL d   1       0.017   3.595  -1.920  0.00  0.00     0.103 A 
ATOM     23  C   UNL d   1       1.175   3.413  -1.162  0.00  0.00     0.049 A 
ATOM     24  C   UNL d   1       1.487   2.154  -0.650  0.00  0.00     0.021 A 
ATOM     25  C   UNL d   1       0.638   1.080  -0.906  0.00  0.00     0.063 A 
ATOM     26  C   UNL d   1      -0.491   1.339  -1.663  0.00  0.00     0.106 A 
ATOM     27  N   UNL d   1      -0.812   2.559  -2.157  0.00  0.00    -0.352 N 
ATOM     28  HN  UNL d   1      -1.666   2.691  -2.699  1.00  0.00     0.166 HD
BRANCH  25  29
ATOM     29  C   UNL d   1       0.920  -0.288  -0.375  0.00  0.00     0.418 C 
ATOM     30  F   UNL d   1      -0.004  -1.220  -0.738  0.00  0.00    -0.166 F 
ATOM     31  F   UNL d   1       0.965  -0.320   0.986  0.00  0.00    -0.166 F 
ATOM     32  F   UNL d   1       2.122  -0.772  -0.796  0.00  0.00    -0.166 F 
ENDBRANCH  25  29
ENDBRANCH   1  22
TORSDOF 10
