REMARK  6 active torsions:
REMARK  status: ('A' for Active; 'I' for Inactive)
REMARK    1  A    between atoms: C_7  and  C_1 
REMARK    2  A    between atoms: C_12  and  C_4 
REMARK       I    between atoms: N_11  and  C_7 
REMARK    3  A    between atoms: N_8  and  N_11 
REMARK    4  A    between atoms: O_20  and  C_10 
REMARK    5  A    between atoms: O_21  and  C_13 
REMARK    6  A    between atoms: C_18  and  C_17 
ROOT
ATOM      1  C   UNL d   1       0.245  -2.787  -0.043  0.00  0.00     0.275 C 
ATOM      2  N   UNL d   1      -0.771  -3.703  -0.306  0.00  0.00    -0.266 N 
ATOM      3  O   UNL d   1       1.394  -3.119   0.248  0.00  0.00    -0.266 OA
ATOM      4  H   UNL d   1      -1.732  -3.385  -0.331  0.00  0.00     0.190 HD
ENDROOT
BRANCH   1   5
ATOM      5  C   UNL d   1      -0.109  -1.378  -0.157  0.00  0.00     0.094 C 
ATOM      6  C   UNL d   1       0.750  -0.305  -0.591  0.00  0.00     0.083 C 
ATOM      7  N   UNL d   1       0.134   0.877  -0.426  0.00  0.00    -0.259 N 
ATOM      8  O   UNL d   1      -1.140   0.599  -0.010  0.00  0.00    -0.241 OA
ATOM      9  HN  UNL d   1       0.537   1.801  -0.580  1.00  0.00     0.195 HD
ATOM     10  C   UNL d   1      -1.311  -0.743   0.100  0.00  0.00     0.090 C 
ATOM     11  C   UNL d   1      -2.685  -1.149   0.455  0.00  0.00     0.080 C 
BRANCH   6  12
ATOM     12  C   UNL d   1       2.071  -0.353  -1.233  0.00  0.00    -0.006 A 
ATOM     13  C   UNL d   1       2.964   0.724  -1.117  0.00  0.00     0.014 A 
ATOM     14  C   UNL d   1       4.186   0.715  -1.797  0.00  0.00     0.001 A 
ATOM     15  C   UNL d   1       4.533  -0.372  -2.597  0.00  0.00     0.000 A 
ATOM     16  C   UNL d   1       3.656  -1.443  -2.728  0.00  0.00     0.001 A 
ATOM     17  C   UNL d   1       2.429  -1.426  -2.062  0.00  0.00     0.014 A 
ENDBRANCH   6  12
ENDBRANCH   1   5
BRANCH   2  18
ATOM     18  N   UNL d   1      -0.651  -5.077  -0.323  0.00  0.00    -0.308 N 
ATOM     19  C   UNL d   1       0.481  -5.595  -0.693  0.00  0.00     0.118 C 
ATOM     20  HN  UNL d   1      -1.434  -5.672  -0.052  1.00  0.00     0.186 HD
BRANCH  19  21
ATOM     21  C   UNL d   1       0.702  -7.061  -0.759  0.00  0.00    -0.017 A 
ATOM     22  C   UNL d   1       1.928  -7.533  -1.258  0.00  0.00     0.052 A 
ATOM     23  C   UNL d   1       2.128  -8.906  -1.440  0.00  0.00     0.102 A 
ATOM     24  C   UNL d   1       1.091  -9.790  -1.105  0.00  0.00     0.099 A 
ATOM     25  C   UNL d   1      -0.110  -9.328  -0.566  0.00  0.00     0.040 A 
ATOM     26  C   UNL d   1      -0.305  -7.957  -0.393  0.00  0.00     0.016 A 
BRANCH  23  27
ATOM     27  O   UNL d   1       3.261  -9.481  -1.951  0.00  0.00    -0.353 OA
ATOM     28  C   UNL d   1       4.340  -8.631  -2.309  0.00  0.00     0.210 C 
ENDBRANCH  23  27
BRANCH  24  29
ATOM     29  O   UNL d   1       1.262 -11.131  -1.328  0.00  0.00    -0.358 OA
ATOM     30  H   UNL d   1       0.402 -11.575  -1.266  0.00  0.00     0.217 HD
ENDBRANCH  24  29
ENDBRANCH  19  21
ENDBRANCH   2  18
TORSDOF 6
