REMARK  8 active torsions:
REMARK  status: ('A' for Active; 'I' for Inactive)
REMARK    1  A    between atoms: C_2  and  C_1 
REMARK    2  A    between atoms: C_5  and  C_1 
REMARK    3  A    between atoms: C_4  and  C_2 
REMARK    4  A    between atoms: N_11  and  C_3 
REMARK    5  A    between atoms: S_15  and  C_3 
REMARK    6  A    between atoms: N_6  and  C_5 
REMARK    7  A    between atoms: C_17  and  N_11 
REMARK    8  A    between atoms: C_16  and  C_17 
ROOT
ATOM      1  C   UNL d   1       0.968   0.083   0.046  0.00  0.00     0.100 C 
ATOM      2  C   UNL d   1       0.375   1.008   0.853  0.00  0.00     0.069 C 
ENDROOT
BRANCH   2   3
ATOM      3  N   UNL d   1       1.064   2.087   1.438  0.00  0.00    -0.282 NA
ATOM      4  H   UNL d   1       2.029   1.858   1.682  0.00  0.00     0.128 HD
BRANCH   3   5
ATOM      5  C   UNL d   1       1.069   3.399   0.772  0.00  0.00     0.133 C 
BRANCH   5   6
ATOM      6  C   UNL d   1       1.278   4.508   1.764  0.00  0.00    -0.030 A 
ATOM      7  C   UNL d   1       1.984   5.656   1.406  0.00  0.00     0.096 A 
ATOM      8  N   UNL d   1       2.162   6.726   2.217  0.00  0.00    -0.375 N 
ATOM      9  C   UNL d   1       1.604   6.659   3.443  0.00  0.00     0.087 A 
ATOM     10  HN  UNL d   1       2.693   7.543   1.915  1.00  0.00     0.164 HD
ATOM     11  C   UNL d   1       0.872   5.574   3.894  0.00  0.00     0.018 A 
ATOM     12  C   UNL d   1       0.705   4.492   3.037  0.00  0.00     0.011 A 
ENDBRANCH   5   6
ENDBRANCH   3   5
ENDBRANCH   2   3
BRANCH   2  13
ATOM     13  S   UNL d   1      -1.244   0.678   1.496  0.00  0.00    -0.121 SA
ATOM     14  C   UNL d   1      -2.297   1.599   0.368  0.00  0.00     0.097 C 
ENDBRANCH   2  13
BRANCH   1  15
ATOM     15  C   UNL d   1       0.257  -1.001  -0.698  0.00  0.00     0.175 C 
ATOM     16  O   UNL d   1      -0.906  -0.890  -1.076  0.00  0.00    -0.291 OA
BRANCH  15  17
ATOM     17  C   UNL d   1       1.050  -2.198  -1.119  0.00  0.00     0.061 A 
ATOM     18  C   UNL d   1       1.068  -2.562  -2.588  0.00  0.00     0.013 A 
ATOM     19  C   UNL d   1       0.349  -3.444  -1.611  0.00  0.00     0.013 A 
ENDBRANCH  15  17
ENDBRANCH   1  15
BRANCH   1  20
ATOM     20  C   UNL d   1       2.488   0.083   0.046  0.00  0.00    -0.031 C 
BRANCH  20  21
ATOM     21  N   UNL d   1       3.749   0.083   0.046  0.00  0.00    -0.365 N 
ATOM     22  HN2 UNL d   1       2.729   0.083   0.046  1.00  0.00     0.165 HD
ATOM     23  HN1 UNL d   1       4.769   0.083   0.046  1.00  0.00     0.165 HD
ENDBRANCH  20  21
ENDBRANCH   1  20
TORSDOF 8
