REMARK  6 active torsions:
REMARK  status: ('A' for Active; 'I' for Inactive)
REMARK    1  A    between atoms: C_8  and  C_1 
REMARK    2  A    between atoms: N_4  and  C_2 
REMARK       I    between atoms: C_9  and  N_4 
REMARK    3  A    between atoms: C_15  and  C_8 
REMARK    4  A    between atoms: C_16  and  C_15 
REMARK    5  A    between atoms: C_18  and  C_16 
REMARK    6  A    between atoms: C_17  and  C_18 
ROOT
ATOM      1  C   UNL d   1      -1.857   0.750   0.152  0.00  0.00     0.037 A 
ATOM      2  C   UNL d   1      -1.892  -0.651   0.042  0.00  0.00     0.049 A 
ATOM      3  C   UNL d   1      -0.613   1.401   0.090  0.00  0.00     0.024 A 
ATOM      4  C   UNL d   1      -0.686  -1.367   0.012  0.00  0.00     0.037 A 
ATOM      5  C   UNL d   1       0.596   0.686  -0.002  0.00  0.00    -0.055 A 
ATOM      6  C   UNL d   1       0.558  -0.717  -0.009  0.00  0.00    -0.054 A 
ATOM      7  C   UNL d   1       1.890   1.453  -0.034  0.00  0.00     0.049 C 
ATOM      8  C   UNL d   1       1.793  -1.575  -0.041  0.00  0.00     0.049 C 
ENDROOT
BRANCH   1   9
ATOM      9  C   UNL d   1      -3.068   1.538   0.568  0.00  0.00     0.161 C 
ATOM     10  O   UNL d   1      -3.934   1.001   1.254  0.00  0.00    -0.292 OA
BRANCH   9  11
ATOM     11  C   UNL d   1      -3.128   3.020   0.217  0.00  0.00     0.084 C 
BRANCH  11  12
ATOM     12  C   UNL d   1      -4.375   3.705   0.778  0.00  0.00     0.008 C 
BRANCH  12  13
ATOM     13  C   UNL d   1      -4.380   5.198   0.441  0.00  0.00     0.000 C 
BRANCH  13  14
ATOM     14  C   UNL d   1      -5.607   5.900   1.019  0.00  0.00    -0.005 C 
ATOM     15  C   UNL d   1      -5.621   7.378   0.660  0.00  0.00     0.005 C 
ENDBRANCH  13  14
ENDBRANCH  12  13
ENDBRANCH  11  12
ENDBRANCH   9  11
ENDBRANCH   1   9
BRANCH   2  16
ATOM     16  N   UNL d   1      -3.067  -1.427  -0.057  0.00  0.00    -0.327 N 
ATOM     17  C   UNL d   1      -4.118  -1.090  -0.894  0.00  0.00     0.218 C 
ATOM     18  O   UNL d   1      -4.137  -0.134  -1.664  0.00  0.00    -0.274 OA
ATOM     19  C   UNL d   1      -5.262  -2.072  -0.826  0.00  0.00     0.117 C 
ATOM     20  H   UNL d   1      -2.999  -2.400   0.205  0.00  0.00     0.169 HD
ENDBRANCH   2  16
TORSDOF 6
