REMARK  3 active torsions:
REMARK  status: ('A' for Active; 'I' for Inactive)
REMARK    1  A    between atoms: C_15  and  N_9 
REMARK    2  A    between atoms: C_17  and  C_15 
REMARK    3  A    between atoms: O_16  and  C_17 
ROOT
ATOM      1  C   UNL d   1       0.045  -0.731   0.075  0.00  0.00     0.101 A 
ATOM      2  C   UNL d   1       0.027   0.612   0.094  0.00  0.00     0.077 A 
ATOM      3  N   UNL d   1       1.257  -1.391  -0.036  0.00  0.00    -0.293 N 
ATOM      4  N   UNL d   1       2.448   0.649   0.004  0.00  0.00    -0.270 N 
ATOM      5  C   UNL d   1       2.487  -0.732  -0.076  0.00  0.00     0.332 A 
ATOM      6  C   UNL d   1       1.283   1.381   0.072  0.00  0.00     0.262 A 
ATOM      7  N   UNL d   1      -1.169  -1.406   0.168  0.00  0.00    -0.252 NA
ATOM      8  C   UNL d   1      -1.246   1.413   0.098  0.00  0.00     0.321 C 
ATOM      9  N   UNL d   1      -2.431   0.648  -0.341  0.00  0.00     0.107 N 
ATOM     10  C   UNL d   1      -2.399  -0.645   0.330  0.00  0.00     0.368 C 
ATOM     11  O   UNL d   1       3.549  -1.352  -0.172  0.00  0.00    -0.246 OA
ATOM     12  O   UNL d   1       1.253   2.611   0.124  0.00  0.00    -0.267 OA
ATOM     13  C   UNL d   1       1.326  -2.844  -0.074  0.00  0.00     0.162 C 
ATOM     14  C   UNL d   1       3.691   1.394   0.016  0.00  0.00     0.164 C 
ATOM     15  H   UNL d   1      -1.252  -2.105  -0.562  0.00  0.00     0.130 HD
ENDROOT
BRANCH   9  16
ATOM     16  C   UNL d   1      -3.687   1.362  -0.073  0.00  0.00     0.300 C 
BRANCH  16  17
ATOM     17  C   UNL d   1      -3.818   2.683  -0.848  0.00  0.00     0.194 C 
BRANCH  17  18
ATOM     18  O   UNL d   1      -5.083   3.276  -0.572  0.00  0.00    -0.399 OA
ATOM     19  H   UNL d   1      -5.107   4.118  -1.060  0.00  0.00     0.209 HD
ENDBRANCH  17  18
ENDBRANCH  16  17
ENDBRANCH   9  16
TORSDOF 3
