REMARK  6 active torsions:
REMARK  status: ('A' for Active; 'I' for Inactive)
REMARK    1  A    between atoms: O_6  and  C_1 
REMARK    2  A    between atoms: C_8  and  C_2 
REMARK    3  A    between atoms: S_3  and  O_6 
REMARK    4  A    between atoms: C_9  and  S_3 
REMARK    5  A    between atoms: O_15  and  C_7 
REMARK    6  A    between atoms: O_16  and  C_8 
ROOT
ATOM      1  C   UNL d   1       1.334   0.887   0.120  0.00  0.00     0.116 A 
ATOM      2  C   UNL d   1       0.027   1.344   0.178  0.00  0.00     0.117 A 
ATOM      3  C   UNL d   1       1.392  -0.546   0.075  0.00  0.00     0.084 A 
ATOM      4  S   UNL d   1      -1.080   0.023   0.167  0.00  0.00    -0.057 SA
ATOM      5  C   UNL d   1       0.154  -1.151   0.083  0.00  0.00     0.112 A 
ENDROOT
BRANCH   1   6
ATOM      6  O   UNL d   1       2.407   1.724   0.110  0.00  0.00    -0.227 OA
BRANCH   6   7
ATOM      7  S   UNL d   1       3.946   1.161   0.009  0.00  0.00     0.303 S 
ATOM      8  O   UNL d   1       4.252   0.443   1.232  0.00  0.00    -0.193 OA
ATOM      9  O   UNL d   1       4.123   0.536  -1.289  0.00  0.00    -0.193 OA
BRANCH   7  10
ATOM     10  C   UNL d   1       5.011   2.586   0.007  0.00  0.00     0.086 A 
ATOM     11  C   UNL d   1       4.486   3.878   0.042  0.00  0.00     0.027 A 
ATOM     12  C   UNL d   1       5.361   4.968   0.065  0.00  0.00     0.025 A 
ATOM     13  C   UNL d   1       6.743   4.761   0.049  0.00  0.00     0.034 A 
ATOM     14  C   UNL d   1       7.266   3.470   0.003  0.00  0.00     0.025 A 
ATOM     15 CL   UNL d   1       7.808   6.112   0.092  0.00  0.00    -0.084 Cl
ATOM     16  C   UNL d   1       6.398   2.375  -0.018  0.00  0.00     0.027 A 
ENDBRANCH   7  10
ENDBRANCH   6   7
ENDBRANCH   1   6
BRANCH   2  17
ATOM     17  C   UNL d   1      -0.565   2.673   0.243  0.00  0.00     0.302 C 
ATOM     18  O   UNL d   1      -1.762   2.921   0.354  0.00  0.00    -0.259 OA
BRANCH  17  19
ATOM     19  O   UNL d   1       0.391   3.647   0.155  0.00  0.00    -0.322 OA
ATOM     20  C   UNL d   1      -0.153   4.972   0.176  0.00  0.00     0.213 C 
ENDBRANCH  17  19
ENDBRANCH   2  17
BRANCH   5  21
ATOM     21  O   UNL d   1      -0.208  -2.439   0.039  0.00  0.00    -0.349 OA
ATOM     22  C   UNL d   1       0.843  -3.392  -0.050  0.00  0.00     0.211 C 
ENDBRANCH   5  21
TORSDOF 6
