REMARK  6 active torsions:
REMARK  status: ('A' for Active; 'I' for Inactive)
REMARK    1  A    between atoms: C_2  and  S_1 
REMARK    2  A    between atoms: N_7  and  S_1 
REMARK    3  A    between atoms: C_8  and  C_3 
REMARK    4  A    between atoms: C_12  and  N_7 
REMARK    5  A    between atoms: O_13  and  C_8 
REMARK    6  A    between atoms: C_22  and  O_13 
ROOT
ATOM      1  C   UNL d   1       0.418  -0.468   1.814  0.00  0.00     0.122 A 
ATOM      2  C   UNL d   1       0.480  -1.849   2.187  0.00  0.00     0.094 A 
ATOM      3  C   UNL d   1      -0.070   0.221   2.905  0.00  0.00     0.073 A 
ATOM      4  C   UNL d   1       0.059  -1.892   3.506  0.00  0.00     0.067 A 
ATOM      5  O   UNL d   1      -0.263  -0.644   3.941  0.00  0.00    -0.318 OA
ATOM      6  C   UNL d   1      -0.103  -2.965   4.513  0.00  0.00     0.078 C 
ATOM      7  C   UNL d   1      -0.429   1.627   3.187  0.00  0.00     0.078 C 
ENDROOT
BRANCH   1   8
ATOM      8  S   UNL d   1       0.808   0.165   0.263  0.00  0.00     0.249 S 
ATOM      9  O   UNL d   1       0.320   1.528   0.257  0.00  0.00    -0.205 OA
ATOM     10  O   UNL d   1       0.271  -0.800  -0.668  0.00  0.00    -0.205 OA
BRANCH   8  11
ATOM     11  N   UNL d   1       2.491   0.184   0.083  0.00  0.00    -0.181 NA
ATOM     12  H   UNL d   1       2.710   0.110  -0.911  0.00  0.00     0.146 HD
BRANCH  11  13
ATOM     13  C   UNL d   1       3.200   1.218   0.766  0.00  0.00     0.022 A 
ATOM     14  C   UNL d   1       3.815   0.930   1.983  0.00  0.00     0.026 A 
ATOM     15  C   UNL d   1       4.524   1.929   2.658  0.00  0.00     0.026 A 
ATOM     16  C   UNL d   1       4.598   3.212   2.119  0.00  0.00     0.034 A 
ATOM     17  C   UNL d   1       3.964   3.509   0.913  0.00  0.00     0.026 A 
ATOM     18 CL   UNL d   1       5.483   4.437   2.942  0.00  0.00    -0.084 Cl
ATOM     19  C   UNL d   1       3.263   2.509   0.235  0.00  0.00     0.026 A 
ENDBRANCH  11  13
ENDBRANCH   8  11
ENDBRANCH   1   8
BRANCH   2  20
ATOM     20  C   UNL d   1       0.861  -2.979   1.364  0.00  0.00     0.297 C 
ATOM     21  O   UNL d   1       1.747  -2.932   0.523  0.00  0.00    -0.259 OA
BRANCH  20  22
ATOM     22  O   UNL d   1       0.080  -4.066   1.618  0.00  0.00    -0.318 OA
BRANCH  22  23
ATOM     23  C   UNL d   1       0.123  -5.132   0.660  0.00  0.00     0.174 C 
ATOM     24  C   UNL d   1      -1.052  -4.965  -0.286  0.00  0.00     0.034 C 
ENDBRANCH  22  23
ENDBRANCH  20  22
ENDBRANCH   2  20
TORSDOF 6
