REMARK  1 active torsions:
REMARK  status: ('A' for Active; 'I' for Inactive)
REMARK    1  A    between atoms: C_12  and  C_9 
ROOT
ATOM      1  C   UNL d   1       0.251   0.603   0.011  0.00  0.00     0.067 A 
ATOM      2  C   UNL d   1      -0.459  -0.579   0.010  0.00  0.00     0.091 A 
ATOM      3  N   UNL d   1       0.060  -1.836   0.007  0.00  0.00    -0.346 N 
ATOM      4  HN  UNL d   1      -0.519  -2.676   0.010  1.00  0.00     0.167 HD
ATOM      5  S   UNL d   1      -2.142  -0.297   0.005  0.00  0.00    -0.076 SA
ATOM      6  C   UNL d   1       1.695   0.522   0.006  0.00  0.00     0.259 A 
ATOM      7  C   UNL d   1      -0.593   1.751   0.011  0.00  0.00     0.034 A 
ATOM      8  N   UNL d   1       2.174  -0.769  -0.001  0.00  0.00    -0.319 N 
ATOM      9  C   UNL d   1      -1.931   1.407  -0.002  0.00  0.00    -0.015 A 
ATOM     10  C   UNL d   1       1.353  -1.872   0.001  0.00  0.00     0.184 A 
ATOM     11  O   UNL d   1       2.440   1.495   0.004  0.00  0.00    -0.267 OA
ATOM     12  H   UNL d   1       3.178  -0.870  -0.008  0.00  0.00     0.169 HD
ENDROOT
BRANCH   9  13
ATOM     13  C   UNL d   1      -3.124   2.316  -0.038  0.00  0.00     0.042 C 
ATOM     14  C   UNL d   1      -3.607   2.684   1.356  0.00  0.00     0.010 C 
ENDBRANCH   9  13
TORSDOF 1
