REMARK  6 active torsions:
REMARK  status: ('A' for Active; 'I' for Inactive)
REMARK    1  A    between atoms: C_12  and  N_1 
REMARK    2  A    between atoms: C_13  and  N_1 
REMARK    3  A    between atoms: C_2  and  C_3 
REMARK    4  A    between atoms: C_3  and  C_12 
REMARK    5  A    between atoms: O_11  and  C_3 
REMARK    6  A    between atoms: C_5  and  C_13 
ROOT
ATOM      1  N   UNL d   1       1.040   0.021   0.046  0.00  0.00     0.090 N 
ATOM      2  H   UNL d   1       0.723   0.506   0.885  0.00  0.00     0.316 HD
ENDROOT
BRANCH   1   3
ATOM      3  C   UNL d   1       0.471   0.673  -1.150  0.00  0.00     0.306 C 
BRANCH   3   4
ATOM      4  C   UNL d   1      -1.075   0.853  -1.174  0.00  0.00     0.179 C 
BRANCH   4   5
ATOM      5  C   UNL d   1      -1.596   1.554  -2.410  0.00  0.00    -0.028 A 
ATOM      6  C   UNL d   1      -1.302   1.080  -3.700  0.00  0.00     0.010 A 
ATOM      7  C   UNL d   1      -1.898   1.656  -4.822  0.00  0.00     0.001 A 
ATOM      8  C   UNL d   1      -2.785   2.719  -4.671  0.00  0.00     0.000 A 
ATOM      9  C   UNL d   1      -3.071   3.213  -3.400  0.00  0.00     0.001 A 
ATOM     10  C   UNL d   1      -2.483   2.633  -2.276  0.00  0.00     0.010 A 
ENDBRANCH   4   5
BRANCH   4  11
ATOM     11  O   UNL d   1      -1.763  -0.400  -1.123  0.00  0.00    -0.389 OA
ATOM     12  H   UNL d   1      -1.525  -0.892  -1.926  0.00  0.00     0.210 HD
ENDBRANCH   4  11
ENDBRANCH   3   4
ENDBRANCH   1   3
BRANCH   1  13
ATOM     13  C   UNL d   1       0.651  -1.385   0.155  0.00  0.00     0.308 C 
BRANCH  13  14
ATOM     14  C   UNL d   1       1.257  -2.045   1.369  0.00  0.00    -0.030 A 
ATOM     15  C   UNL d   1       0.420  -2.551   2.378  0.00  0.00     0.012 A 
ATOM     16  C   UNL d   1       0.965  -3.189   3.490  0.00  0.00     0.043 A 
ATOM     17  C   UNL d   1       2.344  -3.316   3.593  0.00  0.00     0.116 A 
ATOM     18  C   UNL d   1       3.189  -2.820   2.607  0.00  0.00     0.043 A 
ATOM     19  F   UNL d   1       2.869  -3.930   4.662  0.00  0.00    -0.206 F 
ATOM     20  C   UNL d   1       2.647  -2.184   1.491  0.00  0.00     0.012 A 
ENDBRANCH  13  14
ENDBRANCH   1  13
TORSDOF 6
