REMARK  1 active torsions:
REMARK  status: ('A' for Active; 'I' for Inactive)
REMARK    1  A    between atoms: C_16  and  N_4 
ROOT
ATOM      1  C   UNL d   1       2.711  -0.698  -0.022  0.00  0.00     0.139 A 
ATOM      2  C   UNL d   1       1.764   0.276   0.021  0.00  0.00     0.105 A 
ATOM      3  N   UNL d   1       4.066  -0.301  -0.129  0.00  0.00    -0.288 N 
ATOM      4  N   UNL d   1       2.291  -2.069  -0.017  0.00  0.00    -0.262 N 
ATOM      5  N   UNL d   1       3.522   1.982   0.092  0.00  0.00    -0.270 N 
ATOM      6  C   UNL d   1       4.496   1.020   0.031  0.00  0.00     0.332 C 
ATOM      7  C   UNL d   1       2.178   1.714  -0.002  0.00  0.00     0.267 C 
ATOM      8  C   UNL d   1       0.922  -2.438  -0.033  0.00  0.00     0.266 A 
ATOM      9  C   UNL d   1      -0.079  -1.377  -0.018  0.00  0.00     0.061 A 
ATOM     10  C   UNL d   1       0.325  -0.068   0.028  0.00  0.00     0.068 A 
ATOM     11  N   UNL d   1      -0.588   0.933   0.057  0.00  0.00    -0.354 N 
ATOM     12  HN  UNL d   1      -0.273   1.903   0.100  1.00  0.00     0.166 HD
ATOM     13  C   UNL d   1      -1.447  -1.685  -0.029  0.00  0.00     0.033 A 
ATOM     14  C   UNL d   1      -1.907   0.663   0.029  0.00  0.00     0.044 A 
ATOM     15  C   UNL d   1      -2.390  -0.655  -0.009  0.00  0.00    -0.008 A 
ATOM     16  O   UNL d   1       5.693   1.315   0.078  0.00  0.00    -0.246 OA
ATOM     17  O   UNL d   1       1.370   2.636  -0.105  0.00  0.00    -0.267 OA
ATOM     18  O   UNL d   1       0.491  -3.592  -0.026  0.00  0.00    -0.267 OA
ATOM     19  C   UNL d   1      -2.825   1.703   0.033  0.00  0.00     0.054 A 
ATOM     20  C   UNL d   1       5.166  -1.192  -0.477  0.00  0.00     0.163 C 
ATOM     21  C   UNL d   1       3.917   3.382   0.086  0.00  0.00     0.164 C 
ATOM     22  C   UNL d   1      -3.772  -0.912  -0.028  0.00  0.00     0.015 A 
ATOM     23  C   UNL d   1      -4.196   1.453   0.009  0.00  0.00     0.036 A 
ATOM     24  C   UNL d   1      -4.677   0.147  -0.018  0.00  0.00     0.025 A 
ATOM     25 CL   UNL d   1      -5.309   2.766   0.011  0.00  0.00    -0.084 Cl
ENDROOT
BRANCH   4  26
ATOM     26  C   UNL d   1       3.156  -3.211   0.090  0.00  0.00     0.044 A 
ATOM     27  C   UNL d   1       3.135  -4.190  -0.919  0.00  0.00     0.030 A 
ATOM     28  C   UNL d   1       3.990  -5.290  -0.862  0.00  0.00     0.002 A 
ATOM     29  C   UNL d   1       4.865  -5.429   0.211  0.00  0.00     0.000 A 
ATOM     30  C   UNL d   1       4.864  -4.487   1.241  0.00  0.00     0.002 A 
ATOM     31  C   UNL d   1       4.001  -3.387   1.192  0.00  0.00     0.030 A 
ENDBRANCH   4  26
TORSDOF 1
