REMARK  3 active torsions:
REMARK  status: ('A' for Active; 'I' for Inactive)
REMARK    1  A    between atoms: C_5  and  N_1 
REMARK    2  A    between atoms: C_4  and  O_6 
REMARK    3  A    between atoms: O_6  and  C_16 
ROOT
ATOM      1  C   UNL d   1       0.039   2.274  -0.127  0.00  0.00     0.045 A 
ATOM      2  C   UNL d   1      -0.695   3.040   0.795  0.00  0.00     0.033 A 
ATOM      3  C   UNL d   1       0.795   2.979  -1.074  0.00  0.00     0.033 A 
ATOM      4  C   UNL d   1       0.157   5.119  -0.115  0.00  0.00     0.078 A 
ATOM      5  C   UNL d   1      -0.646   4.445   0.796  0.00  0.00     0.039 A 
ATOM      6  C   UNL d   1       0.844   4.379  -1.074  0.00  0.00     0.039 A 
ENDROOT
BRANCH   1   7
ATOM      7  N   UNL d   1       0.022   0.845  -0.102  0.00  0.00    -0.252 N 
ATOM      8  C   UNL d   1      -0.944   0.088   0.519  0.00  0.00     0.231 A 
ATOM      9  C   UNL d   1      -0.648  -1.367   0.320  0.00  0.00     0.113 A 
ATOM     10  O   UNL d   1      -1.953   0.453   1.117  0.00  0.00    -0.273 OA
ATOM     11  C   UNL d   1       0.673  -1.392  -0.401  0.00  0.00     0.113 A 
ATOM     12  C   UNL d   1       0.986   0.047  -0.677  0.00  0.00     0.231 A 
ATOM     13  O   UNL d   1       2.003   0.369  -1.282  0.00  0.00    -0.273 OA
ENDBRANCH   1   7
BRANCH   4  14
ATOM     14  O   UNL d   1       0.320   6.465  -0.209  0.00  0.00    -0.255 OA
BRANCH  14  15
ATOM     15  C   UNL d   1       0.225   7.263   0.962  0.00  0.00     0.530 C 
ATOM     16  F   UNL d   1       0.241   6.561   2.114  0.00  0.00    -0.144 F 
ATOM     17  F   UNL d   1       1.277   8.112   0.985  0.00  0.00    -0.144 F 
ATOM     18  F   UNL d   1      -0.907   7.999   0.913  0.00  0.00    -0.144 F 
ENDBRANCH  14  15
ENDBRANCH   4  14
TORSDOF 3
