REMARK  3 active torsions:
REMARK  status: ('A' for Active; 'I' for Inactive)
REMARK    1  A    between atoms: C_5  and  C_1 
REMARK    2  A    between atoms: S_6  and  C_2 
REMARK    3  A    between atoms: S_7  and  C_2 
ROOT
ATOM      1  C   UNL d   1       0.888   0.082   0.070  0.00  0.00     0.078 C 
ATOM      2  C   UNL d   1       0.200  -1.088   0.148  0.00  0.00     0.057 C 
ATOM      3  C   UNL d   1       0.225   1.352   0.017  0.00  0.00     0.102 C 
ATOM      4  N   UNL d   1      -0.293   2.393  -0.013  0.00  0.00    -0.191 NA
ENDROOT
BRANCH   1   5
ATOM      5  C   UNL d   1       2.369   0.150   0.063  0.00  0.00    -0.014 A 
ATOM      6  C   UNL d   1       3.083   0.096  -1.143  0.00  0.00     0.013 A 
ATOM      7  C   UNL d   1       4.477   0.184  -1.140  0.00  0.00     0.001 A 
ATOM      8  C   UNL d   1       5.167   0.327   0.064  0.00  0.00     0.000 A 
ATOM      9  C   UNL d   1       4.465   0.382   1.267  0.00  0.00     0.001 A 
ATOM     10  C   UNL d   1       3.072   0.296   1.268  0.00  0.00     0.013 A 
ENDBRANCH   1   5
BRANCH   2  11
ATOM     11  S   UNL d   1      -1.566  -1.090   0.190  0.00  0.00    -0.126 SA
ATOM     12  C   UNL d   1      -2.021  -2.616  -0.664  0.00  0.00     0.096 C 
ENDBRANCH   2  11
BRANCH   2  13
ATOM     13  S   UNL d   1       1.034  -2.635   0.272  0.00  0.00    -0.126 SA
ATOM     14  C   UNL d   1       0.882  -2.924   2.052  0.00  0.00     0.096 C 
ENDBRANCH   2  13
TORSDOF 3
