REMARK  1 active torsions:
REMARK  status: ('A' for Active; 'I' for Inactive)
REMARK    1  A    between atoms: C_7  and  C_3 
ROOT
ATOM      1  C   UNL d   1       2.041  -2.441   0.017  0.00  0.00    -0.006 A 
ATOM      2  C   UNL d   1       3.845  -3.724   1.031  0.00  0.00     0.102 A 
ATOM      3  C   UNL d   1       2.974  -2.631   1.045  0.00  0.00     0.053 A 
ATOM      4  C   UNL d   1       3.751  -4.678   0.009  0.00  0.00     0.102 A 
ATOM      5  O   UNL d   1       4.738  -3.755   2.073  0.00  0.00    -0.348 OA
ATOM      6  O   UNL d   1       4.512  -5.814  -0.092  0.00  0.00    -0.348 OA
ATOM      7  C   UNL d   1       1.973  -3.384  -1.016  0.00  0.00     0.017 A 
ATOM      8  C   UNL d   1       2.829  -4.491  -1.022  0.00  0.00     0.040 A 
ATOM      9  C   UNL d   1       6.093  -5.745   1.757  0.00  0.00     0.053 C 
ATOM     10  C   UNL d   1       6.028  -4.230   1.689  0.00  0.00     0.178 C 
ATOM     11  C   UNL d   1       4.851  -6.394   1.169  0.00  0.00     0.178 C 
ENDROOT
BRANCH   1  12
ATOM     12  C   UNL d   1       1.153  -1.285   0.008  0.00  0.00     0.049 A 
ATOM     13  N   UNL d   1      -0.112  -1.349  -0.555  0.00  0.00    -0.353 N 
ATOM     14  C   UNL d   1      -0.724  -0.192  -0.414  0.00  0.00     0.047 A 
ATOM     15  HN  UNL d   1      -0.510  -2.170  -1.011  1.00  0.00     0.166 HD
ATOM     16  S   UNL d   1       0.192   1.046   0.347  0.00  0.00    -0.087 SA
ATOM     17  C   UNL d   1      -2.115   0.088  -0.860  0.00  0.00     0.076 C 
ATOM     18  C   UNL d   1       1.495  -0.051   0.528  0.00  0.00     0.081 A 
ENDBRANCH   1  12
TORSDOF 1
