REMARK  7 active torsions:
REMARK  status: ('A' for Active; 'I' for Inactive)
REMARK    1  A    between atoms: C_2  and  C_1 
REMARK       I    between atoms: N_5  and  C_1 
REMARK    2  A    between atoms: C_3  and  C_4 
REMARK    3  A    between atoms: O_11  and  C_3 
REMARK    4  A    between atoms: C_8  and  N_5 
REMARK    5  A    between atoms: O_9  and  C_10 
REMARK    6  A    between atoms: C_12  and  O_9 
REMARK    7  A    between atoms: C_17  and  C_12 
ROOT
ATOM      1  C   UNL d   1      -1.199  -0.149   1.201  0.00  0.00     0.035 A 
ATOM      2  C   UNL d   1      -4.006  -0.144   1.415  0.00  0.00     0.069 A 
ATOM      3  C   UNL d   1      -1.970  -1.006   0.415  0.00  0.00     0.032 A 
ATOM      4  C   UNL d   1      -1.844   0.668   2.137  0.00  0.00     0.032 A 
ATOM      5  C   UNL d   1      -3.237   0.664   2.252  0.00  0.00     0.039 A 
ATOM      6  C   UNL d   1      -3.366  -1.006   0.527  0.00  0.00     0.039 A 
ENDROOT
BRANCH   1   7
ATOM      7  N   UNL d   1       0.203  -0.031   1.110  0.00  0.00    -0.324 N 
ATOM      8  C   UNL d   1       1.044  -0.712   0.257  0.00  0.00     0.245 C 
ATOM      9  O   UNL d   1       0.746  -1.577  -0.556  0.00  0.00    -0.268 OA
ATOM     10  H   UNL d   1       0.621   0.652   1.729  0.00  0.00     0.169 HD
BRANCH   8  11
ATOM     11  C   UNL d   1       2.458  -0.282   0.413  0.00  0.00     0.081 C 
ATOM     12  C   UNL d   1       3.408  -0.903  -0.300  0.00  0.00     0.086 C 
BRANCH  12  13
ATOM     13  C   UNL d   1       4.805  -0.471  -0.144  0.00  0.00     0.165 C 
ATOM     14  O   UNL d   1       5.162   0.440   0.582  0.00  0.00    -0.647 OA
BRANCH  13  15
ATOM     15  O   UNL d   1       5.651  -1.202  -0.893  0.00  0.00    -0.773 OA
ATOM     16  H   UNL d   1       5.240  -1.907  -1.428  0.00  0.00     0.167 HD
ENDBRANCH  13  15
ENDBRANCH  12  13
ENDBRANCH   8  11
ENDBRANCH   1   7
BRANCH   2  17
ATOM     17  O   UNL d   1      -5.375  -0.164   1.383  0.00  0.00    -0.347 OA
BRANCH  17  18
ATOM     18  C   UNL d   1      -6.006   1.040   1.826  0.00  0.00     0.214 C 
BRANCH  18  19
ATOM     19  C   UNL d   1      -7.385   1.158   1.224  0.00  0.00    -0.034 A 
ATOM     20  C   UNL d   1      -8.388   0.232   1.538  0.00  0.00     0.009 A 
ATOM     21  C   UNL d   1      -9.674   0.381   1.016  0.00  0.00     0.001 A 
ATOM     22  C   UNL d   1      -9.969   1.451   0.173  0.00  0.00     0.000 A 
ATOM     23  C   UNL d   1      -8.975   2.370  -0.157  0.00  0.00     0.001 A 
ATOM     24  C   UNL d   1      -7.690   2.223   0.363  0.00  0.00     0.009 A 
ENDBRANCH  18  19
ENDBRANCH  17  18
ENDBRANCH   2  17
TORSDOF 7
