REMARK  7 active torsions:
REMARK  status: ('A' for Active; 'I' for Inactive)
REMARK    1  A    between atoms: N_2  and  C_1 
REMARK    2  A    between atoms: N_3  and  C_1 
REMARK    3  A    between atoms: C_6  and  N_3 
REMARK    4  A    between atoms: O_14  and  C_7 
REMARK    5  A    between atoms: C_18  and  O_14 
REMARK    6  A    between atoms: O_15  and  C_19 
REMARK    7  A    between atoms: C_19  and  C_18 
ROOT
ATOM      1  C   UNL d   1      -1.238  -1.066  -0.498  0.00  0.00     0.034 A 
ATOM      2  C   UNL d   1      -4.016  -1.391  -0.757  0.00  0.00     0.069 A 
ATOM      3  C   UNL d   1      -2.006  -0.100  -1.155  0.00  0.00     0.032 A 
ATOM      4  C   UNL d   1      -1.849  -2.238  -0.061  0.00  0.00     0.032 A 
ATOM      5  C   UNL d   1      -3.228  -2.394  -0.175  0.00  0.00     0.039 A 
ATOM      6  C   UNL d   1      -3.393  -0.257  -1.274  0.00  0.00     0.039 A 
ENDROOT
BRANCH   1   7
ATOM      7  N   UNL d   1       0.150  -0.930  -0.281  0.00  0.00    -0.333 N 
ATOM      8  H   UNL d   1       0.609  -1.763   0.058  0.00  0.00     0.168 HD
BRANCH   7   9
ATOM      9  C   UNL d   1       0.849   0.232   0.032  0.00  0.00     0.174 C 
ATOM     10  S   UNL d   1       0.127   1.586   0.732  0.00  0.00    -0.041 SA
BRANCH   9  11
ATOM     11  N   UNL d   1       2.227   0.129  -0.217  0.00  0.00    -0.354 N 
ATOM     12  C   UNL d   1       3.176   1.231   0.043  0.00  0.00     0.151 C 
ATOM     13  C   UNL d   1       3.857   1.658  -1.261  0.00  0.00     0.187 C 
ATOM     14  O   UNL d   1       4.543   0.546  -1.859  0.00  0.00    -0.388 OA
ATOM     15  C   UNL d   1       3.619  -0.508  -2.170  0.00  0.00     0.187 C 
ATOM     16  C   UNL d   1       2.880  -0.996  -0.916  0.00  0.00     0.151 C 
ENDBRANCH   9  11
ENDBRANCH   7   9
ENDBRANCH   1   7
BRANCH   2  17
ATOM     17  O   UNL d   1      -5.384  -1.420  -0.866  0.00  0.00    -0.349 OA
BRANCH  17  18
ATOM     18  C   UNL d   1      -6.010  -2.528  -0.223  0.00  0.00     0.201 C 
BRANCH  18  19
ATOM     19  C   UNL d   1      -7.526  -2.439  -0.311  0.00  0.00     0.193 C 
BRANCH  19  20
ATOM     20  O   UNL d   1      -8.050  -3.618   0.305  0.00  0.00    -0.394 OA
ATOM     21  C   UNL d   1      -9.466  -3.664   0.265  0.00  0.00     0.201 C 
ENDBRANCH  19  20
ENDBRANCH  18  19
ENDBRANCH  17  18
ENDBRANCH   2  17
TORSDOF 7
