REMARK  4 active torsions:
REMARK  status: ('A' for Active; 'I' for Inactive)
REMARK    1  A    between atoms: S_9  and  C_3 
REMARK    2  A    between atoms: C_10  and  N_8 
REMARK    3  A    between atoms: C_11  and  S_9 
REMARK    4  A    between atoms: C_14  and  C_11 
ROOT
ATOM      1  S   UNL d   1       1.180  -0.053   0.163  0.00  0.00    -0.026 SA
ATOM      2  C   UNL d   1      -0.055   1.142  -0.046  0.00  0.00     0.166 A 
ATOM      3  C   UNL d   1      -0.043  -1.247   0.030  0.00  0.00     0.130 A 
ATOM      4  N   UNL d   1      -1.261   0.610  -0.097  0.00  0.00    -0.278 N 
ATOM      5  HN  UNL d   1      -2.115   1.166  -0.147  1.00  0.00     0.189 HD
ATOM      6  N   UNL d   1      -1.258  -0.764  -0.078  0.00  0.00    -0.286 N 
ATOM      7  HN  UNL d   1      -2.098  -1.339  -0.139  1.00  0.00     0.188 HD
ATOM      8  N   UNL d   1       0.260   2.462  -0.133  0.00  0.00    -0.336 N 
ATOM      9  H   UNL d   1       1.221   2.732   0.035  0.00  0.00     0.168 HD
ENDROOT
BRANCH   8  10
ATOM     10  C   UNL d   1      -0.533   3.474  -0.716  0.00  0.00     0.034 A 
ATOM     11  C   UNL d   1      -1.718   3.205  -1.426  0.00  0.00     0.031 A 
ATOM     12  C   UNL d   1      -2.511   4.233  -1.939  0.00  0.00     0.026 A 
ATOM     13  C   UNL d   1      -2.142   5.556  -1.741  0.00  0.00     0.034 A 
ATOM     14  C   UNL d   1      -0.980   5.855  -1.037  0.00  0.00     0.026 A 
ATOM     15 CL   UNL d   1      -3.128   6.820  -2.362  0.00  0.00    -0.084 Cl
ATOM     16  C   UNL d   1      -0.184   4.821  -0.524  0.00  0.00     0.031 A 
ENDBRANCH   8  10
BRANCH   3  17
ATOM     17  S   UNL d   1       0.273  -2.968   0.035  0.00  0.00    -0.099 SA
BRANCH  17  18
ATOM     18  C   UNL d   1      -1.211  -3.566  -0.837  0.00  0.00     0.120 C 
BRANCH  18  19
ATOM     19  C   UNL d   1      -1.260  -5.076  -0.892  0.00  0.00    -0.048 A 
ATOM     20  C   UNL d   1      -1.937  -5.801   0.102  0.00  0.00     0.009 A 
ATOM     21  C   UNL d   1      -1.989  -7.197   0.055  0.00  0.00     0.024 A 
ATOM     22  C   UNL d   1      -1.360  -7.878  -0.985  0.00  0.00     0.034 A 
ATOM     23  C   UNL d   1      -0.678  -7.175  -1.976  0.00  0.00     0.024 A 
ATOM     24 CL   UNL d   1      -1.426  -9.596  -1.045  0.00  0.00    -0.084 Cl
ATOM     25  C   UNL d   1      -0.627  -5.779  -1.929  0.00  0.00     0.009 A 
ENDBRANCH  18  19
ENDBRANCH  17  18
ENDBRANCH   3  17
TORSDOF 4
