REMARK  5 active torsions:
REMARK  status: ('A' for Active; 'I' for Inactive)
REMARK    1  A    between atoms: S_2  and  N_1 
REMARK    2  A    between atoms: C_11  and  S_2 
REMARK    3  A    between atoms: S_13  and  C_3 
REMARK    4  A    between atoms: C_8  and  C_6 
REMARK    5  A    between atoms: N_15  and  C_7 
ROOT
ATOM      1  N   UNL d   1      -0.003  -1.212   0.038  0.00  0.00    -0.168 N 
ATOM      2  C   UNL d   1       1.272  -0.660   0.030  0.00  0.00     0.120 A 
ATOM      3  N   UNL d   1      -0.980  -0.265   0.072  0.00  0.00    -0.268 N 
ATOM      4  HN  UNL d   1      -1.987  -0.409   0.138  1.00  0.00     0.190 HD
ATOM      5  C   UNL d   1       1.083   0.715  -0.025  0.00  0.00     0.062 A 
ATOM      6  C   UNL d   1      -0.328   0.885   0.001  0.00  0.00     0.129 A 
ENDROOT
BRANCH   1   7
ATOM      7  S   UNL d   1      -0.325  -2.912   0.099  0.00  0.00     0.283 S 
ATOM      8  O   UNL d   1       0.372  -3.488  -1.042  0.00  0.00    -0.198 OA
ATOM      9  O   UNL d   1      -0.039  -3.302   1.467  0.00  0.00    -0.198 OA
BRANCH   7  10
ATOM     10  C   UNL d   1      -2.056  -3.161  -0.199  0.00  0.00     0.081 A 
ATOM     11  C   UNL d   1      -2.764  -2.368  -1.105  0.00  0.00     0.025 A 
ATOM     12  C   UNL d   1      -4.135  -2.570  -1.275  0.00  0.00     0.002 A 
ATOM     13  C   UNL d   1      -4.785  -3.586  -0.574  0.00  0.00     0.000 A 
ATOM     14  C   UNL d   1      -4.065  -4.416   0.285  0.00  0.00     0.002 A 
ATOM     15  C   UNL d   1      -2.699  -4.206   0.475  0.00  0.00     0.025 A 
ENDBRANCH   7  10
ENDBRANCH   1   7
BRANCH   2  16
ATOM     16  S   UNL d   1       2.728  -1.592   0.309  0.00  0.00    -0.113 SA
ATOM     17  C   UNL d   1       3.225  -2.054  -1.365  0.00  0.00     0.097 C 
ENDBRANCH   2  16
BRANCH   5  18
ATOM     18  C   UNL d   1       2.146   1.782  -0.005  0.00  0.00     0.021 A 
ATOM     19  S   UNL d   1       1.896   3.357   0.631  0.00  0.00    -0.101 SA
ATOM     20  C   UNL d   1       3.540   3.776   0.442  0.00  0.00     0.050 A 
ATOM     21  C   UNL d   1       4.249   2.786  -0.196  0.00  0.00     0.008 A 
ATOM     22  C   UNL d   1       3.439   1.644  -0.470  0.00  0.00     0.020 A 
ENDBRANCH   5  18
BRANCH   6  23
ATOM     23  N   UNL d   1      -0.985   2.052  -0.049  0.00  0.00    -0.384 N 
ATOM     24  H   UNL d   1      -1.961   2.054   0.226  0.00  0.00     0.157 HD
ATOM     25  H   UNL d   1      -0.503   2.925   0.136  0.00  0.00     0.157 HD
ENDBRANCH   6  23
TORSDOF 5
