REMARK  6 active torsions:
REMARK  status: ('A' for Active; 'I' for Inactive)
REMARK    1  A    between atoms: S_11  and  C_2 
REMARK    2  A    between atoms: C_19  and  C_3 
REMARK    3  A    between atoms: C_8  and  C_12 
REMARK    4  A    between atoms: C_12  and  S_11 
REMARK    5  A    between atoms: S_14  and  C_19 
REMARK    6  A    between atoms: C_18  and  S_14 
ROOT
ATOM      1  N   UNL d   1       0.873   0.109   0.068  0.00  0.00    -0.319 N 
ATOM      2  C   UNL d   1      -0.002   1.159   0.162  0.00  0.00     0.162 A 
ATOM      3  C   UNL d   1       0.091  -1.027  -0.064  0.00  0.00     0.109 A 
ATOM      4  N   UNL d   1      -1.230   0.714   0.049  0.00  0.00    -0.278 N 
ATOM      5  HN  UNL d   1      -2.078   1.281   0.061  1.00  0.00     0.189 HD
ATOM      6  N   UNL d   1      -1.174  -0.649  -0.088  0.00  0.00    -0.286 N 
ATOM      7  HN  UNL d   1      -1.977  -1.269  -0.191  1.00  0.00     0.188 HD
ATOM      8  C   UNL d   1       2.312   0.134   0.121  0.00  0.00     0.159 C 
ENDROOT
BRANCH   3   9
ATOM      9  C   UNL d   1       0.621  -2.434  -0.123  0.00  0.00     0.157 C 
BRANCH   9  10
ATOM     10  S   UNL d   1      -0.695  -3.644  -0.546  0.00  0.00    -0.121 SA
BRANCH  10  11
ATOM     11  C   UNL d   1       0.109  -5.225  -0.235  0.00  0.00     0.014 A 
ATOM     12  C   UNL d   1       1.063  -5.819  -1.104  0.00  0.00     0.007 A 
ATOM     13  C   UNL d   1       1.512  -7.122  -0.771  0.00  0.00     0.045 A 
ATOM     14  C   UNL d   1       1.563  -5.218  -2.285  0.00  0.00     0.017 A 
ATOM     15  C   UNL d   1       2.434  -7.757  -1.588  0.00  0.00     0.054 A 
ATOM     16  N   UNL d   1       1.072  -7.793   0.302  0.00  0.00    -0.365 N 
ATOM     17  C   UNL d   1       2.924  -7.144  -2.736  0.00  0.00     0.036 A 
ATOM     18  C   UNL d   1       2.492  -5.874  -3.091  0.00  0.00     0.025 A 
ATOM     19 CL   UNL d   1       4.065  -7.966  -3.728  0.00  0.00    -0.084 Cl
ATOM     20  C   UNL d   1       0.144  -7.213   1.086  0.00  0.00     0.089 A 
ATOM     21  HN  UNL d   1       1.433  -8.721   0.520  1.00  0.00     0.165 HD
ATOM     22  C   UNL d   1      -0.360  -5.945   0.864  0.00  0.00     0.036 A 
ENDBRANCH  10  11
ENDBRANCH   9  10
ENDBRANCH   3   9
BRANCH   2  23
ATOM     23  S   UNL d   1       0.438   2.817   0.430  0.00  0.00    -0.088 SA
BRANCH  23  24
ATOM     24  C   UNL d   1      -1.158   3.460   1.034  0.00  0.00     0.126 C 
BRANCH  24  25
ATOM     25  C   UNL d   1      -1.106   4.900   1.489  0.00  0.00     0.012 A 
ATOM     26  C   UNL d   1      -0.677   5.185   2.791  0.00  0.00     0.125 A 
ATOM     27  F   UNL d   1      -0.261   4.190   3.589  0.00  0.00    -0.205 F 
ATOM     28  C   UNL d   1      -0.691   6.481   3.311  0.00  0.00     0.043 A 
ATOM     29  C   UNL d   1      -1.140   7.535   2.524  0.00  0.00     0.005 A 
ATOM     30  C   UNL d   1      -1.549   7.284   1.215  0.00  0.00     0.024 A 
ATOM     31  C   UNL d   1      -1.524   5.980   0.696  0.00  0.00     0.044 A 
ATOM     32 CL   UNL d   1      -2.046   5.773  -0.937  0.00  0.00    -0.084 Cl
ENDBRANCH  24  25
ENDBRANCH  23  24
ENDBRANCH   2  23
TORSDOF 6
