REMARK  4 active torsions:
REMARK  status: ('A' for Active; 'I' for Inactive)
REMARK    1  A    between atoms: N_13  and  C_3 
REMARK    2  A    between atoms: S_10  and  C_4 
REMARK    3  A    between atoms: C_7  and  C_9 
REMARK    4  A    between atoms: C_9  and  S_10 
ROOT
ATOM      1  N   UNL d   1       1.588  -0.684  -0.021  0.00  0.00    -0.168 N 
ATOM      2  HN  UNL d   1       2.461  -1.210  -0.050  1.00  0.00     0.186 HD
ATOM      3  C   UNL d   1       0.308  -1.154  -0.014  0.00  0.00     0.692 A 
ATOM      4  C   UNL d   1       1.413   0.613   0.018  0.00  0.00     0.174 A 
ATOM      5  N   UNL d   1      -0.647  -0.227  -0.005  0.00  0.00    -0.130 N 
ATOM      6  HN  UNL d   1      -1.660  -0.340  -0.022  1.00  0.00     0.205 HD
ATOM      7  N   UNL d   1       0.085   0.899   0.033  0.00  0.00    -0.265 N 
ATOM      8  H   UNL d   1      -0.371   1.802   0.064  0.00  0.00     0.189 HD
ENDROOT
BRANCH   4   9
ATOM      9  S   UNL d   1       2.592   1.869   0.056  0.00  0.00    -0.087 SA
BRANCH   9  10
ATOM     10  C   UNL d   1       4.128   0.895   0.031  0.00  0.00     0.124 C 
BRANCH  10  11
ATOM     11  C   UNL d   1       5.356   1.770   0.172  0.00  0.00    -0.005 A 
ATOM     12  C   UNL d   1       5.876   2.102   1.439  0.00  0.00     0.042 A 
ATOM     13 CL   UNL d   1       5.142   1.555   2.908  0.00  0.00    -0.084 Cl
ATOM     14  C   UNL d   1       7.022   2.898   1.571  0.00  0.00     0.024 A 
ATOM     15  C   UNL d   1       7.671   3.389   0.444  0.00  0.00     0.003 A 
ATOM     16  C   UNL d   1       7.168   3.091  -0.818  0.00  0.00     0.024 A 
ATOM     17  C   UNL d   1       6.021   2.295  -0.954  0.00  0.00     0.042 A 
ATOM     18 CL   UNL d   1       5.476   1.996  -2.569  0.00  0.00    -0.084 Cl
ENDBRANCH  10  11
ENDBRANCH   9  10
ENDBRANCH   4   9
BRANCH   3  19
ATOM     19  N   UNL d   1       0.102  -2.467  -0.042  0.00  0.00    -0.233 N 
ATOM     20  H   UNL d   1       0.871  -3.055  -0.334  0.00  0.00     0.174 HD
ATOM     21  H   UNL d   1      -0.814  -2.785  -0.327  0.00  0.00     0.174 HD
ENDBRANCH   3  19
TORSDOF 4
