REMARK  4 active torsions:
REMARK  status: ('A' for Active; 'I' for Inactive)
REMARK       I    between atoms: N_2  and  C_1 
REMARK    1  A    between atoms: C_3  and  C_1 
REMARK       I    between atoms: C_4  and  N_2 
REMARK    2  A    between atoms: O_10  and  C_4 
REMARK    3  A    between atoms: C_6  and  C_12 
REMARK    4  A    between atoms: C_12  and  O_10 
ROOT
ATOM      1  C   UNL d   1       1.020   0.061  -0.001  0.00  0.00     0.263 C 
ATOM      2  N   UNL d   1       0.387   1.177  -0.526  0.00  0.00    -0.269 N 
ATOM      3  C   UNL d   1       0.882   2.277  -1.182  0.00  0.00     0.367 C 
ATOM      4  O   UNL d   1       2.216  -0.186  -0.107  0.00  0.00    -0.267 OA
ATOM      5  O   UNL d   1       0.098   3.083  -1.674  0.00  0.00    -0.238 OA
ATOM      6  H   UNL d   1      -0.620   1.222  -0.469  0.00  0.00     0.174 HD
ENDROOT
BRANCH   3   7
ATOM      7  O   UNL d   1       2.232   2.379  -1.218  0.00  0.00    -0.299 OA
BRANCH   7   8
ATOM      8  C   UNL d   1       2.755   3.495  -1.963  0.00  0.00     0.221 C 
BRANCH   8   9
ATOM      9  C   UNL d   1       3.630   4.413  -1.132  0.00  0.00    -0.012 A 
ATOM     10  C   UNL d   1       4.165   5.590  -1.694  0.00  0.00     0.044 A 
ATOM     11  C   UNL d   1       4.975   6.447  -0.943  0.00  0.00     0.048 A 
ATOM     12 CL   UNL d   1       3.855   6.033  -3.337  0.00  0.00    -0.084 Cl
ATOM     13  C   UNL d   1       5.264   6.135   0.380  0.00  0.00     0.035 A 
ATOM     14  C   UNL d   1       4.754   4.976   0.957  0.00  0.00     0.024 A 
ATOM     15 CL   UNL d   1       6.261   7.187   1.308  0.00  0.00    -0.084 Cl
ATOM     16  C   UNL d   1       3.944   4.118   0.206  0.00  0.00     0.013 A 
ENDBRANCH   8   9
ENDBRANCH   7   8
ENDBRANCH   3   7
BRANCH   1  17
ATOM     17  C   UNL d   1       0.128  -0.909   0.711  0.00  0.00     0.070 A 
ATOM     18  C   UNL d   1      -1.167  -0.572   1.119  0.00  0.00     0.132 A 
ATOM     19  F   UNL d   1      -1.674   0.643   0.860  0.00  0.00    -0.205 F 
ATOM     20  C   UNL d   1      -1.975  -1.479   1.800  0.00  0.00     0.043 A 
ATOM     21  C   UNL d   1      -1.495  -2.755   2.082  0.00  0.00     0.003 A 
ATOM     22  C   UNL d   1      -0.208  -3.115   1.679  0.00  0.00     0.001 A 
ATOM     23  C   UNL d   1       0.603  -2.197   1.000  0.00  0.00     0.020 A 
ENDBRANCH   1  17
TORSDOF 4
