REMARK  2 active torsions:
REMARK  status: ('A' for Active; 'I' for Inactive)
REMARK    1  A    between atoms: C_3  and  C_1 
REMARK       I    between atoms: N_5  and  C_3 
REMARK    2  A    between atoms: C_8  and  C_4 
ROOT
ATOM      1  C   UNL d   1       0.189   1.294  -0.060  0.00  0.00     0.073 A 
ATOM      2  S   UNL d   1      -0.972   0.032   0.009  0.00  0.00    -0.088 SA
ATOM      3  C   UNL d   1       0.219  -1.211  -0.002  0.00  0.00    -0.009 A 
ATOM      4  C   UNL d   1       1.464   0.769  -0.142  0.00  0.00     0.025 A 
ATOM      5  C   UNL d   1       1.484  -0.654  -0.045  0.00  0.00     0.017 A 
ENDROOT
BRANCH   1   6
ATOM      6  C   UNL d   1      -0.289   2.675  -0.098  0.00  0.00     0.260 C 
ATOM      7  N   UNL d   1       0.480   3.685   0.494  0.00  0.00    -0.344 N 
ATOM      8  C   UNL d   1       1.670   3.527   1.339  0.00  0.00     0.152 C 
ATOM      9  C   UNL d   1       0.063   5.084   0.335  0.00  0.00     0.152 C 
ATOM     10  C   UNL d   1       1.538   4.313   2.648  0.00  0.00     0.187 C 
ATOM     11  O   UNL d   1       1.191   5.685   2.413  0.00  0.00    -0.388 OA
ATOM     12  C   UNL d   1      -0.052   5.769   1.698  0.00  0.00     0.187 C 
ATOM     13  O   UNL d   1      -1.358   2.968  -0.639  0.00  0.00    -0.267 OA
ENDBRANCH   1   6
BRANCH   3  14
ATOM     14  C   UNL d   1      -0.186  -2.691  -0.002  0.00  0.00    -0.018 C 
ATOM     15  C   UNL d   1      -0.918  -3.038  -1.315  0.00  0.00     0.020 C 
ATOM     16  C   UNL d   1       1.059  -3.601   0.093  0.00  0.00     0.020 C 
ATOM     17  C   UNL d   1      -1.096  -3.022   1.197  0.00  0.00     0.020 C 
ENDBRANCH   3  14
TORSDOF 2
