REMARK  8 active torsions:
REMARK  status: ('A' for Active; 'I' for Inactive)
REMARK    1  A    between atoms: N_5  and  C_1 
REMARK    2  A    between atoms: C_4  and  N_5 
REMARK    3  A    between atoms: N_13  and  C_4 
REMARK    4  A    between atoms: O_20  and  C_8 
REMARK    5  A    between atoms: O_21  and  C_11 
REMARK    6  A    between atoms: C_22  and  N_13 
REMARK    7  A    between atoms: C_17  and  C_23 
REMARK    8  A    between atoms: C_23  and  C_22 
ROOT
ATOM      1  N   UNL d   1      -4.953   3.172  -0.742  0.00  0.00    -0.367 N 
ATOM      2  H   UNL d   1      -5.591   3.270  -1.527  0.00  0.00     0.161 HD
ENDROOT
BRANCH   1   3
ATOM      3  C   UNL d   1      -4.258   1.978  -0.682  0.00  0.00     0.172 C 
ATOM      4  S   UNL d   1      -4.518   0.834  -1.862  0.00  0.00    -0.041 SA
BRANCH   3   5
ATOM      5  N   UNL d   1      -3.516   1.861   0.457  0.00  0.00    -0.331 N 
ATOM      6  H   UNL d   1      -4.049   2.202   1.251  0.00  0.00     0.168 HD
BRANCH   5   7
ATOM      7  C   UNL d   1      -2.420   1.075   0.880  0.00  0.00     0.069 A 
ATOM      8  C   UNL d   1      -1.327   0.657   0.102  0.00  0.00     0.042 A 
ATOM      9  C   UNL d   1      -0.268  -0.044   0.703  0.00  0.00     0.063 A 
ATOM     10 BR   UNL d   1      -1.003   1.190  -1.692  0.00  0.00    -0.049 Br
ATOM     11  C   UNL d   1      -0.266  -0.284   2.071  0.00  0.00     0.119 A 
ATOM     12  C   UNL d   1      -1.302   0.155   2.871  0.00  0.00     0.063 A 
ATOM     13  F   UNL d   1       0.778  -0.905   2.633  0.00  0.00    -0.206 F 
ATOM     14  C   UNL d   1      -2.366   0.829   2.278  0.00  0.00     0.042 A 
ATOM     15 BR   UNL d   1      -3.742   1.451   3.452  0.00  0.00    -0.049 Br
ENDBRANCH   5   7
ENDBRANCH   3   5
ENDBRANCH   1   3
BRANCH   1  16
ATOM     16  C   UNL d   1      -4.836   4.258   0.228  0.00  0.00     0.126 C 
BRANCH  16  17
ATOM     17  C   UNL d   1      -5.562   5.551  -0.125  0.00  0.00     0.058 C 
BRANCH  17  18
ATOM     18  C   UNL d   1      -7.066   5.435  -0.105  0.00  0.00    -0.054 A 
ATOM     19  C   UNL d   1      -7.785   5.401   1.105  0.00  0.00     0.046 A 
ATOM     20  C   UNL d   1      -9.190   5.330   1.125  0.00  0.00     0.102 A 
ATOM     21  C   UNL d   1      -9.881   5.285  -0.100  0.00  0.00     0.101 A 
ATOM     22  C   UNL d   1      -9.156   5.308  -1.300  0.00  0.00     0.040 A 
ATOM     23  C   UNL d   1      -7.767   5.381  -1.309  0.00  0.00     0.010 A 
BRANCH  20  24
ATOM     24  O   UNL d   1      -9.926   5.305   2.279  0.00  0.00    -0.353 OA
ATOM     25  C   UNL d   1      -9.254   5.368   3.528  0.00  0.00     0.210 C 
ENDBRANCH  20  24
BRANCH  21  26
ATOM     26  O   UNL d   1     -11.231   5.223  -0.328  0.00  0.00    -0.353 OA
ATOM     27  C   UNL d   1     -12.121   5.198   0.776  0.00  0.00     0.210 C 
ENDBRANCH  21  26
ENDBRANCH  17  18
ENDBRANCH  16  17
ENDBRANCH   1  16
TORSDOF 8
