REMARK  3 active torsions:
REMARK  status: ('A' for Active; 'I' for Inactive)
REMARK    1  A    between atoms: C_8  and  N_3 
REMARK    2  A    between atoms: N_12  and  C_4 
REMARK    3  A    between atoms: C_7  and  C_5 
ROOT
ATOM      1  N   UNL d   1       0.973  -0.536  -0.141  0.00  0.00    -0.291 N 
ATOM      2  HN  UNL d   1       1.797  -1.089  -0.374  1.00  0.00     0.187 HD
ATOM      3  N   UNL d   1       0.874   0.819  -0.061  0.00  0.00    -0.240 N 
ATOM      4  C   UNL d   1      -0.459   1.224   0.050  0.00  0.00     0.123 C 
ATOM      5  C   UNL d   1      -0.254  -0.980   0.155  0.00  0.00     0.069 C 
ATOM      6  C   UNL d   1      -1.188   0.072   0.230  0.00  0.00     0.082 C 
ENDROOT
BRANCH   3   7
ATOM      7  C   UNL d   1       2.059   1.607  -0.045  0.00  0.00     0.058 A 
ATOM      8  C   UNL d   1       3.225   1.110  -0.646  0.00  0.00     0.033 A 
ATOM      9  C   UNL d   1       4.406   1.857  -0.613  0.00  0.00     0.020 A 
ATOM     10  C   UNL d   1       4.431   3.083   0.050  0.00  0.00     0.006 A 
ATOM     11  C   UNL d   1       3.283   3.574   0.672  0.00  0.00     0.020 A 
ATOM     12  I   UNL d   1       6.197   4.176   0.136  0.00  0.00    -0.045 I 
ATOM     13  C   UNL d   1       2.094   2.841   0.619  0.00  0.00     0.033 A 
ENDBRANCH   3   7
BRANCH   4  14
ATOM     14  N   UNL d   1      -0.907   2.504  -0.035  0.00  0.00    -0.384 N 
ATOM     15  H   UNL d   1      -0.353   3.200  -0.534  0.00  0.00     0.157 HD
ATOM     16  H   UNL d   1      -1.906   2.669  -0.150  0.00  0.00     0.157 HD
ENDBRANCH   4  14
BRANCH   5  17
ATOM     17  C   UNL d   1      -0.532  -2.437   0.389  0.00  0.00     0.033 A 
ATOM     18  S   UNL d   1      -2.078  -3.083   0.733  0.00  0.00    -0.100 SA
ATOM     19  C   UNL d   1      -1.446  -4.660   0.934  0.00  0.00     0.050 A 
ATOM     20  C   UNL d   1      -0.085  -4.699   0.727  0.00  0.00     0.008 A 
ATOM     21  C   UNL d   1       0.442  -3.416   0.397  0.00  0.00     0.021 A 
ENDBRANCH   5  17
TORSDOF 3
