REMARK  6 active torsions:
REMARK  status: ('A' for Active; 'I' for Inactive)
REMARK    1  A    between atoms: C_3  and  C_1 
REMARK    2  A    between atoms: C_4  and  C_2 
REMARK    3  A    between atoms: O_10  and  C_3 
REMARK    4  A    between atoms: C_5  and  C_7 
REMARK    5  A    between atoms: O_19  and  C_6 
REMARK    6  A    between atoms: C_18  and  O_10 
ROOT
ATOM      1  C   UNL d   1       1.526  -0.252   0.047  0.00  0.00     0.088 C 
ATOM      2  C   UNL d   1       0.656  -1.354   0.075  0.00  0.00     0.067 C 
ATOM      3  C   UNL d   1       1.031   1.018  -0.299  0.00  0.00     0.086 C 
ATOM      4  C   UNL d   1      -1.242   0.174  -0.289  0.00  0.00     0.051 C 
ATOM      5  C   UNL d   1      -0.731  -1.116  -0.077  0.00  0.00     0.033 C 
ATOM      6  C   UNL d   1      -0.340   1.235  -0.429  0.00  0.00     0.053 C 
ENDROOT
BRANCH   1   7
ATOM      7  C   UNL d   1       2.937  -0.367   0.490  0.00  0.00     0.302 C 
ATOM      8  O   UNL d   1       3.764  -1.122   0.014  0.00  0.00    -0.259 OA
BRANCH   7   9
ATOM      9  O   UNL d   1       3.087   0.536   1.531  0.00  0.00    -0.275 OA
BRANCH   9  10
ATOM     10  C   UNL d   1       4.275   0.767   2.265  0.00  0.00     0.079 A 
ATOM     11  C   UNL d   1       5.273  -0.186   2.442  0.00  0.00     0.039 A 
ATOM     12  C   UNL d   1       6.356   0.109   3.274  0.00  0.00     0.026 A 
ATOM     13  C   UNL d   1       6.429   1.345   3.920  0.00  0.00     0.034 A 
ATOM     14  C   UNL d   1       5.433   2.301   3.731  0.00  0.00     0.026 A 
ATOM     15 CL   UNL d   1       7.747   1.684   4.974  0.00  0.00    -0.084 Cl
ATOM     16  C   UNL d   1       4.350   2.011   2.900  0.00  0.00     0.039 A 
ENDBRANCH   9  10
ENDBRANCH   7   9
ENDBRANCH   1   7
BRANCH   2  17
ATOM     17  C   UNL d   1       1.124  -2.768   0.325  0.00  0.00     0.418 C 
ATOM     18  F   UNL d   1       2.244  -3.121  -0.349  0.00  0.00    -0.166 F 
ATOM     19  F   UNL d   1       1.359  -3.007   1.642  0.00  0.00    -0.166 F 
ATOM     20  F   UNL d   1       0.188  -3.689  -0.053  0.00  0.00    -0.166 F 
ENDBRANCH   2  17
BRANCH   3  21
ATOM     21  O   UNL d   1       1.827   2.122  -0.482  0.00  0.00    -0.355 OA
ATOM     22  C   UNL d   1       2.702   1.964  -1.603  0.00  0.00     0.210 C 
ENDBRANCH   3  21
BRANCH   4  23
ATOM     23  C   UNL d   1      -2.730   0.437  -0.350  0.00  0.00     0.417 C 
ATOM     24  F   UNL d   1      -3.481  -0.694  -0.263  0.00  0.00    -0.166 F 
ATOM     25  F   UNL d   1      -3.150   1.244   0.663  0.00  0.00    -0.166 F 
ATOM     26  F   UNL d   1      -3.104   1.052  -1.504  0.00  0.00    -0.166 F 
ENDBRANCH   4  23
TORSDOF 6
