REMARK  5 active torsions:
REMARK  status: ('A' for Active; 'I' for Inactive)
REMARK    1  A    between atoms: C_2  and  C_1 
REMARK    2  A    between atoms: C_4  and  C_2 
REMARK    3  A    between atoms: N_6  and  C_3 
REMARK    4  A    between atoms: C_12  and  C_9 
REMARK    5  A    between atoms: C_13  and  C_12 
ROOT
ATOM      1  C   UNL d   1       0.860  -1.527   2.169  0.00  0.00     0.014 A 
ATOM      2  C   UNL d   1       1.988  -0.935   2.748  0.00  0.00     0.016 A 
ATOM      3  C   UNL d   1       0.339  -2.696   2.737  0.00  0.00     0.016 A 
ATOM      4  C   UNL d   1       2.103  -2.707   4.416  0.00  0.00    -0.058 A 
ATOM      5  C   UNL d   1       2.607  -1.526   3.856  0.00  0.00     0.008 A 
ATOM      6  C   UNL d   1       0.956  -3.281   3.851  0.00  0.00     0.008 A 
ENDROOT
BRANCH   1   7
ATOM      7  C   UNL d   1       0.172  -0.947   0.978  0.00  0.00     0.183 C 
ATOM      8  O   UNL d   1      -1.022  -1.155   0.788  0.00  0.00    -0.288 OA
BRANCH   7   9
ATOM      9  C   UNL d   1       1.002  -0.163   0.018  0.00  0.00     0.072 C 
ATOM     10  C   UNL d   1       0.463   0.455  -1.040  0.00  0.00     0.088 C 
BRANCH  10  11
ATOM     11  N   UNL d   1       1.090   1.196  -2.037  0.00  0.00    -0.398 N 
ATOM     12  C   UNL d   1       2.525   1.465  -2.095  0.00  0.00     0.148 C 
ATOM     13  C   UNL d   1       0.327   1.838  -3.111  0.00  0.00     0.148 C 
ENDBRANCH  10  11
ENDBRANCH   7   9
ENDBRANCH   1   7
BRANCH   4  14
ATOM     14  C   UNL d   1       2.756  -3.300   5.646  0.00  0.00     0.042 C 
BRANCH  14  15
ATOM     15  C   UNL d   1       3.227  -4.762   5.514  0.00  0.00    -0.019 C 
ATOM     16  C   UNL d   1       4.307  -4.933   4.443  0.00  0.00     0.010 C 
ATOM     17  C   UNL d   1       3.766  -5.255   6.862  0.00  0.00     0.010 C 
ENDBRANCH  14  15
ENDBRANCH   4  14
TORSDOF 5
