REMARK  5 active torsions:
REMARK  status: ('A' for Active; 'I' for Inactive)
REMARK    1  A    between atoms: N_10  and  N_4 
REMARK       I    between atoms: C_11  and  N_10 
REMARK    2  A    between atoms: C_17  and  C_11 
REMARK    3  A    between atoms: C_20  and  C_17 
REMARK    4  A    between atoms: O_28  and  C_18 
REMARK    5  A    between atoms: C_19  and  C_20 
ROOT
ATOM      1  C   UNL d   1      -2.429   0.648  -0.457  0.00  0.00     0.085 C 
ATOM      2  C   UNL d   1      -2.626  -0.608   0.357  0.00  0.00     0.207 C 
ATOM      3  C   UNL d   1      -2.457  -0.483   1.836  0.00  0.00     0.028 A 
ATOM      4  N   UNL d   1      -3.252   1.032  -1.392  0.00  0.00    -0.297 N 
ATOM      5  HN  UNL d   1      -3.111   1.916  -1.880  1.00  0.00     0.187 HD
ATOM      6  C   UNL d   1      -1.258   1.511  -0.015  0.00  0.00     0.004 C 
ATOM      7  C   UNL d   1      -1.973   0.753   2.333  0.00  0.00    -0.042 A 
ATOM      8  C   UNL d   1      -2.770  -1.527   2.731  0.00  0.00    -0.047 A 
ATOM      9  C   UNL d   1      -1.591   1.914   1.432  0.00  0.00     0.054 C 
ATOM     10  O   UNL d   1      -2.946  -1.621  -0.247  0.00  0.00    -0.285 OA
ATOM     11  C   UNL d   1      -1.871   0.954   3.720  0.00  0.00     0.014 A 
ATOM     12  C   UNL d   1      -2.634  -1.291   4.114  0.00  0.00     0.014 A 
ATOM     13  C   UNL d   1      -2.201  -0.061   4.617  0.00  0.00    -0.061 A 
ATOM     14  C   UNL d   1       0.061   0.722  -0.093  0.00  0.00     0.022 C 
ATOM     15  C   UNL d   1      -1.109   2.770  -0.885  0.00  0.00     0.022 C 
ATOM     16  C   UNL d   1      -3.246  -2.905   2.354  0.00  0.00     0.049 C 
ATOM     17  C   UNL d   1      -2.099   0.148   6.099  0.00  0.00     0.048 C 
ENDROOT
BRANCH   4  18
ATOM     18  N   UNL d   1      -4.312   0.219  -1.705  0.00  0.00    -0.270 N 
ATOM     19  C   UNL d   1      -5.235   0.637  -2.652  0.00  0.00     0.236 C 
ATOM     20  O   UNL d   1      -5.213   1.738  -3.204  0.00  0.00    -0.272 OA
ATOM     21  H   UNL d   1      -4.311  -0.741  -1.356  0.00  0.00     0.190 HD
BRANCH  19  22
ATOM     22  C   UNL d   1      -6.348  -0.367  -2.909  0.00  0.00     0.109 C 
BRANCH  22  23
ATOM     23  C   UNL d   1      -6.884  -0.209  -4.332  0.00  0.00     0.048 C 
BRANCH  23  24
ATOM     24  C   UNL d   1      -8.027  -1.141  -4.661  0.00  0.00    -0.058 A 
ATOM     25  C   UNL d   1      -9.354  -0.735  -4.457  0.00  0.00     0.010 A 
ATOM     26  C   UNL d   1     -10.415  -1.575  -4.807  0.00  0.00     0.037 A 
ATOM     27  C   UNL d   1     -10.154  -2.823  -5.356  0.00  0.00     0.065 A 
ATOM     28  C   UNL d   1      -8.846  -3.250  -5.559  0.00  0.00     0.037 A 
ATOM     29  C   UNL d   1      -7.784  -2.409  -5.209  0.00  0.00     0.010 A 
BRANCH  27  30
ATOM     30  O   UNL d   1     -11.218  -3.606  -5.692  0.00  0.00    -0.361 OA
ATOM     31  H   UNL d   1     -10.884  -4.434  -6.074  0.00  0.00     0.217 HD
ENDBRANCH  27  30
ENDBRANCH  23  24
ENDBRANCH  22  23
ENDBRANCH  19  22
ENDBRANCH   4  18
TORSDOF 5
