REMARK  7 active torsions:
REMARK  status: ('A' for Active; 'I' for Inactive)
REMARK    1  A    between atoms: N_4  and  C_1 
REMARK    2  A    between atoms: C_2  and  N_3 
REMARK    3  A    between atoms: N_3  and  C_6 
REMARK    4  A    between atoms: C_11  and  N_3 
REMARK    5  A    between atoms: C_5  and  N_4 
REMARK    6  A    between atoms: C_12  and  N_4 
REMARK    7  A    between atoms: C_10  and  C_9 
ROOT
ATOM      1  C   UNL d   1      -3.201   2.488   0.097  0.00  0.00     0.040 A 
ATOM      2  C   UNL d   1      -6.060   2.657   0.119  0.00  0.00    -0.026 A 
ATOM      3  C   UNL d   1      -3.943   2.173   1.246  0.00  0.00     0.031 A 
ATOM      4  C   UNL d   1      -3.913   2.891  -1.041  0.00  0.00     0.031 A 
ATOM      5  C   UNL d   1      -5.341   2.261   1.258  0.00  0.00     0.014 A 
ATOM      6  C   UNL d   1      -5.311   2.972  -1.028  0.00  0.00     0.014 A 
ENDROOT
BRANCH   2   7
ATOM      7  C   UNL d   1      -7.539   2.729   0.117  0.00  0.00    -0.026 A 
ATOM      8  C   UNL d   1      -8.277   2.411  -1.034  0.00  0.00     0.014 A 
ATOM      9  C   UNL d   1      -9.673   2.495  -1.059  0.00  0.00     0.031 A 
ATOM     10  C   UNL d   1     -10.407   2.857   0.081  0.00  0.00     0.040 A 
ATOM     11  C   UNL d   1      -9.675   3.158   1.240  0.00  0.00     0.031 A 
ATOM     12  C   UNL d   1      -8.271   3.114   1.251  0.00  0.00     0.014 A 
BRANCH  10  13
ATOM     13  N   UNL d   1     -11.854   2.910   0.056  0.00  0.00    -0.312 N 
BRANCH  13  14
ATOM     14  C   UNL d   1     -12.569   3.916   0.826  0.00  0.00     0.040 A 
ATOM     15  C   UNL d   1     -13.833   3.632   1.382  0.00  0.00     0.036 A 
ATOM     16  C   UNL d   1     -14.580   4.614   2.047  0.00  0.00    -0.060 A 
ATOM     17  C   UNL d   1     -15.970   4.323   2.530  0.00  0.00     0.048 C 
ATOM     18  C   UNL d   1     -14.027   5.885   2.224  0.00  0.00     0.007 A 
ATOM     19  C   UNL d   1     -12.764   6.177   1.716  0.00  0.00     0.003 A 
ATOM     20  C   UNL d   1     -12.050   5.207   1.007  0.00  0.00     0.030 A 
ENDBRANCH  13  14
BRANCH  13  21
ATOM     21  C   UNL d   1     -12.598   1.992  -0.790  0.00  0.00     0.040 A 
ATOM     22  C   UNL d   1     -13.760   2.406  -1.470  0.00  0.00     0.030 A 
ATOM     23  C   UNL d   1     -14.486   1.521  -2.273  0.00  0.00     0.002 A 
ATOM     24  C   UNL d   1     -14.047   0.212  -2.440  0.00  0.00     0.000 A 
ATOM     25  C   UNL d   1     -12.891  -0.219  -1.792  0.00  0.00     0.002 A 
ATOM     26  C   UNL d   1     -12.184   0.658  -0.963  0.00  0.00     0.030 A 
ENDBRANCH  13  21
ENDBRANCH  10  13
ENDBRANCH   2   7
BRANCH   1  27
ATOM     27  N   UNL d   1      -1.756   2.414   0.090  0.00  0.00    -0.312 N 
BRANCH  27  28
ATOM     28  C   UNL d   1      -1.063   1.914  -1.083  0.00  0.00     0.040 A 
ATOM     29  C   UNL d   1      -1.617   0.886  -1.873  0.00  0.00     0.036 A 
ATOM     30  C   UNL d   1      -0.977   0.420  -3.034  0.00  0.00    -0.060 A 
ATOM     31  C   UNL d   1      -1.607  -0.636  -3.891  0.00  0.00     0.048 C 
ATOM     32  C   UNL d   1       0.260   0.964  -3.392  0.00  0.00     0.007 A 
ATOM     33  C   UNL d   1       0.834   1.970  -2.619  0.00  0.00     0.003 A 
ATOM     34  C   UNL d   1       0.174   2.448  -1.484  0.00  0.00     0.030 A 
ENDBRANCH  27  28
BRANCH  27  35
ATOM     35  C   UNL d   1      -1.018   2.850   1.259  0.00  0.00     0.040 A 
ATOM     36  C   UNL d   1      -1.466   3.937   2.035  0.00  0.00     0.030 A 
ATOM     37  C   UNL d   1      -0.788   4.332   3.192  0.00  0.00     0.002 A 
ATOM     38  C   UNL d   1       0.367   3.663   3.583  0.00  0.00     0.000 A 
ATOM     39  C   UNL d   1       0.843   2.600   2.821  0.00  0.00     0.002 A 
ATOM     40  C   UNL d   1       0.152   2.191   1.675  0.00  0.00     0.030 A 
ENDBRANCH  27  35
ENDBRANCH   1  27
TORSDOF 7
