REMARK  5 active torsions:
REMARK  status: ('A' for Active; 'I' for Inactive)
REMARK    1  A    between atoms: N_2  and  S_1 
REMARK    2  A    between atoms: C_11  and  S_1 
REMARK    3  A    between atoms: C_3  and  N_2 
REMARK    4  A    between atoms: C_4  and  C_5 
REMARK       I    between atoms: C_5  and  N_12 
REMARK    5  A    between atoms: N_12  and  C_21 
ROOT
ATOM      1  C   UNL d   1       0.362  -0.806   1.334  0.00  0.00     0.075 A 
ATOM      2  C   UNL d   1       0.167  -2.168   1.095  0.00  0.00     0.027 A 
ATOM      3  C   UNL d   1       0.213  -0.289   2.622  0.00  0.00     0.027 A 
ATOM      4  C   UNL d   1      -0.259  -2.517   3.464  0.00  0.00     0.035 A 
ATOM      5  C   UNL d   1      -0.156  -3.016   2.157  0.00  0.00     0.031 A 
ATOM      6  C   UNL d   1      -0.103  -1.146   3.681  0.00  0.00     0.031 A 
ENDROOT
BRANCH   1   7
ATOM      7  S   UNL d   1       0.961   0.228   0.028  0.00  0.00     0.247 S 
ATOM      8  O   UNL d   1       1.590   1.389   0.624  0.00  0.00    -0.205 OA
ATOM      9  O   UNL d   1       1.691  -0.590  -0.917  0.00  0.00    -0.205 OA
BRANCH   7  10
ATOM     10  N   UNL d   1      -0.448   0.811  -0.694  0.00  0.00    -0.165 NA
ATOM     11  H   UNL d   1      -0.316   1.805  -0.859  0.00  0.00     0.147 HD
BRANCH  10  12
ATOM     12  C   UNL d   1      -0.978   0.064  -1.736  0.00  0.00     0.117 A 
ATOM     13  N   UNL d   1      -1.831  -0.940  -1.528  0.00  0.00    -0.249 N 
ATOM     14  O   UNL d   1      -2.155  -1.420  -2.784  0.00  0.00    -0.241 OA
ATOM     15  HN  UNL d   1      -2.172  -1.283  -0.630  1.00  0.00     0.196 HD
ATOM     16  C   UNL d   1      -1.484  -0.705  -3.727  0.00  0.00     0.075 A 
ATOM     17  C   UNL d   1      -0.734   0.266  -3.108  0.00  0.00     0.079 A 
ATOM     18  C   UNL d   1      -1.692  -1.111  -5.127  0.00  0.00     0.079 C 
ENDBRANCH  10  12
ENDBRANCH   7  10
ENDBRANCH   1   7
BRANCH   4  19
ATOM     19  N   UNL d   1      -0.449  -3.461   4.492  0.00  0.00    -0.323 N 
ATOM     20  C   UNL d   1      -0.439  -3.238   5.857  0.00  0.00     0.257 C 
ATOM     21  O   UNL d   1      -0.393  -2.151   6.418  0.00  0.00    -0.267 OA
ATOM     22  H   UNL d   1      -0.522  -4.424   4.186  0.00  0.00     0.169 HD
BRANCH  20  23
ATOM     23  C   UNL d   1      -0.360  -4.466   6.705  0.00  0.00     0.054 A 
ATOM     24  C   UNL d   1      -0.985  -5.688   6.413  0.00  0.00     0.052 A 
ATOM     25  C   UNL d   1      -0.746  -6.808   7.216  0.00  0.00     0.067 A 
ATOM     26 CL   UNL d   1      -2.082  -5.901   5.094  0.00  0.00    -0.083 Cl
ATOM     27  C   UNL d   1       0.096  -6.702   8.316  0.00  0.00     0.118 A 
ATOM     28  C   UNL d   1       0.688  -5.493   8.651  0.00  0.00     0.043 A 
ATOM     29  F   UNL d   1       0.340  -7.786   9.064  0.00  0.00    -0.206 F 
ATOM     30  C   UNL d   1       0.458  -4.374   7.850  0.00  0.00     0.022 A 
ENDBRANCH  20  23
ENDBRANCH   4  19
TORSDOF 5
