REMARK  3 active torsions:
REMARK  status: ('A' for Active; 'I' for Inactive)
REMARK    1  A    between atoms: N_18  and  C_2 
REMARK    2  A    between atoms: C_17  and  N_19 
REMARK    3  A    between atoms: N_19  and  N_18 
ROOT
ATOM      1  C   UNL d   1      -2.156  -6.162  -0.648  0.00  0.00     0.141 C 
ATOM      2  C   UNL d   1      -3.301  -5.921  -1.452  0.00  0.00     0.112 C 
ATOM      3  C   UNL d   1      -1.776  -7.505  -0.369  0.00  0.00     0.112 C 
ATOM      4  N   UNL d   1      -4.228  -5.714  -2.119  0.00  0.00    -0.191 NA
ATOM      5  N   UNL d   1      -1.444  -8.590  -0.133  0.00  0.00    -0.191 NA
ATOM      6  C   UNL d   1      -1.400  -5.153  -0.181  0.00  0.00     0.141 C 
ENDROOT
BRANCH   6   7
ATOM      7  N   UNL d   1      -1.539  -3.791  -0.310  0.00  0.00    -0.308 N 
ATOM      8  H   UNL d   1      -2.449  -3.428  -0.624  0.00  0.00     0.186 HD
BRANCH   7   9
ATOM      9  N   UNL d   1      -0.681  -2.861   0.196  0.00  0.00    -0.285 N 
ATOM     10  H   UNL d   1       0.314  -3.040   0.058  0.00  0.00     0.188 HD
BRANCH   9  11
ATOM     11  C   UNL d   1      -0.950  -1.480   0.101  0.00  0.00     0.140 A 
ATOM     12  C   UNL d   1       0.080  -0.532   0.087  0.00  0.00     0.077 A 
ATOM     13  S   UNL d   1       1.786  -0.769   0.147  0.00  0.00    -0.096 SA
ATOM     14  C   UNL d   1      -0.236   0.817  -0.004  0.00  0.00     0.054 A 
ATOM     15  C   UNL d   1       2.094   0.906   0.038  0.00  0.00     0.053 A 
ATOM     16  C   UNL d   1       0.930   1.639  -0.026  0.00  0.00     0.038 A 
ATOM     17  N   UNL d   1      -1.512   1.265  -0.067  0.00  0.00    -0.351 N 
ATOM     18  C   UNL d   1      -2.431   0.293  -0.058  0.00  0.00     0.182 A 
ATOM     19  HN  UNL d   1      -1.752   2.255  -0.118  1.00  0.00     0.166 HD
ATOM     20  N   UNL d   1      -2.224  -1.032   0.005  0.00  0.00    -0.336 N 
ATOM     21  HN  UNL d   1      -3.008  -1.686  -0.018  1.00  0.00     0.168 HD
ENDBRANCH   9  11
ENDBRANCH   7   9
ENDBRANCH   6   7
TORSDOF 3
