REMARK  5 active torsions:
REMARK  status: ('A' for Active; 'I' for Inactive)
REMARK    1  A    between atoms: C_13  and  C_7 
REMARK    2  A    between atoms: C_10  and  C_8 
REMARK    3  A    between atoms: C_12  and  C_10 
REMARK    4  A    between atoms: O_15  and  C_12 
REMARK    5  A    between atoms: C_18  and  O_15 
ROOT
ATOM      1  N   UNL d   1      -1.462  -0.998   0.132  0.00  0.00    -0.319 N 
ATOM      2  HN  UNL d   1      -1.993  -1.866   0.211  1.00  0.00     0.169 HD
ATOM      3  N   UNL d   1       0.165   0.493   0.007  0.00  0.00    -0.235 N 
ATOM      4  C   UNL d   1      -0.177  -0.817   0.154  0.00  0.00     0.172 A 
ATOM      5  N   UNL d   1      -0.951   1.240  -0.118  0.00  0.00    -0.276 N 
ATOM      6  HN  UNL d   1      -1.040   2.248  -0.248  1.00  0.00     0.189 HD
ATOM      7  C   UNL d   1      -1.923   0.301  -0.027  0.00  0.00     0.132 A 
ATOM      8  C   UNL d   1       1.535   0.726  -0.020  0.00  0.00     0.052 A 
ATOM      9  S   UNL d   1       1.206  -1.850   0.273  0.00  0.00    -0.062 SA
ATOM     10  C   UNL d   1       2.233  -0.420   0.111  0.00  0.00     0.081 A 
ENDROOT
BRANCH   7  11
ATOM     11  C   UNL d   1      -3.359   0.576  -0.117  0.00  0.00     0.009 A 
ATOM     12  C   UNL d   1      -3.859   1.882  -0.196  0.00  0.00     0.015 A 
ATOM     13  C   UNL d   1      -5.238   2.110  -0.290  0.00  0.00     0.001 A 
ATOM     14  C   UNL d   1      -6.128   1.036  -0.308  0.00  0.00     0.000 A 
ATOM     15  C   UNL d   1      -5.644  -0.267  -0.226  0.00  0.00     0.001 A 
ATOM     16  C   UNL d   1      -4.270  -0.494  -0.129  0.00  0.00     0.015 A 
ENDBRANCH   7  11
BRANCH   8  17
ATOM     17  C   UNL d   1       2.089   2.100  -0.187  0.00  0.00     0.170 C 
BRANCH  17  18
ATOM     18  C   UNL d   1       1.792   2.965   1.022  0.00  0.00     0.264 C 
ATOM     19  O   UNL d   1       1.456   2.555   2.124  0.00  0.00    -0.265 OA
BRANCH  18  20
ATOM     20  O   UNL d   1       1.984   4.273   0.688  0.00  0.00    -0.322 OA
BRANCH  20  21
ATOM     21  C   UNL d   1       1.531   5.231   1.655  0.00  0.00     0.174 C 
ATOM     22  C   UNL d   1       0.071   5.540   1.379  0.00  0.00     0.034 C 
ENDBRANCH  20  21
ENDBRANCH  18  20
ENDBRANCH  17  18
ENDBRANCH   8  17
TORSDOF 5
