REMARK  6 active torsions:
REMARK  status: ('A' for Active; 'I' for Inactive)
REMARK    1  A    between atoms: C_8  and  N_1 
REMARK    2  A    between atoms: C_11  and  C_2 
REMARK    3  A    between atoms: S_18  and  C_3 
REMARK    4  A    between atoms: C_16  and  C_11 
REMARK    5  A    between atoms: O_23  and  C_12 
REMARK    6  A    between atoms: O_24  and  C_14 
ROOT
ATOM      1  N   UNL d   1      -0.269  -1.011   0.975  0.00  0.00    -0.279 N 
ATOM      2  C   UNL d   1       0.799  -0.841   0.090  0.00  0.00     0.109 A 
ATOM      3  C   UNL d   1      -1.323  -0.362   0.338  0.00  0.00     0.164 A 
ATOM      4  N   UNL d   1       0.380  -0.188  -0.980  0.00  0.00    -0.286 N 
ATOM      5  HN  UNL d   1       0.952   0.059  -1.787  1.00  0.00     0.188 HD
ATOM      6  N   UNL d   1      -0.940   0.104  -0.826  0.00  0.00    -0.278 N 
ATOM      7  HN  UNL d   1      -1.529   0.597  -1.497  1.00  0.00     0.189 HD
ENDROOT
BRANCH   2   8
ATOM      8  C   UNL d   1       2.204  -1.331   0.215  0.00  0.00     0.117 C 
BRANCH   8   9
ATOM      9  C   UNL d   1       2.403  -2.807  -0.046  0.00  0.00    -0.048 A 
ATOM     10  C   UNL d   1       2.597  -3.701   1.016  0.00  0.00     0.047 A 
ATOM     11  C   UNL d   1       2.869  -5.063   0.802  0.00  0.00     0.102 A 
ATOM     12  C   UNL d   1       2.944  -5.541  -0.515  0.00  0.00     0.101 A 
ATOM     13  C   UNL d   1       2.725  -4.653  -1.579  0.00  0.00     0.040 A 
ATOM     14  C   UNL d   1       2.456  -3.300  -1.352  0.00  0.00     0.010 A 
BRANCH  11  15
ATOM     15  O   UNL d   1       3.032  -5.946   1.837  0.00  0.00    -0.353 OA
ATOM     16  C   UNL d   1       3.350  -5.413   3.116  0.00  0.00     0.210 C 
ENDBRANCH  11  15
BRANCH  12  17
ATOM     17  O   UNL d   1       3.215  -6.815  -0.945  0.00  0.00    -0.353 OA
ATOM     18  C   UNL d   1       3.710  -7.757  -0.004  0.00  0.00     0.210 C 
ENDBRANCH  12  17
ENDBRANCH   8   9
ENDBRANCH   2   8
BRANCH   1  19
ATOM     19  C   UNL d   1      -0.292  -1.670   2.240  0.00  0.00     0.044 A 
ATOM     20  C   UNL d   1       0.766  -1.541   3.141  0.00  0.00     0.054 A 
ATOM     21  C   UNL d   1       0.720  -2.179   4.390  0.00  0.00     0.042 A 
ATOM     22 CL   UNL d   1       2.109  -2.046   5.408  0.00  0.00    -0.084 Cl
ATOM     23  C   UNL d   1      -0.412  -2.908   4.785  0.00  0.00    -0.040 A 
ATOM     24  C   UNL d   1      -1.465  -3.040   3.871  0.00  0.00     0.011 A 
ATOM     25  C   UNL d   1      -0.511  -3.579   6.125  0.00  0.00     0.050 C 
ATOM     26  C   UNL d   1      -1.402  -2.443   2.609  0.00  0.00     0.031 A 
ENDBRANCH   1  19
BRANCH   3  27
ATOM     27  S   UNL d   1      -2.879   0.016   1.015  0.00  0.00    -0.105 SA
ATOM     28  H   UNL d   1      -2.600  -0.129   2.317  0.00  0.00     0.110 HD
ENDBRANCH   3  27
TORSDOF 6
