REMARK  2 active torsions:
REMARK  status: ('A' for Active; 'I' for Inactive)
REMARK    1  A    between atoms: C_6  and  N_1 
REMARK    2  A    between atoms: N_7  and  C_6 
ROOT
ATOM      1  N   UNL d   1       0.007  -1.426  -0.101  0.00  0.00    -0.319 N 
ATOM      2  C   UNL d   1       0.589   0.737  -0.061  0.00  0.00     0.005 A 
ATOM      3  C   UNL d   1      -0.836   0.649  -0.048  0.00  0.00     0.005 A 
ATOM      4  C   UNL d   1       1.101  -0.568  -0.081  0.00  0.00     0.047 A 
ATOM      5  C   UNL d   1      -1.174  -0.703  -0.050  0.00  0.00     0.047 A 
ATOM      6  C   UNL d   1      -2.512  -1.138  -0.011  0.00  0.00     0.032 A 
ATOM      7  C   UNL d   1       2.486  -0.810  -0.071  0.00  0.00     0.032 A 
ATOM      8  C   UNL d   1       1.485   1.826  -0.036  0.00  0.00     0.038 A 
ATOM      9  C   UNL d   1      -1.864   1.612  -0.019  0.00  0.00     0.038 A 
ATOM     10  C   UNL d   1       2.858   1.586  -0.024  0.00  0.00     0.035 A 
ATOM     11  C   UNL d   1      -3.195   1.185   0.010  0.00  0.00     0.035 A 
ATOM     12  C   UNL d   1       3.356   0.288  -0.037  0.00  0.00     0.026 A 
ATOM     13  C   UNL d   1      -3.516  -0.167   0.017  0.00  0.00     0.026 A 
ATOM     14 CL   UNL d   1       3.950   2.917   0.017  0.00  0.00    -0.084 Cl
ATOM     15 CL   UNL d   1      -4.457   2.357   0.035  0.00  0.00    -0.084 Cl
ENDROOT
BRANCH   1  16
ATOM     16  C   UNL d   1       0.077  -2.890  -0.024  0.00  0.00     0.403 C 
BRANCH  16  17
ATOM     17  N   UNL d   1      -0.639  -3.509  -1.163  0.00  0.00     0.106 N 
ATOM     18  C   UNL d   1       0.097  -3.309  -2.421  0.00  0.00     0.274 C 
ATOM     19  C   UNL d   1      -0.475  -4.098  -3.602  0.00  0.00     0.030 C 
ATOM     20  C   UNL d   1      -0.630  -5.574  -3.269  0.00  0.00     0.003 C 
ATOM     21  C   UNL d   1      -1.471  -5.728  -2.013  0.00  0.00     0.030 C 
ATOM     22  C   UNL d   1      -0.885  -4.925  -0.852  0.00  0.00     0.274 C 
ENDBRANCH  16  17
ENDBRANCH   1  16
TORSDOF 2
