REMARK  7 active torsions:
REMARK  status: ('A' for Active; 'I' for Inactive)
REMARK    1  A    between atoms: C_13  and  C_1 
REMARK    2  A    between atoms: N_2  and  O_11 
REMARK    3  A    between atoms: C_4  and  C_10 
REMARK    4  A    between atoms: C_5  and  C_13 
REMARK    5  A    between atoms: O_11  and  C_5 
REMARK    6  A    between atoms: C_12  and  C_6 
REMARK    7  A    between atoms: C_28  and  C_6 
ROOT
ATOM      1  N   UNL d   1      -0.420   2.445  -0.264  0.00  0.00    -0.261 N 
ATOM      2  HN  UNL d   1       0.322   3.110  -0.043  1.00  0.00     0.194 HD
ATOM      3  C   UNL d   1      -1.481   2.756  -0.954  0.00  0.00     0.042 C 
ENDROOT
BRANCH   1   4
ATOM      4  O   UNL d   1      -0.401   1.087   0.149  0.00  0.00    -0.200 OA
BRANCH   4   5
ATOM      5  C   UNL d   1       0.671   0.871   0.971  0.00  0.00     0.281 C 
ATOM      6  O   UNL d   1       1.478   1.725   1.338  0.00  0.00    -0.263 OA
BRANCH   5   7
ATOM      7  C   UNL d   1       0.719  -0.536   1.543  0.00  0.00     0.122 C 
BRANCH   7   8
ATOM      8  C   UNL d   1       0.377  -1.797   0.712  0.00  0.00    -0.031 C 
ATOM      9  C   UNL d   1       1.120  -1.843  -0.645  0.00  0.00     0.014 C 
ATOM     10  C   UNL d   1       0.839  -3.172  -1.376  0.00  0.00    -0.013 C 
ATOM     11  C   UNL d   1       1.316  -4.349  -0.508  0.00  0.00     0.009 C 
ATOM     12  C   UNL d   1      -0.673  -3.313  -1.622  0.00  0.00     0.009 C 
ATOM     13  C   UNL d   1       0.563  -4.351   0.830  0.00  0.00    -0.013 C 
ATOM     14  C   UNL d   1       0.840  -3.028   1.556  0.00  0.00     0.014 C 
ATOM     15  C   UNL d   1      -0.946  -4.475   0.576  0.00  0.00     0.009 C 
ATOM     16  C   UNL d   1      -1.427  -3.294  -0.282  0.00  0.00    -0.013 C 
ATOM     17  C   UNL d   1      -1.141  -1.967   0.453  0.00  0.00     0.014 C 
ENDBRANCH   7   8
ENDBRANCH   5   7
ENDBRANCH   4   5
ENDBRANCH   1   4
BRANCH   3  18
ATOM     18  C   UNL d   1      -1.631   4.175  -1.460  0.00  0.00    -0.012 A 
ATOM     19  C   UNL d   1      -0.750   5.170  -1.016  0.00  0.00     0.014 A 
ATOM     20  C   UNL d   1      -0.856   6.498  -1.478  0.00  0.00     0.013 A 
ATOM     21  C   UNL d   1      -1.836   6.884  -2.410  0.00  0.00    -0.023 A 
ATOM     22  C   UNL d   1      -2.716   5.874  -2.837  0.00  0.00     0.013 A 
ATOM     23  C   UNL d   1      -2.618   4.547  -2.377  0.00  0.00     0.014 A 
BRANCH  21  24
ATOM     24  C   UNL d   1      -1.922   8.269  -2.950  0.00  0.00     0.013 A 
ATOM     25  C   UNL d   1      -3.146   8.878  -3.296  0.00  0.00     0.127 A 
ATOM     26  F   UNL d   1      -4.308   8.239  -3.085  0.00  0.00    -0.205 F 
ATOM     27  C   UNL d   1      -3.212  10.153  -3.863  0.00  0.00     0.043 A 
ATOM     28  C   UNL d   1      -2.050  10.878  -4.093  0.00  0.00     0.003 A 
ATOM     29  C   UNL d   1      -0.821  10.317  -3.746  0.00  0.00     0.001 A 
ATOM     30  C   UNL d   1      -0.761   9.035  -3.188  0.00  0.00     0.015 A 
ENDBRANCH  21  24
ENDBRANCH   3  18
BRANCH   3  31
ATOM     31  C   UNL d   1      -2.566   1.730  -1.269  0.00  0.00     0.055 C 
ATOM     32  C   UNL d   1      -2.145   0.834  -2.422  0.00  0.00     0.011 C 
ENDBRANCH   3  31
TORSDOF 7
