REMARK  2 active torsions:
REMARK  status: ('A' for Active; 'I' for Inactive)
REMARK    1  A    between atoms: C_2  and  S_1 
REMARK    2  A    between atoms: C_5  and  S_1 
ROOT
ATOM      1  N   UNL d   1       2.920  -0.300   2.905  0.00  0.00    -0.196 NA
ATOM      2  C   UNL d   1       1.103   0.888   1.452  0.00  0.00     0.269 C 
ATOM      3  C   UNL d   1       2.123   0.216   2.237  0.00  0.00     0.074 C 
ENDROOT
BRANCH   2   4
ATOM      4  S   UNL d   1       0.964   0.042  -0.092  0.00  0.00     0.194 S 
ATOM      5  O   UNL d   1      -0.191   0.567  -0.798  0.00  0.00    -0.221 OA
ATOM      6  O   UNL d   1       2.261  -0.015  -0.737  0.00  0.00    -0.221 OA
BRANCH   4   7
ATOM      7  C   UNL d   1       0.552  -1.650   0.274  0.00  0.00     0.100 A 
ATOM      8  S   UNL d   1      -0.885  -1.916   1.166  0.00  0.00    -0.090 SA
ATOM      9  C   UNL d   1      -0.693  -3.614   1.094  0.00  0.00     0.051 A 
ATOM     10  C   UNL d   1       0.448  -3.976   0.414  0.00  0.00     0.009 A 
ATOM     11  C   UNL d   1       1.170  -2.841  -0.056  0.00  0.00     0.031 A 
ENDBRANCH   4   7
ENDBRANCH   2   4
TORSDOF 2
