REMARK  4 active torsions:
REMARK  status: ('A' for Active; 'I' for Inactive)
REMARK    1  A    between atoms: O_5  and  C_1 
REMARK       I    between atoms: N_6  and  C_1 
REMARK    2  A    between atoms: C_7  and  O_5 
REMARK    3  A    between atoms: C_8  and  N_6 
REMARK    4  A    between atoms: C_9  and  C_7 
ROOT
ATOM      1  N   UNL d   1       5.744  -0.618  -1.389  0.00  0.00    -0.196 NA
ATOM      2  C   UNL d   1       4.621  -0.539  -1.674  0.00  0.00     0.078 C 
ATOM      3  C   UNL d   1       3.196  -0.447  -2.011  0.00  0.00     0.249 C 
ENDROOT
BRANCH   3   4
ATOM      4  N   UNL d   1       2.346  -0.786  -0.893  0.00  0.00    -0.325 N 
ATOM      5  C   UNL d   1       0.993  -0.771  -1.022  0.00  0.00     0.361 C 
ATOM      6  O   UNL d   1       0.410  -0.468  -2.053  0.00  0.00    -0.238 OA
ATOM      7  H   UNL d   1       2.725  -1.050   0.007  0.00  0.00     0.165 HD
BRANCH   5   8
ATOM      8  O   UNL d   1       0.420  -1.128   0.146  0.00  0.00    -0.299 OA
BRANCH   8   9
ATOM      9  C   UNL d   1      -1.011  -1.152   0.147  0.00  0.00     0.219 C 
BRANCH   9  10
ATOM     10  C   UNL d   1      -1.488  -2.539   0.489  0.00  0.00    -0.034 A 
ATOM     11  C   UNL d   1      -1.717  -2.910   1.821  0.00  0.00     0.009 A 
ATOM     12  C   UNL d   1      -2.201  -4.184   2.126  0.00  0.00     0.001 A 
ATOM     13  C   UNL d   1      -2.450  -5.100   1.105  0.00  0.00     0.000 A 
ATOM     14  C   UNL d   1      -2.195  -4.753  -0.220  0.00  0.00     0.001 A 
ATOM     15  C   UNL d   1      -1.709  -3.480  -0.527  0.00  0.00     0.009 A 
ENDBRANCH   9  10
ENDBRANCH   8   9
ENDBRANCH   5   8
ENDBRANCH   3   4
TORSDOF 4
