REMARK  4 active torsions:
REMARK  status: ('A' for Active; 'I' for Inactive)
REMARK    1  A    between atoms: N_2  and  C_1 
REMARK    2  A    between atoms: C_3  and  C_8 
REMARK    3  A    between atoms: C_4  and  O_5 
REMARK    4  A    between atoms: O_5  and  C_6 
ROOT
ATOM      1  C   UNL d   1       1.363  -0.034  -0.217  0.00  0.00     0.137 A 
ATOM      2  C   UNL d   1       0.547  -1.175  -0.123  0.00  0.00     0.109 A 
ATOM      3  C   UNL d   1       0.811   1.250  -0.026  0.00  0.00     0.055 A 
ATOM      4  C   UNL d   1      -0.551   1.408   0.282  0.00  0.00     0.050 A 
ATOM      5  C   UNL d   1      -0.798  -1.012   0.248  0.00  0.00     0.040 A 
ATOM      6  C   UNL d   1      -1.343   0.263   0.431  0.00  0.00     0.019 A 
ENDROOT
BRANCH   2   7
ATOM      7  O   UNL d   1       1.088  -2.416  -0.384  0.00  0.00    -0.305 OA
BRANCH   7   8
ATOM      8  C   UNL d   1       0.271  -3.438  -0.812  0.00  0.00     0.119 A 
ATOM      9  C   UNL d   1      -0.458  -3.390  -2.011  0.00  0.00     0.069 A 
ATOM     10 CL   UNL d   1      -0.382  -2.044  -3.093  0.00  0.00    -0.081 Cl
ATOM     11  C   UNL d   1      -1.270  -4.468  -2.383  0.00  0.00     0.027 A 
ATOM     12  C   UNL d   1      -1.323  -5.615  -1.591  0.00  0.00     0.003 A 
ATOM     13  C   UNL d   1      -0.556  -5.692  -0.430  0.00  0.00     0.027 A 
ATOM     14  C   UNL d   1       0.240  -4.610  -0.044  0.00  0.00     0.069 A 
ATOM     15 CL   UNL d   1       1.170  -4.759   1.405  0.00  0.00    -0.081 Cl
ENDBRANCH   7   8
ENDBRANCH   2   7
BRANCH   1  16
ATOM     16  N   UNL d   1       2.806  -0.123  -0.514  0.00  0.00    -0.113 N 
ATOM     17  O   UNL d   1       3.338  -1.236  -0.611  0.00  0.00    -0.532 OA
ATOM     18  O   UNL d   1       3.424   0.946  -0.634  0.00  0.00    -0.532 OA
ENDBRANCH   1  16
BRANCH   4  19
ATOM     19  C   UNL d   1      -1.169   2.780   0.422  0.00  0.00     0.417 C 
ATOM     20  F   UNL d   1      -0.255   3.787   0.452  0.00  0.00    -0.166 F 
ATOM     21  F   UNL d   1      -2.015   3.068  -0.605  0.00  0.00    -0.166 F 
ATOM     22  F   UNL d   1      -1.904   2.905   1.562  0.00  0.00    -0.166 F 
ENDBRANCH   4  19
TORSDOF 4
