REMARK  0 active torsions:
REMARK  status: ('A' for Active; 'I' for Inactive)
ROOT
ATOM      1  C   UNL d   1      -1.247   0.760  -0.001  0.00  0.00     0.066 A 
ATOM      2  C   UNL d   1      -0.000   1.524  -0.002  0.00  0.00     0.199 A 
ATOM      3  C   UNL d   1      -1.193  -0.625  -0.002  0.00  0.00     0.162 A 
ATOM      4  O   UNL d   1      -0.013  -1.334  -0.002  0.00  0.00    -0.292 OA
ATOM      5  C   UNL d   1       1.248   0.754  -0.001  0.00  0.00     0.049 A 
ATOM      6  C   UNL d   1       1.170  -0.636  -0.001  0.00  0.00     0.092 A 
ATOM      7  N   UNL d   1      -2.308  -1.394  -0.001  0.00  0.00    -0.346 N 
ATOM      8  HN  UNL d   1      -2.251  -2.413  -0.002  1.00  0.00     0.167 HD
ATOM      9  O   UNL d   1      -0.004   2.748  -0.003  0.00  0.00    -0.286 OA
ATOM     10  C   UNL d   1      -2.486   1.399   0.000  0.00  0.00     0.021 A 
ATOM     11  C   UNL d   1       2.484   1.406  -0.000  0.00  0.00     0.018 A 
ATOM     12  C   UNL d   1       2.347  -1.386  -0.001  0.00  0.00     0.038 A 
ATOM     13  C   UNL d   1      -3.501  -0.754   0.000  0.00  0.00     0.090 A 
ATOM     14  C   UNL d   1      -3.640   0.626   0.001  0.00  0.00     0.018 A 
ATOM     15  C   UNL d   1       3.656   0.653   0.000  0.00  0.00     0.001 A 
ATOM     16  C   UNL d   1       3.588  -0.741   0.000  0.00  0.00     0.003 A 
ENDROOT
TORSDOF 0
