REMARK  4 active torsions:
REMARK  status: ('A' for Active; 'I' for Inactive)
REMARK    1  A    between atoms: C_15  and  C_3 
REMARK    2  A    between atoms: N_12  and  C_5 
REMARK       I    between atoms: C_7  and  N_11 
REMARK    3  A    between atoms: C_8  and  C_7 
REMARK    4  A    between atoms: N_11  and  N_12 
ROOT
ATOM      1  C   UNL d   1       0.035  -0.602  -0.075  0.00  0.00     0.072 A 
ATOM      2  S   UNL d   1       1.738  -0.819  -0.104  0.00  0.00    -0.088 SA
ATOM      3  C   UNL d   1       2.061   0.873  -0.028  0.00  0.00    -0.007 A 
ATOM      4  C   UNL d   1       0.870   1.577   0.032  0.00  0.00     0.046 A 
ATOM      5  C   UNL d   1      -0.991  -1.558  -0.131  0.00  0.00     0.119 A 
ATOM      6  C   UNL d   1      -0.289   0.743   0.017  0.00  0.00     0.054 A 
ATOM      7  N   UNL d   1      -2.270  -1.111  -0.066  0.00  0.00    -0.341 N 
ATOM      8  HN  UNL d   1      -3.053  -1.765  -0.086  1.00  0.00     0.167 HD
ATOM      9  N   UNL d   1      -1.569   1.186   0.068  0.00  0.00    -0.351 N 
ATOM     10  HN  UNL d   1      -1.813   2.174   0.134  1.00  0.00     0.166 HD
ATOM     11  C   UNL d   1      -2.482   0.211   0.025  0.00  0.00     0.182 A 
ENDROOT
BRANCH   5  12
ATOM     12  N   UNL d   1      -0.722  -2.929  -0.303  0.00  0.00    -0.186 NA
ATOM     13  H   UNL d   1       0.245  -3.168  -0.062  0.00  0.00     0.154 HD
BRANCH  12  14
ATOM     14  N   UNL d   1      -1.656  -3.770   0.324  0.00  0.00    -0.280 N 
ATOM     15  C   UNL d   1      -1.195  -4.957   0.871  0.00  0.00     0.289 C 
ATOM     16  O   UNL d   1       0.007  -5.225   0.899  0.00  0.00    -0.264 OA
ATOM     17  H   UNL d   1      -2.643  -3.557   0.203  0.00  0.00     0.184 HD
BRANCH  15  18
ATOM     18  C   UNL d   1      -2.222  -5.832   1.395  0.00  0.00     0.143 A 
ATOM     19  O   UNL d   1      -3.529  -5.417   1.424  0.00  0.00    -0.317 OA
ATOM     20  C   UNL d   1      -4.252  -6.421   1.991  0.00  0.00     0.143 A 
ATOM     21  C   UNL d   1      -3.441  -7.481   2.314  0.00  0.00     0.027 A 
ATOM     22  C   UNL d   1      -2.132  -7.104   1.929  0.00  0.00     0.045 A 
ENDBRANCH  15  18
ENDBRANCH  12  14
ENDBRANCH   5  12
BRANCH   3  23
ATOM     23  C   UNL d   1       3.505   1.399  -0.037  0.00  0.00    -0.018 C 
ATOM     24  C   UNL d   1       4.236   0.948  -1.319  0.00  0.00     0.020 C 
ATOM     25  C   UNL d   1       3.538   2.943  -0.002  0.00  0.00     0.020 C 
ATOM     26  C   UNL d   1       4.276   0.890   1.198  0.00  0.00     0.020 C 
ENDBRANCH   3  23
TORSDOF 4
