REMARK  4 active torsions:
REMARK  status: ('A' for Active; 'I' for Inactive)
REMARK    1  A    between atoms: C_3  and  C_1 
REMARK    2  A    between atoms: C_11  and  C_2 
REMARK    3  A    between atoms: C_8  and  C_11 
REMARK    4  A    between atoms: O_17  and  C_10 
ROOT
ATOM      1  C   UNL d   1       0.318  -2.532  -2.714  0.00  0.00     0.087 A 
ATOM      2  C   UNL d   1      -0.975  -0.655  -2.263  0.00  0.00     0.122 A 
ATOM      3  N   UNL d   1      -0.847  -2.009  -2.277  0.00  0.00    -0.342 N 
ATOM      4  HN  UNL d   1      -1.609  -2.612  -1.967  1.00  0.00     0.167 HD
ATOM      5  N   UNL d   1       1.358  -1.794  -3.136  0.00  0.00    -0.326 N 
ATOM      6  HN  UNL d   1       2.229  -2.216  -3.458  1.00  0.00     0.169 HD
ATOM      7  C   UNL d   1       0.045   0.171  -2.688  0.00  0.00     0.090 A 
ATOM      8  C   UNL d   1       1.177  -0.472  -3.106  0.00  0.00     0.143 A 
ENDROOT
BRANCH   1   9
ATOM      9  C   UNL d   1       0.421  -4.035  -2.814  0.00  0.00     0.118 C 
BRANCH   9  10
ATOM     10  C   UNL d   1       1.000  -4.724  -1.593  0.00  0.00    -0.008 A 
ATOM     11  C   UNL d   1       0.180  -5.115  -0.515  0.00  0.00     0.042 A 
ATOM     12 CL   UNL d   1      -1.522  -4.806  -0.486  0.00  0.00    -0.084 Cl
ATOM     13  C   UNL d   1       0.708  -5.799   0.588  0.00  0.00     0.024 A 
ATOM     14  C   UNL d   1       2.063  -6.104   0.645  0.00  0.00     0.003 A 
ATOM     15  C   UNL d   1       2.897  -5.707  -0.396  0.00  0.00     0.024 A 
ATOM     16  C   UNL d   1       2.375  -5.016  -1.498  0.00  0.00     0.042 A 
ATOM     17 CL   UNL d   1       3.503  -4.569  -2.730  0.00  0.00    -0.084 Cl
ENDBRANCH   9  10
ENDBRANCH   1   9
BRANCH   2  18
ATOM     18  C   UNL d   1      -2.277  -0.025  -1.797  0.00  0.00     0.432 C 
ATOM     19  F   UNL d   1      -3.195  -0.914  -1.323  0.00  0.00    -0.165 F 
ATOM     20  F   UNL d   1      -2.906   0.661  -2.797  0.00  0.00    -0.165 F 
ATOM     21  F   UNL d   1      -2.088   0.883  -0.795  0.00  0.00    -0.165 F 
ENDBRANCH   2  18
BRANCH   8  22
ATOM     22  O   UNL d   1       2.236   0.246  -3.559  0.00  0.00    -0.346 OA
ATOM     23  H   UNL d   1       2.856  -0.472  -3.785  0.00  0.00     0.219 HD
ENDBRANCH   8  22
TORSDOF 4
