REMARK  4 active torsions:
REMARK  status: ('A' for Active; 'I' for Inactive)
REMARK    1  A    between atoms: C_6  and  N_1 
REMARK    2  A    between atoms: C_5  and  C_2 
REMARK    3  A    between atoms: C_19  and  C_16 
REMARK    4  A    between atoms: C_20  and  C_19 
ROOT
ATOM      1  N   UNL d   1      -0.619  -1.120   0.218  0.00  0.00    -0.299 N 
ATOM      2  C   UNL d   1      -0.219  -0.156   1.233  0.00  0.00     0.190 C 
ATOM      3  S   UNL d   1       0.525   1.244   0.354  0.00  0.00    -0.129 SA
ATOM      4  C   UNL d   1      -0.095  -0.934  -1.063  0.00  0.00     0.235 C 
ATOM      5  C   UNL d   1       0.799   0.284  -1.141  0.00  0.00     0.179 C 
ATOM      6  O   UNL d   1      -0.244  -1.677  -2.027  0.00  0.00    -0.272 OA
ENDROOT
BRANCH   1   7
ATOM      7  C   UNL d   1      -1.402  -2.259   0.559  0.00  0.00     0.038 A 
ATOM      8  C   UNL d   1      -1.253  -2.898   1.796  0.00  0.00     0.030 A 
ATOM      9  C   UNL d   1      -2.066  -3.978   2.145  0.00  0.00     0.009 A 
ATOM     10  C   UNL d   1      -3.062  -4.432   1.274  0.00  0.00    -0.058 A 
ATOM     11  C   UNL d   1      -3.229  -3.778   0.048  0.00  0.00     0.009 A 
ATOM     12  C   UNL d   1      -2.391  -2.720  -0.316  0.00  0.00     0.030 A 
BRANCH  10  13
ATOM     13  C   UNL d   1      -3.945  -5.590   1.671  0.00  0.00     0.038 C 
BRANCH  13  14
ATOM     14  C   UNL d   1      -4.004  -6.728   0.645  0.00  0.00     0.000 C 
ATOM     15  C   UNL d   1      -2.649  -7.371   0.384  0.00  0.00     0.005 C 
ENDBRANCH  13  14
ENDBRANCH  10  13
ENDBRANCH   1   7
BRANCH   2  16
ATOM     16  C   UNL d   1      -1.346   0.297   2.136  0.00  0.00    -0.010 A 
ATOM     17  C   UNL d   1      -1.192   0.254   3.520  0.00  0.00     0.097 A 
ATOM     18  N   UNL d   1      -2.169   0.542   4.409  0.00  0.00    -0.375 N 
ATOM     19  C   UNL d   1      -3.365   0.905   3.898  0.00  0.00     0.087 A 
ATOM     20  HN  UNL d   1      -2.011   0.489   5.415  1.00  0.00     0.164 HD
ATOM     21  C   UNL d   1      -3.620   1.015   2.543  0.00  0.00     0.018 A 
ATOM     22  C   UNL d   1      -2.592   0.715   1.652  0.00  0.00     0.013 A 
ENDBRANCH   2  16
TORSDOF 4
