REMARK  7 active torsions:
REMARK  status: ('A' for Active; 'I' for Inactive)
REMARK    1  A    between atoms: N_3  and  C_1 
REMARK    2  A    between atoms: N_13  and  C_1 
REMARK    3  A    between atoms: C_2  and  N_3 
REMARK    4  A    between atoms: N_6  and  C_19 
REMARK    5  A    between atoms: C_21  and  N_13 
REMARK    6  A    between atoms: C_19  and  C_20 
REMARK    7  A    between atoms: C_20  and  C_21 
ROOT
ATOM      1  C   UNL d   1       2.202   0.362  -1.322  0.00  0.00     0.172 C 
ATOM      2  S   UNL d   1       1.571   1.916  -1.413  0.00  0.00    -0.041 SA
ENDROOT
BRANCH   1   3
ATOM      3  N   UNL d   1       2.390  -0.541  -2.341  0.00  0.00    -0.332 N 
ATOM      4  H   UNL d   1       3.236  -1.096  -2.265  0.00  0.00     0.168 HD
BRANCH   3   5
ATOM      5  C   UNL d   1       1.894  -0.409  -3.671  0.00  0.00     0.057 A 
ATOM      6  C   UNL d   1       0.602   0.068  -3.910  0.00  0.00     0.055 A 
ATOM      7  C   UNL d   1       0.179   0.347  -5.211  0.00  0.00     0.036 A 
ATOM      8 CL   UNL d   1      -1.383   1.015  -5.471  0.00  0.00    -0.084 Cl
ATOM      9  C   UNL d   1       1.021   0.107  -6.291  0.00  0.00     0.026 A 
ATOM     10  C   UNL d   1       2.274  -0.469  -6.074  0.00  0.00     0.028 A 
ATOM     11  C   UNL d   1       2.701  -0.750  -4.770  0.00  0.00     0.060 A 
ATOM     12 CL   UNL d   1       4.259  -1.463  -4.547  0.00  0.00    -0.082 Cl
ENDBRANCH   3   5
ENDBRANCH   1   3
BRANCH   1  13
ATOM     13  N   UNL d   1       2.601  -0.013  -0.078  0.00  0.00    -0.367 N 
ATOM     14  H   UNL d   1       2.424   0.711   0.612  0.00  0.00     0.161 HD
BRANCH  13  15
ATOM     15  C   UNL d   1       3.362  -1.161   0.373  0.00  0.00     0.123 C 
BRANCH  15  16
ATOM     16  C   UNL d   1       4.860  -0.905   0.226  0.00  0.00     0.040 C 
BRANCH  16  17
ATOM     17  C   UNL d   1       5.662  -2.008   0.905  0.00  0.00     0.130 C 
BRANCH  17  18
ATOM     18  N   UNL d   1       7.091  -1.831   0.758  0.00  0.00    -0.352 N 
ATOM     19  C   UNL d   1       7.918  -1.204   1.645  0.00  0.00     0.182 A 
ATOM     20  N   UNL d   1       9.173  -1.278   1.262  0.00  0.00    -0.361 N 
ATOM     21  C   UNL d   1       9.152  -1.978   0.083  0.00  0.00     0.106 A 
ATOM     22  HN  UNL d   1       9.989  -0.896   1.740  1.00  0.00     0.166 HD
ATOM     23  C   UNL d   1       7.863  -2.323  -0.255  0.00  0.00     0.108 A 
ENDBRANCH  17  18
ENDBRANCH  16  17
ENDBRANCH  15  16
ENDBRANCH  13  15
ENDBRANCH   1  13
TORSDOF 7
