REMARK  2 active torsions:
REMARK  status: ('A' for Active; 'I' for Inactive)
REMARK    1  A    between atoms: N_6  and  C_2 
REMARK    2  A    between atoms: C_7  and  N_6 
ROOT
ATOM      1  S   UNL d   1      -0.251  -1.719  -0.663  0.00  0.00    -0.017 SA
ATOM      2  C   UNL d   1      -1.483  -0.586  -0.150  0.00  0.00     0.148 C 
ATOM      3  N   UNL d   1      -1.298   0.611   0.265  0.00  0.00    -0.370 N 
ATOM      4  HN  UNL d   1      -2.162   1.101   0.497  1.00  0.00     0.161 HD
ATOM      5  C   UNL d   1       0.993  -1.206   0.447  0.00  0.00     0.193 C 
ATOM      6  O   UNL d   1       1.192  -1.785   1.507  0.00  0.00    -0.285 OA
ATOM      7  C   UNL d   1      -0.107   1.407   0.469  0.00  0.00     0.122 C 
ATOM      8  C   UNL d   1       1.853  -0.074  -0.054  0.00  0.00     0.093 C 
ATOM      9  C   UNL d   1       1.025   1.124  -0.503  0.00  0.00     0.028 C 
ENDROOT
BRANCH   2  10
ATOM     10  N   UNL d   1      -2.737  -1.123  -0.312  0.00  0.00    -0.337 N 
ATOM     11  H   UNL d   1      -2.801  -1.992  -0.825  0.00  0.00     0.168 HD
BRANCH  10  12
ATOM     12  C   UNL d   1      -3.915  -0.699   0.324  0.00  0.00     0.036 A 
ATOM     13  C   UNL d   1      -5.138  -0.802  -0.347  0.00  0.00     0.071 A 
ATOM     14  C   UNL d   1      -6.302  -0.310   0.241  0.00  0.00     0.118 A 
ATOM     15  F   UNL d   1      -7.460  -0.391  -0.426  0.00  0.00    -0.206 F 
ATOM     16  C   UNL d   1      -6.281   0.275   1.501  0.00  0.00     0.042 A 
ATOM     17  C   UNL d   1      -5.074   0.378   2.184  0.00  0.00     0.005 A 
ATOM     18  C   UNL d   1      -3.904  -0.093   1.590  0.00  0.00     0.029 A 
ENDBRANCH  10  12
ENDBRANCH   2  10
TORSDOF 2
