REMARK  3 active torsions:
REMARK  status: ('A' for Active; 'I' for Inactive)
REMARK    1  A    between atoms: S_7  and  C_1 
REMARK    2  A    between atoms: C_12  and  S_7 
REMARK    3  A    between atoms: C_14  and  C_12 
ROOT
ATOM      1  C   UNL d   1      -1.416  -1.118  -0.003  0.00  0.00     0.151 A 
ATOM      2  N   UNL d   1      -2.029   0.122  -0.046  0.00  0.00    -0.301 N 
ATOM      3  N   UNL d   1      -0.106  -1.027   0.089  0.00  0.00    -0.344 N 
ATOM      4  HN  UNL d   1       0.565  -1.793   0.136  1.00  0.00     0.167 HD
ATOM      5  C   UNL d   1      -0.994   1.053   0.028  0.00  0.00     0.056 A 
ATOM      6  C   UNL d   1       0.164   0.317   0.108  0.00  0.00     0.120 A 
ATOM      7  C   UNL d   1      -3.370   0.506  -0.143  0.00  0.00     0.099 A 
ATOM      8  C   UNL d   1      -1.326   2.435   0.007  0.00  0.00     0.031 A 
ATOM      9  C   UNL d   1      -3.686   1.814  -0.164  0.00  0.00     0.018 A 
ATOM     10  C   UNL d   1      -2.619   2.801  -0.085  0.00  0.00     0.004 A 
ENDROOT
BRANCH   1  11
ATOM     11  S   UNL d   1      -2.294  -2.621  -0.064  0.00  0.00    -0.089 SA
BRANCH  11  12
ATOM     12  C   UNL d   1      -0.909  -3.798   0.022  0.00  0.00     0.121 C 
BRANCH  12  13
ATOM     13  C   UNL d   1      -1.365  -5.238  -0.046  0.00  0.00    -0.048 A 
ATOM     14  C   UNL d   1      -1.503  -5.885  -1.284  0.00  0.00     0.009 A 
ATOM     15  C   UNL d   1      -1.891  -7.226  -1.347  0.00  0.00     0.024 A 
ATOM     16  C   UNL d   1      -2.150  -7.928  -0.173  0.00  0.00     0.034 A 
ATOM     17  C   UNL d   1      -2.030  -7.299   1.064  0.00  0.00     0.024 A 
ATOM     18 CL   UNL d   1      -2.618  -9.583  -0.250  0.00  0.00    -0.084 Cl
ATOM     19  C   UNL d   1      -1.642  -5.958   1.127  0.00  0.00     0.009 A 
ENDBRANCH  12  13
ENDBRANCH  11  12
ENDBRANCH   1  11
TORSDOF 3
