REMARK  4 active torsions:
REMARK  status: ('A' for Active; 'I' for Inactive)
REMARK    1  A    between atoms: C_9  and  C_3 
REMARK    2  A    between atoms: N_4  and  C_8 
REMARK    3  A    between atoms: C_11  and  C_5 
REMARK    4  A    between atoms: C_13  and  C_14 
ROOT
ATOM      1  N   UNL d   1       1.275  -0.517   0.452  0.00  0.00    -0.349 N 
ATOM      2  HN  UNL d   1       2.052  -1.011   0.891  1.00  0.00     0.166 HD
ATOM      3  C   UNL d   1       0.207  -1.101  -0.063  0.00  0.00     0.084 A 
ATOM      4  C   UNL d   1       1.190   0.860   0.313  0.00  0.00     0.050 A 
ATOM      5  S   UNL d   1      -0.961  -0.008  -0.717  0.00  0.00    -0.081 SA
ATOM      6  C   UNL d   1       0.049   1.310  -0.321  0.00  0.00     0.082 A 
ENDROOT
BRANCH   3   7
ATOM      7  C   UNL d   1      -0.040  -2.554  -0.075  0.00  0.00    -0.002 A 
ATOM      8  C   UNL d   1       0.476  -3.364   0.942  0.00  0.00     0.015 A 
ATOM      9  C   UNL d   1       0.255  -4.750   0.945  0.00  0.00     0.009 A 
ATOM     10  C   UNL d   1      -0.477  -5.381  -0.080  0.00  0.00    -0.051 A 
ATOM     11  C   UNL d   1      -0.989  -4.560  -1.092  0.00  0.00     0.009 A 
ATOM     12  C   UNL d   1      -0.773  -3.176  -1.093  0.00  0.00     0.015 A 
BRANCH  10  13
ATOM     13  C   UNL d   1      -0.669  -6.909  -0.083  0.00  0.00    -0.024 C 
ATOM     14  C   UNL d   1      -1.464  -7.429  -1.304  0.00  0.00     0.019 C 
ATOM     15  C   UNL d   1       0.711  -7.600  -0.112  0.00  0.00     0.019 C 
ATOM     16  C   UNL d   1      -1.434  -7.353   1.181  0.00  0.00     0.019 C 
ENDBRANCH  10  13
ENDBRANCH   3   7
BRANCH   4  17
ATOM     17  C   UNL d   1       2.246   1.745   0.790  0.00  0.00    -0.009 A 
ATOM     18  C   UNL d   1       3.581   1.314   0.775  0.00  0.00     0.016 A 
ATOM     19  C   UNL d   1       4.609   2.152   1.224  0.00  0.00     0.037 A 
ATOM     20  C   UNL d   1       4.297   3.432   1.701  0.00  0.00     0.102 A 
ATOM     21  C   UNL d   1       2.970   3.875   1.730  0.00  0.00     0.037 A 
ATOM     22  C   UNL d   1       1.952   3.030   1.276  0.00  0.00     0.016 A 
BRANCH  20  23
ATOM     23  N   UNL d   1       5.366   4.317   2.179  0.00  0.00    -0.116 N 
ATOM     24  O   UNL d   1       5.045   5.438   2.601  0.00  0.00    -0.532 OA
ATOM     25  O   UNL d   1       6.531   3.894   2.130  0.00  0.00    -0.532 OA
ENDBRANCH  20  23
ENDBRANCH   4  17
TORSDOF 4
