REMARK  4 active torsions:
REMARK  status: ('A' for Active; 'I' for Inactive)
REMARK       I    between atoms: N_5  and  C_1 
REMARK    1  A    between atoms: C_10  and  C_1 
REMARK    2  A    between atoms: N_2  and  N_5 
REMARK    3  A    between atoms: N_6  and  C_4 
REMARK    4  A    between atoms: C_14  and  C_13 
ROOT
ATOM      1  N   UNL d   1      -0.868   3.567   0.707  0.00  0.00    -0.308 N 
ATOM      2  HN  UNL d   1      -1.191   4.348   1.279  1.00  0.00     0.186 HD
ATOM      3  C   UNL d   1       0.151   3.694  -0.078  0.00  0.00     0.118 C 
ENDROOT
BRANCH   1   4
ATOM      4  N   UNL d   1      -1.499   2.360   0.751  0.00  0.00    -0.266 N 
ATOM      5  C   UNL d   1      -2.541   2.202   1.656  0.00  0.00     0.270 C 
ATOM      6  O   UNL d   1      -2.933   3.074   2.430  0.00  0.00    -0.266 OA
ATOM      7  H   UNL d   1      -1.127   1.584   0.213  0.00  0.00     0.190 HD
BRANCH   5   8
ATOM      8  C   UNL d   1      -3.208   0.874   1.708  0.00  0.00     0.036 A 
ATOM      9  C   UNL d   1      -3.817   0.503   2.911  0.00  0.00     0.034 A 
ATOM     10  C   UNL d   1      -4.482  -0.707   2.965  0.00  0.00     0.088 A 
ATOM     11  N   UNL d   1      -4.576  -1.550   1.916  0.00  0.00    -0.375 N 
ATOM     12  C   UNL d   1      -3.995  -1.161   0.760  0.00  0.00     0.088 A 
ATOM     13  HN  UNL d   1      -5.065  -2.442   1.992  1.00  0.00     0.164 HD
ATOM     14  C   UNL d   1      -3.303   0.029   0.603  0.00  0.00     0.034 A 
ENDBRANCH   5   8
ENDBRANCH   1   4
BRANCH   3  15
ATOM     15  C   UNL d   1       0.880   4.981  -0.161  0.00  0.00    -0.019 A 
ATOM     16  C   UNL d   1       0.485   6.071   0.613  0.00  0.00     0.015 A 
ATOM     17  C   UNL d   1       1.185   7.284   0.537  0.00  0.00     0.030 A 
ATOM     18  C   UNL d   1       2.299   7.454  -0.301  0.00  0.00     0.029 A 
ATOM     19  C   UNL d   1       2.670   6.331  -1.068  0.00  0.00     0.030 A 
ATOM     20  C   UNL d   1       1.976   5.111  -1.008  0.00  0.00     0.015 A 
BRANCH  18  21
ATOM     21  N   UNL d   1       3.041   8.627  -0.335  0.00  0.00    -0.390 N 
ATOM     22  C   UNL d   1       3.632   9.102  -1.585  0.00  0.00     0.149 C 
ATOM     23  C   UNL d   1       2.914   9.649   0.702  0.00  0.00     0.149 C 
ENDBRANCH  18  21
ENDBRANCH   3  15
TORSDOF 4
