REMARK  3 active torsions:
REMARK  status: ('A' for Active; 'I' for Inactive)
REMARK    1  A    between atoms: C_7  and  N_1 
REMARK    2  A    between atoms: C_6  and  C_3 
REMARK    3  A    between atoms: N_10  and  C_6 
ROOT
ATOM      1  N   UNL d   1       1.034   0.623  -0.034  0.00  0.00    -0.262 N 
ATOM      2  C   UNL d   1       0.886  -0.753  -0.169  0.00  0.00     0.153 A 
ATOM      3  C   UNL d   1      -1.323   0.456   0.065  0.00  0.00     0.091 A 
ATOM      4  C   UNL d   1      -0.131   1.356   0.159  0.00  0.00     0.272 A 
ATOM      5  S   UNL d   1      -0.821  -1.165  -0.184  0.00  0.00    -0.053 SA
ATOM      6  S   UNL d   1       2.049  -1.956  -0.207  0.00  0.00    -0.052 SA
ATOM      7  O   UNL d   1      -0.229   2.562   0.351  0.00  0.00    -0.266 OA
ENDROOT
BRANCH   1   8
ATOM      8  C   UNL d   1       2.300   1.279  -0.062  0.00  0.00     0.044 A 
ATOM      9  C   UNL d   1       2.680   2.139   0.977  0.00  0.00     0.031 A 
ATOM     10  C   UNL d   1       3.951   2.724   0.981  0.00  0.00     0.021 A 
ATOM     11  C   UNL d   1       4.830   2.483  -0.074  0.00  0.00     0.011 A 
ATOM     12  C   UNL d   1       4.447   1.672  -1.138  0.00  0.00     0.021 A 
ATOM     13 BR   UNL d   1       6.554   3.256  -0.060  0.00  0.00    -0.051 Br
ATOM     14  C   UNL d   1       3.186   1.070  -1.129  0.00  0.00     0.031 A 
ENDBRANCH   1   8
BRANCH   3  15
ATOM     15  C   UNL d   1      -2.576   0.928   0.081  0.00  0.00     0.109 C 
BRANCH  15  16
ATOM     16  N   UNL d   1      -3.826   0.313   0.003  0.00  0.00    -0.397 N 
ATOM     17  C   UNL d   1      -4.122  -1.031   0.498  0.00  0.00     0.148 C 
ATOM     18  C   UNL d   1      -5.012   1.050  -0.439  0.00  0.00     0.148 C 
ENDBRANCH  15  16
ENDBRANCH   3  15
TORSDOF 3
