REMARK  4 active torsions:
REMARK  status: ('A' for Active; 'I' for Inactive)
REMARK    1  A    between atoms: C_6  and  C_1 
REMARK    2  A    between atoms: C_7  and  C_2 
REMARK    3  A    between atoms: C_9  and  C_5 
REMARK       I    between atoms: N_8  and  C_6 
REMARK    4  A    between atoms: C_16  and  N_8 
ROOT
ATOM      1  C   UNL d   1       1.098   0.705   0.154  0.00  0.00     0.073 A 
ATOM      2  C   UNL d   1      -0.198   1.160  -0.044  0.00  0.00     0.175 A 
ATOM      3  O   UNL d   1      -1.068   0.097  -0.043  0.00  0.00    -0.304 OA
ATOM      4  C   UNL d   1       0.968  -0.708   0.358  0.00  0.00     0.058 A 
ATOM      5  C   UNL d   1      -0.356  -1.040   0.196  0.00  0.00     0.087 A 
ENDROOT
BRANCH   1   6
ATOM      6  C   UNL d   1       2.385   1.399   0.185  0.00  0.00     0.259 C 
ATOM      7  N   UNL d   1       2.472   2.576  -0.532  0.00  0.00    -0.323 N 
ATOM      8  H   UNL d   1       1.619   3.017  -0.846  0.00  0.00     0.169 HD
ATOM      9  O   UNL d   1       3.319   0.869   0.781  0.00  0.00    -0.267 OA
BRANCH   7  10
ATOM     10  C   UNL d   1       3.662   3.232  -0.926  0.00  0.00     0.035 A 
ATOM     11  C   UNL d   1       4.941   2.705  -0.732  0.00  0.00     0.030 A 
ATOM     12  C   UNL d   1       6.068   3.363  -1.235  0.00  0.00     0.009 A 
ATOM     13  C   UNL d   1       5.939   4.560  -1.942  0.00  0.00    -0.062 A 
ATOM     14  C   UNL d   1       4.664   5.109  -2.109  0.00  0.00     0.009 A 
ATOM     15  C   UNL d   1       7.157   5.222  -2.513  0.00  0.00     0.048 C 
ATOM     16  C   UNL d   1       3.536   4.447  -1.609  0.00  0.00     0.030 A 
ENDBRANCH   7  10
ENDBRANCH   1   6
BRANCH   2  17
ATOM     17  C   UNL d   1      -0.830   2.487  -0.229  0.00  0.00     0.440 C 
ATOM     18  F   UNL d   1       0.078   3.497  -0.151  0.00  0.00    -0.164 F 
ATOM     19  F   UNL d   1      -1.415   2.606  -1.448  0.00  0.00    -0.164 F 
ATOM     20  F   UNL d   1      -1.781   2.746   0.701  0.00  0.00    -0.164 F 
ENDBRANCH   2  17
BRANCH   5  21
ATOM     21  C   UNL d   1      -1.099  -2.298   0.235  0.00  0.00    -0.002 A 
ATOM     22  C   UNL d   1      -0.438  -3.501   0.537  0.00  0.00     0.016 A 
ATOM     23  C   UNL d   1      -1.135  -4.712   0.596  0.00  0.00     0.024 A 
ATOM     24  C   UNL d   1      -2.504  -4.734   0.348  0.00  0.00     0.034 A 
ATOM     25  C   UNL d   1      -3.177  -3.557   0.032  0.00  0.00     0.024 A 
ATOM     26 CL   UNL d   1      -3.366  -6.219   0.438  0.00  0.00    -0.084 Cl
ATOM     27  C   UNL d   1      -2.477  -2.346  -0.025  0.00  0.00     0.016 A 
ENDBRANCH   5  21
TORSDOF 4
