REMARK  5 active torsions:
REMARK  status: ('A' for Active; 'I' for Inactive)
REMARK    1  A    between atoms: C_5  and  C_1 
REMARK    2  A    between atoms: N_7  and  C_2 
REMARK    3  A    between atoms: C_8  and  C_3 
REMARK    4  A    between atoms: C_10  and  C_5 
REMARK    5  A    between atoms: C_11  and  N_7 
ROOT
ATOM      1  C   UNL d   1       1.788   0.809   0.067  0.00  0.00     0.060 A 
ATOM      2  C   UNL d   1       0.535   1.425   0.092  0.00  0.00     0.089 A 
ATOM      3  C   UNL d   1       1.692  -0.638  -0.124  0.00  0.00    -0.002 A 
ATOM      4  S   UNL d   1      -0.711   0.252  -0.201  0.00  0.00    -0.082 SA
ATOM      5  C   UNL d   1       0.383  -1.037  -0.283  0.00  0.00     0.065 A 
ENDROOT
BRANCH   1   6
ATOM      6  C   UNL d   1       3.053   1.465   0.373  0.00  0.00     0.196 C 
ATOM      7  O   UNL d   1       3.384   1.655   1.540  0.00  0.00    -0.287 OA
BRANCH   6   8
ATOM      8  C   UNL d   1       4.029   1.790  -0.711  0.00  0.00     0.015 A 
ATOM      9  C   UNL d   1       5.349   2.080  -0.319  0.00  0.00     0.015 A 
ATOM     10  C   UNL d   1       6.324   2.398  -1.264  0.00  0.00     0.001 A 
ATOM     11  C   UNL d   1       5.988   2.436  -2.613  0.00  0.00     0.000 A 
ATOM     12  C   UNL d   1       4.680   2.152  -3.014  0.00  0.00     0.001 A 
ATOM     13  C   UNL d   1       3.699   1.829  -2.068  0.00  0.00     0.015 A 
ENDBRANCH   6   8
ENDBRANCH   1   6
BRANCH   2  14
ATOM     14  N   UNL d   1       0.052   2.686   0.285  0.00  0.00    -0.350 N 
ATOM     15  H   UNL d   1      -0.960   2.743   0.191  0.00  0.00     0.166 HD
BRANCH  14  16
ATOM     16  C   UNL d   1       0.633   3.958   0.125  0.00  0.00     0.032 A 
ATOM     17  C   UNL d   1      -0.072   4.919  -0.621  0.00  0.00     0.029 A 
ATOM     18  C   UNL d   1       0.460   6.187  -0.869  0.00  0.00     0.002 A 
ATOM     19  C   UNL d   1       1.722   6.513  -0.387  0.00  0.00     0.000 A 
ATOM     20  C   UNL d   1       2.424   5.587   0.377  0.00  0.00     0.002 A 
ATOM     21  C   UNL d   1       1.867   4.332   0.646  0.00  0.00     0.029 A 
ENDBRANCH  14  16
ENDBRANCH   2  14
BRANCH   3  22
ATOM     22  C   UNL d   1       2.764  -1.646  -0.072  0.00  0.00    -0.024 A 
ATOM     23  C   UNL d   1       3.797  -1.548   0.869  0.00  0.00     0.012 A 
ATOM     24  C   UNL d   1       4.821  -2.498   0.918  0.00  0.00     0.001 A 
ATOM     25  C   UNL d   1       4.803  -3.585   0.051  0.00  0.00     0.000 A 
ATOM     26  C   UNL d   1       3.766  -3.719  -0.869  0.00  0.00     0.001 A 
ATOM     27  C   UNL d   1       2.759  -2.750  -0.939  0.00  0.00     0.012 A 
ENDBRANCH   3  22
TORSDOF 5
