REMARK  2 active torsions:
REMARK  status: ('A' for Active; 'I' for Inactive)
REMARK    1  A    between atoms: C_10  and  N_3 
REMARK    2  A    between atoms: C_11  and  C_10 
ROOT
ATOM      1  C   UNL d   1      -1.103   1.243   0.148  0.00  0.00     0.054 A 
ATOM      2  C   UNL d   1      -0.865  -0.059  -0.089  0.00  0.00     0.064 A 
ATOM      3  N   UNL d   1      -1.897  -0.923  -0.433  0.00  0.00    -0.311 N 
ATOM      4  C   UNL d   1      -3.176  -0.414  -0.763  0.00  0.00     0.259 C 
ATOM      5  C   UNL d   1       0.177   1.958   0.291  0.00  0.00     0.196 A 
ATOM      6  C   UNL d   1      -2.446   1.786   0.148  0.00  0.00    -0.004 C 
ATOM      7  C   UNL d   1       0.582  -0.295  -0.002  0.00  0.00     0.006 A 
ATOM      8  C   UNL d   1      -3.446   1.026  -0.465  0.00  0.00     0.043 C 
ATOM      9  C   UNL d   1       1.211   0.942   0.162  0.00  0.00     0.027 A 
ATOM     10  O   UNL d   1      -4.100  -1.103  -1.195  0.00  0.00    -0.267 OA
ATOM     11  O   UNL d   1       0.360   3.142   0.460  0.00  0.00    -0.286 OA
ATOM     12  C   UNL d   1      -2.781   3.004   0.741  0.00  0.00     0.013 C 
ATOM     13  C   UNL d   1       1.393  -1.418  -0.071  0.00  0.00     0.014 A 
ATOM     14  C   UNL d   1      -4.724   1.560  -0.650  0.00  0.00     0.018 C 
ATOM     15  C   UNL d   1       2.584   1.135   0.191  0.00  0.00     0.016 A 
ATOM     16  C   UNL d   1       2.790  -1.266  -0.024  0.00  0.00     0.001 A 
ATOM     17  C   UNL d   1      -4.084   3.492   0.650  0.00  0.00     0.001 C 
ATOM     18  C   UNL d   1       3.381   0.002   0.090  0.00  0.00     0.001 A 
ATOM     19  C   UNL d   1      -5.040   2.799  -0.092  0.00  0.00     0.001 C 
ENDROOT
BRANCH   3  20
ATOM     20  C   UNL d   1      -1.786  -2.374  -0.355  0.00  0.00     0.137 C 
BRANCH  20  21
ATOM     21  C   UNL d   1      -1.336  -3.016  -1.634  0.00  0.00     0.004 A 
ATOM     22  C   UNL d   1      -2.284  -3.330  -2.762  0.00  0.00     0.007 A 
ATOM     23  C   UNL d   1      -1.752  -4.444  -1.906  0.00  0.00     0.007 A 
ENDBRANCH  20  21
ENDBRANCH   3  20
TORSDOF 2
