REMARK  1 active torsions:
REMARK  status: ('A' for Active; 'I' for Inactive)
REMARK    1  A    between atoms: C_4  and  N_1 
ROOT
ATOM      1  C   UNL d   1      -0.524  -3.969   0.231  0.00  0.00    -0.021 A 
ATOM      2  C   UNL d   1      -1.666  -3.687  -0.545  0.00  0.00    -0.046 A 
ATOM      3  C   UNL d   1       0.165  -1.634  -0.058  0.00  0.00     0.103 A 
ATOM      4  N   UNL d   1      -1.125  -5.953   1.692  0.00  0.00     0.097 N 
ATOM      5  C   UNL d   1      -2.734  -4.724  -0.818  0.00  0.00     0.017 C 
ATOM      6  C   UNL d   1       0.382  -2.919   0.479  0.00  0.00     0.045 A 
ATOM      7  C   UNL d   1      -2.457  -6.412   1.258  0.00  0.00     0.158 C 
ATOM      8  C   UNL d   1      -1.857  -2.400  -1.090  0.00  0.00     0.010 A 
ATOM      9  C   UNL d   1      -0.206  -5.377   0.717  0.00  0.00     0.310 C 
ATOM     10  C   UNL d   1      -3.262  -5.323   0.499  0.00  0.00     0.050 C 
ATOM     11  C   UNL d   1      -0.950  -1.376  -0.859  0.00  0.00     0.037 A 
ATOM     12  C   UNL d   1      -2.316  -5.666  -1.945  0.00  0.00     0.015 C 
ATOM     13  C   UNL d   1      -3.246  -6.686   2.587  0.00  0.00     0.041 C 
ATOM     14  C   UNL d   1      -2.443  -7.732   0.434  0.00  0.00     0.041 C 
ATOM     15  C   UNL d   1      -2.805  -7.943   3.338  0.00  0.00     0.002 C 
ATOM     16  C   UNL d   1      -2.128  -9.019   1.195  0.00  0.00     0.002 C 
ATOM     17  C   UNL d   1      -2.966  -9.168   2.452  0.00  0.00     0.000 C 
ATOM     18  H   UNL d   1      -1.213  -5.296   2.466  0.00  0.00     0.317 HD
ENDROOT
BRANCH   3  19
ATOM     19  N   UNL d   1       1.127  -0.550   0.194  0.00  0.00    -0.116 N 
ATOM     20  O   UNL d   1       2.075  -0.784   0.956  0.00  0.00    -0.532 OA
ATOM     21  O   UNL d   1       0.931   0.538  -0.369  0.00  0.00    -0.532 OA
ENDBRANCH   3  19
TORSDOF 1
