REMARK  1 active torsions:
REMARK  status: ('A' for Active; 'I' for Inactive)
REMARK    1  A    between atoms: O_8  and  C_4 
ROOT
ATOM      1  C   UNL d   1       2.435  -0.729  -0.043  0.00  0.00     0.040 A 
ATOM      2  C   UNL d   1       2.428   0.769  -0.001  0.00  0.00     0.256 A 
ATOM      3  N   UNL d   1       1.198   1.415   0.018  0.00  0.00    -0.317 N 
ATOM      4  C   UNL d   1       1.275  -1.406  -0.015  0.00  0.00     0.089 A 
ATOM      5  C   UNL d   1      -0.014  -0.704   0.011  0.00  0.00     0.025 A 
ATOM      6  C   UNL d   1      -0.036   0.700   0.012  0.00  0.00     0.050 A 
ATOM      7  O   UNL d   1       3.501   1.375   0.014  0.00  0.00    -0.267 OA
ATOM      8  C   UNL d   1       3.779  -1.394  -0.132  0.00  0.00     0.057 C 
ATOM      9  C   UNL d   1       1.187   2.869   0.053  0.00  0.00     0.159 C 
ATOM     10  C   UNL d   1      -1.228  -1.414   0.009  0.00  0.00     0.016 A 
ATOM     11  C   UNL d   1      -1.277   1.361  -0.006  0.00  0.00     0.031 A 
ATOM     12  C   UNL d   1      -2.451  -0.746  -0.015  0.00  0.00     0.001 A 
ATOM     13  C   UNL d   1      -2.475   0.643  -0.026  0.00  0.00     0.002 A 
ENDROOT
BRANCH   4  14
ATOM     14  O   UNL d   1       1.195  -2.786  -0.034  0.00  0.00    -0.359 OA
ATOM     15  H   UNL d   1       2.089  -3.164  -0.042  0.00  0.00     0.217 HD
ENDBRANCH   4  14
TORSDOF 1
