REMARK  3 active torsions:
REMARK  status: ('A' for Active; 'I' for Inactive)
REMARK    1  A    between atoms: N_2  and  C_1 
REMARK    2  A    between atoms: C_9  and  C_3 
REMARK    3  A    between atoms: S_14  and  C_13 
ROOT
ATOM      1  C   UNL d   1       2.314  -0.841   0.053  0.00  0.00     0.115 C 
ATOM      2  C   UNL d   1       2.312   0.589  -0.393  0.00  0.00     0.218 C 
ATOM      3  C   UNL d   1       1.204  -1.525   0.373  0.00  0.00     0.049 C 
ATOM      4  O   UNL d   1       1.167   1.321   0.133  0.00  0.00    -0.334 OA
ATOM      5  C   UNL d   1      -0.011   0.616   0.151  0.00  0.00     0.080 A 
ATOM      6  C   UNL d   1      -0.049  -0.784   0.238  0.00  0.00    -0.001 A 
ATOM      7  C   UNL d   1      -1.188   1.357   0.074  0.00  0.00     0.037 A 
ATOM      8  C   UNL d   1      -1.281  -1.439   0.183  0.00  0.00     0.014 A 
ATOM      9  C   UNL d   1      -2.413   0.698   0.018  0.00  0.00     0.003 A 
ATOM     10  C   UNL d   1      -2.460  -0.697   0.058  0.00  0.00     0.001 A 
ENDROOT
BRANCH   2  11
ATOM     11  C   UNL d   1       2.324   0.792  -1.910  0.00  0.00    -0.023 A 
ATOM     12  C   UNL d   1       1.706  -0.109  -2.791  0.00  0.00     0.011 A 
ATOM     13  C   UNL d   1       1.662   0.134  -4.166  0.00  0.00     0.019 A 
ATOM     14  C   UNL d   1       2.238   1.282  -4.703  0.00  0.00    -0.000 A 
ATOM     15  C   UNL d   1       2.841   2.198  -3.832  0.00  0.00     0.019 A 
ATOM     16  C   UNL d   1       2.884   1.957  -2.452  0.00  0.00     0.011 A 
BRANCH  14  17
ATOM     17  S   UNL d   1       2.187   1.679  -6.444  0.00  0.00    -0.134 SA
ATOM     18  C   UNL d   1       2.197   0.033  -7.208  0.00  0.00     0.095 C 
ENDBRANCH  14  17
ENDBRANCH   2  11
BRANCH   1  19
ATOM     19  N   UNL d   1       3.598  -1.504   0.115  0.00  0.00    -0.117 N 
ATOM     20  O   UNL d   1       4.602  -0.829  -0.140  0.00  0.00    -0.532 OA
ATOM     21  O   UNL d   1       3.622  -2.704   0.419  0.00  0.00    -0.532 OA
ENDBRANCH   1  19
TORSDOF 3
