REMARK  1 active torsions:
REMARK  status: ('A' for Active; 'I' for Inactive)
REMARK    1  A    between atoms: C_8  and  N_1 
ROOT
ATOM      1  N   UNL d   1       0.823  -0.756   0.025  0.00  0.00    -0.241 N 
ATOM      2  C   UNL d   1      -0.258  -0.700  -0.841  0.00  0.00     0.210 A 
ATOM      3  N   UNL d   1       0.566   0.115   1.070  0.00  0.00    -0.223 N 
ATOM      4  HN  UNL d   1       1.190   0.283   1.859  1.00  0.00     0.210 HD
ATOM      5  N   UNL d   1      -0.559   0.672   0.900  0.00  0.00    -0.226 N 
ATOM      6  HN  UNL d   1      -0.984   1.356   1.526  1.00  0.00     0.210 HD
ATOM      7  N   UNL d   1      -1.103   0.209  -0.248  0.00  0.00    -0.259 N 
ATOM      8  S   UNL d   1      -0.596  -1.465  -2.266  0.00  0.00    -0.038 SA
ATOM      9  H   UNL d   1      -1.999   0.527  -0.583  0.00  0.00     0.191 HD
ENDROOT
BRANCH   1  10
ATOM     10  C   UNL d   1       2.095  -1.518  -0.016  0.00  0.00     0.047 C 
ATOM     11  C   UNL d   1       2.913  -1.137  -1.262  0.00  0.00     0.040 C 
ATOM     12  C   UNL d   1       2.968  -1.204   1.222  0.00  0.00     0.040 C 
ATOM     13  C   UNL d   1       1.825  -3.033  -0.010  0.00  0.00     0.040 C 
ENDBRANCH   1  10
TORSDOF 1
