REMARK  4 active torsions:
REMARK  status: ('A' for Active; 'I' for Inactive)
REMARK    1  A    between atoms: C_5  and  C_1 
REMARK       I    between atoms: C_2  and  N_7 
REMARK    2  A    between atoms: O_3  and  C_2 
REMARK    3  A    between atoms: C_4  and  O_3 
REMARK    4  A    between atoms: N_7  and  C_11 
ROOT
ATOM      1  C   UNL d   1      -2.047   0.481  -3.935  0.00  0.00     0.370 C 
ATOM      2  N   UNL d   1      -1.289   1.619  -3.828  0.00  0.00    -0.302 N 
ATOM      3  O   UNL d   1      -2.808   0.335  -4.884  0.00  0.00    -0.238 OA
ATOM      4  H   UNL d   1      -1.482   2.244  -4.601  0.00  0.00     0.171 HD
ENDROOT
BRANCH   2   5
ATOM      5  C   UNL d   1      -0.443   2.114  -2.814  0.00  0.00     0.037 A 
ATOM      6  C   UNL d   1      -0.013   1.406  -1.688  0.00  0.00     0.045 A 
ATOM      7  C   UNL d   1       0.819   2.018  -0.725  0.00  0.00     0.050 A 
ATOM      8  C   UNL d   1       1.216   3.351  -0.905  0.00  0.00     0.016 A 
ATOM      9  C   UNL d   1       0.797   4.060  -2.024  0.00  0.00     0.003 A 
ATOM     10  C   UNL d   1      -0.021   3.443  -2.970  0.00  0.00     0.029 A 
BRANCH   7  11
ATOM     11  C   UNL d   1       1.288   1.280   0.508  0.00  0.00     0.417 C 
ATOM     12  F   UNL d   1       0.927  -0.032   0.537  0.00  0.00    -0.166 F 
ATOM     13  F   UNL d   1       0.797   1.829   1.653  0.00  0.00    -0.166 F 
ATOM     14  F   UNL d   1       2.644   1.299   0.640  0.00  0.00    -0.166 F 
ENDBRANCH   7  11
ENDBRANCH   2   5
BRANCH   1  15
ATOM     15  O   UNL d   1      -1.928  -0.409  -2.883  0.00  0.00    -0.260 OA
BRANCH  15  16
ATOM     16  C   UNL d   1      -3.043  -1.206  -2.561  0.00  0.00     0.102 A 
ATOM     17  C   UNL d   1      -2.830  -2.526  -2.151  0.00  0.00     0.070 A 
ATOM     18  C   UNL d   1      -3.874  -3.248  -1.573  0.00  0.00     0.069 A 
ATOM     19 CL   UNL d   1      -1.288  -3.280  -2.315  0.00  0.00    -0.081 Cl
ATOM     20  C   UNL d   1      -5.117  -2.641  -1.419  0.00  0.00     0.118 A 
ATOM     21  C   UNL d   1      -5.350  -1.344  -1.865  0.00  0.00     0.045 A 
ATOM     22  F   UNL d   1      -6.103  -3.309  -0.806  0.00  0.00    -0.206 F 
ATOM     23  C   UNL d   1      -4.308  -0.617  -2.437  0.00  0.00     0.042 A 
ENDBRANCH  15  16
ENDBRANCH   1  15
TORSDOF 4
