REMARK  3 active torsions:
REMARK  status: ('A' for Active; 'I' for Inactive)
REMARK    1  A    between atoms: O_2  and  C_1 
REMARK    2  A    between atoms: C_5  and  O_2 
REMARK    3  A    between atoms: N_13  and  C_9 
ROOT
ATOM      1  N   UNL d   1      -1.507   3.537  -1.091  0.00  0.00    -0.345 N 
ATOM      2  HN  UNL d   1      -0.849   3.592  -1.868  1.00  0.00     0.167 HD
ATOM      3  C   UNL d   1      -1.364   2.640  -0.093  0.00  0.00     0.148 A 
ATOM      4  C   UNL d   1      -2.580   4.361  -0.997  0.00  0.00     0.113 A 
ATOM      5  C   UNL d   1      -3.536   4.319   0.021  0.00  0.00     0.021 A 
ATOM      6  C   UNL d   1      -2.187   2.589   1.021  0.00  0.00     0.058 A 
ATOM      7  C   UNL d   1      -3.276   3.456   1.082  0.00  0.00     0.029 A 
ENDROOT
BRANCH   3   8
ATOM      8  O   UNL d   1      -0.363   1.676  -0.144  0.00  0.00    -0.290 OA
BRANCH   8   9
ATOM      9  C   UNL d   1       0.230   1.433  -1.362  0.00  0.00     0.121 A 
ATOM     10  C   UNL d   1       1.624   1.556  -1.444  0.00  0.00     0.069 A 
ATOM     11 CL   UNL d   1       2.564   2.065  -0.084  0.00  0.00    -0.081 Cl
ATOM     12  C   UNL d   1       2.301   1.237  -2.625  0.00  0.00     0.027 A 
ATOM     13  C   UNL d   1       1.592   0.793  -3.740  0.00  0.00     0.003 A 
ATOM     14  C   UNL d   1       0.208   0.643  -3.660  0.00  0.00     0.027 A 
ATOM     15  C   UNL d   1      -0.472   0.938  -2.472  0.00  0.00     0.069 A 
ATOM     16 CL   UNL d   1      -2.162   0.570  -2.425  0.00  0.00    -0.081 Cl
ENDBRANCH   8   9
ENDBRANCH   3   8
BRANCH   5  17
ATOM     17  N   UNL d   1      -4.581   5.248   0.104  0.00  0.00    -0.302 NA
ATOM     18  H   UNL d   1      -5.354   4.939   0.684  0.00  0.00     0.124 HD
ATOM     19  H   UNL d   1      -4.900   5.585  -0.801  0.00  0.00     0.124 HD
ENDBRANCH   5  17
TORSDOF 3
