REMARK  5 active torsions:
REMARK  status: ('A' for Active; 'I' for Inactive)
REMARK    1  A    between atoms: O_3  and  C_1 
REMARK    2  A    between atoms: C_4  and  C_1 
REMARK    3  A    between atoms: C_2  and  C_7 
REMARK    4  A    between atoms: C_17  and  O_3 
REMARK    5  A    between atoms: C_8  and  C_9 
ROOT
ATOM      1  C   UNL d   1       1.115  -0.224  -0.167  0.00  0.00     0.298 C 
ATOM      2  O   UNL d   1       2.108   0.439   0.083  0.00  0.00    -0.259 OA
ENDROOT
BRANCH   1   3
ATOM      3  O   UNL d   1       0.618  -0.556  -1.423  0.00  0.00    -0.275 OA
BRANCH   3   4
ATOM      4  C   UNL d   1       1.224  -0.230  -2.663  0.00  0.00     0.079 A 
ATOM      5  C   UNL d   1       0.717  -0.918  -3.766  0.00  0.00     0.038 A 
ATOM      6  C   UNL d   1       1.248  -0.689  -5.038  0.00  0.00     0.012 A 
ATOM      7  C   UNL d   1       2.288   0.236  -5.229  0.00  0.00    -0.035 A 
ATOM      8  C   UNL d   1       2.773   0.927  -4.102  0.00  0.00     0.012 A 
ATOM      9  C   UNL d   1       2.243   0.701  -2.827  0.00  0.00     0.038 A 
BRANCH   7  10
ATOM     10  C   UNL d   1       2.833   0.481  -6.623  0.00  0.00     0.141 C 
ATOM     11  S   UNL d   1       4.623   0.156  -6.753  0.00  0.00    -0.148 SA
ATOM     12  C   UNL d   1       5.022   1.587  -7.787  0.00  0.00     0.085 C 
ATOM     13  C   UNL d   1       4.169   2.746  -7.316  0.00  0.00     0.085 C 
ATOM     14  S   UNL d   1       2.458   2.166  -7.219  0.00  0.00    -0.148 SA
ENDBRANCH   7  10
ENDBRANCH   3   4
ENDBRANCH   1   3
BRANCH   1  15
ATOM     15  C   UNL d   1       0.264  -0.835   0.894  0.00  0.00     0.040 A 
ATOM     16  C   UNL d   1       0.649  -0.674   2.229  0.00  0.00     0.018 A 
ATOM     17  C   UNL d   1      -0.110  -1.237   3.265  0.00  0.00     0.009 A 
ATOM     18  C   UNL d   1      -1.278  -1.977   3.003  0.00  0.00    -0.051 A 
ATOM     19  C   UNL d   1      -1.646  -2.130   1.655  0.00  0.00     0.009 A 
ATOM     20  C   UNL d   1      -0.891  -1.569   0.614  0.00  0.00     0.018 A 
BRANCH  18  21
ATOM     21  C   UNL d   1      -2.096  -2.583   4.160  0.00  0.00    -0.024 C 
ATOM     22  C   UNL d   1      -3.343  -3.364   3.686  0.00  0.00     0.019 C 
ATOM     23  C   UNL d   1      -1.223  -3.566   4.970  0.00  0.00     0.019 C 
ATOM     24  C   UNL d   1      -2.592  -1.466   5.104  0.00  0.00     0.019 C 
ENDBRANCH  18  21
ENDBRANCH   1  15
TORSDOF 5
