REMARK  2 active torsions:
REMARK  status: ('A' for Active; 'I' for Inactive)
REMARK    1  A    between atoms: N_8  and  C_1 
REMARK    2  A    between atoms: S_13  and  C_5 
ROOT
ATOM      1  C   UNL d   1      -0.068   1.147   0.033  0.00  0.00     0.172 A 
ATOM      2  S   UNL d   1       0.999  -0.000  -0.630  0.00  0.00    -0.026 SA
ATOM      3  N   UNL d   1      -1.137   0.653   0.620  0.00  0.00    -0.278 N 
ATOM      4  HN  UNL d   1      -1.866   1.216   1.057  1.00  0.00     0.189 HD
ATOM      5  C   UNL d   1      -0.084  -1.204  -0.057  0.00  0.00     0.129 A 
ATOM      6  N   UNL d   1      -1.142  -0.728   0.566  0.00  0.00    -0.286 N 
ATOM      7  HN  UNL d   1      -1.879  -1.311   0.964  1.00  0.00     0.188 HD
ENDROOT
BRANCH   1   8
ATOM      8  N   UNL d   1       0.197   2.518  -0.044  0.00  0.00    -0.312 N 
ATOM      9  C   UNL d   1       1.278   3.167  -0.620  0.00  0.00     0.098 A 
ATOM     10  C   UNL d   1       1.139   4.528  -0.449  0.00  0.00     0.019 A 
ATOM     11  C   UNL d   1      -0.067   4.742   0.248  0.00  0.00     0.019 A 
ATOM     12  C   UNL d   1      -0.625   3.506   0.479  0.00  0.00     0.098 A 
ENDBRANCH   1   8
BRANCH   5  13
ATOM     13  S   UNL d   1       0.194  -2.914  -0.288  0.00  0.00    -0.108 SA
ATOM     14  C   UNL d   1      -1.232  -3.604   0.583  0.00  0.00     0.097 C 
ENDBRANCH   5  13
TORSDOF 2
