REMARK  3 active torsions:
REMARK  status: ('A' for Active; 'I' for Inactive)
REMARK    1  A    between atoms: C_6  and  C_2 
REMARK    2  A    between atoms: O_12  and  C_6 
REMARK    3  A    between atoms: C_15  and  O_12 
ROOT
ATOM      1  N   UNL d   1      -1.669  -1.011  -0.055  0.00  0.00    -0.350 N 
ATOM      2  C   UNL d   1      -2.495   0.081  -0.188  0.00  0.00     0.109 C 
ATOM      3  C   UNL d   1      -0.347  -0.627  -0.021  0.00  0.00     0.049 A 
ATOM      4  C   UNL d   1      -0.340   0.767  -0.016  0.00  0.00    -0.006 A 
ATOM      5  C   UNL d   1      -1.693   1.200  -0.062  0.00  0.00     0.049 C 
ATOM      6  C   UNL d   1       0.826  -1.400  -0.017  0.00  0.00    -0.034 A 
ATOM      7  C   UNL d   1       0.893   1.446  -0.019  0.00  0.00     0.020 A 
ATOM      8  C   UNL d   1       2.040  -0.686  -0.048  0.00  0.00     0.015 A 
ATOM      9  C   UNL d   1       2.086   0.712  -0.061  0.00  0.00    -0.061 A 
ATOM     10  C   UNL d   1       0.853  -2.900  -0.027  0.00  0.00     0.050 C 
ATOM     11  C   UNL d   1       3.396   1.440  -0.147  0.00  0.00     0.048 C 
ATOM     12  H   UNL d   1      -1.994  -1.966  -0.105  0.00  0.00     0.166 HD
ENDROOT
BRANCH   2  13
ATOM     13  C   UNL d   1      -3.895  -0.049  -0.495  0.00  0.00     0.310 C 
ATOM     14  O   UNL d   1      -4.478  -1.116  -0.630  0.00  0.00    -0.258 OA
BRANCH  13  15
ATOM     15  O   UNL d   1      -4.415   1.180  -0.758  0.00  0.00    -0.317 OA
BRANCH  15  16
ATOM     16  C   UNL d   1      -5.553   1.189  -1.625  0.00  0.00     0.175 C 
ATOM     17  C   UNL d   1      -5.048   1.261  -3.057  0.00  0.00     0.034 C 
ENDBRANCH  15  16
ENDBRANCH  13  15
ENDBRANCH   2  13
TORSDOF 3
