REMARK  3 active torsions:
REMARK  status: ('A' for Active; 'I' for Inactive)
REMARK    1  A    between atoms: N_13  and  C_7 
REMARK    2  A    between atoms: C_17  and  N_13 
REMARK    3  A    between atoms: C_14  and  C_17 
ROOT
ATOM      1  C   UNL d   1      -0.205   0.975   0.007  0.00  0.00     0.065 A 
ATOM      2  C   UNL d   1       0.131  -0.364   0.040  0.00  0.00     0.137 A 
ATOM      3  N   UNL d   1       2.080   0.815   0.089  0.00  0.00    -0.307 N 
ATOM      4  HN  UNL d   1       3.073   1.045   0.136  1.00  0.00     0.186 HD
ATOM      5  N   UNL d   1       1.499  -0.407   0.065  0.00  0.00    -0.281 N 
ATOM      6  C   UNL d   1       1.034   1.649   0.036  0.00  0.00     0.126 A 
ATOM      7  C   UNL d   1      -1.562   1.305  -0.095  0.00  0.00     0.096 A 
ATOM      8  N   UNL d   1      -0.722  -1.405   0.022  0.00  0.00    -0.337 N 
ATOM      9  HN  UNL d   1      -0.438  -2.384   0.062  1.00  0.00     0.168 HD
ATOM     10  N   UNL d   1      -2.454   0.284  -0.123  0.00  0.00    -0.342 N 
ATOM     11  HN  UNL d   1      -3.454   0.471  -0.196  1.00  0.00     0.167 HD
ATOM     12  C   UNL d   1      -1.996  -0.984  -0.054  0.00  0.00     0.183 A 
ATOM     13  C   UNL d   1       2.329  -1.584   0.017  0.00  0.00     0.179 C 
ENDROOT
BRANCH   7  14
ATOM     14  N   UNL d   1      -1.976   2.631  -0.213  0.00  0.00    -0.275 NA
ATOM     15  H   UNL d   1      -1.681   3.171   0.594  0.00  0.00     0.129 HD
BRANCH  14  16
ATOM     16  C   UNL d   1      -3.369   2.828  -0.557  0.00  0.00     0.120 C 
BRANCH  16  17
ATOM     17  C   UNL d   1      -3.497   4.267  -0.959  0.00  0.00    -0.022 C 
ATOM     18  C   UNL d   1      -4.371   5.140  -0.442  0.00  0.00     0.008 C 
ENDBRANCH  16  17
ENDBRANCH  14  16
ENDBRANCH   7  14
TORSDOF 3
