REMARK  8 active torsions:
REMARK  status: ('A' for Active; 'I' for Inactive)
REMARK    1  A    between atoms: N_2  and  C_1 
REMARK    2  A    between atoms: C_3  and  C_1 
REMARK    3  A    between atoms: C_4  and  C_1 
REMARK    4  A    between atoms: N_5  and  C_1 
REMARK       I    between atoms: C_6  and  N_2 
REMARK    5  A    between atoms: C_9  and  N_5 
REMARK    6  A    between atoms: O_19  and  C_6 
REMARK    7  A    between atoms: C_8  and  C_7 
REMARK    8  A    between atoms: C_24  and  O_19 
ROOT
ATOM      1  C   UNL d   1       0.904  -0.028  -0.243  0.00  0.00     0.308 C 
ENDROOT
BRANCH   1   2
ATOM      2  N   UNL d   1       0.326  -0.984  -1.175  0.00  0.00    -0.295 N 
ATOM      3  C   UNL d   1      -0.995  -1.255  -1.239  0.00  0.00     0.362 C 
ATOM      4  O   UNL d   1      -1.843  -0.694  -0.570  0.00  0.00    -0.238 OA
ATOM      5  H   UNL d   1       0.954  -1.614  -1.643  0.00  0.00     0.168 HD
BRANCH   3   6
ATOM      6  O   UNL d   1      -1.184  -2.260  -2.125  0.00  0.00    -0.304 OA
BRANCH   6   7
ATOM      7  C   UNL d   1      -2.501  -2.805  -2.193  0.00  0.00     0.176 C 
ATOM      8  C   UNL d   1      -2.617  -3.937  -1.189  0.00  0.00     0.034 C 
ENDBRANCH   6   7
ENDBRANCH   3   6
ENDBRANCH   1   2
BRANCH   1   9
ATOM      9  C   UNL d   1       0.613  -0.345   1.272  0.00  0.00     0.441 C 
ATOM     10  F   UNL d   1       0.243  -1.642   1.451  0.00  0.00    -0.166 F 
ATOM     11  F   UNL d   1       1.766  -0.194   1.991  0.00  0.00    -0.166 F 
ATOM     12  F   UNL d   1      -0.309   0.421   1.878  0.00  0.00    -0.166 F 
ENDBRANCH   1   9
BRANCH   1  13
ATOM     13  C   UNL d   1       0.461   1.460  -0.408  0.00  0.00     0.441 C 
ATOM     14  F   UNL d   1       0.417   1.837  -1.713  0.00  0.00    -0.166 F 
ATOM     15  F   UNL d   1      -0.765   1.741   0.083  0.00  0.00    -0.166 F 
ATOM     16  F   UNL d   1       1.336   2.296   0.206  0.00  0.00    -0.166 F 
ENDBRANCH   1  13
BRANCH   1  17
ATOM     17  N   UNL d   1       2.379  -0.272  -0.506  0.00  0.00    -0.349 N 
ATOM     18  H   UNL d   1       2.913  -0.147   0.360  0.00  0.00     0.162 HD
BRANCH  17  19
ATOM     19  C   UNL d   1       3.100   0.151  -1.616  0.00  0.00     0.031 A 
ATOM     20  C   UNL d   1       4.501   0.162  -1.525  0.00  0.00     0.044 A 
ATOM     21  C   UNL d   1       5.312   0.520  -2.614  0.00  0.00     0.011 A 
ATOM     22  C   UNL d   1       4.723   0.831  -3.839  0.00  0.00     0.015 A 
ATOM     23  C   UNL d   1       3.339   0.782  -3.963  0.00  0.00     0.003 A 
ATOM     24  C   UNL d   1       2.543   0.429  -2.868  0.00  0.00     0.029 A 
BRANCH  21  25
ATOM     25  C   UNL d   1       6.787   0.537  -2.418  0.00  0.00     0.155 C 
ATOM     26  O   UNL d   1       7.287  -0.144  -1.525  0.00  0.00    -0.293 OA
ATOM     27  C   UNL d   1       7.641   1.394  -3.315  0.00  0.00     0.096 C 
ENDBRANCH  21  25
ENDBRANCH  17  19
ENDBRANCH   1  17
TORSDOF 8
