REMARK  4 active torsions:
REMARK  status: ('A' for Active; 'I' for Inactive)
REMARK    1  A    between atoms: N_5  and  C_1 
REMARK    2  A    between atoms: C_4  and  N_5 
REMARK    3  A    between atoms: N_10  and  C_4 
REMARK    4  A    between atoms: N_13  and  N_10 
ROOT
ATOM      1  C   UNL d   1      -0.932   0.954  -0.177  0.00  0.00     0.069 A 
ATOM      2  C   UNL d   1      -1.381  -0.382  -0.126  0.00  0.00     0.042 A 
ATOM      3  C   UNL d   1       0.450   1.200  -0.053  0.00  0.00     0.042 A 
ATOM      4  C   UNL d   1      -0.475  -1.421   0.118  0.00  0.00     0.063 A 
ATOM      5  C   UNL d   1       1.351   0.161   0.179  0.00  0.00     0.063 A 
ATOM      6  C   UNL d   1       0.876  -1.138   0.272  0.00  0.00     0.119 A 
ATOM      7 BR   UNL d   1      -3.146  -0.913  -0.601  0.00  0.00    -0.049 Br
ATOM      8 BR   UNL d   1       1.158   2.964  -0.181  0.00  0.00    -0.049 Br
ATOM      9  F   UNL d   1       1.739  -2.140   0.470  0.00  0.00    -0.206 F 
ENDROOT
BRANCH   1  10
ATOM     10  N   UNL d   1      -1.783   2.052  -0.466  0.00  0.00    -0.330 N 
ATOM     11  H   UNL d   1      -1.301   2.879  -0.800  0.00  0.00     0.168 HD
BRANCH  10  12
ATOM     12  C   UNL d   1      -2.931   2.425   0.212  0.00  0.00     0.186 C 
ATOM     13  S   UNL d   1      -3.442   1.924   1.719  0.00  0.00    -0.040 SA
BRANCH  12  14
ATOM     14  N   UNL d   1      -3.664   3.395  -0.458  0.00  0.00    -0.300 N 
ATOM     15  H   UNL d   1      -4.557   3.660  -0.040  0.00  0.00     0.183 HD
BRANCH  14  16
ATOM     16  N   UNL d   1      -3.425   3.724  -1.806  0.00  0.00    -0.248 NA
ATOM     17  H   UNL d   1      -3.100   2.884  -2.294  0.00  0.00     0.143 HD
ATOM     18  H   UNL d   1      -2.674   4.413  -1.857  0.00  0.00     0.143 HD
ENDBRANCH  14  16
ENDBRANCH  12  14
ENDBRANCH  10  12
ENDBRANCH   1  10
TORSDOF 4
