REMARK  3 active torsions:
REMARK  status: ('A' for Active; 'I' for Inactive)
REMARK       I    between atoms: N_2  and  C_1 
REMARK    1  A    between atoms: C_6  and  C_1 
REMARK    2  A    between atoms: C_7  and  N_2 
REMARK    3  A    between atoms: C_5  and  C_8 
ROOT
ATOM      1  C   UNL d   1       1.452   3.684   0.102  0.00  0.00    -0.086 C 
ATOM      2  C   UNL d   1       1.260   4.788  -0.336  0.00  0.00     0.015 C 
ATOM      3  C   UNL d   1       1.709   2.326   0.645  0.00  0.00     0.088 C 
ATOM      4  C   UNL d   1       1.243   2.293   2.109  0.00  0.00     0.053 C 
ATOM      5  C   UNL d   1       3.220   2.052   0.555  0.00  0.00     0.053 C 
ENDROOT
BRANCH   3   6
ATOM      6  N   UNL d   1       0.947   1.385  -0.173  0.00  0.00    -0.338 N 
ATOM      7  C   UNL d   1       0.951   0.022   0.027  0.00  0.00     0.253 C 
ATOM      8  O   UNL d   1       1.567  -0.538   0.927  0.00  0.00    -0.268 OA
ATOM      9  H   UNL d   1       0.536   1.752  -1.020  0.00  0.00     0.164 HD
BRANCH   7  10
ATOM     10  C   UNL d   1       0.194  -0.799  -0.954  0.00  0.00     0.032 A 
ATOM     11  C   UNL d   1       0.624  -2.107  -1.186  0.00  0.00     0.018 A 
ATOM     12  C   UNL d   1      -0.026  -2.909  -2.130  0.00  0.00     0.013 A 
ATOM     13  C   UNL d   1      -1.137  -2.438  -2.857  0.00  0.00    -0.023 A 
ATOM     14  C   UNL d   1      -1.583  -1.135  -2.564  0.00  0.00     0.013 A 
ATOM     15  C   UNL d   1      -0.927  -0.319  -1.632  0.00  0.00     0.018 A 
BRANCH  13  16
ATOM     16  C   UNL d   1      -1.787  -3.276  -3.894  0.00  0.00     0.013 A 
ATOM     17  C   UNL d   1      -2.320  -2.728  -5.076  0.00  0.00     0.127 A 
ATOM     18  F   UNL d   1      -2.264  -1.406  -5.303  0.00  0.00    -0.205 F 
ATOM     19  C   UNL d   1      -2.902  -3.521  -6.066  0.00  0.00     0.043 A 
ATOM     20  C   UNL d   1      -2.959  -4.901  -5.908  0.00  0.00     0.003 A 
ATOM     21  C   UNL d   1      -2.445  -5.479  -4.752  0.00  0.00     0.001 A 
ATOM     22  C   UNL d   1      -1.875  -4.676  -3.756  0.00  0.00     0.015 A 
ENDBRANCH  13  16
ENDBRANCH   7  10
ENDBRANCH   3   6
TORSDOF 3
