REMARK  3 active torsions:
REMARK  status: ('A' for Active; 'I' for Inactive)
REMARK    1  A    between atoms: C_5  and  C_1 
REMARK    2  A    between atoms: C_6  and  C_2 
REMARK    3  A    between atoms: C_16  and  C_13 
ROOT
ATOM      1  C   UNL d   1       1.063  -1.406   1.115  0.00  0.00     0.036 C 
ATOM      2  C   UNL d   1       0.391  -1.165  -0.033  0.00  0.00     0.055 C 
ATOM      3  C   UNL d   1       1.100  -0.850  -1.241  0.00  0.00     0.100 C 
ATOM      4  N   UNL d   1       1.668  -0.573  -2.217  0.00  0.00    -0.191 NA
ENDROOT
BRANCH   2   5
ATOM      5  C   UNL d   1      -1.102  -1.167  -0.059  0.00  0.00    -0.015 A 
ATOM      6  C   UNL d   1      -1.799  -0.279  -0.899  0.00  0.00     0.013 A 
ATOM      7  C   UNL d   1      -3.198  -0.284  -0.969  0.00  0.00     0.008 A 
ATOM      8  C   UNL d   1      -3.945  -1.183  -0.203  0.00  0.00    -0.059 A 
ATOM      9  C   UNL d   1      -3.265  -2.058   0.652  0.00  0.00     0.008 A 
ATOM     10  C   UNL d   1      -1.864  -2.056   0.716  0.00  0.00     0.013 A 
BRANCH   8  11
ATOM     11  C   UNL d   1      -5.449  -1.224  -0.310  0.00  0.00     0.034 C 
ATOM     12  C   UNL d   1      -6.141  -0.295   0.677  0.00  0.00     0.010 C 
ENDBRANCH   8  11
ENDBRANCH   2   5
BRANCH   1  13
ATOM     13  C   UNL d   1       2.530  -1.326   1.251  0.00  0.00    -0.013 A 
ATOM     14  C   UNL d   1       3.394  -2.408   1.011  0.00  0.00     0.044 A 
ATOM     15 CL   UNL d   1       2.792  -3.981   0.620  0.00  0.00    -0.083 Cl
ATOM     16  C   UNL d   1       4.781  -2.237   1.093  0.00  0.00     0.024 A 
ATOM     17  C   UNL d   1       5.316  -0.994   1.433  0.00  0.00     0.002 A 
ATOM     18  C   UNL d   1       4.466   0.076   1.704  0.00  0.00     0.001 A 
ATOM     19  C   UNL d   1       3.082  -0.089   1.613  0.00  0.00     0.013 A 
ENDBRANCH   1  13
TORSDOF 3
