REMARK  3 active torsions:
REMARK  status: ('A' for Active; 'I' for Inactive)
REMARK    1  A    between atoms: C_2  and  C_1 
REMARK    2  A    between atoms: C_10  and  C_3 
REMARK    3  A    between atoms: N_8  and  C_10 
ROOT
ATOM      1  C   UNL d   1       0.374  -1.103  -0.561  0.00  0.00     0.064 A 
ATOM      2  C   UNL d   1      -0.441  -3.748  -0.584  0.00  0.00     0.059 A 
ATOM      3  N   UNL d   1       0.213  -3.240  -1.673  0.00  0.00    -0.366 N 
ATOM      4  HN  UNL d   1       0.404  -3.822  -2.488  1.00  0.00     0.165 HD
ATOM      5  C   UNL d   1      -0.294  -1.633   0.544  0.00  0.00     0.043 A 
ATOM      6  C   UNL d   1      -0.715  -2.966   0.538  0.00  0.00     0.059 A 
ATOM      7  C   UNL d   1       0.598  -1.943  -1.638  0.00  0.00     0.104 A 
ATOM      8 CL   UNL d   1      -1.522  -3.568   1.936  0.00  0.00    -0.082 Cl
ENDROOT
BRANCH   2   9
ATOM      9  C   UNL d   1      -0.809  -5.219  -0.667  0.00  0.00     0.331 C 
BRANCH   9  10
ATOM     10  N   UNL d   1      -2.147  -5.525  -1.250  0.00  0.00     0.095 N 
ATOM     11  C   UNL d   1      -2.183  -5.106  -2.676  0.00  0.00     0.283 C 
ATOM     12  C   UNL d   1      -3.426  -5.509  -3.475  0.00  0.00     0.104 C 
ATOM     13  S   UNL d   1      -3.660  -7.306  -3.521  0.00  0.00    -0.166 SA
ATOM     14  C   UNL d   1      -3.651  -7.548  -1.725  0.00  0.00     0.104 C 
ATOM     15  C   UNL d   1      -2.379  -6.980  -1.087  0.00  0.00     0.283 C 
ENDBRANCH   9  10
ENDBRANCH   2   9
BRANCH   1  16
ATOM     16  C   UNL d   1       0.855   0.313  -0.620  0.00  0.00     0.418 C 
ATOM     17  F   UNL d   1       0.621   1.012   0.525  0.00  0.00    -0.166 F 
ATOM     18  F   UNL d   1       0.268   1.025  -1.619  0.00  0.00    -0.166 F 
ATOM     19  F   UNL d   1       2.198   0.400  -0.838  0.00  0.00    -0.166 F 
ENDBRANCH   1  16
TORSDOF 3
