REMARK  5 active torsions:
REMARK  status: ('A' for Active; 'I' for Inactive)
REMARK    1  A    between atoms: O_11  and  C_1 
REMARK    2  A    between atoms: C_5  and  C_2 
REMARK    3  A    between atoms: O_12  and  C_5 
REMARK    4  A    between atoms: C_13  and  O_11 
REMARK    5  A    between atoms: C_14  and  C_13 
ROOT
ATOM      1  C   UNL d   1      -0.177   0.652   0.005  0.00  0.00     0.112 A 
ATOM      2  C   UNL d   1      -0.027  -2.177   0.006  0.00  0.00     0.041 A 
ATOM      3  C   UNL d   1      -1.343  -0.131  -0.024  0.00  0.00     0.070 A 
ATOM      4  C   UNL d   1       1.064  -0.017   0.004  0.00  0.00     0.070 A 
ATOM      5  C   UNL d   1       1.140  -1.415   0.008  0.00  0.00     0.045 A 
ATOM      6  C   UNL d   1      -1.266  -1.534   0.006  0.00  0.00     0.045 A 
ATOM      7 CL   UNL d   1      -2.949   0.498  -0.177  0.00  0.00    -0.081 Cl
ATOM      8 CL   UNL d   1       2.560   0.857   0.008  0.00  0.00    -0.081 Cl
ENDROOT
BRANCH   1   9
ATOM      9  O   UNL d   1      -0.101   2.023  -0.024  0.00  0.00    -0.348 OA
BRANCH   9  10
ATOM     10  C   UNL d   1      -1.109   2.767   0.659  0.00  0.00     0.175 C 
BRANCH  10  11
ATOM     11  C   UNL d   1      -0.516   4.077   1.172  0.00  0.00     0.022 C 
ATOM     12  C   UNL d   1      -1.586   4.928   1.839  0.00  0.00     0.007 C 
ENDBRANCH  10  11
ENDBRANCH   9  10
ENDBRANCH   1   9
BRANCH   2  13
ATOM     13  C   UNL d   1       0.096  -3.654   0.046  0.00  0.00     0.176 C 
ATOM     14  O   UNL d   1       1.046  -4.214   0.569  0.00  0.00    -0.646 OA
BRANCH  13  15
ATOM     15  O   UNL d   1      -0.906  -4.318  -0.562  0.00  0.00    -0.773 OA
ATOM     16  H   UNL d   1      -1.514  -3.785  -1.107  0.00  0.00     0.167 HD
ENDBRANCH  13  15
ENDBRANCH   2  13
TORSDOF 5
