REMARK  4 active torsions:
REMARK  status: ('A' for Active; 'I' for Inactive)
REMARK    1  A    between atoms: S_13  and  C_2 
REMARK    2  A    between atoms: C_16  and  C_8 
REMARK    3  A    between atoms: C_12  and  C_19 
REMARK    4  A    between atoms: C_19  and  S_13 
ROOT
ATOM      1  S   UNL d   1      -2.226  -3.234  -0.024  0.00  0.00    -0.104 SA
ENDROOT
BRANCH   1   2
ATOM      2  C   UNL d   1      -1.094  -1.919  -0.011  0.00  0.00     0.098 A 
ATOM      3  C   UNL d   1      -1.708  -0.616  -0.021  0.00  0.00     0.073 A 
ATOM      4  N   UNL d   1      -0.909   0.503  -0.019  0.00  0.00    -0.318 N 
ATOM      5  C   UNL d   1      -3.026  -0.187  -0.033  0.00  0.00     0.034 A 
ATOM      6  C   UNL d   1       0.493   0.390  -0.005  0.00  0.00     0.066 A 
ATOM      7  C   UNL d   1      -1.701   1.626  -0.032  0.00  0.00     0.098 A 
ATOM      8  C   UNL d   1       1.011  -0.920   0.008  0.00  0.00     0.060 A 
ATOM      9  C   UNL d   1       1.325   1.515  -0.003  0.00  0.00     0.032 A 
ATOM     10  N   UNL d   1       0.193  -2.084   0.003  0.00  0.00    -0.347 N 
ATOM     11  C   UNL d   1       2.399  -1.071   0.025  0.00  0.00     0.032 A 
ATOM     12  HN  UNL d   1       0.605  -3.017   0.011  1.00  0.00     0.167 HD
ATOM     13  C   UNL d   1       3.243   0.048   0.027  0.00  0.00     0.002 A 
ATOM     14  C   UNL d   1       2.706   1.337   0.013  0.00  0.00     0.002 A 
ATOM     15  C   UNL d   1      -3.019   1.225  -0.041  0.00  0.00     0.020 A 
ENDBRANCH   1   2
BRANCH   1  16
ATOM     16  C   UNL d   1      -1.185  -4.709  -0.019  0.00  0.00     0.138 C 
BRANCH  16  17
ATOM     17  C   UNL d   1      -2.015  -5.975  -0.024  0.00  0.00     0.026 A 
ATOM     18  N   UNL d   1      -3.407  -5.910  -0.037  0.00  0.00    -0.352 N 
ATOM     19  C   UNL d   1      -3.954  -7.105   0.039  0.00  0.00     0.084 A 
ATOM     20  HN  UNL d   1      -3.938  -5.042  -0.098  1.00  0.00     0.166 HD
ATOM     21  S   UNL d   1      -2.819  -8.398   0.025  0.00  0.00    -0.081 SA
ATOM     22  C   UNL d   1      -1.527  -7.269  -0.005  0.00  0.00     0.077 A 
BRANCH  19  23
ATOM     23  C   UNL d   1      -5.408  -7.332   0.119  0.00  0.00    -0.002 A 
ATOM     24  C   UNL d   1      -6.282  -6.419  -0.499  0.00  0.00     0.016 A 
ATOM     25  C   UNL d   1      -7.672  -6.563  -0.392  0.00  0.00     0.024 A 
ATOM     26  C   UNL d   1      -8.200  -7.618   0.345  0.00  0.00     0.034 A 
ATOM     27  C   UNL d   1      -7.354  -8.533   0.967  0.00  0.00     0.024 A 
ATOM     28 CL   UNL d   1      -9.905  -7.784   0.505  0.00  0.00    -0.084 Cl
ATOM     29  C   UNL d   1      -5.966  -8.391   0.853  0.00  0.00     0.016 A 
ENDBRANCH  19  23
ENDBRANCH  16  17
ENDBRANCH   1  16
TORSDOF 4
