REMARK  1 active torsions:
REMARK  status: ('A' for Active; 'I' for Inactive)
REMARK    1  A    between atoms: N_4  and  C_2 
ROOT
ATOM      1  C   UNL d   1       0.150   1.040   0.340  0.00  0.00     0.042 A 
ATOM      2  C   UNL d   1       1.399   1.506  -0.138  0.00  0.00     0.117 A 
ATOM      3  C   UNL d   1      -0.011  -0.339   0.417  0.00  0.00     0.088 A 
ATOM      4  N   UNL d   1       2.316   0.572  -0.495  0.00  0.00    -0.338 N 
ATOM      5  HN  UNL d   1       3.221   0.860  -0.868  1.00  0.00     0.168 HD
ATOM      6  N   UNL d   1       0.897  -1.272   0.097  0.00  0.00    -0.346 N 
ATOM      7  HN  UNL d   1       0.740  -2.275   0.188  1.00  0.00     0.167 HD
ATOM      8  S   UNL d   1      -1.560  -0.799   0.967  0.00  0.00    -0.083 SA
ATOM      9  C   UNL d   1      -1.067   1.700   0.730  0.00  0.00     0.025 A 
ATOM     10  C   UNL d   1       2.029  -0.733  -0.356  0.00  0.00     0.182 A 
ATOM     11  C   UNL d   1      -2.066   0.826   1.092  0.00  0.00     0.053 A 
ENDROOT
BRANCH   2  12
ATOM     12  N   UNL d   1       1.677   2.855  -0.330  0.00  0.00    -0.366 N 
ATOM     13  C   UNL d   1       2.814   3.226  -1.175  0.00  0.00     0.124 C 
ATOM     14  C   UNL d   1       3.502   4.370  -0.434  0.00  0.00     0.021 C 
ATOM     15  C   UNL d   1       2.392   4.972   0.406  0.00  0.00     0.021 C 
ATOM     16  C   UNL d   1       1.574   3.752   0.821  0.00  0.00     0.124 C 
ENDBRANCH   2  12
TORSDOF 1
