REMARK  4 active torsions:
REMARK  status: ('A' for Active; 'I' for Inactive)
REMARK    1  A    between atoms: C_2  and  C_1 
REMARK    2  A    between atoms: O_8  and  C_4 
REMARK    3  A    between atoms: N_16  and  C_5 
REMARK    4  A    between atoms: C_15  and  O_8 
ROOT
ATOM      1  N   UNL d   1      -5.950   1.133  -8.859  0.00  0.00    -0.191 NA
ATOM      2  C   UNL d   1      -5.054   1.391  -8.170  0.00  0.00     0.099 C 
ATOM      3  C   UNL d   1      -3.938   1.698  -7.324  0.00  0.00     0.044 A 
ATOM      4  C   UNL d   1      -1.721   2.207  -5.687  0.00  0.00     0.076 A 
ATOM      5  C   UNL d   1      -3.982   1.387  -5.962  0.00  0.00     0.025 A 
ATOM      6  C   UNL d   1      -2.885   1.666  -5.139  0.00  0.00     0.039 A 
ATOM      7  C   UNL d   1      -1.694   2.555  -7.042  0.00  0.00     0.039 A 
ATOM      8  C   UNL d   1      -2.796   2.300  -7.861  0.00  0.00     0.025 A 
ENDROOT
BRANCH   4   9
ATOM      9  O   UNL d   1      -0.554   2.453  -5.004  0.00  0.00    -0.309 OA
BRANCH   9  10
ATOM     10  C   UNL d   1      -0.270   1.803  -3.821  0.00  0.00     0.097 C 
ATOM     11  C   UNL d   1       0.214   2.638  -2.805  0.00  0.00     0.040 C 
ATOM     12  C   UNL d   1       0.605   2.106  -1.576  0.00  0.00     0.019 C 
ATOM     13  C   UNL d   1       0.502   0.729  -1.341  0.00  0.00     0.049 C 
ATOM     14  C   UNL d   1       0.026  -0.100  -2.370  0.00  0.00     0.042 C 
ATOM     15  C   UNL d   1      -0.288   0.407  -3.639  0.00  0.00     0.041 C 
BRANCH  13  16
ATOM     16  C   UNL d   1       0.921   0.151  -0.012  0.00  0.00     0.417 C 
ATOM     17  F   UNL d   1       0.744  -1.197   0.076  0.00  0.00    -0.166 F 
ATOM     18  F   UNL d   1       0.234   0.687   1.033  0.00  0.00    -0.166 F 
ATOM     19  F   UNL d   1       2.239   0.370   0.254  0.00  0.00    -0.166 F 
ENDBRANCH  13  16
BRANCH  15  20
ATOM     20  N   UNL d   1      -0.792  -0.486  -4.598  0.00  0.00    -0.300 NA
ATOM     21  H   UNL d   1      -0.485  -1.446  -4.491  0.00  0.00     0.124 HD
ATOM     22  H   UNL d   1      -0.685  -0.148  -5.551  0.00  0.00     0.124 HD
ENDBRANCH  15  20
ENDBRANCH   9  10
ENDBRANCH   4   9
TORSDOF 4
