REMARK  4 active torsions:
REMARK  status: ('A' for Active; 'I' for Inactive)
REMARK    1  A    between atoms: C_9  and  C_5 
REMARK    2  A    between atoms: C_10  and  C_9 
REMARK    3  A    between atoms: C_11  and  C_10 
REMARK    4  A    between atoms: C_13  and  C_11 
ROOT
ATOM      1  C   UNL d   1      -4.362   0.827  -4.546  0.00  0.00     0.324 A 
ATOM      2  N   UNL d   1      -5.356   0.601  -3.632  0.00  0.00    -0.318 N 
ATOM      3  HN  UNL d   1      -6.338   0.612  -3.909  1.00  0.00     0.170 HD
ATOM      4  N   UNL d   1      -3.067   0.886  -4.086  0.00  0.00    -0.318 N 
ATOM      5  C   UNL d   1      -3.627   0.316  -1.884  0.00  0.00    -0.024 A 
ATOM      6  C   UNL d   1      -2.703   0.627  -2.797  0.00  0.00     0.101 A 
ATOM      7  C   UNL d   1      -5.013   0.372  -2.408  0.00  0.00     0.101 A 
ATOM      8  O   UNL d   1      -4.576   0.987  -5.746  0.00  0.00    -0.247 OA
ATOM      9  H   UNL d   1      -2.377   1.082  -4.800  0.00  0.00     0.170 HD
ENDROOT
BRANCH   5  10
ATOM     10  C   UNL d   1      -3.369  -0.071  -0.459  0.00  0.00     0.078 C 
BRANCH  10  11
ATOM     11  C   UNL d   1      -3.877  -1.487  -0.156  0.00  0.00     0.174 C 
ATOM     12  F   UNL d   1      -5.237  -1.460  -0.216  0.00  0.00    -0.249 F 
BRANCH  11  13
ATOM     13  C   UNL d   1      -3.470  -1.959   1.241  0.00  0.00     0.041 C 
BRANCH  13  14
ATOM     14  C   UNL d   1      -3.943  -3.378   1.623  0.00  0.00    -0.020 C 
ATOM     15  C   UNL d   1      -5.466  -3.517   1.640  0.00  0.00     0.009 C 
ATOM     16  C   UNL d   1      -3.326  -4.457   0.731  0.00  0.00     0.009 C 
ENDBRANCH  13  14
ENDBRANCH  11  13
ENDBRANCH  10  11
ENDBRANCH   5  10
TORSDOF 4
