REMARK  4 active torsions:
REMARK  status: ('A' for Active; 'I' for Inactive)
REMARK    1  A    between atoms: C_5  and  C_1 
REMARK    2  A    between atoms: N_3  and  C_2 
REMARK       I    between atoms: C_4  and  N_3 
REMARK    3  A    between atoms: C_9  and  C_4 
REMARK    4  A    between atoms: O_12  and  C_5 
ROOT
ATOM      1  C   UNL d   1      -0.148   0.936  -0.332  0.00  0.00     0.105 A 
ATOM      2  C   UNL d   1       1.216   0.642  -0.240  0.00  0.00     0.059 A 
ATOM      3  S   UNL d   1      -1.092  -0.503  -0.035  0.00  0.00    -0.093 SA
ATOM      4  C   UNL d   1       1.429  -0.777  -0.080  0.00  0.00     0.038 A 
ATOM      5  C   UNL d   1       0.273  -1.500   0.052  0.00  0.00     0.053 A 
ENDROOT
BRANCH   2   6
ATOM      6  N   UNL d   1       2.364   1.432  -0.370  0.00  0.00    -0.323 N 
ATOM      7  C   UNL d   1       2.568   2.701   0.135  0.00  0.00     0.255 C 
ATOM      8  O   UNL d   1       1.689   3.354   0.697  0.00  0.00    -0.270 OA
ATOM      9  H   UNL d   1       3.224   0.901  -0.502  0.00  0.00     0.169 HD
BRANCH   7  10
ATOM     10  C   UNL d   1       3.991   3.249  -0.035  0.00  0.00     0.270 C 
ATOM     11 CL   UNL d   1       5.183   1.965   0.287  0.00  0.00    -0.098 Cl
ATOM     12 CL   UNL d   1       4.174   3.867  -1.684  0.00  0.00    -0.098 Cl
ENDBRANCH   7  10
ENDBRANCH   2   6
BRANCH   1  13
ATOM     13  C   UNL d   1      -0.973   2.079  -0.718  0.00  0.00     0.185 C 
ATOM     14  O   UNL d   1      -2.049   2.006  -1.298  0.00  0.00    -0.646 OA
BRANCH  13  15
ATOM     15  O   UNL d   1      -0.488   3.290  -0.374  0.00  0.00    -0.772 OA
ATOM     16  H   UNL d   1       0.293   3.265   0.217  0.00  0.00     0.167 HD
ENDBRANCH  13  15
ENDBRANCH   1  13
TORSDOF 4
