REMARK  8 active torsions:
REMARK  status: ('A' for Active; 'I' for Inactive)
REMARK    1  A    between atoms: C_4  and  C_1 
REMARK    2  A    between atoms: C_2  and  C_3 
REMARK    3  A    between atoms: C_13  and  N_5 
REMARK    4  A    between atoms: N_7  and  C_13 
REMARK    5  A    between atoms: O_23  and  C_9 
REMARK    6  A    between atoms: O_22  and  C_10 
REMARK    7  A    between atoms: C_24  and  C_13 
REMARK    8  A    between atoms: C_25  and  C_24 
ROOT
ATOM      1  C   UNL d   1      -3.895  -3.833   0.033  0.00  0.00     0.180 C 
ENDROOT
BRANCH   1   2
ATOM      2  N   UNL d   1      -3.590  -4.592   1.247  0.00  0.00    -0.377 N 
ATOM      3  C   UNL d   1      -2.982  -5.717   1.067  0.00  0.00     0.099 C 
ATOM      4  HN  UNL d   1      -3.841  -4.253   2.176  1.00  0.00     0.161 HD
BRANCH   3   5
ATOM      5  C   UNL d   1      -2.654  -6.598   2.209  0.00  0.00     0.014 A 
ATOM      6  C   UNL d   1      -2.960  -6.245   3.530  0.00  0.00     0.077 A 
ATOM      7  C   UNL d   1      -2.691  -7.124   4.577  0.00  0.00     0.039 A 
ATOM      8  C   UNL d   1      -2.096  -8.358   4.311  0.00  0.00     0.026 A 
ATOM      9  C   UNL d   1      -1.770  -8.700   2.998  0.00  0.00     0.035 A 
ATOM     10  C   UNL d   1      -2.047  -7.829   1.943  0.00  0.00     0.039 A 
ATOM     11 CL   UNL d   1      -1.025 -10.217   2.674  0.00  0.00    -0.084 Cl
BRANCH   6  12
ATOM     12  O   UNL d   1      -3.527  -5.046   3.864  0.00  0.00    -0.360 OA
ATOM     13  H   UNL d   1      -3.639  -4.534   3.028  0.00  0.00     0.217 HD
ENDBRANCH   6  12
ENDBRANCH   3   5
ENDBRANCH   1   2
BRANCH   1  14
ATOM     14  N   UNL d   1      -3.198  -2.554   0.171  0.00  0.00    -0.377 N 
ATOM     15  C   UNL d   1      -2.819  -2.017  -0.939  0.00  0.00     0.099 C 
ATOM     16  HN  UNL d   1      -3.024  -2.120   1.078  1.00  0.00     0.161 HD
BRANCH  15  17
ATOM     17  C   UNL d   1      -2.183  -0.686  -0.962  0.00  0.00     0.014 A 
ATOM     18  C   UNL d   1      -1.940   0.034   0.214  0.00  0.00     0.077 A 
ATOM     19  C   UNL d   1      -1.364   1.301   0.157  0.00  0.00     0.039 A 
ATOM     20  C   UNL d   1      -1.027   1.854  -1.079  0.00  0.00     0.026 A 
ATOM     21  C   UNL d   1      -1.271   1.136  -2.251  0.00  0.00     0.035 A 
ATOM     22  C   UNL d   1      -1.851  -0.132  -2.202  0.00  0.00     0.039 A 
ATOM     23 CL   UNL d   1      -0.853   1.820  -3.773  0.00  0.00    -0.084 Cl
BRANCH  18  24
ATOM     24  O   UNL d   1      -2.248  -0.449   1.456  0.00  0.00    -0.360 OA
ATOM     25  H   UNL d   1      -2.652  -1.341   1.334  0.00  0.00     0.217 HD
ENDBRANCH  18  24
ENDBRANCH  15  17
ENDBRANCH   1  14
BRANCH   1  26
ATOM     26  C   UNL d   1      -5.417  -3.591   0.013  0.00  0.00     0.046 C 
BRANCH  26  27
ATOM     27  C   UNL d   1      -5.891  -2.792  -1.205  0.00  0.00    -0.001 C 
ATOM     28  C   UNL d   1      -7.397  -2.587  -1.207  0.00  0.00     0.005 C 
ENDBRANCH  26  27
ENDBRANCH   1  26
TORSDOF 8
