REMARK  7 active torsions:
REMARK  status: ('A' for Active; 'I' for Inactive)
REMARK    1  A    between atoms: C_11  and  C_3 
REMARK    2  A    between atoms: S_12  and  C_4 
REMARK    3  A    between atoms: C_23  and  S_12 
REMARK    4  A    between atoms: C_14  and  O_21 
REMARK    5  A    between atoms: C_20  and  C_23 
REMARK    6  A    between atoms: C_24  and  C_20 
REMARK    7  A    between atoms: O_21  and  C_24 
ROOT
ATOM      1  N   UNL d   1      -0.596   1.246   0.083  0.00  0.00    -0.335 N 
ATOM      2  HN  UNL d   1      -1.093   2.137   0.112  1.00  0.00     0.168 HD
ATOM      3  C   UNL d   1      -1.251   0.069   0.011  0.00  0.00     0.116 A 
ATOM      4  C   UNL d   1       0.755   1.184   0.115  0.00  0.00     0.094 A 
ATOM      5  C   UNL d   1       1.466  -0.012   0.056  0.00  0.00     0.100 A 
ATOM      6  N   UNL d   1      -0.637  -1.131  -0.031  0.00  0.00    -0.344 N 
ATOM      7  HN  UNL d   1      -1.181  -1.992  -0.079  1.00  0.00     0.167 HD
ATOM      8  C   UNL d   1       0.712  -1.166  -0.008  0.00  0.00     0.030 A 
ATOM      9  C   UNL d   1       2.897  -0.055   0.055  0.00  0.00     0.104 C 
ATOM     10  N   UNL d   1       4.054  -0.125   0.037  0.00  0.00    -0.191 NA
ATOM     11  C   UNL d   1       1.306  -2.546  -0.013  0.00  0.00     0.070 C 
ENDROOT
BRANCH   4  12
ATOM     12  S   UNL d   1       1.662   2.718   0.343  0.00  0.00    -0.111 SA
BRANCH  12  13
ATOM     13  C   UNL d   1       0.438   4.028   0.005  0.00  0.00     0.083 C 
BRANCH  13  14
ATOM     14  C   UNL d   1       1.157   5.385  -0.076  0.00  0.00     0.037 C 
BRANCH  14  15
ATOM     15  C   UNL d   1       2.114   5.480  -1.270  0.00  0.00     0.176 C 
BRANCH  15  16
ATOM     16  O   UNL d   1       2.756   6.759  -1.281  0.00  0.00    -0.351 OA
BRANCH  16  17
ATOM     17  C   UNL d   1       3.632   6.963  -2.318  0.00  0.00     0.068 A 
ATOM     18  C   UNL d   1       3.899   8.301  -2.620  0.00  0.00     0.038 A 
ATOM     19  C   UNL d   1       4.753   8.634  -3.676  0.00  0.00     0.026 A 
ATOM     20  C   UNL d   1       5.361   7.624  -4.418  0.00  0.00     0.034 A 
ATOM     21  C   UNL d   1       5.131   6.288  -4.104  0.00  0.00     0.026 A 
ATOM     22 CL   UNL d   1       6.398   8.026  -5.731  0.00  0.00    -0.084 Cl
ATOM     23  C   UNL d   1       4.271   5.958  -3.051  0.00  0.00     0.038 A 
ENDBRANCH  16  17
ENDBRANCH  15  16
ENDBRANCH  14  15
ENDBRANCH  13  14
ENDBRANCH  12  13
ENDBRANCH   4  12
BRANCH   3  24
ATOM     24  C   UNL d   1      -2.729   0.061   0.005  0.00  0.00     0.008 A 
ATOM     25  C   UNL d   1      -3.484   1.247  -0.024  0.00  0.00     0.015 A 
ATOM     26  C   UNL d   1      -4.885   1.221  -0.021  0.00  0.00     0.001 A 
ATOM     27  C   UNL d   1      -5.566   0.007   0.010  0.00  0.00     0.000 A 
ATOM     28  C   UNL d   1      -4.848  -1.183   0.036  0.00  0.00     0.001 A 
ATOM     29  C   UNL d   1      -3.450  -1.153   0.032  0.00  0.00     0.015 A 
ENDBRANCH   3  24
TORSDOF 7
