REMARK  7 active torsions:
REMARK  status: ('A' for Active; 'I' for Inactive)
REMARK    1  A    between atoms: C_2  and  C_1 
REMARK    2  A    between atoms: N_3  and  C_1 
REMARK    3  A    between atoms: C_4  and  C_1 
REMARK    4  A    between atoms: N_5  and  C_1 
REMARK       I    between atoms: C_6  and  N_3 
REMARK    5  A    between atoms: O_13  and  C_4 
REMARK    6  A    between atoms: C_12  and  N_5 
REMARK    7  A    between atoms: C_21  and  O_13 
ROOT
ATOM      1  C   UNL d   1       0.855  -0.107   0.036  0.00  0.00     0.296 C 
ENDROOT
BRANCH   1   2
ATOM      2  C   UNL d   1       0.097  -1.485  -0.079  0.00  0.00     0.442 C 
ATOM      3  F   UNL d   1      -0.442  -1.866   1.111  0.00  0.00    -0.166 F 
ATOM      4  F   UNL d   1      -0.913  -1.488  -0.982  0.00  0.00    -0.166 F 
ATOM      5  F   UNL d   1       0.932  -2.496  -0.446  0.00  0.00    -0.166 F 
ENDBRANCH   1   2
BRANCH   1   6
ATOM      6  N   UNL d   1       0.513   0.744   1.162  0.00  0.00    -0.319 N 
ATOM      7  C   UNL d   1      -0.783   1.070   1.452  0.00  0.00     0.216 C 
ATOM      8  O   UNL d   1      -1.728   0.603   0.831  0.00  0.00    -0.274 OA
ATOM      9  C   UNL d   1      -0.944   2.042   2.585  0.00  0.00     0.117 C 
ATOM     10  H   UNL d   1       1.290   1.158   1.655  0.00  0.00     0.165 HD
ENDBRANCH   1   6
BRANCH   1  11
ATOM     11  C   UNL d   1       0.528   0.653  -1.292  0.00  0.00     0.318 C 
ATOM     12  O   UNL d   1       0.132   1.812  -1.348  0.00  0.00    -0.260 OA
BRANCH  11  13
ATOM     13  O   UNL d   1       0.867  -0.081  -2.392  0.00  0.00    -0.318 OA
BRANCH  13  14
ATOM     14  C   UNL d   1       0.453   0.481  -3.651  0.00  0.00     0.174 C 
ATOM     15  C   UNL d   1       1.419   1.554  -4.124  0.00  0.00     0.034 C 
ENDBRANCH  13  14
ENDBRANCH  11  13
ENDBRANCH   1  11
BRANCH   1  16
ATOM     16  N   UNL d   1       2.341  -0.157   0.174  0.00  0.00    -0.348 N 
ATOM     17  H   UNL d   1       2.850   0.408  -0.500  0.00  0.00     0.163 HD
BRANCH  16  18
ATOM     18  C   UNL d   1       3.088  -0.973   0.997  0.00  0.00     0.030 A 
ATOM     19  C   UNL d   1       2.554  -1.720   2.051  0.00  0.00     0.031 A 
ATOM     20  C   UNL d   1       3.352  -2.585   2.811  0.00  0.00     0.026 A 
ATOM     21  C   UNL d   1       4.708  -2.700   2.534  0.00  0.00     0.034 A 
ATOM     22  C   UNL d   1       5.274  -1.946   1.514  0.00  0.00     0.026 A 
ATOM     23 CL   UNL d   1       5.684  -3.778   3.451  0.00  0.00    -0.084 Cl
ATOM     24  C   UNL d   1       4.466  -1.090   0.755  0.00  0.00     0.031 A 
ENDBRANCH  16  18
ENDBRANCH   1  16
TORSDOF 7
