REMARK  2 active torsions:
REMARK  status: ('A' for Active; 'I' for Inactive)
REMARK    1  A    between atoms: C_6  and  C_1 
REMARK    2  A    between atoms: C_9  and  C_8 
REMARK       I    between atoms: N_12  and  C_9 
ROOT
ATOM      1  C   UNL d   1       2.431  -0.641   0.146  0.00  0.00     0.042 C 
ATOM      2  C   UNL d   1       1.179  -1.418   0.343  0.00  0.00     0.196 C 
ATOM      3  C   UNL d   1       2.336   0.695   0.141  0.00  0.00     0.107 C 
ATOM      4  N   UNL d   1       1.165   1.428   0.201  0.00  0.00    -0.359 N 
ATOM      5  C   UNL d   1      -0.097  -0.667   0.246  0.00  0.00     0.042 A 
ATOM      6  C   UNL d   1      -0.074   0.744   0.171  0.00  0.00     0.048 A 
ATOM      7  O   UNL d   1       1.196  -2.625   0.560  0.00  0.00    -0.286 OA
ATOM      8  C   UNL d   1       1.166   2.888   0.106  0.00  0.00     0.156 C 
ATOM      9  C   UNL d   1      -1.297  -1.391   0.185  0.00  0.00     0.018 A 
ATOM     10  C   UNL d   1      -1.312   1.394   0.035  0.00  0.00     0.030 A 
ATOM     11  C   UNL d   1      -2.502  -0.717   0.017  0.00  0.00     0.001 A 
ATOM     12  C   UNL d   1      -2.509   0.672  -0.057  0.00  0.00     0.002 A 
ENDROOT
BRANCH   1  13
ATOM     13  C   UNL d   1       3.721  -1.287  -0.115  0.00  0.00    -0.005 A 
ATOM     14  C   UNL d   1       4.128  -1.725  -1.393  0.00  0.00     0.043 A 
ATOM     15  C   UNL d   1       5.383  -2.344  -1.532  0.00  0.00     0.018 A 
ATOM     16  C   UNL d   1       6.231  -2.513  -0.435  0.00  0.00     0.001 A 
ATOM     17  C   UNL d   1       5.829  -2.077   0.822  0.00  0.00     0.001 A 
ATOM     18  C   UNL d   1       4.582  -1.473   0.983  0.00  0.00     0.013 A 
BRANCH  14  19
ATOM     19  C   UNL d   1       3.325  -1.630  -2.652  0.00  0.00     0.250 C 
ATOM     20  O   UNL d   1       3.461  -2.456  -3.549  0.00  0.00    -0.268 OA
ATOM     21  N   UNL d   1       2.478  -0.577  -2.846  0.00  0.00    -0.366 N 
ATOM     22  H   UNL d   1       2.372   0.211  -2.228  0.00  0.00     0.159 HD
ATOM     23  H   UNL d   1       1.989  -0.546  -3.731  0.00  0.00     0.159 HD
ENDBRANCH  14  19
ENDBRANCH   1  13
TORSDOF 2
