REMARK  5 active torsions:
REMARK  status: ('A' for Active; 'I' for Inactive)
REMARK    1  A    between atoms: S_7  and  C_1 
REMARK    2  A    between atoms: N_3  and  C_2 
REMARK    3  A    between atoms: S_11  and  C_6 
REMARK    4  A    between atoms: C_13  and  S_7 
REMARK    5  A    between atoms: C_14  and  S_11 
ROOT
ATOM      1  C   UNL d   1      -0.572   1.185   0.121  0.00  0.00     0.109 A 
ATOM      2  C   UNL d   1       0.815   1.185   0.209  0.00  0.00     0.136 A 
ATOM      3  N   UNL d   1      -1.265   0.018   0.014  0.00  0.00    -0.343 N 
ATOM      4  HN  UNL d   1      -2.284   0.021  -0.033  1.00  0.00     0.167 HD
ATOM      5  C   UNL d   1      -0.572  -1.148  -0.029  0.00  0.00     0.075 A 
ATOM      6  C   UNL d   1       1.529  -0.013   0.129  0.00  0.00     0.042 A 
ATOM      7  C   UNL d   1       0.817  -1.202   0.001  0.00  0.00     0.040 A 
ENDROOT
BRANCH   1   8
ATOM      8  S   UNL d   1      -1.555   2.656  -0.098  0.00  0.00    -0.070 SA
BRANCH   8   9
ATOM      9  C   UNL d   1      -2.081   3.065   1.555  0.00  0.00     0.007 A 
ATOM     10  C   UNL d   1      -1.845   4.362   2.032  0.00  0.00     0.020 A 
ATOM     11  C   UNL d   1      -2.348   4.770   3.271  0.00  0.00     0.025 A 
ATOM     12  C   UNL d   1      -3.096   3.880   4.037  0.00  0.00     0.034 A 
ATOM     13  C   UNL d   1      -3.330   2.584   3.580  0.00  0.00     0.025 A 
ATOM     14 CL   UNL d   1      -3.753   4.392   5.543  0.00  0.00    -0.084 Cl
ATOM     15  C   UNL d   1      -2.825   2.177   2.339  0.00  0.00     0.020 A 
ENDBRANCH   8   9
ENDBRANCH   1   8
BRANCH   2  16
ATOM     16  N   UNL d   1       1.549   2.412   0.386  0.00  0.00    -0.113 N 
ATOM     17  O   UNL d   1       1.355   3.049   1.427  0.00  0.00    -0.532 OA
ATOM     18  O   UNL d   1       2.373   2.699  -0.494  0.00  0.00    -0.532 OA
ENDBRANCH   2  16
BRANCH   5  19
ATOM     19  S   UNL d   1      -1.515  -2.656   0.019  0.00  0.00    -0.073 SA
BRANCH  19  20
ATOM     20  C   UNL d   1      -1.801  -3.009  -1.704  0.00  0.00     0.007 A 
ATOM     21  C   UNL d   1      -1.390  -4.245  -2.222  0.00  0.00     0.020 A 
ATOM     22  C   UNL d   1      -1.690  -4.598  -3.541  0.00  0.00     0.025 A 
ATOM     23  C   UNL d   1      -2.412  -3.719  -4.344  0.00  0.00     0.034 A 
ATOM     24  C   UNL d   1      -2.825  -2.486  -3.842  0.00  0.00     0.025 A 
ATOM     25 CL   UNL d   1      -2.812  -4.167  -5.956  0.00  0.00    -0.084 Cl
ATOM     26  C   UNL d   1      -2.521  -2.132  -2.523  0.00  0.00     0.020 A 
ENDBRANCH  19  20
ENDBRANCH   5  19
TORSDOF 5
