REMARK  7 active torsions:
REMARK  status: ('A' for Active; 'I' for Inactive)
REMARK    1  A    between atoms: N_4  and  C_1 
REMARK    2  A    between atoms: C_6  and  N_3 
REMARK    3  A    between atoms: C_5  and  N_4 
REMARK    4  A    between atoms: C_7  and  C_5 
REMARK    5  A    between atoms: C_8  and  C_6 
REMARK    6  A    between atoms: C_9  and  C_7 
REMARK    7  A    between atoms: C_10  and  C_8 
ROOT
ATOM      1  C   UNL d   1       0.905   0.007   0.038  0.00  0.00     0.167 C 
ATOM      2  S   UNL d   1       0.217   1.344  -0.674  0.00  0.00    -0.041 SA
ATOM      3  N   UNL d   1       0.253  -1.087   0.531  0.00  0.00    -0.367 N 
ATOM      4  H   UNL d   1       0.733  -1.596   1.260  0.00  0.00     0.161 HD
ENDROOT
BRANCH   1   5
ATOM      5  N   UNL d   1       2.268  -0.064   0.127  0.00  0.00    -0.367 N 
ATOM      6  H   UNL d   1       2.740   0.763  -0.199  0.00  0.00     0.161 HD
BRANCH   5   7
ATOM      7  C   UNL d   1       3.013  -1.314   0.170  0.00  0.00     0.122 C 
BRANCH   7   8
ATOM      8  C   UNL d   1       4.373  -1.229  -0.522  0.00  0.00     0.019 C 
BRANCH   8   9
ATOM      9  C   UNL d   1       5.322  -0.243   0.155  0.00  0.00    -0.003 C 
ATOM     10  C   UNL d   1       6.689  -0.244  -0.508  0.00  0.00     0.005 C 
ENDBRANCH   8   9
ENDBRANCH   7   8
ENDBRANCH   5   7
ENDBRANCH   1   5
BRANCH   3  11
ATOM     11  C   UNL d   1      -1.105  -1.491   0.204  0.00  0.00     0.122 C 
BRANCH  11  12
ATOM     12  C   UNL d   1      -1.581  -2.679   1.036  0.00  0.00     0.019 C 
BRANCH  12  13
ATOM     13  C   UNL d   1      -1.757  -2.323   2.511  0.00  0.00    -0.003 C 
ATOM     14  C   UNL d   1      -2.309  -3.496   3.305  0.00  0.00     0.005 C 
ENDBRANCH  12  13
ENDBRANCH  11  12
ENDBRANCH   3  11
TORSDOF 7
