REMARK  6 active torsions:
REMARK  status: ('A' for Active; 'I' for Inactive)
REMARK    1  A    between atoms: C_22  and  C_2 
REMARK    2  A    between atoms: C_9  and  O_15 
REMARK    3  A    between atoms: C_11  and  C_9 
REMARK    4  A    between atoms: C_12  and  C_11 
REMARK    5  A    between atoms: O_15  and  C_14 
REMARK    6  A    between atoms: C_23  and  C_22 
ROOT
ATOM      1  C   UNL d   1       0.388   0.390  -0.348  0.00  0.00     0.092 A 
ATOM      2  C   UNL d   1      -0.437  -1.920  -0.088  0.00  0.00    -0.039 C 
ATOM      3  O   UNL d   1      -0.929   0.841  -0.558  0.00  0.00    -0.275 OA
ATOM      4  C   UNL d   1      -2.000  -0.017  -0.394  0.00  0.00     0.288 C 
ATOM      5  C   UNL d   1       0.673  -0.953  -0.081  0.00  0.00     0.004 A 
ATOM      6  C   UNL d   1      -1.685  -1.442  -0.221  0.00  0.00     0.090 C 
ATOM      7  C   UNL d   1       1.377   1.373  -0.386  0.00  0.00     0.075 A 
ATOM      8  C   UNL d   1       2.009  -1.287   0.180  0.00  0.00     0.017 A 
ATOM      9  C   UNL d   1       2.689   1.020  -0.094  0.00  0.00     0.082 A 
ATOM     10  O   UNL d   1      -3.163   0.369  -0.433  0.00  0.00    -0.260 OA
ATOM     11  C   UNL d   1       3.016  -0.307   0.177  0.00  0.00     0.038 A 
ENDROOT
BRANCH   9  12
ATOM     12  O   UNL d   1       3.614   2.087  -0.122  0.00  0.00    -0.276 OA
BRANCH  12  13
ATOM     13  C   UNL d   1       4.795   2.110   0.604  0.00  0.00     0.288 C 
ATOM     14  O   UNL d   1       5.257   1.218   1.303  0.00  0.00    -0.260 OA
BRANCH  13  15
ATOM     15  C   UNL d   1       5.506   3.395   0.413  0.00  0.00     0.084 C 
BRANCH  15  16
ATOM     16  C   UNL d   1       4.923   4.514  -0.048  0.00  0.00     0.025 C 
ATOM     17  C   UNL d   1       5.649   5.731  -0.229  0.00  0.00     0.005 A 
ATOM     18  S   UNL d   1       4.780   7.145  -0.718  0.00  0.00    -0.102 SA
ATOM     19  C   UNL d   1       6.997   6.027  -0.098  0.00  0.00     0.019 A 
ATOM     20  C   UNL d   1       6.195   8.095  -0.781  0.00  0.00     0.050 A 
ATOM     21  C   UNL d   1       7.312   7.380  -0.425  0.00  0.00     0.008 A 
ENDBRANCH  15  16
ENDBRANCH  13  15
ENDBRANCH  12  13
ENDBRANCH   9  12
BRANCH   2  22
ATOM     22  C   UNL d   1      -0.196  -3.409  -0.033  0.00  0.00     0.039 C 
BRANCH  22  23
ATOM     23  C   UNL d   1      -0.088  -3.965   1.389  0.00  0.00     0.000 C 
ATOM     24  C   UNL d   1       0.082  -5.478   1.367  0.00  0.00     0.005 C 
ENDBRANCH  22  23
ENDBRANCH   2  22
TORSDOF 6
