REMARK  10 active torsions:
REMARK  status: ('A' for Active; 'I' for Inactive)
REMARK    1  A    between atoms: N_7  and  C_1 
REMARK    2  A    between atoms: N_10  and  C_1 
REMARK    3  A    between atoms: O_11  and  C_2 
REMARK    4  A    between atoms: N_3  and  N_7 
REMARK    5  A    between atoms: C_5  and  C_9 
REMARK    6  A    between atoms: O_12  and  C_8 
REMARK    7  A    between atoms: C_17  and  N_10 
REMARK    8  A    between atoms: C_13  and  C_17 
REMARK    9  A    between atoms: C_19  and  C_13 
REMARK   10  A    between atoms: O_16  and  C_19 
ROOT
ATOM      1  N   UNL d   1      -1.110   0.756  -0.803  0.00  0.00    -0.309 N 
ATOM      2  HN  UNL d   1      -1.641   0.417  -0.001  1.00  0.00     0.186 HD
ATOM      3  C   UNL d   1      -1.683   1.384  -1.776  0.00  0.00     0.121 C 
ENDROOT
BRANCH   1   4
ATOM      4  N   UNL d   1       0.232   0.568  -0.899  0.00  0.00    -0.277 N 
ATOM      5  H   UNL d   1       0.774   0.991  -1.649  0.00  0.00     0.189 HD
BRANCH   4   6
ATOM      6  C   UNL d   1       0.916  -0.084   0.114  0.00  0.00     0.186 C 
ATOM      7  S   UNL d   1       2.580  -0.167   0.077  0.00  0.00    -0.040 SA
BRANCH   6   8
ATOM      8  N   UNL d   1       0.083  -0.580   1.085  0.00  0.00    -0.366 N 
ATOM      9  H   UNL d   1      -0.893  -0.538   0.813  0.00  0.00     0.161 HD
BRANCH   8  10
ATOM     10  C   UNL d   1       0.406  -0.881   2.467  0.00  0.00     0.124 C 
BRANCH  10  11
ATOM     11  C   UNL d   1       0.744   0.371   3.277  0.00  0.00     0.046 C 
BRANCH  11  12
ATOM     12  C   UNL d   1      -0.386   1.396   3.284  0.00  0.00     0.168 C 
BRANCH  12  13
ATOM     13  O   UNL d   1       0.026   2.523   4.059  0.00  0.00    -0.396 OA
ATOM     14  C   UNL d   1      -0.972   3.536   4.072  0.00  0.00     0.201 C 
ENDBRANCH  12  13
ENDBRANCH  11  12
ENDBRANCH  10  11
ENDBRANCH   8  10
ENDBRANCH   6   8
ENDBRANCH   4   6
ENDBRANCH   1   4
BRANCH   3  15
ATOM     15  C   UNL d   1      -3.146   1.577  -1.736  0.00  0.00     0.017 A 
ATOM     16  C   UNL d   1      -3.861   1.526  -0.518  0.00  0.00     0.110 A 
ATOM     17  C   UNL d   1      -5.257   1.623  -0.530  0.00  0.00     0.102 A 
ATOM     18  C   UNL d   1      -5.910   1.758  -1.764  0.00  0.00     0.040 A 
ATOM     19  C   UNL d   1      -5.198   1.825  -2.965  0.00  0.00     0.004 A 
ATOM     20  C   UNL d   1      -3.809   1.747  -2.952  0.00  0.00     0.016 A 
BRANCH  16  21
ATOM     21  O   UNL d   1      -3.190   1.382   0.671  0.00  0.00    -0.357 OA
ATOM     22  H   UNL d   1      -2.249   1.202   0.460  0.00  0.00     0.217 HD
ENDBRANCH  16  21
BRANCH  17  23
ATOM     23  O   UNL d   1      -6.126   1.587   0.527  0.00  0.00    -0.353 OA
ATOM     24  C   UNL d   1      -5.592   1.487   1.840  0.00  0.00     0.210 C 
ENDBRANCH  17  23
ENDBRANCH   3  15
TORSDOF 10
