REMARK  10 active torsions:
REMARK  status: ('A' for Active; 'I' for Inactive)
REMARK    1  A    between atoms: O_21  and  C_1 
REMARK    2  A    between atoms: O_22  and  C_2 
REMARK    3  A    between atoms: O_23  and  C_3 
REMARK    4  A    between atoms: O_24  and  C_4 
REMARK    5  A    between atoms: O_25  and  C_5 
REMARK    6  A    between atoms: O_26  and  C_6 
REMARK    7  A    between atoms: C_15  and  N_11 
REMARK    8  A    between atoms: N_13  and  C_16 
REMARK    9  A    between atoms: C_17  and  C_20 
REMARK   10  A    between atoms: C_19  and  C_18 
ROOT
ATOM      1  C   UNL d   1      -5.131  -0.240  -0.349  0.00  0.00    -0.021 A 
ATOM      2  C   UNL d   1      -7.848   0.057  -0.894  0.00  0.00    -0.021 A 
ATOM      3  C   UNL d   1      -5.553   0.724  -1.270  0.00  0.00     0.013 A 
ATOM      4  C   UNL d   1      -6.061  -1.077   0.277  0.00  0.00     0.013 A 
ATOM      5  C   UNL d   1      -6.914   0.876  -1.538  0.00  0.00     0.013 A 
ATOM      6  C   UNL d   1      -7.423  -0.932  -0.000  0.00  0.00     0.013 A 
ENDROOT
BRANCH   1   7
ATOM      7  C   UNL d   1      -3.691  -0.322  -0.032  0.00  0.00     0.099 C 
ATOM      8  N   UNL d   1      -3.234  -1.103   0.890  0.00  0.00    -0.365 N 
ATOM      9  HN  UNL d   1      -3.854  -1.712   1.423  1.00  0.00     0.165 HD
BRANCH   8  10
ATOM     10  C   UNL d   1      -1.848  -1.081   1.131  0.00  0.00     0.037 A 
ATOM     11  C   UNL d   1      -1.387  -0.882   2.430  0.00  0.00     0.069 A 
ATOM     12  C   UNL d   1      -0.017  -0.859   2.725  0.00  0.00     0.106 A 
ATOM     13  C   UNL d   1       0.913  -1.055   1.690  0.00  0.00     0.135 A 
ATOM     14  C   UNL d   1       0.453  -1.341   0.386  0.00  0.00     0.106 A 
ATOM     15  C   UNL d   1      -0.920  -1.325   0.116  0.00  0.00     0.069 A 
BRANCH  12  16
ATOM     16  O   UNL d   1       0.236  -0.696   4.062  0.00  0.00    -0.353 OA
ATOM     17  C   UNL d   1       1.455  -0.070   4.429  0.00  0.00     0.210 C 
ENDBRANCH  12  16
BRANCH  13  18
ATOM     18  O   UNL d   1       2.251  -1.132   1.994  0.00  0.00    -0.351 OA
ATOM     19  C   UNL d   1       3.062  -0.191   1.288  0.00  0.00     0.210 C 
ENDBRANCH  13  18
BRANCH  14  20
ATOM     20  O   UNL d   1       1.400  -1.649  -0.561  0.00  0.00    -0.353 OA
ATOM     21  C   UNL d   1       0.941  -2.292  -1.744  0.00  0.00     0.210 C 
ENDBRANCH  14  20
ENDBRANCH   8  10
ENDBRANCH   1   7
BRANCH   2  22
ATOM     22  C   UNL d   1      -9.279   0.285  -1.165  0.00  0.00     0.099 C 
ATOM     23  N   UNL d   1     -10.205  -0.511  -0.731  0.00  0.00    -0.365 N 
ATOM     24  HN  UNL d   1      -9.972  -1.334  -0.175  1.00  0.00     0.165 HD
BRANCH  23  25
ATOM     25  C   UNL d   1     -11.541  -0.207  -1.050  0.00  0.00     0.037 A 
ATOM     26  C   UNL d   1     -11.946   0.193  -2.325  0.00  0.00     0.069 A 
ATOM     27  C   UNL d   1     -13.284   0.495  -2.616  0.00  0.00     0.106 A 
ATOM     28  C   UNL d   1     -14.248   0.359  -1.605  0.00  0.00     0.135 A 
ATOM     29  C   UNL d   1     -13.864  -0.135  -0.336  0.00  0.00     0.106 A 
ATOM     30  C   UNL d   1     -12.512  -0.378  -0.064  0.00  0.00     0.069 A 
BRANCH  27  31
ATOM     31  O   UNL d   1     -13.441   0.897  -3.916  0.00  0.00    -0.353 OA
ATOM     32  C   UNL d   1     -14.734   1.246  -4.381  0.00  0.00     0.210 C 
ENDBRANCH  27  31
BRANCH  28  33
ATOM     33  O   UNL d   1     -15.572   0.580  -1.893  0.00  0.00    -0.351 OA
ATOM     34  C   UNL d   1     -16.181   1.588  -1.086  0.00  0.00     0.210 C 
ENDBRANCH  28  33
BRANCH  29  35
ATOM     35  O   UNL d   1     -14.871  -0.353   0.574  0.00  0.00    -0.353 OA
ATOM     36  C   UNL d   1     -14.565  -1.183   1.688  0.00  0.00     0.210 C 
ENDBRANCH  29  35
ENDBRANCH  23  25
ENDBRANCH   2  22
TORSDOF 10
