REMARK  4 active torsions:
REMARK  status: ('A' for Active; 'I' for Inactive)
REMARK    1  A    between atoms: C_2  and  C_1 
REMARK       I    between atoms: N_3  and  C_2 
REMARK    2  A    between atoms: C_8  and  N_3 
REMARK    3  A    between atoms: C_4  and  C_8 
REMARK    4  A    between atoms: O_10  and  C_4 
ROOT
ATOM      1  C   UNL d   1      -0.305   2.552  -0.044  0.00  0.00     0.253 C 
ATOM      2  N   UNL d   1       0.420   3.715  -0.050  0.00  0.00    -0.347 N 
ATOM      3  O   UNL d   1      -1.534   2.574  -0.054  0.00  0.00    -0.268 OA
ATOM      4  H   UNL d   1       1.438   3.695  -0.042  0.00  0.00     0.163 HD
ENDROOT
BRANCH   1   5
ATOM      5  C   UNL d   1       0.433   1.242  -0.019  0.00  0.00     0.053 A 
ATOM      6  C   UNL d   1       1.828   1.068  -0.011  0.00  0.00     0.049 A 
ATOM      7 CL   UNL d   1       2.985   2.354  -0.033  0.00  0.00    -0.083 Cl
ATOM      8  C   UNL d   1       2.381  -0.223   0.017  0.00  0.00     0.025 A 
ATOM      9  C   UNL d   1       1.564  -1.350   0.034  0.00  0.00     0.002 A 
ATOM     10  C   UNL d   1       0.184  -1.197   0.024  0.00  0.00     0.001 A 
ATOM     11  C   UNL d   1      -0.375   0.085  -0.003  0.00  0.00     0.019 A 
ENDBRANCH   1   5
BRANCH   2  12
ATOM     12  C   UNL d   1      -0.205   5.022  -0.066  0.00  0.00     0.232 C 
BRANCH  12  13
ATOM     13  C   UNL d   1       0.857   6.116  -0.076  0.00  0.00     0.158 C 
ATOM     14  O   UNL d   1       2.062   5.907  -0.070  0.00  0.00    -0.649 OA
BRANCH  13  15
ATOM     15  O   UNL d   1       0.341   7.367  -0.091  0.00  0.00    -0.775 OA
ATOM     16  H   UNL d   1      -0.636   7.397  -0.094  0.00  0.00     0.167 HD
ENDBRANCH  13  15
ENDBRANCH  12  13
ENDBRANCH   2  12
TORSDOF 4
