REMARK  3 active torsions:
REMARK  status: ('A' for Active; 'I' for Inactive)
REMARK    1  A    between atoms: C_11  and  C_3 
REMARK    2  A    between atoms: O_14  and  C_11 
REMARK    3  A    between atoms: C_17  and  O_14 
ROOT
ATOM      1  N   UNL d   1      -0.205  -0.652  -0.034  0.00  0.00    -0.243 N 
ATOM      2  C   UNL d   1      -0.154   0.746  -0.020  0.00  0.00     0.129 A 
ATOM      3  C   UNL d   1       2.163  -0.800  -0.069  0.00  0.00     0.079 A 
ATOM      4  C   UNL d   1       0.966  -1.432  -0.050  0.00  0.00     0.050 A 
ATOM      5  N   UNL d   1      -1.491  -1.093  -0.020  0.00  0.00    -0.297 N 
ATOM      6  HN  UNL d   1      -1.814  -2.061  -0.019  1.00  0.00     0.187 HD
ATOM      7  N   UNL d   1       1.024   1.431  -0.021  0.00  0.00    -0.350 N 
ATOM      8  HN  UNL d   1       1.062   2.451  -0.005  1.00  0.00     0.166 HD
ATOM      9  C   UNL d   1      -1.458   1.180  -0.003  0.00  0.00     0.076 A 
ATOM     10  C   UNL d   1       2.096   0.696  -0.042  0.00  0.00     0.109 A 
ATOM     11  C   UNL d   1      -2.242   0.011  -0.007  0.00  0.00     0.026 A 
ATOM     12  C   UNL d   1       0.739  -2.921  -0.009  0.00  0.00     0.071 C 
ATOM     13  C   UNL d   1      -3.721  -0.087   0.002  0.00  0.00     0.070 C 
ENDROOT
BRANCH   3  14
ATOM     14  C   UNL d   1       3.467  -1.502  -0.052  0.00  0.00     0.296 C 
ATOM     15  O   UNL d   1       3.670  -2.624  -0.479  0.00  0.00    -0.259 OA
BRANCH  14  16
ATOM     16  O   UNL d   1       4.373  -0.728   0.597  0.00  0.00    -0.318 OA
BRANCH  16  17
ATOM     17  C   UNL d   1       5.541  -1.416   1.075  0.00  0.00     0.174 C 
ATOM     18  C   UNL d   1       5.273  -1.810   2.516  0.00  0.00     0.034 C 
ENDBRANCH  16  17
ENDBRANCH  14  16
ENDBRANCH   3  14
TORSDOF 3
