REMARK  4 active torsions:
REMARK  status: ('A' for Active; 'I' for Inactive)
REMARK    1  A    between atoms: C_2  and  S_1 
REMARK    2  A    between atoms: N_3  and  S_1 
REMARK    3  A    between atoms: C_16  and  N_10 
REMARK    4  A    between atoms: C_19  and  C_16 
ROOT
ATOM      1  N   UNL d   1       0.615   0.766   0.028  0.00  0.00    -0.203 NA
ATOM      2  N   UNL d   1      -0.401   1.960   2.593  0.00  0.00     0.095 N 
ATOM      3  C   UNL d   1       0.890   2.212   0.336  0.00  0.00     0.138 C 
ATOM      4  C   UNL d   1      -0.690   0.379   0.654  0.00  0.00     0.138 C 
ATOM      5  C   UNL d   1      -0.606   0.555   2.183  0.00  0.00     0.288 C 
ATOM      6  C   UNL d   1       0.750   2.548   1.855  0.00  0.00     0.288 C 
ENDROOT
BRANCH   1   7
ATOM      7  S   UNL d   1       1.873  -0.348   0.371  0.00  0.00     0.245 S 
ATOM      8  O   UNL d   1       2.844   0.335   1.202  0.00  0.00    -0.206 OA
ATOM      9  O   UNL d   1       1.291  -1.599   0.799  0.00  0.00    -0.206 OA
BRANCH   7  10
ATOM     10  C   UNL d   1       2.686  -0.728  -1.168  0.00  0.00     0.097 A 
ATOM     11  C   UNL d   1       2.027  -1.403  -2.195  0.00  0.00     0.058 A 
ATOM     12  C   UNL d   1       2.778  -2.056  -3.182  0.00  0.00     0.050 A 
ATOM     13 CL   UNL d   1       0.311  -1.505  -2.335  0.00  0.00    -0.083 Cl
ATOM     14  C   UNL d   1       4.177  -2.054  -3.134  0.00  0.00     0.041 A 
ATOM     15  C   UNL d   1       4.851  -1.359  -2.124  0.00  0.00    -0.039 A 
ATOM     16 CL   UNL d   1       5.022  -2.972  -4.328  0.00  0.00    -0.084 Cl
ATOM     17  C   UNL d   1       4.092  -0.665  -1.167  0.00  0.00     0.035 A 
ATOM     18  C   UNL d   1       6.351  -1.334  -2.002  0.00  0.00     0.050 C 
ENDBRANCH   7  10
ENDBRANCH   1   7
BRANCH   2  19
ATOM     19  C   UNL d   1      -1.643   2.734   2.462  0.00  0.00     0.311 C 
BRANCH  19  20
ATOM     20  C   UNL d   1      -1.885   3.786   3.529  0.00  0.00    -0.030 A 
ATOM     21  C   UNL d   1      -3.107   4.484   3.491  0.00  0.00     0.009 A 
ATOM     22  C   UNL d   1      -3.434   5.425   4.469  0.00  0.00     0.001 A 
ATOM     23  C   UNL d   1      -2.539   5.686   5.502  0.00  0.00     0.000 A 
ATOM     24  C   UNL d   1      -1.321   5.007   5.559  0.00  0.00     0.001 A 
ATOM     25  C   UNL d   1      -1.000   4.060   4.583  0.00  0.00     0.009 A 
ENDBRANCH  19  20
ENDBRANCH   2  19
TORSDOF 4
