REMARK  3 active torsions:
REMARK  status: ('A' for Active; 'I' for Inactive)
REMARK    1  A    between atoms: N_3  and  C_4 
REMARK    2  A    between atoms: C_10  and  N_3 
REMARK    3  A    between atoms: C_9  and  C_10 
ROOT
ATOM      1  N   UNL d   1      -2.458  -2.127  -0.326  0.00  0.00    -0.384 N 
ATOM      2  H   UNL d   1      -2.159  -2.786   0.391  0.00  0.00     0.160 HD
ENDROOT
BRANCH   1   3
ATOM      3  C   UNL d   1      -1.395  -1.329  -0.762  0.00  0.00     0.050 A 
ATOM      4  C   UNL d   1      -0.288  -1.915  -1.419  0.00  0.00     0.062 A 
ATOM      5  C   UNL d   1       0.773  -1.140  -1.897  0.00  0.00     0.050 A 
ATOM      6 CL   UNL d   1      -0.222  -3.625  -1.692  0.00  0.00    -0.082 Cl
ATOM      7  C   UNL d   1       0.759   0.235  -1.698  0.00  0.00     0.035 A 
ATOM      8 CL   UNL d   1       2.054   1.201  -2.288  0.00  0.00    -0.084 Cl
ATOM      9  C   UNL d   1      -0.297   0.836  -1.020  0.00  0.00     0.026 A 
ATOM     10  C   UNL d   1      -1.363   0.058  -0.557  0.00  0.00     0.032 A 
ENDBRANCH   1   3
BRANCH   1  11
ATOM     11  C   UNL d   1      -3.756  -1.526  -0.052  0.00  0.00     0.160 C 
BRANCH  11  12
ATOM     12  C   UNL d   1      -4.846  -2.558   0.062  0.00  0.00    -0.025 A 
ATOM     13  C   UNL d   1      -6.004  -2.250   0.775  0.00  0.00     0.096 A 
ATOM     14  N   UNL d   1      -7.075  -3.066   0.890  0.00  0.00    -0.375 N 
ATOM     15  C   UNL d   1      -7.003  -4.251   0.246  0.00  0.00     0.087 A 
ATOM     16  HN  UNL d   1      -7.896  -2.800   1.433  1.00  0.00     0.164 HD
ATOM     17  C   UNL d   1      -5.911  -4.652  -0.501  0.00  0.00     0.018 A 
ATOM     18  C   UNL d   1      -4.822  -3.789  -0.600  0.00  0.00     0.011 A 
ENDBRANCH  11  12
ENDBRANCH   1  11
TORSDOF 3
