REMARK  6 active torsions:
REMARK  status: ('A' for Active; 'I' for Inactive)
REMARK       I    between atoms: N_3  and  C_1 
REMARK       I    between atoms: N_6  and  C_1 
REMARK       I    between atoms: C_2  and  N_5 
REMARK       I    between atoms: N_4  and  C_2 
REMARK    1  A    between atoms: C_9  and  N_3 
REMARK    2  A    between atoms: C_10  and  N_4 
REMARK    3  A    between atoms: N_5  and  C_11 
REMARK    4  A    between atoms: C_12  and  N_6 
REMARK    5  A    between atoms: C_17  and  C_15 
REMARK    6  A    between atoms: C_16  and  C_17 
ROOT
ATOM      1  C   UNL d   1      -5.588   0.051   1.020  0.00  0.00     0.077 C 
ENDROOT
BRANCH   1   2
ATOM      2  C   UNL d   1      -6.214  -1.270   1.398  0.00  0.00    -0.054 A 
ATOM      3  C   UNL d   1      -6.629  -1.525   2.710  0.00  0.00     0.010 A 
ATOM      4  C   UNL d   1      -7.467  -2.614   2.995  0.00  0.00     0.030 A 
ATOM      5  C   UNL d   1      -7.897  -3.469   1.972  0.00  0.00     0.036 A 
ATOM      6  C   UNL d   1      -7.357  -3.291   0.697  0.00  0.00     0.030 A 
ATOM      7  C   UNL d   1      -6.528  -2.203   0.408  0.00  0.00     0.010 A 
BRANCH   5   8
ATOM      8  N   UNL d   1      -8.914  -4.417   2.270  0.00  0.00    -0.309 N 
ATOM      9  C   UNL d   1      -9.616  -5.171   1.335  0.00  0.00     0.325 C 
ATOM     10  N   UNL d   1     -10.699  -5.831   1.909  0.00  0.00    -0.309 N 
ATOM     11  O   UNL d   1      -9.338  -5.231   0.148  0.00  0.00    -0.247 OA
ATOM     12  H   UNL d   1     -10.701  -5.939   2.910  0.00  0.00     0.170 HD
ATOM     13  H   UNL d   1      -9.286  -4.385   3.204  0.00  0.00     0.170 HD
BRANCH  10  14
ATOM     14  C   UNL d   1     -11.743  -6.480   1.196  0.00  0.00     0.036 A 
ATOM     15  C   UNL d   1     -11.942  -6.321  -0.180  0.00  0.00     0.036 A 
ATOM     16  C   UNL d   1     -13.029  -6.913  -0.842  0.00  0.00    -0.060 A 
ATOM     17  C   UNL d   1     -13.281  -6.610  -2.290  0.00  0.00     0.048 C 
ATOM     18  C   UNL d   1     -13.923  -7.699  -0.112  0.00  0.00     0.007 A 
ATOM     19  C   UNL d   1     -13.733  -7.881   1.257  0.00  0.00     0.003 A 
ATOM     20  C   UNL d   1     -12.657  -7.264   1.910  0.00  0.00     0.029 A 
ENDBRANCH  10  14
ENDBRANCH   5   8
ENDBRANCH   1   2
BRANCH   1  21
ATOM     21  C   UNL d   1      -4.088   0.192   0.945  0.00  0.00    -0.054 A 
ATOM     22  C   UNL d   1      -3.163  -0.789   1.303  0.00  0.00     0.010 A 
ATOM     23  C   UNL d   1      -1.783  -0.544   1.182  0.00  0.00     0.030 A 
ATOM     24  C   UNL d   1      -1.305   0.682   0.702  0.00  0.00     0.036 A 
ATOM     25  C   UNL d   1      -2.229   1.664   0.359  0.00  0.00     0.030 A 
ATOM     26  C   UNL d   1      -3.599   1.423   0.482  0.00  0.00     0.010 A 
BRANCH  24  27
ATOM     27  N   UNL d   1       0.094   0.838   0.566  0.00  0.00    -0.309 N 
ATOM     28  C   UNL d   1       0.764   1.969   0.116  0.00  0.00     0.325 C 
ATOM     29  N   UNL d   1       2.116   1.709  -0.070  0.00  0.00    -0.309 N 
ATOM     30  O   UNL d   1       0.230   3.045  -0.118  0.00  0.00    -0.247 OA
ATOM     31  H   UNL d   1       2.402   0.745  -0.009  0.00  0.00     0.170 HD
ATOM     32  H   UNL d   1       0.653   0.051   0.855  0.00  0.00     0.170 HD
BRANCH  29  33
ATOM     33  C   UNL d   1       3.078   2.607  -0.593  0.00  0.00     0.036 A 
ATOM     34  C   UNL d   1       2.865   3.981  -0.748  0.00  0.00     0.036 A 
ATOM     35  C   UNL d   1       3.836   4.808  -1.335  0.00  0.00    -0.060 A 
ATOM     36  C   UNL d   1       3.581   6.275  -1.523  0.00  0.00     0.048 C 
ATOM     37  C   UNL d   1       5.039   4.244  -1.769  0.00  0.00     0.007 A 
ATOM     38  C   UNL d   1       5.277   2.883  -1.591  0.00  0.00     0.003 A 
ATOM     39  C   UNL d   1       4.307   2.071  -0.997  0.00  0.00     0.029 A 
ENDBRANCH  29  33
ENDBRANCH  24  27
ENDBRANCH   1  21
TORSDOF 6
