REMARK  7 active torsions:
REMARK  status: ('A' for Active; 'I' for Inactive)
REMARK       I    between atoms: N_2  and  C_1 
REMARK    1  A    between atoms: C_8  and  C_1 
REMARK    2  A    between atoms: C_4  and  N_2 
REMARK    3  A    between atoms: C_3  and  O_5 
REMARK    4  A    between atoms: C_9  and  C_3 
REMARK    5  A    between atoms: O_5  and  C_6 
REMARK    6  A    between atoms: C_10  and  C_12 
REMARK    7  A    between atoms: C_11  and  C_13 
ROOT
ATOM      1  C   UNL d   1       1.373  -1.460   1.869  0.00  0.00     0.070 A 
ATOM      2  C   UNL d   1       0.749  -2.438   2.677  0.00  0.00     0.106 A 
ATOM      3  C   UNL d   1       2.566  -0.901   2.362  0.00  0.00     0.056 A 
ATOM      4  C   UNL d   1       1.348  -2.897   3.865  0.00  0.00     0.041 A 
ATOM      5  C   UNL d   1       3.127  -1.322   3.575  0.00  0.00     0.036 A 
ATOM      6  C   UNL d   1       2.541  -2.342   4.313  0.00  0.00     0.026 A 
ATOM      7 CL   UNL d   1       4.558  -0.570   4.171  0.00  0.00    -0.084 Cl
ENDROOT
BRANCH   1   8
ATOM      8  N   UNL d   1       0.865  -1.090   0.592  0.00  0.00    -0.320 N 
ATOM      9  C   UNL d   1       1.280  -0.045  -0.222  0.00  0.00     0.256 C 
ATOM     10  O   UNL d   1       2.044   0.857   0.113  0.00  0.00    -0.267 OA
ATOM     11  H   UNL d   1       0.088  -1.650   0.246  0.00  0.00     0.169 HD
BRANCH   9  12
ATOM     12  C   UNL d   1       0.720   0.004  -1.619  0.00  0.00     0.032 A 
ATOM     13  C   UNL d   1       0.355  -1.132  -2.342  0.00  0.00     0.017 A 
ATOM     14  C   UNL d   1      -0.063  -1.023  -3.687  0.00  0.00     0.009 A 
ATOM     15  C   UNL d   1      -0.111   0.213  -4.360  0.00  0.00    -0.051 A 
ATOM     16  C   UNL d   1       0.225   1.348  -3.600  0.00  0.00     0.009 A 
ATOM     17  C   UNL d   1       0.646   1.245  -2.263  0.00  0.00     0.017 A 
BRANCH  15  18
ATOM     18  C   UNL d   1      -0.525   0.321  -5.848  0.00  0.00    -0.024 C 
ATOM     19  C   UNL d   1       0.053   1.575  -6.550  0.00  0.00     0.019 C 
ATOM     20  C   UNL d   1      -0.042  -0.889  -6.682  0.00  0.00     0.019 C 
ATOM     21  C   UNL d   1      -2.061   0.391  -5.951  0.00  0.00     0.019 C 
ENDBRANCH  15  18
ENDBRANCH   9  12
ENDBRANCH   1   8
BRANCH   2  22
ATOM     22  O   UNL d   1      -0.576  -2.973   2.547  0.00  0.00    -0.273 OA
BRANCH  22  23
ATOM     23  C   UNL d   1      -1.442  -2.972   1.474  0.00  0.00     0.298 C 
ATOM     24  O   UNL d   1      -1.166  -2.616   0.334  0.00  0.00    -0.259 OA
BRANCH  23  25
ATOM     25  C   UNL d   1      -2.767  -3.534   1.843  0.00  0.00     0.040 A 
ATOM     26  C   UNL d   1      -3.588  -3.924   0.788  0.00  0.00     0.018 A 
ATOM     27  C   UNL d   1      -4.853  -4.454   1.033  0.00  0.00     0.009 A 
ATOM     28  C   UNL d   1      -5.348  -4.630   2.338  0.00  0.00    -0.051 A 
ATOM     29  C   UNL d   1      -4.521  -4.207   3.397  0.00  0.00     0.009 A 
ATOM     30  C   UNL d   1      -3.242  -3.663   3.155  0.00  0.00     0.018 A 
BRANCH  28  31
ATOM     31  C   UNL d   1      -6.754  -5.234   2.528  0.00  0.00    -0.024 C 
ATOM     32  C   UNL d   1      -7.098  -5.622   3.982  0.00  0.00     0.019 C 
ATOM     33  C   UNL d   1      -7.805  -4.207   2.057  0.00  0.00     0.019 C 
ATOM     34  C   UNL d   1      -6.902  -6.526   1.686  0.00  0.00     0.019 C 
ENDBRANCH  28  31
ENDBRANCH  23  25
ENDBRANCH  22  23
ENDBRANCH   2  22
TORSDOF 7
