REMARK  4 active torsions:
REMARK  status: ('A' for Active; 'I' for Inactive)
REMARK    1  A    between atoms: C_3  and  C_1 
REMARK       I    between atoms: C_2  and  N_5 
REMARK    2  A    between atoms: C_4  and  C_2 
REMARK    3  A    between atoms: N_5  and  C_9 
REMARK    4  A    between atoms: O_14  and  N_6 
ROOT
ATOM      1  C   UNL d   1       0.178  -1.430   0.151  0.00  0.00     0.050 A 
ATOM      2  C   UNL d   1       1.116  -2.361  -0.327  0.00  0.00     0.045 A 
ATOM      3  C   UNL d   1       0.936  -3.734  -0.135  0.00  0.00     0.035 A 
ATOM      4  C   UNL d   1      -0.972  -1.896   0.801  0.00  0.00     0.016 A 
ATOM      5  C   UNL d   1      -1.174  -3.264   0.977  0.00  0.00     0.003 A 
ATOM      6  C   UNL d   1      -0.221  -4.177   0.518  0.00  0.00     0.029 A 
ENDROOT
BRANCH   3   7
ATOM      7  N   UNL d   1       1.887  -4.703  -0.521  0.00  0.00    -0.322 N 
ATOM      8  C   UNL d   1       3.047  -4.466  -1.232  0.00  0.00     0.263 C 
ATOM      9  O   UNL d   1       3.416  -3.439  -1.777  0.00  0.00    -0.267 OA
ATOM     10  H   UNL d   1       1.711  -5.654  -0.218  0.00  0.00     0.169 HD
BRANCH   8  11
ATOM     11  C   UNL d   1       3.924  -5.685  -1.370  0.00  0.00     0.188 C 
ATOM     12  N   UNL d   1       5.108  -5.690  -0.852  0.00  0.00    -0.275 N 
ATOM     13  HN  UNL d   1       5.521  -4.930  -0.311  1.00  0.00     0.193 HD
BRANCH  12  14
ATOM     14  O   UNL d   1       5.733  -6.906  -1.153  0.00  0.00    -0.290 OA
ATOM     15  H   UNL d   1       6.659  -6.732  -0.892  0.00  0.00     0.244 HD
ENDBRANCH  12  14
ENDBRANCH   8  11
ENDBRANCH   3   7
BRANCH   1  16
ATOM     16  C   UNL d   1       0.425   0.053   0.012  0.00  0.00     0.417 C 
ATOM     17  F   UNL d   1       1.529   0.365  -0.720  0.00  0.00    -0.166 F 
ATOM     18  F   UNL d   1       0.596   0.659   1.221  0.00  0.00    -0.166 F 
ATOM     19  F   UNL d   1      -0.614   0.702  -0.584  0.00  0.00    -0.166 F 
ENDBRANCH   1  16
TORSDOF 4
