REMARK  6 active torsions:
REMARK  status: ('A' for Active; 'I' for Inactive)
REMARK    1  A    between atoms: C_5  and  C_1 
REMARK    2  A    between atoms: S_15  and  C_6 
REMARK    3  A    between atoms: C_11  and  C_13 
REMARK    4  A    between atoms: C_19  and  S_15 
REMARK    5  A    between atoms: C_16  and  C_19 
REMARK    6  A    between atoms: C_17  and  C_16 
ROOT
ATOM      1  C   UNL d   1      -0.222  -1.052  -0.025  0.00  0.00     0.177 A 
ATOM      2  O   UNL d   1      -1.122  -0.053   0.256  0.00  0.00    -0.267 OA
ATOM      3  N   UNL d   1       0.996  -0.582  -0.207  0.00  0.00    -0.277 N 
ATOM      4  HN  UNL d   1       1.831  -1.125  -0.429  1.00  0.00     0.189 HD
ATOM      5  C   UNL d   1      -0.331   1.065   0.235  0.00  0.00     0.204 A 
ATOM      6  N   UNL d   1       0.926   0.782  -0.041  0.00  0.00    -0.272 N 
ATOM      7  HN  UNL d   1       1.697   1.445  -0.117  1.00  0.00     0.189 HD
ENDROOT
BRANCH   1   8
ATOM      8  C   UNL d   1      -0.727  -2.421  -0.068  0.00  0.00     0.039 A 
ATOM      9  C   UNL d   1       0.119  -3.532  -0.197  0.00  0.00     0.020 A 
ATOM     10  N   UNL d   1      -0.344  -4.814  -0.245  0.00  0.00    -0.355 N 
ATOM     11  C   UNL d   1       1.615  -3.410  -0.285  0.00  0.00     0.069 C 
ATOM     12  C   UNL d   1      -1.683  -5.043  -0.166  0.00  0.00     0.117 A 
ATOM     13  HN  UNL d   1       0.307  -5.593  -0.341  1.00  0.00     0.166 HD
ATOM     14  C   UNL d   1      -2.586  -3.994  -0.033  0.00  0.00     0.035 A 
ATOM     15  C   UNL d   1      -2.104  -2.685   0.016  0.00  0.00     0.020 A 
BRANCH  12  16
ATOM     16  C   UNL d   1      -2.208  -6.473  -0.225  0.00  0.00     0.432 C 
ATOM     17  F   UNL d   1      -1.242  -7.426  -0.352  0.00  0.00    -0.165 F 
ATOM     18  F   UNL d   1      -2.920  -6.812   0.890  0.00  0.00    -0.165 F 
ATOM     19  F   UNL d   1      -3.062  -6.670  -1.273  0.00  0.00    -0.165 F 
ENDBRANCH  12  16
ENDBRANCH   1   8
BRANCH   5  20
ATOM     20  S   UNL d   1      -0.932   2.660   0.554  0.00  0.00    -0.077 SA
BRANCH  20  21
ATOM     21  C   UNL d   1       0.624   3.599   0.492  0.00  0.00     0.166 C 
BRANCH  21  22
ATOM     22  C   UNL d   1       0.430   5.061   0.859  0.00  0.00     0.169 C 
ATOM     23  O   UNL d   1      -0.635   5.531   1.255  0.00  0.00    -0.291 OA
BRANCH  22  24
ATOM     24  C   UNL d   1       1.609   5.980   0.741  0.00  0.00     0.011 A 
ATOM     25  C   UNL d   1       2.889   5.527   0.394  0.00  0.00     0.017 A 
ATOM     26  C   UNL d   1       3.952   6.433   0.288  0.00  0.00     0.025 A 
ATOM     27  C   UNL d   1       3.741   7.789   0.530  0.00  0.00     0.034 A 
ATOM     28  C   UNL d   1       2.477   8.251   0.883  0.00  0.00     0.025 A 
ATOM     29 CL   UNL d   1       5.050   8.897   0.390  0.00  0.00    -0.084 Cl
ATOM     30  C   UNL d   1       1.414   7.348   0.990  0.00  0.00     0.017 A 
ENDBRANCH  22  24
ENDBRANCH  21  22
ENDBRANCH  20  21
ENDBRANCH   5  20
TORSDOF 6
