REMARK  4 active torsions:
REMARK  status: ('A' for Active; 'I' for Inactive)
REMARK    1  A    between atoms: C_2  and  N_1 
REMARK    2  A    between atoms: O_4  and  C_3 
REMARK    3  A    between atoms: C_5  and  O_4 
REMARK    4  A    between atoms: O_10  and  C_8 
ROOT
ATOM      1  C   UNL d   1       2.343  -0.043  -4.503  0.00  0.00     0.136 A 
ATOM      2  C   UNL d   1       2.584  -1.012  -3.524  0.00  0.00     0.109 A 
ATOM      3  C   UNL d   1       3.002  -0.070  -5.741  0.00  0.00     0.039 A 
ATOM      4  C   UNL d   1       3.450  -2.070  -3.831  0.00  0.00     0.040 A 
ATOM      5  C   UNL d   1       3.896  -1.105  -6.011  0.00  0.00     0.003 A 
ATOM      6  C   UNL d   1       4.112  -2.106  -5.062  0.00  0.00     0.003 A 
ENDROOT
BRANCH   2   7
ATOM      7  O   UNL d   1       1.949  -0.915  -2.306  0.00  0.00    -0.305 OA
BRANCH   7   8
ATOM      8  C   UNL d   1       2.666  -1.225  -1.171  0.00  0.00     0.109 A 
ATOM      9  C   UNL d   1       2.096  -2.014  -0.162  0.00  0.00     0.102 A 
ATOM     10  C   UNL d   1       2.869  -2.318   0.969  0.00  0.00     0.039 A 
ATOM     11  C   UNL d   1       4.173  -1.841   1.109  0.00  0.00     0.003 A 
ATOM     12  C   UNL d   1       4.719  -1.027   0.124  0.00  0.00     0.003 A 
ATOM     13  C   UNL d   1       3.962  -0.704  -1.001  0.00  0.00     0.040 A 
BRANCH   9  14
ATOM     14  O   UNL d   1       0.853  -2.583  -0.112  0.00  0.00    -0.353 OA
ATOM     15  C   UNL d   1      -0.091  -2.273  -1.125  0.00  0.00     0.210 C 
ENDBRANCH   9  14
ENDBRANCH   7   8
ENDBRANCH   2   7
BRANCH   1  16
ATOM     16  N   UNL d   1       1.409   1.034  -4.249  0.00  0.00    -0.113 N 
ATOM     17  O   UNL d   1       0.255   0.726  -3.918  0.00  0.00    -0.532 OA
ATOM     18  O   UNL d   1       1.820   2.188  -4.429  0.00  0.00    -0.532 OA
ENDBRANCH   1  16
TORSDOF 4
