REMARK  0 active torsions:
REMARK  status: ('A' for Active; 'I' for Inactive)
ROOT
ATOM      1  C   UNL d   1       0.877   1.142  -0.018  0.00  0.00     0.078 A 
ATOM      2  C   UNL d   1      -0.435   1.396  -0.024  0.00  0.00     0.064 A 
ATOM      3  C   UNL d   1       1.408  -0.233  -0.012  0.00  0.00     0.179 A 
ATOM      4  C   UNL d   1      -0.878  -1.095  -0.090  0.00  0.00     0.067 A 
ATOM      5  C   UNL d   1       0.436  -1.351  -0.096  0.00  0.00    -0.008 A 
ATOM      6  C   UNL d   1      -1.421   0.279  -0.014  0.00  0.00     0.190 A 
ATOM      7  O   UNL d   1       2.615  -0.425   0.051  0.00  0.00    -0.288 OA
ATOM      8  O   UNL d   1      -2.632   0.446   0.044  0.00  0.00    -0.287 OA
ATOM      9 BR   UNL d   1      -1.085   3.147  -0.050  0.00  0.00    -0.047 Br
ATOM     10  C   UNL d   1       1.006  -2.732  -0.189  0.00  0.00     0.052 C 
ENDROOT
TORSDOF 0
