REMARK  7 active torsions:
REMARK  status: ('A' for Active; 'I' for Inactive)
REMARK    1  A    between atoms: C_2  and  C_1 
REMARK    2  A    between atoms: C_3  and  C_1 
REMARK    3  A    between atoms: C_5  and  C_1 
REMARK    4  A    between atoms: O_4  and  C_2 
REMARK    5  A    between atoms: O_8  and  C_3 
REMARK    6  A    between atoms: C_9  and  O_4 
REMARK    7  A    between atoms: C_10  and  C_9 
ROOT
ATOM      1  C   UNL d   1       1.026   0.021   0.085  0.00  0.00     0.216 C 
ENDROOT
BRANCH   1   2
ATOM      2  C   UNL d   1       0.369  -0.792   1.175  0.00  0.00     0.278 C 
ATOM      3  O   UNL d   1       0.418  -2.017   1.215  0.00  0.00    -0.264 OA
BRANCH   2   4
ATOM      4  O   UNL d   1      -0.215  -0.013   2.131  0.00  0.00    -0.316 OA
BRANCH   4   5
ATOM      5  C   UNL d   1      -0.861  -0.718   3.208  0.00  0.00     0.217 C 
BRANCH   5   6
ATOM      6  C   UNL d   1      -0.232  -0.349   4.531  0.00  0.00    -0.034 A 
ATOM      7  C   UNL d   1      -0.776   0.671   5.325  0.00  0.00     0.009 A 
ATOM      8  C   UNL d   1      -0.206   0.989   6.561  0.00  0.00     0.001 A 
ATOM      9  C   UNL d   1       0.917   0.299   7.013  0.00  0.00     0.000 A 
ATOM     10  C   UNL d   1       1.470  -0.713   6.230  0.00  0.00     0.001 A 
ATOM     11  C   UNL d   1       0.900  -1.036   4.996  0.00  0.00     0.009 A 
ENDBRANCH   5   6
ENDBRANCH   4   5
ENDBRANCH   2   4
ENDBRANCH   1   2
BRANCH   1  12
ATOM     12  C   UNL d   1       0.013   0.915  -0.599  0.00  0.00     0.158 C 
ATOM     13  O   UNL d   1      -0.755   0.505  -1.461  0.00  0.00    -0.649 OA
BRANCH  12  14
ATOM     14  O   UNL d   1      -0.022   2.203  -0.192  0.00  0.00    -0.775 OA
ATOM     15  H   UNL d   1       0.622   2.431   0.512  0.00  0.00     0.167 HD
ENDBRANCH  12  14
ENDBRANCH   1  12
BRANCH   1  16
ATOM     16  C   UNL d   1       2.349   0.689   0.464  0.00  0.00    -0.034 A 
ATOM     17  C   UNL d   1       2.939   0.546   1.730  0.00  0.00     0.008 A 
ATOM     18  C   UNL d   1       4.189   1.104   2.005  0.00  0.00     0.001 A 
ATOM     19  C   UNL d   1       4.874   1.812   1.022  0.00  0.00     0.000 A 
ATOM     20  C   UNL d   1       4.307   1.968  -0.239  0.00  0.00     0.001 A 
ATOM     21  C   UNL d   1       3.059   1.408  -0.519  0.00  0.00     0.008 A 
ENDBRANCH   1  16
TORSDOF 7
