REMARK  4 active torsions:
REMARK  status: ('A' for Active; 'I' for Inactive)
REMARK    1  A    between atoms: C_7  and  C_4 
REMARK    2  A    between atoms: N_12  and  C_7 
REMARK       I    between atoms: C_13  and  N_12 
REMARK    3  A    between atoms: C_16  and  C_13 
REMARK    4  A    between atoms: C_17  and  C_14 
ROOT
ATOM      1  C   UNL d   1      -3.780   0.096   0.094  0.00  0.00     0.080 C 
ATOM      2  C   UNL d   1      -4.598  -0.970  -0.022  0.00  0.00     0.044 C 
ENDROOT
BRANCH   1   3
ATOM      3  C   UNL d   1      -2.361  -0.096   0.115  0.00  0.00     0.133 A 
ATOM      4  N   UNL d   1      -1.355   0.613  -0.371  0.00  0.00    -0.338 N 
ATOM      5  C   UNL d   1      -0.202  -0.115  -0.105  0.00  0.00     0.068 A 
ATOM      6  HN  UNL d   1      -1.415   1.513  -0.847  1.00  0.00     0.167 HD
ATOM      7  C   UNL d   1      -0.514  -1.286   0.565  0.00  0.00     0.068 A 
ATOM      8  C   UNL d   1       1.146   0.169  -0.422  0.00  0.00    -0.026 A 
ATOM      9  C   UNL d   1       0.409  -2.269   0.939  0.00  0.00    -0.026 A 
ATOM     10  N   UNL d   1      -1.867  -1.206   0.755  0.00  0.00    -0.338 N 
ATOM     11  C   UNL d   1      -0.007  -3.540   1.627  0.00  0.00     0.051 C 
ATOM     12  C   UNL d   1       1.766  -1.996   0.623  0.00  0.00    -0.047 A 
ATOM     13  C   UNL d   1       2.136  -0.791  -0.042  0.00  0.00    -0.047 A 
ATOM     14  C   UNL d   1       2.798  -3.032   1.022  0.00  0.00     0.049 C 
ATOM     15  C   UNL d   1       3.598  -0.536  -0.340  0.00  0.00     0.049 C 
ATOM     16  H   UNL d   1      -2.423  -1.879   1.260  0.00  0.00     0.167 HD
ATOM     17  C   UNL d   1       1.517   1.442  -1.132  0.00  0.00     0.051 C 
ENDBRANCH   1   3
BRANCH   1  18
ATOM     18  N   UNL d   1      -4.226   1.400   0.056  0.00  0.00    -0.320 N 
ATOM     19  C   UNL d   1      -4.716   2.063   1.172  0.00  0.00     0.256 C 
ATOM     20  O   UNL d   1      -4.769   1.584   2.301  0.00  0.00    -0.267 OA
ATOM     21  H   UNL d   1      -4.620   1.692  -0.829  0.00  0.00     0.169 HD
BRANCH  19  22
ATOM     22  C   UNL d   1      -5.221   3.452   0.927  0.00  0.00     0.032 A 
ATOM     23  C   UNL d   1      -6.193   3.990   1.783  0.00  0.00     0.017 A 
ATOM     24  C   UNL d   1      -6.639   5.304   1.613  0.00  0.00     0.001 A 
ATOM     25  C   UNL d   1      -6.110   6.091   0.590  0.00  0.00     0.000 A 
ATOM     26  C   UNL d   1      -5.143   5.567  -0.268  0.00  0.00     0.001 A 
ATOM     27  C   UNL d   1      -4.696   4.252  -0.099  0.00  0.00     0.017 A 
ENDBRANCH  19  22
ENDBRANCH   1  18
BRANCH   2  28
ATOM     28  C   UNL d   1      -6.061  -0.976  -0.023  0.00  0.00    -0.034 A 
ATOM     29  C   UNL d   1      -6.765  -0.991  -1.228  0.00  0.00     0.012 A 
ATOM     30  C   UNL d   1      -8.159  -1.071  -1.221  0.00  0.00     0.007 A 
ATOM     31  C   UNL d   1      -8.864  -1.145  -0.012  0.00  0.00    -0.062 A 
ATOM     32  C   UNL d   1      -8.152  -1.152   1.192  0.00  0.00     0.007 A 
ATOM     33  C   UNL d   1     -10.363  -1.191  -0.021  0.00  0.00     0.048 C 
ATOM     34  C   UNL d   1      -6.758  -1.065   1.187  0.00  0.00     0.012 A 
ENDBRANCH   2  28
TORSDOF 4
