REMARK  3 active torsions:
REMARK  status: ('A' for Active; 'I' for Inactive)
REMARK    1  A    between atoms: C_7  and  C_2 
REMARK    2  A    between atoms: S_12  and  C_3 
REMARK    3  A    between atoms: O_13  and  C_11 
ROOT
ATOM      1  C   UNL d   1      -0.481  -1.451   0.063  0.00  0.00     0.135 C 
ATOM      2  C   UNL d   1       0.436   1.405   0.084  0.00  0.00     0.188 C 
ATOM      3  C   UNL d   1      -1.496  -0.571   0.175  0.00  0.00     0.065 C 
ATOM      4  S   UNL d   1      -1.271   1.120   0.547  0.00  0.00    -0.091 SA
ATOM      5  N   UNL d   1       1.278   0.261   0.262  0.00  0.00    -0.338 N 
ATOM      6  C   UNL d   1       0.941  -1.050   0.218  0.00  0.00     0.265 C 
ATOM      7  C   UNL d   1      -0.698  -2.840  -0.177  0.00  0.00     0.107 C 
ATOM      8  N   UNL d   1      -0.919  -3.970  -0.326  0.00  0.00    -0.191 NA
ATOM      9  O   UNL d   1       1.833  -1.886   0.308  0.00  0.00    -0.267 OA
ATOM     10  H   UNL d   1       2.279   0.411   0.264  0.00  0.00     0.164 HD
ENDROOT
BRANCH   3  11
ATOM     11  S   UNL d   1      -3.174  -0.996  -0.159  0.00  0.00    -0.126 SA
ATOM     12  C   UNL d   1      -3.630  -1.959   1.302  0.00  0.00     0.096 C 
ENDBRANCH   3  11
BRANCH   2  13
ATOM     13  C   UNL d   1       0.684   2.122  -1.230  0.00  0.00     0.008 A 
ATOM     14  C   UNL d   1       0.049   1.840  -2.446  0.00  0.00     0.074 A 
ATOM     15  C   UNL d   1       0.373   2.529  -3.619  0.00  0.00     0.037 A 
ATOM     16  C   UNL d   1       1.340   3.529  -3.602  0.00  0.00     0.003 A 
ATOM     17  C   UNL d   1       1.998   3.827  -2.415  0.00  0.00     0.001 A 
ATOM     18  C   UNL d   1       1.679   3.127  -1.248  0.00  0.00     0.013 A 
BRANCH  14  19
ATOM     19  O   UNL d   1      -0.919   0.887  -2.572  0.00  0.00    -0.360 OA
ATOM     20  H   UNL d   1      -1.578   1.048  -1.872  0.00  0.00     0.217 HD
ENDBRANCH  14  19
ENDBRANCH   2  13
TORSDOF 3
