REMARK  5 active torsions:
REMARK  status: ('A' for Active; 'I' for Inactive)
REMARK    1  A    between atoms: C_7  and  C_1 
REMARK    2  A    between atoms: N_10  and  C_2 
REMARK    3  A    between atoms: C_6  and  C_11 
REMARK       I    between atoms: C_9  and  N_10 
REMARK       I    between atoms: N_13  and  C_9 
REMARK    4  A    between atoms: C_12  and  N_13 
REMARK    5  A    between atoms: O_25  and  C_19 
ROOT
ATOM      1  C   UNL d   1       1.754  -2.779  -0.101  0.00  0.00     0.325 C 
ATOM      2  N   UNL d   1       0.454  -2.404   0.079  0.00  0.00    -0.304 N 
ATOM      3  N   UNL d   1       2.722  -1.817   0.064  0.00  0.00    -0.309 N 
ATOM      4  O   UNL d   1       1.972  -3.977  -0.259  0.00  0.00    -0.247 OA
ATOM      5  H   UNL d   1      -0.106  -3.200   0.372  0.00  0.00     0.171 HD
ATOM      6  H   UNL d   1       2.440  -0.856  -0.044  0.00  0.00     0.170 HD
ENDROOT
BRANCH   2   7
ATOM      7  C   UNL d   1      -0.145  -1.164   0.170  0.00  0.00     0.097 C 
ATOM      8  C   UNL d   1      -1.208  -0.766   1.056  0.00  0.00     0.096 C 
ATOM      9  N   UNL d   1      -1.522   0.522   0.841  0.00  0.00    -0.258 N 
ATOM     10  O   UNL d   1      -0.800   0.926  -0.255  0.00  0.00    -0.240 OA
ATOM     11  HN  UNL d   1      -2.171   1.090   1.386  1.00  0.00     0.195 HD
ATOM     12  C   UNL d   1      -0.019  -0.100  -0.699  0.00  0.00     0.101 C 
ATOM     13  C   UNL d   1       0.593   0.129  -2.017  0.00  0.00     0.081 C 
BRANCH   8  14
ATOM     14  C   UNL d   1      -1.888  -1.504   2.127  0.00  0.00     0.017 A 
ATOM     15  C   UNL d   1      -2.430  -2.792   1.973  0.00  0.00     0.046 A 
ATOM     16 CL   UNL d   1      -2.366  -3.681   0.490  0.00  0.00    -0.083 Cl
ATOM     17  C   UNL d   1      -3.117  -3.405   3.030  0.00  0.00     0.025 A 
ATOM     18  C   UNL d   1      -3.296  -2.740   4.242  0.00  0.00     0.002 A 
ATOM     19  C   UNL d   1      -2.778  -1.460   4.407  0.00  0.00     0.001 A 
ATOM     20  C   UNL d   1      -2.077  -0.851   3.362  0.00  0.00     0.015 A 
ENDBRANCH   8  14
ENDBRANCH   2   7
BRANCH   3  21
ATOM     21  C   UNL d   1       4.064  -2.053   0.475  0.00  0.00     0.039 A 
ATOM     22  C   UNL d   1       4.522  -3.310   0.897  0.00  0.00     0.046 A 
ATOM     23  C   UNL d   1       5.806  -3.475   1.444  0.00  0.00     0.052 A 
ATOM     24  C   UNL d   1       6.651  -2.365   1.524  0.00  0.00     0.053 A 
ATOM     25  C   UNL d   1       6.219  -1.106   1.104  0.00  0.00     0.071 A 
ATOM     26  C   UNL d   1       4.934  -0.954   0.568  0.00  0.00     0.066 A 
BRANCH  23  27
ATOM     27  C   UNL d   1       6.265  -4.803   1.992  0.00  0.00     0.417 C 
ATOM     28  F   UNL d   1       5.301  -5.765   1.990  0.00  0.00    -0.166 F 
ATOM     29  F   UNL d   1       7.316  -5.324   1.300  0.00  0.00    -0.166 F 
ATOM     30  F   UNL d   1       6.684  -4.707   3.286  0.00  0.00    -0.166 F 
ENDBRANCH  23  27
BRANCH  25  31
ATOM     31  O   UNL d   1       7.148  -0.122   1.296  0.00  0.00    -0.356 OA
ATOM     32  C   UNL d   1       6.731   1.229   1.166  0.00  0.00     0.210 C 
ENDBRANCH  25  31
ENDBRANCH   3  21
TORSDOF 5
