REMARK  4 active torsions:
REMARK  status: ('A' for Active; 'I' for Inactive)
REMARK    1  A    between atoms: N_2  and  C_1 
REMARK       I    between atoms: C_3  and  N_2 
REMARK    2  A    between atoms: C_5  and  C_3 
REMARK    3  A    between atoms: C_6  and  C_7 
REMARK    4  A    between atoms: O_11  and  C_6 
ROOT
ATOM      1  C   UNL d   1       3.729  -1.186  -0.454  0.00  0.00     0.041 C 
ATOM      2  C   UNL d   1       2.571  -0.438  -0.740  0.00  0.00    -0.025 C 
ATOM      3  C   UNL d   1       2.618   0.978  -0.632  0.00  0.00    -0.050 C 
ATOM      4  C   UNL d   1       4.944  -0.503  -0.257  0.00  0.00     0.030 C 
ATOM      5  C   UNL d   1       5.003   0.889  -0.242  0.00  0.00     0.003 C 
ATOM      6  C   UNL d   1       1.335  -1.022  -1.390  0.00  0.00     0.041 C 
ATOM      7  C   UNL d   1       3.837   1.626  -0.389  0.00  0.00     0.008 C 
ATOM      8  C   UNL d   1       1.361   1.822  -0.666  0.00  0.00     0.039 C 
ATOM      9  C   UNL d   1       0.065  -0.340  -0.897  0.00  0.00     0.005 C 
ATOM     10  C   UNL d   1       0.120   1.142  -1.239  0.00  0.00     0.005 C 
ENDROOT
BRANCH   1  11
ATOM     11  N   UNL d   1       3.808  -2.595  -0.316  0.00  0.00    -0.323 N 
ATOM     12  C   UNL d   1       2.839  -3.434   0.197  0.00  0.00     0.245 C 
ATOM     13  O   UNL d   1       1.722  -3.161   0.612  0.00  0.00    -0.268 OA
ATOM     14  H   UNL d   1       4.746  -2.974  -0.328  0.00  0.00     0.169 HD
BRANCH  12  15
ATOM     15  C   UNL d   1       3.375  -4.799   0.438  0.00  0.00     0.081 C 
ATOM     16  C   UNL d   1       2.936  -5.906  -0.177  0.00  0.00     0.086 C 
BRANCH  16  17
ATOM     17  C   UNL d   1       1.971  -5.931  -1.282  0.00  0.00     0.165 C 
ATOM     18  O   UNL d   1       1.630  -5.013  -2.002  0.00  0.00    -0.647 OA
BRANCH  17  19
ATOM     19  O   UNL d   1       1.538  -7.189  -1.470  0.00  0.00    -0.773 OA
ATOM     20  H   UNL d   1       0.925  -7.115  -2.232  0.00  0.00     0.167 HD
ENDBRANCH  17  19
ENDBRANCH  16  17
ENDBRANCH  12  15
ENDBRANCH   1  11
TORSDOF 4
