REMARK  3 active torsions:
REMARK  status: ('A' for Active; 'I' for Inactive)
REMARK    1  A    between atoms: N_2  and  C_1 
REMARK    2  A    between atoms: N_3  and  C_6 
REMARK    3  A    between atoms: N_7  and  C_4 
ROOT
ATOM      1  C   UNL d   1       1.413  -0.234   0.084  0.00  0.00     0.131 A 
ATOM      2  C   UNL d   1       0.568  -1.359   0.005  0.00  0.00     0.063 A 
ATOM      3  C   UNL d   1       0.928   1.087   0.175  0.00  0.00     0.074 A 
ATOM      4  C   UNL d   1      -0.451   1.303   0.183  0.00  0.00     0.105 A 
ATOM      5  C   UNL d   1      -0.818  -1.078   0.027  0.00  0.00     0.034 A 
ATOM      6  C   UNL d   1      -1.330   0.223   0.109  0.00  0.00     0.038 A 
ENDROOT
BRANCH   2   7
ATOM      7  N   UNL d   1       0.924  -2.702  -0.052  0.00  0.00    -0.377 N 
ATOM      8  C   UNL d   1       2.145  -3.243   0.575  0.00  0.00     0.133 C 
ATOM      9  C   UNL d   1       1.889  -4.652   1.133  0.00  0.00     0.093 C 
ATOM     10  S   UNL d   1       1.360  -5.846  -0.145  0.00  0.00    -0.166 SA
ATOM     11  C   UNL d   1       0.014  -4.853  -0.877  0.00  0.00     0.093 C 
ATOM     12  C   UNL d   1       0.482  -3.445  -1.256  0.00  0.00     0.133 C 
ENDBRANCH   2   7
BRANCH   1  13
ATOM     13  N   UNL d   1       2.854  -0.358   0.010  0.00  0.00    -0.113 N 
ATOM     14  O   UNL d   1       3.339  -0.771  -1.052  0.00  0.00    -0.532 OA
ATOM     15  O   UNL d   1       3.497   0.003   1.004  0.00  0.00    -0.532 OA
ENDBRANCH   1  13
BRANCH   4  16
ATOM     16  N   UNL d   1      -0.982   2.669   0.263  0.00  0.00    -0.116 N 
ATOM     17  O   UNL d   1      -0.166   3.599   0.317  0.00  0.00    -0.532 OA
ATOM     18  O   UNL d   1      -2.213   2.809   0.266  0.00  0.00    -0.532 OA
ENDBRANCH   4  16
TORSDOF 3
