REMARK  2 active torsions:
REMARK  status: ('A' for Active; 'I' for Inactive)
REMARK    1  A    between atoms: C_7  and  C_4 
REMARK    2  A    between atoms: O_15  and  C_8 
ROOT
ATOM      1  C   UNL d   1       1.216  -1.408   0.018  0.00  0.00     0.189 C 
ATOM      2  C   UNL d   1       2.246  -0.699  -0.786  0.00  0.00    -0.006 C 
ATOM      3  C   UNL d   1      -0.134  -0.794   0.053  0.00  0.00     0.021 A 
ATOM      4  C   UNL d   1       2.588  -1.306  -1.940  0.00  0.00     0.022 C 
ATOM      5  O   UNL d   1       1.429  -2.511   0.506  0.00  0.00    -0.287 OA
ATOM      6  C   UNL d   1      -0.365   0.555   0.365  0.00  0.00    -0.044 A 
ATOM      7  C   UNL d   1       2.815   0.576  -0.238  0.00  0.00     0.043 C 
ATOM      8  C   UNL d   1      -1.206  -1.637  -0.281  0.00  0.00     0.016 A 
ATOM      9  C   UNL d   1       1.811   1.721  -0.198  0.00  0.00     0.009 C 
ATOM     10  C   UNL d   1       0.720   1.487   0.839  0.00  0.00     0.040 C 
ATOM     11  C   UNL d   1      -1.683   1.045   0.288  0.00  0.00     0.008 A 
ATOM     12  C   UNL d   1      -2.504  -1.133  -0.352  0.00  0.00     0.001 A 
ATOM     13  C   UNL d   1      -2.737   0.212  -0.076  0.00  0.00     0.001 A 
ENDROOT
BRANCH   4  14
ATOM     14  C   UNL d   1       3.513  -0.688  -2.889  0.00  0.00    -0.035 A 
ATOM     15  C   UNL d   1       4.894  -0.828  -2.743  0.00  0.00     0.014 A 
ATOM     16  C   UNL d   1       5.755  -0.077  -3.546  0.00  0.00     0.037 A 
ATOM     17  C   UNL d   1       5.250   0.799  -4.511  0.00  0.00     0.068 A 
ATOM     18  C   UNL d   1       3.870   0.906  -4.684  0.00  0.00     0.037 A 
ATOM     19  C   UNL d   1       3.004   0.166  -3.873  0.00  0.00     0.014 A 
BRANCH  17  20
ATOM     20  O   UNL d   1       6.196   1.531  -5.173  0.00  0.00    -0.356 OA
ATOM     21  C   UNL d   1       5.801   2.125  -6.403  0.00  0.00     0.210 C 
ENDBRANCH  17  20
ENDBRANCH   4  14
TORSDOF 2
