REMARK  3 active torsions:
REMARK  status: ('A' for Active; 'I' for Inactive)
REMARK    1  A    between atoms: C_6  and  N_3 
REMARK    2  A    between atoms: C_8  and  C_4 
REMARK    3  A    between atoms: N_17  and  C_7 
ROOT
ATOM      1  S   UNL d   1       1.468   0.357   0.100  0.00  0.00     0.208 S 
ATOM      2  C   UNL d   1       0.542  -1.107   0.191  0.00  0.00     0.144 C 
ATOM      3  N   UNL d   1      -1.111   0.520  -0.357  0.00  0.00    -0.287 N 
ATOM      4  C   UNL d   1       0.113   1.192  -0.788  0.00  0.00     0.256 C 
ATOM      5  C   UNL d   1      -0.914  -0.807   0.067  0.00  0.00     0.272 C 
ATOM      6  C   UNL d   1       1.193  -2.268   0.336  0.00  0.00     0.114 C 
ATOM      7  O   UNL d   1       1.594   0.936   1.426  0.00  0.00    -0.220 OA
ATOM      8  O   UNL d   1       2.639   0.192  -0.743  0.00  0.00    -0.220 OA
ATOM      9  O   UNL d   1      -1.798  -1.599   0.363  0.00  0.00    -0.266 OA
ENDROOT
BRANCH   3  10
ATOM     10  C   UNL d   1      -2.333   1.213  -0.142  0.00  0.00     0.078 A 
ATOM     11  C   UNL d   1      -2.361   2.481   0.464  0.00  0.00     0.146 A 
ATOM     12  C   UNL d   1      -3.559   3.123   0.762  0.00  0.00     0.086 A 
ATOM     13  F   UNL d   1      -1.227   3.071   0.868  0.00  0.00    -0.204 F 
ATOM     14  C   UNL d   1      -4.753   2.506   0.427  0.00  0.00     0.119 A 
ATOM     15  C   UNL d   1      -4.763   1.261  -0.193  0.00  0.00     0.044 A 
ATOM     16  F   UNL d   1      -5.912   3.110   0.716  0.00  0.00    -0.206 F 
ATOM     17  C   UNL d   1      -3.555   0.608  -0.463  0.00  0.00     0.036 A 
ENDBRANCH   3  10
BRANCH   4  18
ATOM     18  C   UNL d   1       0.355   1.036  -2.286  0.00  0.00    -0.005 A 
ATOM     19  C   UNL d   1       1.044   2.024  -2.983  0.00  0.00     0.097 A 
ATOM     20  N   UNL d   1       1.343   1.965  -4.302  0.00  0.00    -0.375 N 
ATOM     21  C   UNL d   1       0.963   0.854  -4.970  0.00  0.00     0.087 A 
ATOM     22  HN  UNL d   1       1.834   2.726  -4.771  1.00  0.00     0.164 HD
ATOM     23  C   UNL d   1       0.279  -0.190  -4.382  0.00  0.00     0.018 A 
ATOM     24  C   UNL d   1      -0.036  -0.094  -3.030  0.00  0.00     0.013 A 
ENDBRANCH   4  18
BRANCH   6  25
ATOM     25  N   UNL d   1       0.780  -3.591   0.302  0.00  0.00    -0.397 N 
ATOM     26  C   UNL d   1      -0.368  -4.068  -0.467  0.00  0.00     0.148 C 
ATOM     27  C   UNL d   1       1.520  -4.642   1.002  0.00  0.00     0.148 C 
ENDBRANCH   6  25
TORSDOF 3
