REMARK  6 active torsions:
REMARK  status: ('A' for Active; 'I' for Inactive)
REMARK    1  A    between atoms: C_4  and  C_1 
REMARK       I    between atoms: N_6  and  C_1 
REMARK    2  A    between atoms: C_7  and  C_2 
REMARK    3  A    between atoms: C_3  and  N_6 
REMARK    4  A    between atoms: O_10  and  C_5 
REMARK    5  A    between atoms: O_17  and  C_7 
REMARK    6  A    between atoms: C_18  and  O_10 
ROOT
ATOM      1  C   UNL d   1       0.612  -0.035   0.196  0.00  0.00     0.260 C 
ATOM      2  N   UNL d   1       1.974   0.167   0.384  0.00  0.00    -0.322 N 
ATOM      3  O   UNL d   1      -0.281   0.735   0.535  0.00  0.00    -0.267 OA
ATOM      4  H   UNL d   1       2.614  -0.359  -0.210  0.00  0.00     0.169 HD
ENDROOT
BRANCH   1   5
ATOM      5  C   UNL d   1       0.240  -1.307  -0.453  0.00  0.00     0.083 A 
ATOM      6  C   UNL d   1      -0.731  -1.389  -1.447  0.00  0.00     0.163 A 
ATOM      7  N   UNL d   1      -1.099  -2.576  -2.005  0.00  0.00    -0.346 N 
ATOM      8  C   UNL d   1      -0.567  -3.706  -1.504  0.00  0.00     0.090 A 
ATOM      9  HN  UNL d   1      -1.760  -2.608  -2.781  1.00  0.00     0.167 HD
ATOM     10  C   UNL d   1       0.366  -3.721  -0.486  0.00  0.00     0.018 A 
ATOM     11  C   UNL d   1       0.788  -2.501   0.038  0.00  0.00     0.023 A 
BRANCH   6  12
ATOM     12  O   UNL d   1      -1.324  -0.225  -1.928  0.00  0.00    -0.293 OA
BRANCH  12  13
ATOM     13  C   UNL d   1      -2.474  -0.390  -2.672  0.00  0.00     0.077 A 
ATOM     14  C   UNL d   1      -3.599  -1.042  -2.156  0.00  0.00     0.037 A 
ATOM     15  C   UNL d   1      -4.709  -1.264  -2.972  0.00  0.00     0.003 A 
ATOM     16  C   UNL d   1      -4.712  -0.798  -4.286  0.00  0.00     0.000 A 
ATOM     17  C   UNL d   1      -3.615  -0.087  -4.778  0.00  0.00     0.003 A 
ATOM     18  C   UNL d   1      -2.497   0.127  -3.968  0.00  0.00     0.037 A 
ENDBRANCH  12  13
ENDBRANCH   6  12
ENDBRANCH   1   5
BRANCH   2  19
ATOM     19  C   UNL d   1       2.553   1.208   1.157  0.00  0.00     0.052 A 
ATOM     20  C   UNL d   1       3.876   1.655   0.938  0.00  0.00     0.066 A 
ATOM     21  C   UNL d   1       4.375   2.733   1.704  0.00  0.00     0.022 A 
ATOM     22  C   UNL d   1       3.605   3.329   2.702  0.00  0.00     0.025 A 
ATOM     23  C   UNL d   1       2.332   2.843   2.959  0.00  0.00     0.036 A 
ATOM     24  C   UNL d   1       1.810   1.797   2.197  0.00  0.00     0.054 A 
ATOM     25 CL   UNL d   1       1.399   3.527   4.231  0.00  0.00    -0.084 Cl
BRANCH  20  26
ATOM     26  C   UNL d   1       4.830   1.117  -0.077  0.00  0.00     0.295 C 
ATOM     27  O   UNL d   1       5.929   1.612  -0.280  0.00  0.00    -0.259 OA
BRANCH  26  28
ATOM     28  O   UNL d   1       4.355   0.011  -0.708  0.00  0.00    -0.322 OA
ATOM     29  C   UNL d   1       5.270  -0.520  -1.675  0.00  0.00     0.213 C 
ENDBRANCH  26  28
ENDBRANCH  20  26
ENDBRANCH   2  19
TORSDOF 6
