REMARK  7 active torsions:
REMARK  status: ('A' for Active; 'I' for Inactive)
REMARK    1  A    between atoms: C_10  and  C_1 
REMARK    2  A    between atoms: C_2  and  C_11 
REMARK       I    between atoms: C_3  and  N_4 
REMARK    3  A    between atoms: C_12  and  C_3 
REMARK    4  A    between atoms: N_4  and  C_6 
REMARK    5  A    between atoms: C_5  and  C_13 
REMARK    6  A    between atoms: O_7  and  C_5 
REMARK    7  A    between atoms: C_8  and  O_7 
ROOT
ATOM      1  C   UNL d   1       0.360   4.514   5.625  0.00  0.00     0.070 A 
ATOM      2  C   UNL d   1      -0.549   3.689   4.933  0.00  0.00     0.106 A 
ATOM      3  C   UNL d   1       0.819   5.681   5.005  0.00  0.00     0.056 A 
ATOM      4  C   UNL d   1      -1.009   4.035   3.660  0.00  0.00     0.041 A 
ATOM      5  C   UNL d   1       0.392   6.002   3.717  0.00  0.00     0.036 A 
ATOM      6  C   UNL d   1      -0.520   5.188   3.043  0.00  0.00     0.026 A 
ATOM      7 CL   UNL d   1       1.009   7.410   2.940  0.00  0.00    -0.084 Cl
ENDROOT
BRANCH   1   8
ATOM      8  N   UNL d   1       0.833   4.135   6.902  0.00  0.00    -0.320 N 
ATOM      9  C   UNL d   1       1.177   5.004   7.920  0.00  0.00     0.256 C 
ATOM     10  O   UNL d   1       1.024   6.221   7.866  0.00  0.00    -0.267 OA
ATOM     11  H   UNL d   1       0.884   3.142   7.058  0.00  0.00     0.169 HD
BRANCH   9  12
ATOM     12  C   UNL d   1       1.701   4.401   9.192  0.00  0.00     0.032 A 
ATOM     13  C   UNL d   1       2.114   5.288  10.198  0.00  0.00     0.018 A 
ATOM     14  C   UNL d   1       2.566   4.815  11.433  0.00  0.00     0.017 A 
ATOM     15  C   UNL d   1       2.608   3.442  11.695  0.00  0.00     0.048 A 
ATOM     16  C   UNL d   1       2.222   2.550  10.680  0.00  0.00     0.017 A 
ATOM     17  C   UNL d   1       1.772   3.023   9.441  0.00  0.00     0.018 A 
BRANCH  15  18
ATOM     18  C   UNL d   1       3.046   2.916  13.039  0.00  0.00     0.417 C 
ATOM     19  F   UNL d   1       3.325   3.894  13.944  0.00  0.00    -0.166 F 
ATOM     20  F   UNL d   1       2.094   2.132  13.618  0.00  0.00    -0.166 F 
ATOM     21  F   UNL d   1       4.166   2.146  12.961  0.00  0.00    -0.166 F 
ENDBRANCH  15  18
ENDBRANCH   9  12
ENDBRANCH   1   8
BRANCH   2  22
ATOM     22  O   UNL d   1      -1.217   2.614   5.563  0.00  0.00    -0.273 OA
BRANCH  22  23
ATOM     23  C   UNL d   1      -0.427   1.562   5.978  0.00  0.00     0.298 C 
ATOM     24  O   UNL d   1       0.751   1.384   5.691  0.00  0.00    -0.259 OA
BRANCH  23  25
ATOM     25  C   UNL d   1      -1.110   0.784   7.047  0.00  0.00     0.040 A 
ATOM     26  C   UNL d   1      -2.432   1.014   7.440  0.00  0.00     0.018 A 
ATOM     27  C   UNL d   1      -2.944   0.383   8.580  0.00  0.00     0.017 A 
ATOM     28  C   UNL d   1      -2.143  -0.481   9.345  0.00  0.00     0.048 A 
ATOM     29  C   UNL d   1      -0.839  -0.755   8.911  0.00  0.00     0.017 A 
ATOM     30  C   UNL d   1      -0.329  -0.131   7.770  0.00  0.00     0.018 A 
BRANCH  28  31
ATOM     31  C   UNL d   1      -2.664  -1.056  10.643  0.00  0.00     0.417 C 
ATOM     32  F   UNL d   1      -1.779  -1.886  11.262  0.00  0.00    -0.166 F 
ATOM     33  F   UNL d   1      -3.806  -1.776  10.480  0.00  0.00    -0.166 F 
ATOM     34  F   UNL d   1      -2.956  -0.083  11.550  0.00  0.00    -0.166 F 
ENDBRANCH  28  31
ENDBRANCH  23  25
ENDBRANCH  22  23
ENDBRANCH   2  22
TORSDOF 7
