REMARK  2 active torsions:
REMARK  status: ('A' for Active; 'I' for Inactive)
REMARK    1  A    between atoms: C_7  and  C_4 
REMARK    2  A    between atoms: S_9  and  C_8 
ROOT
ATOM      1  C   UNL d   1       1.221  -1.413   0.021  0.00  0.00     0.189 C 
ATOM      2  C   UNL d   1       2.249  -0.703  -0.785  0.00  0.00    -0.006 C 
ATOM      3  C   UNL d   1      -0.131  -0.800   0.054  0.00  0.00     0.021 A 
ATOM      4  C   UNL d   1       2.590  -1.307  -1.939  0.00  0.00     0.022 C 
ATOM      5  O   UNL d   1       1.435  -2.516   0.510  0.00  0.00    -0.287 OA
ATOM      6  C   UNL d   1      -0.362   0.552   0.361  0.00  0.00    -0.044 A 
ATOM      7  C   UNL d   1       2.818   0.571  -0.236  0.00  0.00     0.043 C 
ATOM      8  C   UNL d   1      -1.204  -1.641  -0.283  0.00  0.00     0.016 A 
ATOM      9  C   UNL d   1       1.816   1.718  -0.196  0.00  0.00     0.009 C 
ATOM     10  C   UNL d   1       0.723   1.483   0.839  0.00  0.00     0.040 C 
ATOM     11  C   UNL d   1      -1.676   1.044   0.275  0.00  0.00     0.008 A 
ATOM     12  C   UNL d   1      -2.499  -1.136  -0.362  0.00  0.00     0.001 A 
ATOM     13  C   UNL d   1      -2.734   0.211  -0.094  0.00  0.00     0.001 A 
ENDROOT
BRANCH   4  14
ATOM     14  C   UNL d   1       3.511  -0.686  -2.888  0.00  0.00    -0.035 A 
ATOM     15  C   UNL d   1       4.891  -0.848  -2.765  0.00  0.00     0.012 A 
ATOM     16  C   UNL d   1       5.755  -0.095  -3.567  0.00  0.00     0.019 A 
ATOM     17  C   UNL d   1       5.255   0.824  -4.502  0.00  0.00    -0.000 A 
ATOM     18  C   UNL d   1       3.870   0.937  -4.654  0.00  0.00     0.019 A 
ATOM     19  C   UNL d   1       3.004   0.190  -3.850  0.00  0.00     0.012 A 
BRANCH  17  20
ATOM     20  S   UNL d   1       6.455   1.794  -5.408  0.00  0.00    -0.134 SA
ATOM     21  C   UNL d   1       5.436   3.028  -6.259  0.00  0.00     0.095 C 
ENDBRANCH  17  20
ENDBRANCH   4  14
TORSDOF 2
