REMARK  3 active torsions:
REMARK  status: ('A' for Active; 'I' for Inactive)
REMARK    1  A    between atoms: C_3  and  C_1 
REMARK    2  A    between atoms: C_6  and  C_2 
REMARK    3  A    between atoms: C_9  and  C_6 
ROOT
ATOM      1  C   UNL d   1      -0.965  -3.717   0.031  0.00  0.00     0.098 C 
ATOM      2  C   UNL d   1      -1.560  -2.505  -0.001  0.00  0.00     0.056 C 
ATOM      3  C   UNL d   1      -1.680  -4.941   0.113  0.00  0.00     0.103 C 
ATOM      4  N   UNL d   1      -2.293  -5.927   0.092  0.00  0.00    -0.191 NA
ENDROOT
BRANCH   1   5
ATOM      5  C   UNL d   1       0.544  -3.759   0.031  0.00  0.00     0.209 C 
ATOM      6  O   UNL d   1       1.163  -2.755   0.390  0.00  0.00    -0.285 OA
BRANCH   5   7
ATOM      7  C   UNL d   1       1.218  -4.990  -0.384  0.00  0.00     0.056 A 
ATOM      8  S   UNL d   1       2.718  -5.397   0.348  0.00  0.00    -0.098 SA
ATOM      9  C   UNL d   1       2.829  -6.864  -0.521  0.00  0.00     0.050 A 
ATOM     10  C   UNL d   1       1.773  -7.031  -1.386  0.00  0.00     0.009 A 
ATOM     11  C   UNL d   1       0.858  -5.939  -1.327  0.00  0.00     0.023 A 
ENDBRANCH   5   7
ENDBRANCH   1   5
BRANCH   2  12
ATOM     12  C   UNL d   1      -2.968  -2.265   0.024  0.00  0.00     0.040 A 
ATOM     13  N   UNL d   1      -3.846  -3.106  -0.626  0.00  0.00    -0.359 N 
ATOM     14  C   UNL d   1      -5.140  -2.707  -0.414  0.00  0.00     0.006 A 
ATOM     15  H   UNL d   1      -3.601  -3.931  -1.157  0.00  0.00     0.166 HD
ATOM     16  C   UNL d   1      -6.293  -3.493  -0.916  0.00  0.00     0.068 C 
ATOM     17  C   UNL d   1      -5.092  -1.532   0.300  0.00  0.00     0.033 A 
ATOM     18  C   UNL d   1      -3.725  -1.232   0.566  0.00  0.00    -0.033 A 
ATOM     19  C   UNL d   1      -3.255  -0.039   1.322  0.00  0.00     0.050 C 
ENDBRANCH   2  12
TORSDOF 3
