REMARK  3 active torsions:
REMARK  status: ('A' for Active; 'I' for Inactive)
REMARK    1  A    between atoms: C_6  and  C_3 
REMARK    2  A    between atoms: C_7  and  C_6 
REMARK    3  A    between atoms: C_8  and  C_7 
ROOT
ATOM      1  C   UNL d   1       2.167  -3.554   1.149  0.00  0.00     0.162 C 
ATOM      2  O   UNL d   1       2.340  -4.375   2.050  0.00  0.00    -0.292 OA
ENDROOT
BRANCH   1   3
ATOM      3  C   UNL d   1       0.940  -2.662   1.160  0.00  0.00     0.121 C 
BRANCH   3   4
ATOM      4  C   UNL d   1       1.139  -1.369   1.940  0.00  0.00     0.173 A 
ATOM      5  O   UNL d   1       2.175  -0.562   1.332  0.00  0.00    -0.307 OA
ATOM      6  C   UNL d   1       3.137  -0.195   2.235  0.00  0.00     0.294 A 
ATOM      7  C   UNL d   1       2.752  -0.774   3.514  0.00  0.00     0.048 A 
ATOM      8  O   UNL d   1       4.114   0.490   2.006  0.00  0.00    -0.259 OA
ATOM      9  C   UNL d   1       1.577  -1.480   3.350  0.00  0.00    -0.012 A 
ATOM     10  C   UNL d   1       3.398  -0.669   4.734  0.00  0.00     0.018 A 
ATOM     11  C   UNL d   1       0.987  -2.115   4.430  0.00  0.00     0.011 A 
ATOM     12  C   UNL d   1       1.615  -2.023   5.677  0.00  0.00     0.001 A 
ATOM     13  C   UNL d   1       2.814  -1.306   5.829  0.00  0.00     0.001 A 
ENDBRANCH   3   4
ENDBRANCH   1   3
BRANCH   1  14
ATOM     14  C   UNL d   1       3.167  -3.465   0.037  0.00  0.00     0.011 A 
ATOM     15  C   UNL d   1       4.256  -4.352   0.053  0.00  0.00     0.027 A 
ATOM     16  C   UNL d   1       5.218  -4.346  -0.974  0.00  0.00    -0.025 A 
ATOM     17  C   UNL d   1       6.320  -5.217  -0.959  0.00  0.00     0.012 A 
ATOM     18  C   UNL d   1       5.073  -3.441  -2.049  0.00  0.00    -0.026 A 
ATOM     19  C   UNL d   1       7.256  -5.203  -1.995  0.00  0.00     0.001 A 
ATOM     20  C   UNL d   1       7.098  -4.327  -3.065  0.00  0.00     0.001 A 
ATOM     21  C   UNL d   1       6.013  -3.451  -3.092  0.00  0.00     0.012 A 
ATOM     22  C   UNL d   1       3.996  -2.545  -2.050  0.00  0.00     0.013 A 
ATOM     23  C   UNL d   1       3.056  -2.551  -1.014  0.00  0.00     0.016 A 
ENDBRANCH   1  14
TORSDOF 3
