REMARK  5 active torsions:
REMARK  status: ('A' for Active; 'I' for Inactive)
REMARK    1  A    between atoms: C_2  and  C_1 
REMARK       I    between atoms: N_7  and  C_2 
REMARK    2  A    between atoms: C_16  and  C_5 
REMARK    3  A    between atoms: C_11  and  N_7 
REMARK    4  A    between atoms: O_9  and  C_13 
REMARK    5  A    between atoms: C_10  and  O_9 
ROOT
ATOM      1  C   UNL d   1       0.263  -2.242   0.586  0.00  0.00     0.261 C 
ATOM      2  N   UNL d   1      -0.624  -3.307   0.625  0.00  0.00    -0.320 N 
ATOM      3  O   UNL d   1       0.054  -1.227  -0.075  0.00  0.00    -0.267 OA
ATOM      4  H   UNL d   1      -0.619  -3.816   1.497  0.00  0.00     0.169 HD
ENDROOT
BRANCH   2   5
ATOM      5  C   UNL d   1      -1.799  -3.456  -0.152  0.00  0.00     0.069 A 
ATOM      6  C   UNL d   1      -1.965  -3.168  -1.521  0.00  0.00     0.102 A 
ATOM      7  C   UNL d   1      -3.245  -3.278  -2.097  0.00  0.00     0.039 A 
ATOM      8  C   UNL d   1      -4.330  -3.754  -1.364  0.00  0.00     0.003 A 
ATOM      9  C   UNL d   1      -4.144  -4.142  -0.045  0.00  0.00     0.002 A 
ATOM     10  C   UNL d   1      -2.889  -4.001   0.550  0.00  0.00     0.032 A 
BRANCH   6  11
ATOM     11  O   UNL d   1      -1.012  -2.838  -2.463  0.00  0.00    -0.307 OA
BRANCH  11  12
ATOM     12  C   UNL d   1       0.279  -3.290  -2.354  0.00  0.00     0.098 C 
ATOM     13  C   UNL d   1       0.693  -4.581  -2.009  0.00  0.00     0.069 C 
ATOM     14  C   UNL d   1       2.043  -4.820  -1.738  0.00  0.00     0.050 C 
ATOM     15 CL   UNL d   1      -0.381  -5.931  -1.905  0.00  0.00    -0.081 Cl
ATOM     16  C   UNL d   1       2.975  -3.794  -1.881  0.00  0.00     0.035 C 
ATOM     17  C   UNL d   1       2.589  -2.550  -2.368  0.00  0.00     0.026 C 
ATOM     18 CL   UNL d   1       4.612  -4.062  -1.430  0.00  0.00    -0.084 Cl
ATOM     19  C   UNL d   1       1.241  -2.306  -2.620  0.00  0.00     0.041 C 
ENDBRANCH  11  12
ENDBRANCH   6  11
ENDBRANCH   2   5
BRANCH   1  20
ATOM     20  C   UNL d   1       1.422  -2.368   1.465  0.00  0.00     0.093 A 
ATOM     21  C   UNL d   1       2.291  -1.323   1.956  0.00  0.00     0.083 A 
ATOM     22  N   UNL d   1       3.300  -1.854   2.665  0.00  0.00    -0.259 N 
ATOM     23  O   UNL d   1       3.113  -3.201   2.681  0.00  0.00    -0.241 OA
ATOM     24  HN  UNL d   1       4.063  -1.342   3.109  1.00  0.00     0.195 HD
ATOM     25  C   UNL d   1       1.994  -3.527   1.986  0.00  0.00     0.090 A 
ATOM     26  C   UNL d   1       1.751  -4.985   1.967  0.00  0.00     0.080 C 
BRANCH  21  27
ATOM     27  C   UNL d   1       2.223   0.140   1.855  0.00  0.00    -0.006 A 
ATOM     28  C   UNL d   1       3.414   0.887   1.796  0.00  0.00     0.014 A 
ATOM     29  C   UNL d   1       3.391   2.284   1.811  0.00  0.00     0.001 A 
ATOM     30  C   UNL d   1       2.174   2.956   1.883  0.00  0.00     0.000 A 
ATOM     31  C   UNL d   1       0.985   2.231   1.939  0.00  0.00     0.001 A 
ATOM     32  C   UNL d   1       1.008   0.831   1.932  0.00  0.00     0.014 A 
ENDBRANCH  21  27
ENDBRANCH   1  20
TORSDOF 5
