REMARK  3 active torsions:
REMARK  status: ('A' for Active; 'I' for Inactive)
REMARK    1  A    between atoms: C_10  and  N_6 
REMARK    2  A    between atoms: C_11  and  N_8 
REMARK    3  A    between atoms: C_17  and  C_11 
ROOT
ATOM      1  N   UNL d   1      -4.311  -0.491  -0.152  0.00  0.00     0.092 N 
ATOM      2  C   UNL d   1      -2.865   2.090   0.246  0.00  0.00     0.085 C 
ATOM      3  C   UNL d   1      -3.638   1.428   1.383  0.00  0.00     0.055 C 
ATOM      4  C   UNL d   1      -3.645   1.779  -1.040  0.00  0.00     0.055 C 
ATOM      5  C   UNL d   1      -3.869  -0.067   1.179  0.00  0.00     0.275 C 
ATOM      6  C   UNL d   1      -3.735   0.268  -1.270  0.00  0.00     0.275 C 
ENDROOT
BRANCH   2   7
ATOM      7  N   UNL d   1      -1.495   1.620   0.036  0.00  0.00    -0.380 N 
ATOM      8  C   UNL d   1      -0.522   1.854   0.844  0.00  0.00     0.110 C 
ATOM      9  C   UNL d   1      -0.502   2.549   2.211  0.00  0.00     0.273 C 
ATOM     10  C   UNL d   1       0.871   1.467   0.597  0.00  0.00     0.023 A 
ATOM     11  N   UNL d   1       0.753   2.298   2.734  0.00  0.00    -0.321 N 
ATOM     12  O   UNL d   1      -1.376   3.241   2.690  0.00  0.00    -0.266 OA
ATOM     13  C   UNL d   1       1.579   1.736   1.765  0.00  0.00     0.047 A 
ATOM     14  H   UNL d   1       1.067   2.692   3.608  0.00  0.00     0.169 HD
ATOM     15  C   UNL d   1       2.948   1.571   1.838  0.00  0.00     0.030 A 
ATOM     16  C   UNL d   1       3.611   1.192   0.666  0.00  0.00     0.002 A 
ATOM     17  C   UNL d   1       2.893   0.950  -0.526  0.00  0.00     0.001 A 
ATOM     18  C   UNL d   1       1.498   1.063  -0.563  0.00  0.00     0.016 A 
ATOM     19  HN  UNL d   1      -1.299   1.072  -0.802  1.00  0.00     0.160 HD
ENDBRANCH   2   7
BRANCH   1  20
ATOM     20  C   UNL d   1      -4.170  -1.958  -0.338  0.00  0.00     0.311 C 
BRANCH  20  21
ATOM     21  C   UNL d   1      -2.744  -2.494  -0.410  0.00  0.00    -0.030 A 
ATOM     22  C   UNL d   1      -2.027  -2.808   0.756  0.00  0.00     0.009 A 
ATOM     23  C   UNL d   1      -0.671  -3.139   0.696  0.00  0.00     0.001 A 
ATOM     24  C   UNL d   1      -0.023  -3.200  -0.535  0.00  0.00     0.000 A 
ATOM     25  C   UNL d   1      -0.736  -2.957  -1.706  0.00  0.00     0.001 A 
ATOM     26  C   UNL d   1      -2.088  -2.614  -1.645  0.00  0.00     0.009 A 
ENDBRANCH  20  21
ENDBRANCH   1  20
TORSDOF 3
