REMARK  7 active torsions:
REMARK  status: ('A' for Active; 'I' for Inactive)
REMARK    1  A    between atoms: C_5  and  C_1 
REMARK    2  A    between atoms: C_8  and  C_2 
REMARK       I    between atoms: N_12  and  C_8 
REMARK    3  A    between atoms: C_16  and  N_12 
REMARK    4  A    between atoms: N_15  and  C_21 
REMARK    5  A    between atoms: C_22  and  N_15 
REMARK    6  A    between atoms: C_23  and  N_15 
REMARK    7  A    between atoms: C_21  and  C_16 
ROOT
ATOM      1  C   UNL d   1      -0.952  -0.647  -0.641  0.00  0.00     0.086 A 
ATOM      2  C   UNL d   1      -0.009  -1.305   0.228  0.00  0.00     0.092 A 
ATOM      3  N   UNL d   1      -0.917   0.680  -0.427  0.00  0.00    -0.259 N 
ATOM      4  HN  UNL d   1      -1.444   1.391  -0.934  1.00  0.00     0.195 HD
ATOM      5  O   UNL d   1      -0.038   0.895   0.603  0.00  0.00    -0.241 OA
ATOM      6  C   UNL d   1       0.516  -0.280   0.994  0.00  0.00     0.090 A 
ATOM      7  C   UNL d   1       1.472  -0.180   2.110  0.00  0.00     0.080 C 
ENDROOT
BRANCH   2   8
ATOM      8  C   UNL d   1       0.306  -2.714   0.316  0.00  0.00     0.256 C 
ATOM      9  O   UNL d   1      -0.561  -3.577   0.232  0.00  0.00    -0.267 OA
ATOM     10  N   UNL d   1       1.660  -3.004   0.389  0.00  0.00    -0.355 N 
ATOM     11  H   UNL d   1       2.315  -2.252   0.243  0.00  0.00     0.162 HD
BRANCH  10  12
ATOM     12  C   UNL d   1       2.118  -4.352   0.105  0.00  0.00     0.153 C 
BRANCH  12  13
ATOM     13  C   UNL d   1       3.611  -4.588   0.413  0.00  0.00     0.292 C 
BRANCH  13  14
ATOM     14  N   UNL d   1       4.059  -4.337   1.801  0.00  0.00     0.089 N 
BRANCH  14  15
ATOM     15  C   UNL d   1       3.261  -5.061   2.808  0.00  0.00     0.268 C 
ATOM     16  C   UNL d   1       3.373  -6.583   2.797  0.00  0.00     0.037 C 
ENDBRANCH  14  15
BRANCH  14  17
ATOM     17  C   UNL d   1       5.510  -4.601   1.901  0.00  0.00     0.268 C 
ATOM     18  C   UNL d   1       6.122  -4.278   3.261  0.00  0.00     0.037 C 
ENDBRANCH  14  17
ENDBRANCH  13  14
ENDBRANCH  12  13
ENDBRANCH  10  12
ENDBRANCH   2   8
BRANCH   1  19
ATOM     19  C   UNL d   1      -1.830  -1.195  -1.692  0.00  0.00     0.037 A 
ATOM     20  C   UNL d   1      -3.189  -0.810  -1.787  0.00  0.00     0.048 A 
ATOM     21 CL   UNL d   1      -3.964   0.263  -0.663  0.00  0.00    -0.083 Cl
ATOM     22  C   UNL d   1      -4.014  -1.294  -2.816  0.00  0.00     0.025 A 
ATOM     23  C   UNL d   1      -3.526  -2.205  -3.743  0.00  0.00     0.003 A 
ATOM     24  C   UNL d   1      -2.198  -2.605  -3.667  0.00  0.00     0.025 A 
ATOM     25  C   UNL d   1      -1.348  -2.080  -2.680  0.00  0.00     0.048 A 
ATOM     26 CL   UNL d   1       0.326  -2.501  -2.856  0.00  0.00    -0.083 Cl
ENDBRANCH   1  19
TORSDOF 7
