REMARK  3 active torsions:
REMARK  status: ('A' for Active; 'I' for Inactive)
REMARK    1  A    between atoms: N_7  and  C_4 
REMARK    2  A    between atoms: C_8  and  N_7 
REMARK    3  A    between atoms: O_21  and  C_14 
ROOT
ATOM      1  C   UNL d   1      -2.319  -0.736   0.110  0.00  0.00     0.103 A 
ATOM      2  C   UNL d   1      -1.749   0.631   0.301  0.00  0.00     0.200 A 
ATOM      3  C   UNL d   1      -1.184  -1.695   0.039  0.00  0.00     0.200 A 
ATOM      4  C   UNL d   1      -3.622  -1.046  -0.014  0.00  0.00     0.132 C 
ATOM      5  C   UNL d   1      -0.295   0.468   0.191  0.00  0.00     0.029 A 
ATOM      6  C   UNL d   1       0.032  -0.877   0.061  0.00  0.00     0.029 A 
ATOM      7  C   UNL d   1      -4.050  -2.417  -0.098  0.00  0.00     0.118 C 
ATOM      8  N   UNL d   1      -4.498  -3.480  -0.173  0.00  0.00    -0.190 NA
ATOM      9  O   UNL d   1      -1.220  -2.902  -0.058  0.00  0.00    -0.286 OA
ATOM     10  O   UNL d   1      -2.312   1.671   0.556  0.00  0.00    -0.286 OA
ATOM     11  C   UNL d   1       0.678   1.451   0.194  0.00  0.00     0.016 A 
ATOM     12  C   UNL d   1       1.343  -1.300  -0.063  0.00  0.00     0.016 A 
ATOM     13  C   UNL d   1       2.010   1.044   0.053  0.00  0.00     0.001 A 
ATOM     14  C   UNL d   1       2.339  -0.320  -0.069  0.00  0.00     0.001 A 
ENDROOT
BRANCH   4  15
ATOM     15  N   UNL d   1      -4.704  -0.162  -0.072  0.00  0.00    -0.344 N 
ATOM     16  H   UNL d   1      -5.604  -0.625   0.062  0.00  0.00     0.167 HD
BRANCH  15  17
ATOM     17  C   UNL d   1      -4.851   0.845  -1.073  0.00  0.00     0.068 A 
ATOM     18  C   UNL d   1      -4.211   0.688  -2.324  0.00  0.00     0.056 A 
ATOM     19  C   UNL d   1      -4.255   1.691  -3.293  0.00  0.00     0.036 A 
ATOM     20 CL   UNL d   1      -3.404   1.487  -4.775  0.00  0.00    -0.084 Cl
ATOM     21  C   UNL d   1      -4.964   2.858  -3.059  0.00  0.00     0.026 A 
ATOM     22  C   UNL d   1      -5.669   2.994  -1.865  0.00  0.00     0.041 A 
ATOM     23  C   UNL d   1      -5.641   1.996  -0.873  0.00  0.00     0.095 A 
BRANCH  23  24
ATOM     24  O   UNL d   1      -6.410   2.352   0.201  0.00  0.00    -0.354 OA
ATOM     25  C   UNL d   1      -6.554   1.481   1.306  0.00  0.00     0.210 C 
ENDBRANCH  23  24
ENDBRANCH  15  17
ENDBRANCH   4  15
TORSDOF 3
