REMARK  2 active torsions:
REMARK  status: ('A' for Active; 'I' for Inactive)
REMARK    1  A    between atoms: C_4  and  N_1 
REMARK    2  A    between atoms: N_2  and  C_3 
ROOT
ATOM      1  C   UNL d   1       2.583   2.623  -1.131  0.00  0.00     0.129 A 
ATOM      2  C   UNL d   1       1.248   2.164  -1.095  0.00  0.00     0.063 A 
ATOM      3  C   UNL d   1       3.052   3.570  -2.066  0.00  0.00     0.038 A 
ATOM      4  C   UNL d   1       0.409   2.736  -2.077  0.00  0.00     0.032 A 
ATOM      5  C   UNL d   1       2.180   4.102  -3.006  0.00  0.00     0.003 A 
ATOM      6  C   UNL d   1       0.857   3.685  -3.010  0.00  0.00     0.002 A 
ENDROOT
BRANCH   2   7
ATOM      7  N   UNL d   1       0.727   1.237  -0.210  0.00  0.00    -0.374 N 
ATOM      8  C   UNL d   1       1.442   0.024   0.234  0.00  0.00     0.154 C 
ATOM      9  C   UNL d   1       0.645  -1.237  -0.176  0.00  0.00     0.136 C 
ATOM     10  C   UNL d   1       1.296  -2.495   0.382  0.00  0.00     0.041 C 
ATOM     11  O   UNL d   1      -0.712  -1.188   0.307  0.00  0.00    -0.378 OA
ATOM     12  C   UNL d   1      -1.394  -0.029  -0.211  0.00  0.00     0.136 C 
ATOM     13  C   UNL d   1      -0.680   1.263   0.237  0.00  0.00     0.154 C 
ATOM     14  C   UNL d   1      -2.828  -0.065   0.296  0.00  0.00     0.041 C 
ENDBRANCH   2   7
BRANCH   1  15
ATOM     15  N   UNL d   1       3.564   2.199  -0.150  0.00  0.00    -0.113 N 
ATOM     16  O   UNL d   1       3.354   2.474   1.041  0.00  0.00    -0.532 OA
ATOM     17  O   UNL d   1       4.574   1.622  -0.581  0.00  0.00    -0.532 OA
ENDBRANCH   1  15
TORSDOF 2
