REMARK  5 active torsions:
REMARK  status: ('A' for Active; 'I' for Inactive)
REMARK    1  A    between atoms: C_6  and  C_1 
REMARK    2  A    between atoms: C_2  and  C_5 
REMARK    3  A    between atoms: C_9  and  C_3 
REMARK    4  A    between atoms: C_4  and  C_9 
REMARK    5  A    between atoms: O_16  and  C_9 
ROOT
ATOM      1  C   UNL d   1       1.972   4.925   0.275  0.00  0.00     0.184 C 
ENDROOT
BRANCH   1   2
ATOM      2  C   UNL d   1       1.617   5.727   1.517  0.00  0.00    -0.024 A 
ATOM      3  C   UNL d   1       1.540   5.113   2.780  0.00  0.00     0.026 A 
ATOM      4  C   UNL d   1       1.240   5.856   3.932  0.00  0.00     0.048 A 
ATOM      5  C   UNL d   1       1.000   7.233   3.806  0.00  0.00     0.016 A 
ATOM      6  C   UNL d   1       1.068   7.852   2.560  0.00  0.00     0.001 A 
ATOM      7  C   UNL d   1       1.382   7.108   1.423  0.00  0.00     0.010 A 
BRANCH   4   8
ATOM      8  C   UNL d   1       1.185   5.202   5.290  0.00  0.00     0.417 C 
ATOM      9  F   UNL d   1       1.454   3.866   5.263  0.00  0.00    -0.166 F 
ATOM     10  F   UNL d   1       2.082   5.742   6.162  0.00  0.00    -0.166 F 
ATOM     11  F   UNL d   1      -0.034   5.326   5.884  0.00  0.00    -0.166 F 
ENDBRANCH   4   8
ENDBRANCH   1   2
BRANCH   1  12
ATOM     12  C   UNL d   1       1.017   3.772  -0.002  0.00  0.00    -0.024 A 
ATOM     13  C   UNL d   1       1.462   2.437  -0.036  0.00  0.00     0.026 A 
ATOM     14  C   UNL d   1       0.574   1.376  -0.255  0.00  0.00     0.048 A 
ATOM     15  C   UNL d   1      -0.783   1.660  -0.458  0.00  0.00     0.016 A 
ATOM     16  C   UNL d   1      -1.240   2.975  -0.444  0.00  0.00     0.001 A 
ATOM     17  C   UNL d   1      -0.347   4.026  -0.220  0.00  0.00     0.010 A 
BRANCH  14  18
ATOM     18  C   UNL d   1       1.060  -0.053  -0.266  0.00  0.00     0.417 C 
ATOM     19  F   UNL d   1       2.398  -0.180  -0.048  0.00  0.00    -0.166 F 
ATOM     20  F   UNL d   1       0.814  -0.680  -1.453  0.00  0.00    -0.166 F 
ATOM     21  F   UNL d   1       0.455  -0.812   0.689  0.00  0.00    -0.166 F 
ENDBRANCH  14  18
ENDBRANCH   1  12
BRANCH   1  22
ATOM     22  O   UNL d   1       3.315   4.444   0.386  0.00  0.00    -0.386 OA
ATOM     23  H   UNL d   1       3.649   4.683   1.266  0.00  0.00     0.210 HD
ENDBRANCH   1  22
TORSDOF 5
