REMARK  9 active torsions:
REMARK  status: ('A' for Active; 'I' for Inactive)
REMARK    1  A    between atoms: C2_2  and  C1_1 
REMARK       I    between atoms: N_13  and  C1_1 
REMARK    2  A    between atoms: S1_7  and  C3_3 
REMARK    3  A    between atoms: C10_10  and  S1_7 
REMARK    4  A    between atoms: CA_15  and  N_13 
REMARK    5  A    between atoms: C_14  and  CA_15 
REMARK    6  A    between atoms: OXT_17  and  C_14 
REMARK    7  A    between atoms: CB_18  and  CA_15 
REMARK    8  A    between atoms: CG_20  and  CB_18 
REMARK    9  A    between atoms: SD_19  and  CG_20 
ROOT
ATOM      1  C1  <1> d   1       1.058   0.059  -0.010  0.00  0.00     0.255 C 
ATOM      2  O1  <1> d   1       2.164   0.581  -0.036  0.00  0.00    -0.268 OA
ATOM      3  N   MET d   1       0.214   0.170   1.080  0.00  0.00    -0.342 N 
ATOM      4  H   MET d   1      -0.694  -0.280   1.040  0.00  0.00     0.163 HD
ENDROOT
BRANCH   1   5
ATOM      5  C2  <1> d   1       0.486  -0.617  -1.197  0.00  0.00     0.065 A 
ATOM      6  C3  <1> d   1       1.181  -1.555  -1.966  0.00  0.00     0.085 A 
ATOM      7  N2  <1> d   1       0.624  -2.113  -3.076  0.00  0.00    -0.360 N 
ATOM      8  C8  <1> d   1      -0.615  -1.728  -3.444  0.00  0.00     0.089 A 
ATOM      9  H2  <1> d   1       1.135  -2.810  -3.619  1.00  0.00     0.166 HD
ATOM     10  C12 <1> d   1      -1.364  -0.802  -2.747  0.00  0.00     0.018 A 
ATOM     11  C7  <1> d   1      -0.804  -0.236  -1.609  0.00  0.00     0.021 A 
BRANCH   6  12
ATOM     12  S1  <1> d   1       2.792  -2.200  -1.529  0.00  0.00    -0.112 SA
BRANCH  12  13
ATOM     13  C10 <1> d   1       3.360  -2.786  -3.163  0.00  0.00     0.076 C 
ATOM     14  C13 <1> d   1       4.754  -3.382  -3.064  0.00  0.00     0.016 C 
ENDBRANCH  12  13
ENDBRANCH   6  12
ENDBRANCH   1   5
BRANCH   3  15
ATOM     15  CA  MET d   1       0.609   0.817   2.345  0.00  0.00     0.183 C 
BRANCH  15  16
ATOM     16  C   MET d   1      -0.007   2.221   2.479  0.00  0.00     0.163 C 
ATOM     17  O   MET d   1      -0.170   2.811   3.539  0.00  0.00    -0.648 OA
BRANCH  16  18
ATOM     18  OXT MET d   1      -0.310   2.790   1.287  0.00  0.00    -0.775 OA
ATOM     19  HXT MET d   1       0.051   2.245   0.559  0.00  0.00     0.167 HD
ENDBRANCH  16  18
ENDBRANCH  15  16
BRANCH  15  20
ATOM     20  CB  MET d   1       0.290  -0.063   3.561  0.00  0.00     0.046 C 
BRANCH  20  21
ATOM     21  CG  MET d   1      -1.205  -0.302   3.784  0.00  0.00     0.076 C 
BRANCH  21  22
ATOM     22  SD  MET d   1      -1.518  -1.455   5.160  0.00  0.00    -0.173 SA
ATOM     23  CE  MET d   1      -1.045  -0.398   6.553  0.00  0.00     0.089 C 
ENDBRANCH  21  22
ENDBRANCH  20  21
ENDBRANCH  15  20
ENDBRANCH   3  15
TORSDOF 9
