REMARK  4 active torsions:
REMARK  status: ('A' for Active; 'I' for Inactive)
REMARK    1  A    between atoms: C_10  and  N_3 
REMARK    2  A    between atoms: C_13  and  C_6 
REMARK       I    between atoms: C_8  and  N_12 
REMARK       I    between atoms: N_9  and  C_8 
REMARK    3  A    between atoms: C_11  and  C_10 
REMARK       I    between atoms: N_14  and  C_11 
REMARK    4  A    between atoms: N_12  and  N_14 
ROOT
ATOM      1  C   UNL d   1       1.943  -1.122  -0.121  0.00  0.00     0.271 C 
ENDROOT
BRANCH   1   2
ATOM      2  N   UNL d   1       0.689  -0.442   0.084  0.00  0.00    -0.207 N 
ATOM      3  N   UNL d   1       0.569   0.545   0.990  0.00  0.00    -0.268 N 
ATOM      4  C   UNL d   1      -0.671   0.988   0.713  0.00  0.00     0.144 A 
ATOM      5  HN  UNL d   1       1.234   0.868   1.693  1.00  0.00     0.190 HD
ATOM      6  N   UNL d   1      -1.238   0.314  -0.346  0.00  0.00    -0.266 N 
ATOM      7  N   UNL d   1      -0.348  -0.577  -0.761  0.00  0.00    -0.002 NA
ATOM      8  HN  UNL d   1      -2.167   0.472  -0.738  1.00  0.00     0.186 HD
BRANCH   4   9
ATOM      9  C   UNL d   1      -1.358   2.023   1.474  0.00  0.00     0.010 A 
ATOM     10  C   UNL d   1      -2.723   2.271   1.282  0.00  0.00     0.016 A 
ATOM     11  C   UNL d   1      -3.396   3.196   2.089  0.00  0.00     0.007 A 
ATOM     12  C   UNL d   1      -2.715   3.894   3.094  0.00  0.00    -0.062 A 
ATOM     13  C   UNL d   1      -1.343   3.682   3.256  0.00  0.00     0.007 A 
ATOM     14  C   UNL d   1      -3.460   4.830   3.999  0.00  0.00     0.048 C 
ATOM     15  C   UNL d   1      -0.672   2.756   2.453  0.00  0.00     0.016 A 
ENDBRANCH   4   9
ENDBRANCH   1   2
BRANCH   1  16
ATOM     16  C   UNL d   1       1.884  -2.626  -0.097  0.00  0.00     0.257 C 
ATOM     17  N   UNL d   1       0.731  -3.264  -0.495  0.00  0.00    -0.265 N 
ATOM     18  H   UNL d   1      -0.192  -2.823  -0.555  0.00  0.00     0.190 HD
ATOM     19  O   UNL d   1       2.897  -3.284   0.165  0.00  0.00    -0.270 OA
BRANCH  17  20
ATOM     20  N   UNL d   1       0.764  -4.677  -0.546  0.00  0.00    -0.249 N 
ATOM     21  C   UNL d   1      -0.316  -5.370  -0.040  0.00  0.00     0.337 C 
ATOM     22  N   UNL d   1      -0.176  -6.745  -0.051  0.00  0.00    -0.329 N 
ATOM     23  O   UNL d   1      -1.326  -4.793   0.359  0.00  0.00    -0.245 OA
ATOM     24  C   UNL d   1       0.900  -7.504  -0.705  0.00  0.00     0.153 C 
ATOM     25  C   UNL d   1      -1.182  -7.587   0.600  0.00  0.00     0.153 C 
ATOM     26  C   UNL d   1       0.316  -8.599  -1.606  0.00  0.00     0.187 C 
ATOM     27  O   UNL d   1      -0.583  -9.447  -0.876  0.00  0.00    -0.388 OA
ATOM     28  C   UNL d   1      -1.680  -8.682  -0.349  0.00  0.00     0.187 C 
ATOM     29  H   UNL d   1       1.677  -5.051  -0.294  0.00  0.00     0.192 HD
ENDBRANCH  17  20
ENDBRANCH   1  16
TORSDOF 4
