REMARK  3 active torsions:
REMARK  status: ('A' for Active; 'I' for Inactive)
REMARK    1  A    between atoms: N_2  and  C_1 
REMARK    2  A    between atoms: N_10  and  C_3 
REMARK    3  A    between atoms: N_4  and  C_5 
ROOT
ATOM      1  C   UNL d   1      -1.220   1.207  -0.019  0.00  0.00     0.132 A 
ATOM      2  C   UNL d   1      -1.991   0.030  -0.053  0.00  0.00     0.065 A 
ATOM      3  C   UNL d   1       0.182  -1.233   0.021  0.00  0.00     0.071 A 
ATOM      4  C   UNL d   1       0.182   1.205  -0.002  0.00  0.00     0.083 A 
ATOM      5  C   UNL d   1      -1.228  -1.168  -0.046  0.00  0.00     0.064 A 
ATOM      6  C   UNL d   1       0.858  -0.006   0.018  0.00  0.00     0.145 A 
ATOM      7  F   UNL d   1       2.197   0.040   0.113  0.00  0.00    -0.204 F 
ENDROOT
BRANCH   3   8
ATOM      8  N   UNL d   1       0.844  -2.448   0.133  0.00  0.00    -0.378 N 
ATOM      9  C   UNL d   1       0.206  -3.614   0.748  0.00  0.00     0.127 C 
ATOM     10  C   UNL d   1       1.211  -4.291   1.692  0.00  0.00    -0.001 C 
ATOM     11  C   UNL d   1       0.596  -5.530   2.338  0.00  0.00     0.011 C 
ATOM     12  C   UNL d   1       2.507  -4.637   0.946  0.00  0.00     0.007 C 
ATOM     13  C   UNL d   1       3.091  -3.396   0.265  0.00  0.00     0.020 C 
ATOM     14  C   UNL d   1       2.060  -2.718  -0.639  0.00  0.00     0.123 C 
ENDBRANCH   3   8
BRANCH   2  15
ATOM     15  N   UNL d   1      -3.374  -0.065  -0.135  0.00  0.00    -0.388 N 
ATOM     16  C   UNL d   1      -4.221   0.967  -0.730  0.00  0.00     0.149 C 
ATOM     17  C   UNL d   1      -4.100  -1.128   0.563  0.00  0.00     0.149 C 
ENDBRANCH   2  15
BRANCH   1  18
ATOM     18  N   UNL d   1      -1.823   2.519   0.096  0.00  0.00    -0.113 N 
ATOM     19  O   UNL d   1      -2.420   2.789   1.148  0.00  0.00    -0.532 OA
ATOM     20  O   UNL d   1      -1.649   3.299  -0.850  0.00  0.00    -0.532 OA
ENDBRANCH   1  18
TORSDOF 3
