REMARK  5 active torsions:
REMARK  status: ('A' for Active; 'I' for Inactive)
REMARK    1  A    between atoms: C_2  and  N_1 
REMARK    2  A    between atoms: C_8  and  C_3 
REMARK    3  A    between atoms: O_14  and  C_8 
REMARK    4  A    between atoms: O_15  and  C_9 
REMARK    5  A    between atoms: O_16  and  C_10 
ROOT
ATOM      1  C   UNL d   1       0.016  -2.325  -0.289  0.00  0.00     0.064 A 
ATOM      2  C   UNL d   1      -0.690  -2.872  -1.375  0.00  0.00     0.069 A 
ATOM      3  C   UNL d   1       0.762  -3.192   0.527  0.00  0.00     0.071 A 
ATOM      4  C   UNL d   1      -0.611  -4.255  -1.634  0.00  0.00     0.059 A 
ATOM      5  C   UNL d   1       0.831  -4.570   0.273  0.00  0.00     0.103 A 
ATOM      6  C   UNL d   1       0.132  -5.115  -0.815  0.00  0.00     0.102 A 
ENDROOT
BRANCH   1   7
ATOM      7  N   UNL d   1       0.019  -0.918   0.005  0.00  0.00    -0.251 N 
ATOM      8  C   UNL d   1       1.261  -0.269   0.038  0.00  0.00     0.231 C 
ATOM      9  O   UNL d   1       2.353  -0.837  -0.049  0.00  0.00    -0.273 OA
ATOM     10  C   UNL d   1       1.236   1.230   0.229  0.00  0.00     0.104 C 
ATOM     11  C   UNL d   1      -0.053   1.838  -0.274  0.00  0.00     0.019 C 
ATOM     12  C   UNL d   1      -1.204   1.190   0.461  0.00  0.00     0.104 C 
ATOM     13  C   UNL d   1      -1.220  -0.307   0.252  0.00  0.00     0.231 C 
ATOM     14  O   UNL d   1      -2.274  -0.929   0.407  0.00  0.00    -0.273 OA
ENDBRANCH   1   7
BRANCH   2  15
ATOM     15  C   UNL d   1      -1.424  -2.014  -2.343  0.00  0.00     0.295 C 
ATOM     16  O   UNL d   1      -1.138  -0.849  -2.582  0.00  0.00    -0.259 OA
BRANCH  15  17
ATOM     17  O   UNL d   1      -2.433  -2.717  -2.914  0.00  0.00    -0.322 OA
ATOM     18  C   UNL d   1      -3.214  -1.996  -3.868  0.00  0.00     0.213 C 
ENDBRANCH  15  17
ENDBRANCH   2  15
BRANCH   5  19
ATOM     19  O   UNL d   1       1.575  -5.253   1.202  0.00  0.00    -0.353 OA
ATOM     20  C   UNL d   1       2.280  -6.400   0.743  0.00  0.00     0.210 C 
ENDBRANCH   5  19
BRANCH   6  21
ATOM     21  O   UNL d   1       0.195  -6.468  -1.010  0.00  0.00    -0.353 OA
ATOM     22  C   UNL d   1      -0.516  -7.026  -2.108  0.00  0.00     0.210 C 
ENDBRANCH   6  21
TORSDOF 5
