REMARK  7 active torsions:
REMARK  status: ('A' for Active; 'I' for Inactive)
REMARK    1  A    between atoms: C_2  and  S_1 
REMARK    2  A    between atoms: N_7  and  S_1 
REMARK    3  A    between atoms: C_10  and  C_3 
REMARK    4  A    between atoms: C_5  and  S_11 
REMARK    5  A    between atoms: C_16  and  N_7 
REMARK    6  A    between atoms: O_26  and  C_10 
REMARK    7  A    between atoms: S_11  and  C_18 
ROOT
ATOM      1  C   UNL d   1       0.591  -2.497  -0.500  0.00  0.00     0.040 C 
ATOM      2  C   UNL d   1       1.945  -2.807  -0.245  0.00  0.00     0.029 C 
ATOM      3  C   UNL d   1      -0.072  -3.074  -1.589  0.00  0.00     0.026 C 
ATOM      4  C   UNL d   1       2.639  -3.523  -1.228  0.00  0.00     0.021 C 
ATOM      5  C   UNL d   1       0.615  -3.877  -2.493  0.00  0.00     0.002 C 
ATOM      6  C   UNL d   1       1.980  -4.073  -2.330  0.00  0.00     0.001 C 
ENDROOT
BRANCH   1   7
ATOM      7  N   UNL d   1      -0.137  -1.491   0.227  0.00  0.00    -0.180 NA
ATOM      8  H   UNL d   1       0.203  -1.386   1.186  0.00  0.00     0.146 HD
BRANCH   7   9
ATOM      9  S   UNL d   1      -0.153   0.072  -0.451  0.00  0.00     0.247 S 
ATOM     10  O   UNL d   1      -1.000   0.904   0.377  0.00  0.00    -0.205 OA
ATOM     11  O   UNL d   1       1.220   0.455  -0.710  0.00  0.00    -0.205 OA
BRANCH   9  12
ATOM     12  C   UNL d   1      -0.912   0.186  -2.021  0.00  0.00     0.098 A 
ATOM     13  C   UNL d   1      -2.229  -0.138  -2.317  0.00  0.00     0.102 A 
ATOM     14  S   UNL d   1      -2.594   0.224  -3.966  0.00  0.00    -0.094 SA
ATOM     15  C   UNL d   1      -1.058   0.899  -4.249  0.00  0.00     0.052 A 
ATOM     16  C   UNL d   1      -0.253   0.808  -3.139  0.00  0.00     0.033 A 
BRANCH  13  17
ATOM     17  C   UNL d   1      -3.245  -0.725  -1.458  0.00  0.00     0.301 C 
ATOM     18  O   UNL d   1      -3.028  -1.351  -0.433  0.00  0.00    -0.259 OA
BRANCH  17  19
ATOM     19  O   UNL d   1      -4.495  -0.514  -1.972  0.00  0.00    -0.322 OA
ATOM     20  C   UNL d   1      -5.559  -1.098  -1.225  0.00  0.00     0.213 C 
ENDBRANCH  17  19
ENDBRANCH  13  17
ENDBRANCH   9  12
ENDBRANCH   7   9
ENDBRANCH   1   7
BRANCH   2  21
ATOM     21  S   UNL d   1       2.855  -2.166   1.140  0.00  0.00    -0.069 SA
BRANCH  21  22
ATOM     22  C   UNL d   1       3.216  -3.424   2.358  0.00  0.00     0.095 A 
ATOM     23  C   UNL d   1       3.574  -4.774   2.176  0.00  0.00     0.066 A 
ATOM     24  S   UNL d   1       3.557  -5.826   0.817  0.00  0.00    -0.096 SA
ATOM     25  C   UNL d   1       4.075  -5.483   3.284  0.00  0.00     0.059 A 
ATOM     26  C   UNL d   1       4.214  -7.140   1.669  0.00  0.00     0.059 A 
ATOM     27  C   UNL d   1       4.490  -6.829   2.981  0.00  0.00    -0.027 A 
ATOM     28  C   UNL d   1       5.127  -7.772   3.951  0.00  0.00     0.051 C 
ATOM     29  N   UNL d   1       4.189  -4.938   4.519  0.00  0.00    -0.351 N 
ATOM     30  C   UNL d   1       3.784  -3.677   4.607  0.00  0.00     0.181 A 
ATOM     31  HN  UNL d   1       4.556  -5.456   5.317  1.00  0.00     0.166 HD
ATOM     32  N   UNL d   1       3.321  -2.911   3.616  0.00  0.00    -0.345 N 
ATOM     33  HN  UNL d   1       3.046  -1.946   3.800  1.00  0.00     0.167 HD
ENDBRANCH  21  22
ENDBRANCH   2  21
TORSDOF 7
