REMARK  7 active torsions:
REMARK  status: ('A' for Active; 'I' for Inactive)
REMARK    1  A    between atoms: C_25  and  C_2 
REMARK    2  A    between atoms: C_6  and  C_19 
REMARK    3  A    between atoms: C_8  and  C_13 
REMARK       I    between atoms: N_18  and  C_8 
REMARK    4  A    between atoms: N_10  and  N_18 
REMARK    5  A    between atoms: C_13  and  O_14 
REMARK    6  A    between atoms: O_14  and  C_15 
REMARK    7  A    between atoms: C_30  and  C_25 
ROOT
ATOM      1  C   UNL d   1       3.579   3.205  -0.527  0.00  0.00     0.218 C 
ATOM      2  C   UNL d   1       5.006   3.498  -0.990  0.00  0.00     0.050 C 
ENDROOT
BRANCH   1   3
ATOM      3  C   UNL d   1       3.057   4.419   0.269  0.00  0.00     0.265 C 
ATOM      4  N   UNL d   1       2.578   4.117   1.538  0.00  0.00    -0.268 N 
ATOM      5  H   UNL d   1       2.623   3.166   1.891  0.00  0.00     0.190 HD
ATOM      6  O   UNL d   1       3.054   5.545  -0.230  0.00  0.00    -0.269 OA
BRANCH   4   7
ATOM      7  N   UNL d   1       2.039   5.115   2.294  0.00  0.00    -0.308 N 
ATOM      8  C   UNL d   1       1.545   4.796   3.444  0.00  0.00     0.122 C 
ATOM      9  HN  UNL d   1       2.025   6.079   1.963  1.00  0.00     0.186 HD
BRANCH   8  10
ATOM     10  C   UNL d   1       0.967   5.825   4.349  0.00  0.00     0.024 A 
ATOM     11  C   UNL d   1       0.273   6.945   3.857  0.00  0.00     0.047 A 
ATOM     12 CL   UNL d   1      -0.171   7.153   2.200  0.00  0.00    -0.083 Cl
ATOM     13  C   UNL d   1      -0.173   7.941   4.741  0.00  0.00     0.025 A 
ATOM     14  C   UNL d   1       0.044   7.824   6.111  0.00  0.00     0.003 A 
ATOM     15  C   UNL d   1       0.692   6.697   6.607  0.00  0.00     0.025 A 
ATOM     16  C   UNL d   1       1.150   5.699   5.734  0.00  0.00     0.047 A 
ATOM     17 CL   UNL d   1       1.962   4.352   6.455  0.00  0.00    -0.083 Cl
ENDBRANCH   8  10
ENDBRANCH   4   7
ENDBRANCH   1   3
BRANCH   1  18
ATOM     18  O   UNL d   1       3.636   1.975   0.194  0.00  0.00    -0.337 OA
BRANCH  18  19
ATOM     19  C   UNL d   1       2.590   1.113   0.017  0.00  0.00     0.072 A 
ATOM     20  C   UNL d   1       1.269   1.501  -0.168  0.00  0.00     0.075 A 
ATOM     21  C   UNL d   1       0.271   0.524  -0.183  0.00  0.00     0.092 A 
ATOM     22  O   UNL d   1      -1.048   1.007  -0.272  0.00  0.00    -0.275 OA
ATOM     23  C   UNL d   1       0.547  -0.840  -0.060  0.00  0.00     0.004 A 
ATOM     24  C   UNL d   1      -2.124   0.151  -0.142  0.00  0.00     0.288 C 
ATOM     25  O   UNL d   1      -3.281   0.552  -0.086  0.00  0.00    -0.260 OA
ATOM     26  C   UNL d   1      -1.822  -1.287  -0.098  0.00  0.00     0.090 C 
ATOM     27  C   UNL d   1      -0.577  -1.788  -0.067  0.00  0.00    -0.039 C 
ATOM     28  C   UNL d   1       1.887  -1.213   0.087  0.00  0.00     0.017 A 
ATOM     29  C   UNL d   1       2.897  -0.243   0.142  0.00  0.00     0.038 A 
BRANCH  27  30
ATOM     30  C   UNL d   1      -0.348  -3.280  -0.076  0.00  0.00     0.039 C 
BRANCH  30  31
ATOM     31  C   UNL d   1      -0.212  -3.868   1.331  0.00  0.00     0.000 C 
ATOM     32  C   UNL d   1       0.045  -5.367   1.277  0.00  0.00     0.005 C 
ENDBRANCH  30  31
ENDBRANCH  27  30
ENDBRANCH  18  19
ENDBRANCH   1  18
TORSDOF 7
