REMARK  9 active torsions:
REMARK  status: ('A' for Active; 'I' for Inactive)
REMARK    1  A    between atoms: C_8  and  N_1 
REMARK    2  A    between atoms: S_7  and  C_2 
REMARK    3  A    between atoms: C_14  and  S_7 
REMARK    4  A    between atoms: C_9  and  C_14 
REMARK       I    between atoms: N_11  and  C_9 
REMARK    5  A    between atoms: C_10  and  C_17 
REMARK    6  A    between atoms: O_21  and  C_10 
REMARK    7  A    between atoms: C_17  and  N_11 
REMARK    8  A    between atoms: O_22  and  C_18 
REMARK    9  A    between atoms: C_23  and  O_21 
ROOT
ATOM      1  N   UNL d   1       0.468   0.460   0.028  0.00  0.00    -0.219 N 
ATOM      2  C   UNL d   1       0.957  -0.838   0.068  0.00  0.00     0.177 C 
ATOM      3  N   UNL d   1       0.018  -1.637   0.525  0.00  0.00    -0.264 N 
ATOM      4  HN  UNL d   1       0.069  -2.651   0.622  1.00  0.00     0.186 HD
ATOM      5  N   UNL d   1      -1.040  -0.833   0.844  0.00  0.00    -0.006 NA
ATOM      6  N   UNL d   1      -0.761   0.440   0.610  0.00  0.00     0.001 NA
ENDROOT
BRANCH   2   7
ATOM      7  S   UNL d   1       2.605  -1.311  -0.203  0.00  0.00    -0.082 SA
BRANCH   7   8
ATOM      8  C   UNL d   1       2.477  -3.116  -0.035  0.00  0.00     0.185 C 
BRANCH   8   9
ATOM      9  C   UNL d   1       3.812  -3.843  -0.136  0.00  0.00     0.227 C 
ATOM     10  N   UNL d   1       4.942  -3.089  -0.296  0.00  0.00    -0.351 N 
ATOM     11  H   UNL d   1       4.872  -2.074  -0.307  0.00  0.00     0.163 HD
ATOM     12  O   UNL d   1       3.866  -5.072  -0.063  0.00  0.00    -0.273 OA
BRANCH  10  13
ATOM     13  C   UNL d   1       6.271  -3.684  -0.304  0.00  0.00     0.233 C 
BRANCH  13  14
ATOM     14  C   UNL d   1       7.397  -2.659  -0.261  0.00  0.00     0.276 C 
ATOM     15  O   UNL d   1       8.585  -2.949  -0.186  0.00  0.00    -0.263 OA
BRANCH  14  16
ATOM     16  O   UNL d   1       6.899  -1.386  -0.269  0.00  0.00    -0.321 OA
BRANCH  16  17
ATOM     17  C   UNL d   1       7.827  -0.355   0.102  0.00  0.00     0.174 C 
ATOM     18  C   UNL d   1       7.778  -0.206   1.611  0.00  0.00     0.034 C 
ENDBRANCH  16  17
ENDBRANCH  14  16
ENDBRANCH  13  14
ENDBRANCH  10  13
ENDBRANCH   8   9
ENDBRANCH   7   8
ENDBRANCH   2   7
BRANCH   1  19
ATOM     19  C   UNL d   1       0.990   1.667  -0.507  0.00  0.00     0.057 A 
ATOM     20  C   UNL d   1       1.948   1.663  -1.529  0.00  0.00     0.034 A 
ATOM     21  C   UNL d   1       2.413   2.869  -2.059  0.00  0.00     0.039 A 
ATOM     22  C   UNL d   1       1.924   4.075  -1.573  0.00  0.00     0.065 A 
ATOM     23  C   UNL d   1       0.970   4.100  -0.563  0.00  0.00     0.039 A 
ATOM     24  C   UNL d   1       0.492   2.895  -0.038  0.00  0.00     0.034 A 
BRANCH  22  25
ATOM     25  O   UNL d   1       2.403   5.221  -2.131  0.00  0.00    -0.361 OA
ATOM     26  H   UNL d   1       1.929   5.978  -1.749  0.00  0.00     0.217 HD
ENDBRANCH  22  25
ENDBRANCH   1  19
TORSDOF 9
