REMARK  3 active torsions:
REMARK  status: ('A' for Active; 'I' for Inactive)
REMARK    1  A    between atoms: C2_3  and  C1_1 
REMARK    2  A    between atoms: O2_8  and  C2_3 
REMARK    3  A    between atoms: C5_9  and  C3_5 
ROOT
ATOM      1  C1  <1> d   1      -1.379   0.904   0.087  0.00  0.00     0.327 C 
ATOM      2  N1  <1> d   1      -1.457  -0.586   0.240  0.00  0.00     0.113 N 
ATOM      3  S1  <1> d   1       1.098  -0.072   0.058  0.00  0.00    -0.131 SA
ATOM      4  C3  <1> d   1      -0.262  -1.186  -0.356  0.00  0.00     0.282 C 
ATOM      5  C4  <1> d   1       0.059   1.399  -0.082  0.00  0.00     0.122 C 
ATOM      6  H2  <1> d   1      -2.293  -0.925  -0.240  0.00  0.00     0.318 HD
ENDROOT
BRANCH   1   7
ATOM      7  C2  <1> d   1      -1.995   1.555   1.330  0.00  0.00     0.175 C 
ATOM      8  O1  <1> d   1      -2.156   2.755   1.478  0.00  0.00    -0.648 OA
BRANCH   7   9
ATOM      9  O2  <1> d   1      -2.348   0.636   2.267  0.00  0.00    -0.775 OA
ATOM     10  H6  <1> d   1      -2.063  -0.242   1.912  0.00  0.00     0.167 HD
ENDBRANCH   7   9
ENDBRANCH   1   7
BRANCH   4  11
ATOM     11  C5  <1> d   1      -0.336  -1.371  -1.882  0.00  0.00     0.042 C 
ATOM     12  C6  <1> d   1      -1.435  -2.331  -2.321  0.00  0.00     0.008 C 
ENDBRANCH   4  11
TORSDOF 3
