REMARK  6 active torsions:
REMARK  status: ('A' for Active; 'I' for Inactive)
REMARK    1  A    between atoms: C_7  and  N_1 
REMARK    2  A    between atoms: C_2  and  C_3 
REMARK    3  A    between atoms: N_19  and  C_3 
REMARK    4  A    between atoms: N_4  and  O_8 
REMARK    5  A    between atoms: C_6  and  C_11 
REMARK    6  A    between atoms: O_8  and  C_6 
ROOT
ATOM      1  C   UNL d   1      -4.386  -2.837  -4.117  0.00  0.00     0.112 C 
ATOM      2  N   UNL d   1      -3.143  -3.052  -3.813  0.00  0.00    -0.245 N 
ATOM      3  HN  UNL d   1      -2.602  -3.839  -4.170  1.00  0.00     0.196 HD
ENDROOT
BRANCH   2   4
ATOM      4  O   UNL d   1      -2.621  -2.081  -2.936  0.00  0.00    -0.193 OA
BRANCH   4   5
ATOM      5  C   UNL d   1      -1.265  -2.059  -3.076  0.00  0.00     0.315 C 
ATOM      6  O   UNL d   1      -0.636  -2.219  -4.116  0.00  0.00    -0.257 OA
BRANCH   5   7
ATOM      7  C   UNL d   1      -0.590  -1.828  -1.768  0.00  0.00     0.041 A 
ATOM      8  C   UNL d   1      -1.274  -1.821  -0.543  0.00  0.00     0.020 A 
ATOM      9  C   UNL d   1      -0.566  -1.694   0.660  0.00  0.00     0.037 A 
ATOM     10  C   UNL d   1       0.832  -1.575   0.636  0.00  0.00     0.102 A 
ATOM     11  C   UNL d   1       1.522  -1.568  -0.582  0.00  0.00     0.037 A 
ATOM     12  C   UNL d   1       0.809  -1.696  -1.776  0.00  0.00     0.020 A 
BRANCH  10  13
ATOM     13  N   UNL d   1       1.582  -1.476   1.895  0.00  0.00    -0.116 N 
ATOM     14  O   UNL d   1       2.815  -1.387   1.826  0.00  0.00    -0.532 OA
ATOM     15  O   UNL d   1       0.934  -1.490   2.952  0.00  0.00    -0.532 OA
ENDBRANCH  10  13
ENDBRANCH   5   7
ENDBRANCH   4   5
ENDBRANCH   2   4
BRANCH   1  16
ATOM     16  C   UNL d   1      -5.078  -3.905  -4.903  0.00  0.00     0.047 A 
ATOM     17  C   UNL d   1      -5.037  -5.242  -4.463  0.00  0.00     0.049 A 
ATOM     18 CL   UNL d   1      -4.318  -5.733  -2.964  0.00  0.00    -0.083 Cl
ATOM     19  C   UNL d   1      -5.649  -6.255  -5.212  0.00  0.00     0.025 A 
ATOM     20  C   UNL d   1      -6.320  -5.951  -6.393  0.00  0.00     0.003 A 
ATOM     21  C   UNL d   1      -6.382  -4.630  -6.829  0.00  0.00     0.025 A 
ATOM     22  C   UNL d   1      -5.761  -3.609  -6.094  0.00  0.00     0.049 A 
ATOM     23 CL   UNL d   1      -5.869  -2.009  -6.746  0.00  0.00    -0.083 Cl
ENDBRANCH   1  16
BRANCH   1  24
ATOM     24  N   UNL d   1      -5.072  -1.696  -3.766  0.00  0.00    -0.286 NA
ATOM     25  H   UNL d   1      -5.758  -1.380  -4.447  0.00  0.00     0.125 HD
ATOM     26  H   UNL d   1      -4.440  -0.943  -3.511  0.00  0.00     0.125 HD
ENDBRANCH   1  24
TORSDOF 6
