REMARK  1 active torsions:
REMARK  status: ('A' for Active; 'I' for Inactive)
REMARK       I    between atoms: N_2  and  C_1 
REMARK       I    between atoms: N_3  and  C_1 
REMARK    1  A    between atoms: C_5  and  N_2 
ROOT
ATOM      1  C   UNL d   1       1.161   2.424  -0.561  0.00  0.00     0.036 A 
ATOM      2  C   UNL d   1       2.229   2.485  -1.461  0.00  0.00     0.036 A 
ATOM      3  C   UNL d   1       2.843   3.706  -1.778  0.00  0.00    -0.060 A 
ATOM      4  C   UNL d   1       1.275   4.841  -0.330  0.00  0.00     0.003 A 
ATOM      5  C   UNL d   1       0.672   3.618  -0.018  0.00  0.00     0.029 A 
ATOM      6  C   UNL d   1       2.363   4.884  -1.199  0.00  0.00     0.007 A 
ATOM      7  C   UNL d   1       4.030   3.742  -2.697  0.00  0.00     0.048 C 
ENDROOT
BRANCH   1   8
ATOM      8  N   UNL d   1       0.551   1.213  -0.156  0.00  0.00    -0.309 N 
ATOM      9  C   UNL d   1       1.060  -0.055  -0.328  0.00  0.00     0.322 C 
ATOM     10  N   UNL d   1       0.236  -1.093   0.099  0.00  0.00    -0.343 N 
ATOM     11  O   UNL d   1       2.172  -0.291  -0.798  0.00  0.00    -0.247 OA
ATOM     12  C   UNL d   1       0.779  -2.444   0.070  0.00  0.00     0.154 C 
ATOM     13  C   UNL d   1      -1.167  -0.999   0.475  0.00  0.00     0.154 C 
ATOM     14  H   UNL d   1      -0.177   1.308   0.532  0.00  0.00     0.170 HD
ENDBRANCH   1   8
TORSDOF 1
