REMARK  2 active torsions:
REMARK  status: ('A' for Active; 'I' for Inactive)
REMARK    1  A    between atoms: N_5  and  C_1 
REMARK    2  A    between atoms: C_4  and  N_5 
ROOT
ATOM      1  N   UNL d   1      -0.389   2.666  -0.256  0.00  0.00    -0.337 N 
ATOM      2  H   UNL d   1      -1.390   2.784  -0.163  0.00  0.00     0.168 HD
ENDROOT
BRANCH   1   3
ATOM      3  C   UNL d   1       0.356   3.822  -0.545  0.00  0.00     0.037 A 
ATOM      4  C   UNL d   1       1.637   3.778  -1.116  0.00  0.00     0.053 A 
ATOM      5  C   UNL d   1       2.383   4.941  -1.314  0.00  0.00     0.037 A 
ATOM      6 CL   UNL d   1       3.948   4.837  -2.021  0.00  0.00    -0.084 Cl
ATOM      7  C   UNL d   1       1.874   6.178  -0.942  0.00  0.00     0.048 A 
ATOM      8  C   UNL d   1       0.607   6.237  -0.371  0.00  0.00     0.037 A 
ATOM      9  C   UNL d   1      -0.147   5.076  -0.171  0.00  0.00     0.053 A 
ATOM     10 CL   UNL d   1      -0.034   7.762   0.108  0.00  0.00    -0.084 Cl
ENDBRANCH   1   3
BRANCH   1  11
ATOM     11  C   UNL d   1       0.069   1.380  -0.124  0.00  0.00     0.140 C 
ATOM     12  N   UNL d   1       1.306   1.057  -0.059  0.00  0.00    -0.371 N 
ATOM     13  C   UNL d   1       1.844  -0.275   0.098  0.00  0.00     0.122 C 
ATOM     14  HN  UNL d   1       1.981   1.818  -0.126  1.00  0.00     0.161 HD
ATOM     15  C   UNL d   1       0.919  -1.370  -0.380  0.00  0.00     0.030 C 
ATOM     16  C   UNL d   1      -0.400  -1.291   0.352  0.00  0.00     0.084 C 
ATOM     17  S   UNL d   1      -1.263   0.243  -0.034  0.00  0.00    -0.094 SA
ENDBRANCH   1  11
TORSDOF 2
