REMARK  6 active torsions:
REMARK  status: ('A' for Active; 'I' for Inactive)
REMARK    1  A    between atoms: C_9  and  C_1 
REMARK    2  A    between atoms: O_8  and  C_2 
REMARK    3  A    between atoms: C_5  and  C_6 
REMARK    4  A    between atoms: C_6  and  O_8 
REMARK    5  A    between atoms: O_17  and  C_7 
REMARK    6  A    between atoms: O_19  and  C_9 
ROOT
ATOM      1  C   UNL d   1      -0.388   1.116  -0.592  0.00  0.00     0.116 A 
ATOM      2  C   UNL d   1       0.971   0.900  -0.721  0.00  0.00     0.105 A 
ATOM      3  C   UNL d   1       1.361  -0.421  -0.347  0.00  0.00     0.083 A 
ATOM      4  S   UNL d   1      -1.137  -0.255   0.123  0.00  0.00    -0.057 SA
ATOM      5  C   UNL d   1       0.292  -1.190   0.070  0.00  0.00     0.112 A 
ENDROOT
BRANCH   2   6
ATOM      6  O   UNL d   1       1.812   1.790  -1.302  0.00  0.00    -0.273 OA
BRANCH   6   7
ATOM      7  C   UNL d   1       2.463   2.656  -0.483  0.00  0.00     0.300 C 
ATOM      8  O   UNL d   1       2.273   2.848   0.710  0.00  0.00    -0.259 OA
BRANCH   7   9
ATOM      9  C   UNL d   1       3.433   3.447  -1.282  0.00  0.00     0.061 A 
ATOM     10  C   UNL d   1       4.334   2.866  -2.188  0.00  0.00     0.051 A 
ATOM     11  C   UNL d   1       5.213   3.676  -2.919  0.00  0.00     0.048 A 
ATOM     12 CL   UNL d   1       4.484   1.158  -2.410  0.00  0.00    -0.083 Cl
ATOM     13  C   UNL d   1       5.213   5.054  -2.729  0.00  0.00     0.035 A 
ATOM     14  C   UNL d   1       4.351   5.640  -1.804  0.00  0.00     0.025 A 
ATOM     15 CL   UNL d   1       6.296   6.040  -3.634  0.00  0.00    -0.084 Cl
ATOM     16  C   UNL d   1       3.464   4.837  -1.078  0.00  0.00     0.021 A 
ENDBRANCH   7   9
ENDBRANCH   6   7
ENDBRANCH   2   6
BRANCH   1  17
ATOM     17  C   UNL d   1      -1.178   2.263  -1.006  0.00  0.00     0.302 C 
ATOM     18  O   UNL d   1      -0.735   3.261  -1.568  0.00  0.00    -0.259 OA
BRANCH  17  19
ATOM     19  O   UNL d   1      -2.498   2.048  -0.751  0.00  0.00    -0.322 OA
ATOM     20  C   UNL d   1      -3.457   2.943  -1.310  0.00  0.00     0.213 C 
ENDBRANCH  17  19
ENDBRANCH   1  17
BRANCH   5  21
ATOM     21  O   UNL d   1       0.181  -2.478   0.417  0.00  0.00    -0.349 OA
ATOM     22  C   UNL d   1       1.313  -3.306   0.210  0.00  0.00     0.211 C 
ENDBRANCH   5  21
TORSDOF 6
