REMARK  4 active torsions:
REMARK  status: ('A' for Active; 'I' for Inactive)
REMARK    1  A    between atoms: C_10  and  C_2 
REMARK    2  A    between atoms: S_13  and  C_5 
REMARK    3  A    between atoms: C_11  and  C_12 
REMARK    4  A    between atoms: C_18  and  S_13 
ROOT
ATOM      1  C   UNL d   1       1.550  -4.742   1.533  0.00  0.00    -0.107 C 
ATOM      2  C   UNL d   1       1.631  -5.821   2.059  0.00  0.00     0.013 C 
ATOM      3  C   UNL d   1       1.451  -3.422   0.886  0.00  0.00     0.175 C 
ENDROOT
BRANCH   3   4
ATOM      4  S   UNL d   1      -0.094  -2.587   1.363  0.00  0.00    -0.080 SA
BRANCH   4   5
ATOM      5  C   UNL d   1       0.028  -1.127   0.465  0.00  0.00     0.161 A 
ATOM      6  N   UNL d   1      -0.643  -0.018   0.863  0.00  0.00    -0.320 N 
ATOM      7  C   UNL d   1      -0.321   0.978  -0.027  0.00  0.00     0.132 A 
ATOM      8  H   UNL d   1      -1.235   0.053   1.672  0.00  0.00     0.169 HD
ATOM      9  N   UNL d   1       0.480   0.449  -0.942  0.00  0.00    -0.283 N 
ATOM     10  N   UNL d   1       0.706  -0.877  -0.624  0.00  0.00    -0.278 N 
ATOM     11  HN  UNL d   1       0.865   0.940  -1.749  1.00  0.00     0.188 HD
ATOM     12  HN  UNL d   1       1.291  -1.535  -1.140  1.00  0.00     0.189 HD
BRANCH   7  13
ATOM     13  C   UNL d   1      -0.772   2.372   0.052  0.00  0.00     0.009 A 
ATOM     14  C   UNL d   1      -1.582   2.853   1.087  0.00  0.00     0.016 A 
ATOM     15  C   UNL d   1      -1.974   4.203   1.129  0.00  0.00     0.009 A 
ATOM     16  C   UNL d   1      -1.579   5.121   0.139  0.00  0.00    -0.051 A 
ATOM     17  C   UNL d   1      -0.762   4.626  -0.889  0.00  0.00     0.009 A 
ATOM     18  C   UNL d   1      -0.369   3.280  -0.931  0.00  0.00     0.016 A 
BRANCH  16  19
ATOM     19  C   UNL d   1      -2.054   6.586   0.189  0.00  0.00    -0.024 C 
ATOM     20  C   UNL d   1      -1.538   7.442  -0.991  0.00  0.00     0.019 C 
ATOM     21  C   UNL d   1      -3.597   6.632   0.144  0.00  0.00     0.019 C 
ATOM     22  C   UNL d   1      -1.574   7.269   1.488  0.00  0.00     0.019 C 
ENDBRANCH  16  19
ENDBRANCH   7  13
ENDBRANCH   4   5
ENDBRANCH   3   4
TORSDOF 4
