REMARK  5 active torsions:
REMARK  status: ('A' for Active; 'I' for Inactive)
REMARK    1  A    between atoms: N_2  and  C_1 
REMARK    2  A    between atoms: N_7  and  C_1 
REMARK    3  A    between atoms: C_9  and  N_2 
REMARK    4  A    between atoms: C_3  and  C_8 
REMARK    5  A    between atoms: C_8  and  N_7 
ROOT
ATOM      1  N   UNL d   1       0.536  -0.108   1.376  0.00  0.00    -0.333 N 
ATOM      2  H   UNL d   1       1.018  -0.831   1.893  0.00  0.00     0.168 HD
ENDROOT
BRANCH   1   3
ATOM      3  C   UNL d   1       1.086   0.113   0.136  0.00  0.00     0.172 C 
ATOM      4  S   UNL d   1       0.284   0.431  -1.293  0.00  0.00    -0.041 SA
BRANCH   3   5
ATOM      5  N   UNL d   1       2.451  -0.026   0.084  0.00  0.00    -0.367 N 
ATOM      6  H   UNL d   1       2.815   0.082  -0.856  0.00  0.00     0.161 HD
BRANCH   5   7
ATOM      7  C   UNL d   1       3.359   0.368   1.145  0.00  0.00     0.126 C 
BRANCH   7   8
ATOM      8  C   UNL d   1       3.928  -0.771   1.931  0.00  0.00     0.003 A 
ATOM      9  C   UNL d   1       4.658  -1.898   1.244  0.00  0.00     0.007 A 
ATOM     10  C   UNL d   1       3.360  -2.171   1.952  0.00  0.00     0.007 A 
ENDBRANCH   7   8
ENDBRANCH   5   7
ENDBRANCH   3   5
ENDBRANCH   1   3
BRANCH   1  11
ATOM     11  C   UNL d   1      -0.740   0.246   1.852  0.00  0.00     0.034 A 
ATOM     12  C   UNL d   1      -1.371  -0.626   2.748  0.00  0.00     0.031 A 
ATOM     13  C   UNL d   1      -2.582  -0.271   3.349  0.00  0.00     0.026 A 
ATOM     14  C   UNL d   1      -3.143   0.975   3.081  0.00  0.00     0.034 A 
ATOM     15  C   UNL d   1      -2.526   1.848   2.187  0.00  0.00     0.026 A 
ATOM     16 CL   UNL d   1      -4.585   1.452   3.889  0.00  0.00    -0.084 Cl
ATOM     17  C   UNL d   1      -1.330   1.478   1.565  0.00  0.00     0.031 A 
ENDBRANCH   1  11
TORSDOF 5
