REMARK  3 active torsions:
REMARK  status: ('A' for Active; 'I' for Inactive)
REMARK    1  A    between atoms: C_5  and  N_1 
REMARK    2  A    between atoms: N_7  and  C_5 
REMARK    3  A    between atoms: C_8  and  C_10 
REMARK       I    between atoms: N_16  and  C_8 
ROOT
ATOM      1  N   UNL d   1       3.579  -2.279  -0.015  0.00  0.00     0.106 N 
ATOM      2  C   UNL d   1       6.281  -1.114   0.040  0.00  0.00     0.081 C 
ATOM      3  C   UNL d   1       5.700  -1.770  -1.214  0.00  0.00     0.044 C 
ATOM      4  C   UNL d   1       5.659  -1.787   1.268  0.00  0.00     0.044 C 
ATOM      5  C   UNL d   1       4.173  -1.697  -1.221  0.00  0.00     0.275 C 
ATOM      6  C   UNL d   1       4.126  -1.735   1.231  0.00  0.00     0.275 C 
ENDROOT
BRANCH   1   7
ATOM      7  C   UNL d   1       2.102  -2.291  -0.036  0.00  0.00     0.403 C 
BRANCH   7   8
ATOM      8  N   UNL d   1       1.527  -0.967  -0.243  0.00  0.00    -0.314 N 
ATOM      9  C   UNL d   1       1.195  -0.081   0.748  0.00  0.00     0.185 A 
ATOM     10  N   UNL d   1       0.683   1.028   0.265  0.00  0.00    -0.350 N 
ATOM     11  C   UNL d   1       0.658   0.849  -1.095  0.00  0.00     0.060 A 
ATOM     12  HN  UNL d   1       0.371   1.846   0.788  1.00  0.00     0.166 HD
ATOM     13  C   UNL d   1       1.139  -0.411  -1.444  0.00  0.00     0.063 A 
ATOM     14  C   UNL d   1       0.227   1.726  -2.101  0.00  0.00     0.032 A 
ATOM     15  C   UNL d   1       1.184  -0.857  -2.773  0.00  0.00     0.032 A 
ATOM     16  C   UNL d   1       0.752   0.033  -3.762  0.00  0.00     0.002 A 
ATOM     17  C   UNL d   1       0.285   1.307  -3.436  0.00  0.00     0.002 A 
ENDBRANCH   7   8
ENDBRANCH   1   7
BRANCH   2  18
ATOM     18  C   UNL d   1       6.072   0.400   0.076  0.00  0.00     0.219 C 
ATOM     19  O   UNL d   1       5.607   1.008   1.034  0.00  0.00    -0.273 OA
ATOM     20  N   UNL d   1       6.489   1.090  -1.022  0.00  0.00    -0.370 N 
ATOM     21  H   UNL d   1       7.066   0.685  -1.745  0.00  0.00     0.159 HD
ATOM     22  H   UNL d   1       6.399   2.097  -0.987  0.00  0.00     0.159 HD
ENDBRANCH   2  18
TORSDOF 3
