REMARK  8 active torsions:
REMARK  status: ('A' for Active; 'I' for Inactive)
REMARK    1  A    between atoms: C_4  and  S_1 
REMARK    2  A    between atoms: C_5  and  S_1 
REMARK    3  A    between atoms: C_2  and  C_5 
REMARK    4  A    between atoms: C_3  and  C_4 
REMARK    5  A    between atoms: C_14  and  C_8 
REMARK    6  A    between atoms: C_15  and  C_9 
REMARK    7  A    between atoms: O_22  and  C_12 
REMARK    8  A    between atoms: O_23  and  C_13 
ROOT
ATOM      1  S   UNL d   1       0.250   0.437  -0.320  0.00  0.00     0.152 S 
ATOM      2  O   UNL d   1      -0.572   1.589  -0.659  0.00  0.00    -0.227 OA
ATOM      3  O   UNL d   1       1.671   0.471  -0.616  0.00  0.00    -0.227 OA
ENDROOT
BRANCH   1   4
ATOM      4  C   UNL d   1      -0.451  -1.025  -1.102  0.00  0.00     0.182 C 
BRANCH   4   5
ATOM      5  C   UNL d   1      -0.328  -0.891  -2.606  0.00  0.00    -0.010 A 
ATOM      6  C   UNL d   1      -1.335  -0.097  -3.231  0.00  0.00     0.026 A 
ATOM      7  C   UNL d   1      -1.335   0.159  -4.611  0.00  0.00     0.010 A 
ATOM      8  C   UNL d   1      -0.338  -0.392  -5.404  0.00  0.00     0.018 A 
ATOM      9  C   UNL d   1       0.655  -1.167  -4.811  0.00  0.00     0.038 A 
ATOM     10  C   UNL d   1       0.683  -1.427  -3.424  0.00  0.00     0.075 A 
BRANCH   7  11
ATOM     11  C   UNL d   1      -2.359   1.016  -5.271  0.00  0.00     0.155 C 
ATOM     12  O   UNL d   1      -2.636   0.818  -6.453  0.00  0.00    -0.293 OA
ATOM     13  C   UNL d   1      -3.029   2.111  -4.487  0.00  0.00     0.096 C 
ENDBRANCH   7  11
BRANCH  10  14
ATOM     14  O   UNL d   1       1.771  -2.195  -3.139  0.00  0.00    -0.355 OA
ATOM     15  C   UNL d   1       2.019  -2.760  -1.873  0.00  0.00     0.210 C 
ENDBRANCH  10  14
ENDBRANCH   4   5
ENDBRANCH   1   4
BRANCH   1  16
ATOM     16  C   UNL d   1       0.131   0.132   1.433  0.00  0.00     0.182 C 
BRANCH  16  17
ATOM     17  C   UNL d   1      -1.250  -0.045   2.027  0.00  0.00    -0.010 C 
ATOM     18  C   UNL d   1      -2.387   0.674   1.610  0.00  0.00     0.026 C 
ATOM     19  C   UNL d   1      -3.647   0.483   2.207  0.00  0.00     0.010 C 
ATOM     20  C   UNL d   1      -3.775  -0.452   3.242  0.00  0.00     0.018 C 
ATOM     21  C   UNL d   1      -2.652  -1.121   3.723  0.00  0.00     0.038 C 
ATOM     22  C   UNL d   1      -1.401  -0.876   3.156  0.00  0.00     0.075 C 
BRANCH  19  23
ATOM     23  C   UNL d   1      -4.877   1.234   1.797  0.00  0.00     0.155 C 
ATOM     24  O   UNL d   1      -5.969   0.879   2.243  0.00  0.00    -0.293 OA
ATOM     25  C   UNL d   1      -4.797   2.409   0.856  0.00  0.00     0.096 C 
ENDBRANCH  19  23
BRANCH  22  26
ATOM     26  O   UNL d   1      -0.336  -1.513   3.739  0.00  0.00    -0.355 OA
ATOM     27  C   UNL d   1       0.525  -0.598   4.432  0.00  0.00     0.210 C 
ENDBRANCH  22  26
ENDBRANCH  16  17
ENDBRANCH   1  16
TORSDOF 8
