REMARK  3 active torsions:
REMARK  status: ('A' for Active; 'I' for Inactive)
REMARK    1  A    between atoms: N_7  and  C_5 
REMARK    2  A    between atoms: C_8  and  C_6 
REMARK    3  A    between atoms: C_11  and  N_7 
ROOT
ATOM      1  N   UNL d   1      -1.098  -0.632  -0.114  0.00  0.00    -0.298 N 
ATOM      2  HN  UNL d   1      -2.023  -1.051  -0.209  1.00  0.00     0.187 HD
ATOM      3  N   UNL d   1      -0.973   0.742  -0.050  0.00  0.00    -0.285 N 
ATOM      4  HN  UNL d   1      -1.811   1.321  -0.093  1.00  0.00     0.188 HD
ATOM      5  C   UNL d   1       0.231   1.332   0.068  0.00  0.00     0.120 A 
ATOM      6  C   UNL d   1      -0.009  -1.426  -0.053  0.00  0.00     0.058 A 
ATOM      7  C   UNL d   1       1.252  -0.850   0.009  0.00  0.00     0.035 A 
ATOM      8  C   UNL d   1       1.371   0.540   0.068  0.00  0.00     0.052 A 
ENDROOT
BRANCH   5   9
ATOM      9  N   UNL d   1       0.376   2.721   0.275  0.00  0.00    -0.341 N 
ATOM     10  H   UNL d   1       1.073   3.111  -0.346  0.00  0.00     0.167 HD
BRANCH   9  11
ATOM     11  C   UNL d   1      -0.605   3.657   0.667  0.00  0.00     0.033 A 
ATOM     12  C   UNL d   1      -1.795   3.291   1.308  0.00  0.00     0.029 A 
ATOM     13  C   UNL d   1      -2.709   4.253   1.747  0.00  0.00     0.002 A 
ATOM     14  C   UNL d   1      -2.432   5.605   1.583  0.00  0.00     0.000 A 
ATOM     15  C   UNL d   1      -1.237   5.993   0.986  0.00  0.00     0.002 A 
ATOM     16  C   UNL d   1      -0.327   5.027   0.541  0.00  0.00     0.029 A 
ENDBRANCH   9  11
ENDBRANCH   5   9
BRANCH   6  17
ATOM     17  C   UNL d   1      -0.263  -2.877  -0.006  0.00  0.00    -0.008 A 
ATOM     18  C   UNL d   1      -1.403  -3.432  -0.618  0.00  0.00     0.014 A 
ATOM     19  C   UNL d   1      -1.675  -4.801  -0.550  0.00  0.00     0.001 A 
ATOM     20  C   UNL d   1      -0.812  -5.650   0.136  0.00  0.00     0.000 A 
ATOM     21  C   UNL d   1       0.320  -5.128   0.756  0.00  0.00     0.001 A 
ATOM     22  C   UNL d   1       0.590  -3.758   0.686  0.00  0.00     0.014 A 
ENDBRANCH   6  17
TORSDOF 3
