REMARK  8 active torsions:
REMARK  status: ('A' for Active; 'I' for Inactive)
REMARK    1  A    between atoms: C_8  and  O_11 
REMARK    2  A    between atoms: C_15  and  N_9 
REMARK    3  A    between atoms: O_11  and  C_24 
REMARK    4  A    between atoms: C_23  and  C_15 
REMARK    5  A    between atoms: O_22  and  C_26 
REMARK    6  A    between atoms: C_25  and  O_22 
REMARK    7  A    between atoms: C_26  and  C_23 
REMARK    8  A    between atoms: O_33  and  C_23 
ROOT
ATOM      1  C   UNL d   1      -3.089   0.304  -0.240  0.00  0.00     0.148 A 
ATOM      2  N   UNL d   1      -2.407  -0.565   0.472  0.00  0.00    -0.336 N 
ATOM      3  HN  UNL d   1      -2.827  -1.204   1.147  1.00  0.00     0.168 HD
ATOM      4  S   UNL d   1      -2.088   1.291  -1.246  0.00  0.00    -0.052 SA
ATOM      5  N   UNL d   1      -4.445   0.394  -0.174  0.00  0.00    -0.358 N 
ATOM      6  C   UNL d   1      -0.683   0.446  -0.731  0.00  0.00     0.036 A 
ATOM      7  C   UNL d   1      -1.061  -0.511   0.202  0.00  0.00     0.051 A 
ATOM      8  N   UNL d   1      -7.237  -0.390  -0.735  0.00  0.00     0.094 N 
ATOM      9  C   UNL d   1       0.657   0.620  -1.124  0.00  0.00     0.045 A 
ATOM     10  C   UNL d   1      -5.171  -0.455   0.776  0.00  0.00     0.155 C 
ATOM     11  C   UNL d   1      -5.272   1.250  -1.027  0.00  0.00     0.155 C 
ATOM     12  C   UNL d   1      -0.067  -1.337   0.770  0.00  0.00     0.032 A 
ATOM     13  C   UNL d   1       1.615  -0.226  -0.549  0.00  0.00     0.035 A 
ATOM     14  C   UNL d   1      -6.290  -1.238   0.046  0.00  0.00     0.292 C 
ATOM     15  C   UNL d   1      -6.425   0.430  -1.667  0.00  0.00     0.292 C 
ATOM     16  C   UNL d   1       1.264  -1.189   0.386  0.00  0.00     0.026 A 
ATOM     17 CL   UNL d   1       3.264  -0.061  -1.019  0.00  0.00    -0.084 Cl
ENDROOT
BRANCH   8  18
ATOM     18  C   UNL d   1      -8.061   0.410   0.184  0.00  0.00     0.306 C 
BRANCH  18  19
ATOM     19  C   UNL d   1      -9.149   1.314  -0.431  0.00  0.00     0.170 C 
BRANCH  19  20
ATOM     20  C   UNL d   1     -10.188   0.539  -1.257  0.00  0.00     0.209 C 
BRANCH  20  21
ATOM     21  O   UNL d   1     -11.115   1.488  -1.805  0.00  0.00    -0.349 OA
BRANCH  21  22
ATOM     22  C   UNL d   1     -12.113   1.004  -2.602  0.00  0.00     0.069 A 
ATOM     23  C   UNL d   1     -12.356  -0.337  -2.879  0.00  0.00     0.039 A 
ATOM     24  C   UNL d   1     -13.420  -0.696  -3.712  0.00  0.00     0.040 A 
ATOM     25  C   UNL d   1     -14.261   0.273  -4.268  0.00  0.00     0.078 A 
ATOM     26  C   UNL d   1     -14.002   1.617  -4.016  0.00  0.00     0.040 A 
ATOM     27  C   UNL d   1     -12.942   1.975  -3.172  0.00  0.00     0.039 A 
BRANCH  25  28
ATOM     28  O   UNL d   1     -15.255  -0.235  -5.045  0.00  0.00    -0.255 OA
BRANCH  28  29
ATOM     29  C   UNL d   1     -16.448   0.508  -5.234  0.00  0.00     0.530 C 
ATOM     30  F   UNL d   1     -16.663   1.444  -4.287  0.00  0.00    -0.144 F 
ATOM     31  F   UNL d   1     -16.430   1.099  -6.448  0.00  0.00    -0.144 F 
ATOM     32  F   UNL d   1     -17.490  -0.355  -5.202  0.00  0.00    -0.144 F 
ENDBRANCH  28  29
ENDBRANCH  25  28
ENDBRANCH  21  22
ENDBRANCH  20  21
ENDBRANCH  19  20
BRANCH  19  33
ATOM     33  O   UNL d   1      -9.788   2.010   0.658  0.00  0.00    -0.392 OA
ATOM     34  H   UNL d   1     -10.414   1.397   1.079  0.00  0.00     0.210 HD
ENDBRANCH  19  33
ENDBRANCH  18  19
ENDBRANCH   8  18
TORSDOF 8
