REMARK  3 active torsions:
REMARK  status: ('A' for Active; 'I' for Inactive)
REMARK    1  A    between atoms: C_12  and  N_3 
REMARK    2  A    between atoms: C_15  and  C_4 
REMARK    3  A    between atoms: N_7  and  C_13 
ROOT
ATOM      1  C   UNL d   1       0.277  -0.721  -0.027  0.00  0.00     0.070 A 
ATOM      2  C   UNL d   1       0.244   0.678  -0.056  0.00  0.00     0.027 A 
ATOM      3  N   UNL d   1       2.395   0.030   0.030  0.00  0.00    -0.313 N 
ATOM      4  C   UNL d   1       1.545   1.169  -0.009  0.00  0.00     0.062 A 
ATOM      5  C   UNL d   1       1.598  -1.123   0.015  0.00  0.00     0.030 A 
ATOM      6  C   UNL d   1      -0.944  -1.507  -0.026  0.00  0.00     0.274 A 
ATOM      7  N   UNL d   1      -2.142   0.674  -0.115  0.00  0.00    -0.306 N 
ATOM      8  HN  UNL d   1      -3.037   1.163  -0.157  1.00  0.00     0.186 HD
ATOM      9  N   UNL d   1      -2.110  -0.722  -0.035  0.00  0.00    -0.262 N 
ATOM     10  C   UNL d   1      -1.029   1.350  -0.137  0.00  0.00     0.122 A 
ATOM     11  O   UNL d   1      -0.944  -2.739  -0.005  0.00  0.00    -0.266 OA
ATOM     12  C   UNL d   1       2.078  -2.536   0.125  0.00  0.00     0.070 C 
ATOM     13  C   UNL d   1      -3.392  -1.396  -0.015  0.00  0.00     0.181 C 
ENDROOT
BRANCH   3  14
ATOM     14  C   UNL d   1       3.830   0.036   0.081  0.00  0.00     0.040 A 
ATOM     15  C   UNL d   1       4.564  -0.843  -0.731  0.00  0.00     0.032 A 
ATOM     16  C   UNL d   1       5.963  -0.797  -0.742  0.00  0.00     0.038 A 
ATOM     17  C   UNL d   1       6.630   0.155   0.039  0.00  0.00     0.103 A 
ATOM     18  C   UNL d   1       5.907   1.034   0.854  0.00  0.00     0.038 A 
ATOM     19  C   UNL d   1       4.511   0.955   0.892  0.00  0.00     0.032 A 
BRANCH  17  20
ATOM     20  N   UNL d   1       8.094   0.248  -0.014  0.00  0.00    -0.116 N 
ATOM     21  O   UNL d   1       8.700  -0.625  -0.654  0.00  0.00    -0.532 OA
ATOM     22  O   UNL d   1       8.635   1.200   0.570  0.00  0.00    -0.532 OA
ENDBRANCH  17  20
ENDBRANCH   3  14
BRANCH   4  23
ATOM     23  C   UNL d   1       1.977   2.590  -0.062  0.00  0.00    -0.008 A 
ATOM     24  C   UNL d   1       1.296   3.566   0.684  0.00  0.00     0.014 A 
ATOM     25  C   UNL d   1       1.703   4.904   0.672  0.00  0.00     0.001 A 
ATOM     26  C   UNL d   1       2.834   5.283  -0.044  0.00  0.00     0.000 A 
ATOM     27  C   UNL d   1       3.519   4.334  -0.795  0.00  0.00     0.001 A 
ATOM     28  C   UNL d   1       3.065   3.011  -0.841  0.00  0.00     0.014 A 
ENDBRANCH   4  23
TORSDOF 3
