REMARK  1 active torsions:
REMARK  status: ('A' for Active; 'I' for Inactive)
REMARK    1  A    between atoms: C_5  and  C_3 
ROOT
ATOM      1  C   UNL d   1       1.233  -1.355   0.062  0.00  0.00     0.189 C 
ATOM      2  C   UNL d   1       2.246  -0.672  -0.784  0.00  0.00    -0.006 C 
ATOM      3  C   UNL d   1       2.562  -1.346  -1.906  0.00  0.00     0.024 C 
ATOM      4  C   UNL d   1      -0.126  -0.760   0.073  0.00  0.00     0.021 A 
ATOM      5  O   UNL d   1       1.460  -2.429   0.607  0.00  0.00    -0.287 OA
ATOM      6  C   UNL d   1      -0.362   0.592   0.370  0.00  0.00    -0.044 A 
ATOM      7  C   UNL d   1       2.818   0.625  -0.305  0.00  0.00     0.043 C 
ATOM      8  C   UNL d   1      -1.189  -1.611  -0.266  0.00  0.00     0.016 A 
ATOM      9  C   UNL d   1       1.800   1.761  -0.230  0.00  0.00     0.009 C 
ATOM     10  C   UNL d   1       0.729   1.523   0.831  0.00  0.00     0.040 C 
ATOM     11  C   UNL d   1      -1.678   1.076   0.279  0.00  0.00     0.008 A 
ATOM     12  C   UNL d   1      -2.487  -1.111  -0.353  0.00  0.00     0.001 A 
ATOM     13  C   UNL d   1      -2.729   0.235  -0.091  0.00  0.00     0.001 A 
ENDROOT
BRANCH   3  14
ATOM     14  C   UNL d   1       3.491  -0.879  -2.941  0.00  0.00    -0.014 A 
ATOM     15  C   UNL d   1       3.060  -0.127  -4.048  0.00  0.00     0.045 A 
ATOM     16  C   UNL d   1       3.962   0.247  -5.047  0.00  0.00     0.048 A 
ATOM     17 CL   UNL d   1       1.409   0.356  -4.231  0.00  0.00    -0.083 Cl
ATOM     18  C   UNL d   1       5.299  -0.125  -4.939  0.00  0.00     0.035 A 
ATOM     19  C   UNL d   1       5.747  -0.851  -3.837  0.00  0.00     0.024 A 
ATOM     20 CL   UNL d   1       6.407   0.308  -6.183  0.00  0.00    -0.084 Cl
ATOM     21  C   UNL d   1       4.844  -1.228  -2.838  0.00  0.00     0.015 A 
ENDBRANCH   3  14
TORSDOF 1
