REMARK  7 active torsions:
REMARK  status: ('A' for Active; 'I' for Inactive)
REMARK    1  A    between atoms: N_9  and  N_1 
REMARK    2  A    between atoms: N_10  and  N_3 
REMARK    3  A    between atoms: C_6  and  C_5 
REMARK       I    between atoms: C_7  and  N_9 
REMARK    4  A    between atoms: O_14  and  C_7 
REMARK       I    between atoms: C_8  and  N_10 
REMARK    5  A    between atoms: O_13  and  C_8 
REMARK    6  A    between atoms: C_18  and  O_13 
REMARK    7  A    between atoms: C_17  and  O_14 
ROOT
ATOM      1  N   UNL d   1       3.130   0.472   1.379  0.00  0.00    -0.299 N 
ATOM      2  HN  UNL d   1       2.567  -0.296   1.014  1.00  0.00     0.186 HD
ATOM      3  C   UNL d   1       2.549   1.525   1.870  0.00  0.00     0.045 C 
ATOM      4  C   UNL d   1       3.200   2.748   2.464  0.00  0.00     0.072 C 
ENDROOT
BRANCH   3   5
ATOM      5  C   UNL d   1       1.023   1.516   1.862  0.00  0.00     0.045 C 
ATOM      6  N   UNL d   1       0.442   2.212   2.791  0.00  0.00    -0.299 N 
ATOM      7  HN  UNL d   1       1.005   2.727   3.468  1.00  0.00     0.186 HD
ATOM      8  C   UNL d   1       0.372   0.685   0.786  0.00  0.00     0.072 C 
BRANCH   6   9
ATOM      9  N   UNL d   1      -0.913   2.256   2.863  0.00  0.00    -0.245 N 
ATOM     10  C   UNL d   1      -1.543   2.803   3.953  0.00  0.00     0.379 C 
ATOM     11  O   UNL d   1      -1.008   3.352   4.907  0.00  0.00    -0.237 OA
ATOM     12  H   UNL d   1      -1.505   1.759   2.214  0.00  0.00     0.192 HD
BRANCH  10  13
ATOM     13  O   UNL d   1      -2.879   2.579   3.832  0.00  0.00    -0.303 OA
BRANCH  13  14
ATOM     14  C   UNL d   1      -3.661   2.852   5.003  0.00  0.00     0.176 C 
ATOM     15  C   UNL d   1      -3.731   1.590   5.843  0.00  0.00     0.034 C 
ENDBRANCH  13  14
ENDBRANCH  10  13
ENDBRANCH   6   9
ENDBRANCH   3   5
BRANCH   1  16
ATOM     16  N   UNL d   1       4.484   0.392   1.351  0.00  0.00    -0.245 N 
ATOM     17  C   UNL d   1       5.113  -0.789   1.040  0.00  0.00     0.379 C 
ATOM     18  O   UNL d   1       4.579  -1.836   0.704  0.00  0.00    -0.237 OA
ATOM     19  H   UNL d   1       5.078   1.132   1.696  0.00  0.00     0.192 HD
BRANCH  17  20
ATOM     20  O   UNL d   1       6.451  -0.622   1.229  0.00  0.00    -0.303 OA
BRANCH  20  21
ATOM     21  C   UNL d   1       7.235  -1.822   1.195  0.00  0.00     0.176 C 
ATOM     22  C   UNL d   1       7.312  -2.390   2.600  0.00  0.00     0.034 C 
ENDBRANCH  20  21
ENDBRANCH  17  20
ENDBRANCH   1  16
TORSDOF 7
