REMARK  5 active torsions:
REMARK  status: ('A' for Active; 'I' for Inactive)
REMARK    1  A    between atoms: C_5  and  N_1 
REMARK    2  A    between atoms: C_2  and  C_7 
REMARK       I    between atoms: N_3  and  C_2 
REMARK    3  A    between atoms: C_14  and  N_3 
REMARK    4  A    between atoms: C_15  and  N_4 
REMARK    5  A    between atoms: C_20  and  C_15 
ROOT
ATOM      1  N   UNL d   1      -4.965   2.302  -0.348  0.00  0.00     0.092 N 
ATOM      2  C   UNL d   1      -3.567   3.938   1.692  0.00  0.00     0.088 C 
ATOM      3  C   UNL d   1      -3.187   2.485   1.422  0.00  0.00     0.055 C 
ATOM      4  C   UNL d   1      -5.044   4.128   1.341  0.00  0.00     0.055 C 
ATOM      5  C   UNL d   1      -3.559   2.028   0.013  0.00  0.00     0.275 C 
ATOM      6  C   UNL d   1      -5.319   3.709  -0.103  0.00  0.00     0.275 C 
ENDROOT
BRANCH   2   7
ATOM      7  N   UNL d   1      -2.790   5.008   1.048  0.00  0.00    -0.352 N 
ATOM      8  C   UNL d   1      -1.653   4.913   0.279  0.00  0.00     0.252 C 
ATOM      9  O   UNL d   1      -1.046   3.879   0.047  0.00  0.00    -0.268 OA
ATOM     10  H   UNL d   1      -3.066   5.928   1.350  0.00  0.00     0.163 HD
BRANCH   8  11
ATOM     11  C   UNL d   1      -1.138   6.209  -0.287  0.00  0.00     0.032 A 
ATOM     12  C   UNL d   1      -1.912   7.381  -0.320  0.00  0.00     0.019 A 
ATOM     13  C   UNL d   1      -1.368   8.581  -0.789  0.00  0.00     0.037 A 
ATOM     14  C   UNL d   1      -0.050   8.607  -1.260  0.00  0.00     0.102 A 
ATOM     15  C   UNL d   1       0.713   7.434  -1.296  0.00  0.00     0.037 A 
ATOM     16  C   UNL d   1       0.165   6.240  -0.809  0.00  0.00     0.019 A 
BRANCH  14  17
ATOM     17  N   UNL d   1       0.533   9.878  -1.706  0.00  0.00    -0.116 N 
ATOM     18  O   UNL d   1       1.660   9.848  -2.219  0.00  0.00    -0.532 OA
ATOM     19  O   UNL d   1      -0.133  10.909  -1.530  0.00  0.00    -0.532 OA
ENDBRANCH  14  17
ENDBRANCH   8  11
ENDBRANCH   2   7
BRANCH   1  20
ATOM     20  C   UNL d   1      -5.144   1.944  -1.775  0.00  0.00     0.311 C 
BRANCH  20  21
ATOM     21  C   UNL d   1      -6.533   2.195  -2.319  0.00  0.00    -0.030 A 
ATOM     22  C   UNL d   1      -6.736   3.147  -3.329  0.00  0.00     0.009 A 
ATOM     23  C   UNL d   1      -8.019   3.403  -3.813  0.00  0.00     0.001 A 
ATOM     24  C   UNL d   1      -9.110   2.708  -3.295  0.00  0.00     0.000 A 
ATOM     25  C   UNL d   1      -8.918   1.754  -2.296  0.00  0.00     0.001 A 
ATOM     26  C   UNL d   1      -7.636   1.496  -1.810  0.00  0.00     0.009 A 
ENDBRANCH  20  21
ENDBRANCH   1  20
TORSDOF 5
