REMARK  5 active torsions:
REMARK  status: ('A' for Active; 'I' for Inactive)
REMARK    1  A    between atoms: O_6  and  C_1 
REMARK    2  A    between atoms: N_4  and  C_2 
REMARK    3  A    between atoms: N_5  and  C_3 
REMARK    4  A    between atoms: C_11  and  O_6 
REMARK    5  A    between atoms: C_7  and  C_8 
ROOT
ATOM      1  C   UNL d   1       1.271  -0.398   0.329  0.00  0.00     0.142 A 
ATOM      2  C   UNL d   1       0.247  -1.278   0.710  0.00  0.00     0.140 A 
ATOM      3  C   UNL d   1       0.861   0.824  -0.227  0.00  0.00     0.140 A 
ATOM      4  C   UNL d   1      -1.497   0.231  -0.092  0.00  0.00     0.052 A 
ATOM      5  C   UNL d   1      -0.496   1.147  -0.440  0.00  0.00     0.055 A 
ATOM      6  C   UNL d   1      -1.112  -0.990   0.480  0.00  0.00     0.055 A 
ENDROOT
BRANCH   1   7
ATOM      7  O   UNL d   1       2.616  -0.604   0.514  0.00  0.00    -0.305 OA
BRANCH   7   8
ATOM      8  C   UNL d   1       3.222  -1.780   0.126  0.00  0.00     0.082 A 
ATOM      9  C   UNL d   1       4.450  -2.102   0.733  0.00  0.00    -0.028 A 
ATOM     10  C   UNL d   1       5.083  -3.312   0.401  0.00  0.00     0.016 A 
ATOM     11  C   UNL d   1       5.143  -1.193   1.715  0.00  0.00     0.051 C 
ATOM     12  C   UNL d   1       4.507  -4.205  -0.510  0.00  0.00    -0.061 A 
ATOM     13  C   UNL d   1       3.302  -3.861  -1.122  0.00  0.00     0.009 A 
ATOM     14  C   UNL d   1       5.209  -5.480  -0.869  0.00  0.00     0.048 C 
ATOM     15  C   UNL d   1       2.687  -2.642  -0.840  0.00  0.00     0.038 A 
ENDBRANCH   7   8
ENDBRANCH   1   7
BRANCH   2  16
ATOM     16  N   UNL d   1       0.521  -2.532   1.387  0.00  0.00    -0.113 N 
ATOM     17  O   UNL d   1       1.100  -2.474   2.475  0.00  0.00    -0.532 OA
ATOM     18  O   UNL d   1       0.090  -3.560   0.841  0.00  0.00    -0.532 OA
ENDBRANCH   2  16
BRANCH   3  19
ATOM     19  N   UNL d   1       1.845   1.816  -0.633  0.00  0.00    -0.113 N 
ATOM     20  O   UNL d   1       2.634   2.223   0.231  0.00  0.00    -0.532 OA
ATOM     21  O   UNL d   1       1.777   2.218  -1.800  0.00  0.00    -0.532 OA
ENDBRANCH   3  19
BRANCH   4  22
ATOM     22  C   UNL d   1      -2.964   0.530  -0.308  0.00  0.00     0.417 C 
ATOM     23  F   UNL d   1      -3.196   1.776  -0.797  0.00  0.00    -0.166 F 
ATOM     24  F   UNL d   1      -3.537  -0.338  -1.182  0.00  0.00    -0.166 F 
ATOM     25  F   UNL d   1      -3.677   0.434   0.846  0.00  0.00    -0.166 F 
ENDBRANCH   4  22
TORSDOF 5
