REMARK  3 active torsions:
REMARK  status: ('A' for Active; 'I' for Inactive)
REMARK    1  A    between atoms: N_2  and  C_5 
REMARK    2  A    between atoms: C_6  and  C_3 
REMARK       I    between atoms: N_9  and  C_6 
REMARK    3  A    between atoms: C_13  and  N_9 
ROOT
ATOM      1  N   UNL d   1      -1.581   0.978  -0.218  0.00  0.00    -0.349 N 
ATOM      2  C   UNL d   1      -2.350  -0.167  -0.188  0.00  0.00     0.102 A 
ATOM      3  C   UNL d   1      -0.237   0.681  -0.168  0.00  0.00     0.076 A 
ATOM      4  C   UNL d   1       0.897   1.521  -0.170  0.00  0.00     0.130 A 
ATOM      5  C   UNL d   1      -1.463  -1.230  -0.161  0.00  0.00     0.049 A 
ATOM      6  C   UNL d   1      -0.137  -0.707  -0.116  0.00  0.00    -0.005 A 
ATOM      7  C   UNL d   1       2.160   0.909  -0.080  0.00  0.00     0.038 A 
ATOM      8  C   UNL d   1       1.141  -1.295  -0.041  0.00  0.00     0.014 A 
ATOM      9  C   UNL d   1       2.278  -0.478  -0.013  0.00  0.00     0.003 A 
ATOM     10  H   UNL d   1      -1.967   1.915  -0.269  0.00  0.00     0.166 HD
ENDROOT
BRANCH   2  11
ATOM     11  C   UNL d   1      -3.801  -0.078  -0.228  0.00  0.00     0.272 C 
ATOM     12  N   UNL d   1      -4.464  -1.284  -0.100  0.00  0.00    -0.322 N 
ATOM     13  H   UNL d   1      -3.909  -2.088   0.147  0.00  0.00     0.169 HD
ATOM     14  O   UNL d   1      -4.337   1.016  -0.357  0.00  0.00    -0.266 OA
BRANCH  12  15
ATOM     15  C   UNL d   1      -5.841  -1.521  -0.313  0.00  0.00     0.035 A 
ATOM     16  C   UNL d   1      -6.724  -0.556  -0.798  0.00  0.00     0.030 A 
ATOM     17  C   UNL d   1      -8.050  -0.885  -1.095  0.00  0.00     0.009 A 
ATOM     18  C   UNL d   1      -8.520  -2.187  -0.909  0.00  0.00    -0.062 A 
ATOM     19  C   UNL d   1      -7.656  -3.145  -0.372  0.00  0.00     0.009 A 
ATOM     20  C   UNL d   1      -9.925  -2.531  -1.305  0.00  0.00     0.048 C 
ATOM     21  C   UNL d   1      -6.325  -2.815  -0.080  0.00  0.00     0.030 A 
ENDBRANCH  12  15
ENDBRANCH   2  11
BRANCH   4  22
ATOM     22  N   UNL d   1       0.816   2.983  -0.264  0.00  0.00    -0.113 N 
ATOM     23  O   UNL d   1      -0.315   3.485  -0.350  0.00  0.00    -0.532 OA
ATOM     24  O   UNL d   1       1.874   3.628  -0.258  0.00  0.00    -0.532 OA
ENDBRANCH   4  22
TORSDOF 3
