REMARK  8 active torsions:
REMARK  status: ('A' for Active; 'I' for Inactive)
REMARK    1  A    between atoms: N_3  and  S_1 
REMARK    2  A    between atoms: C_13  and  S_1 
REMARK    3  A    between atoms: C_7  and  C_2 
REMARK       I    between atoms: C_5  and  N_3 
REMARK    4  A    between atoms: C_4  and  O_9 
REMARK       I    between atoms: N_10  and  C_5 
REMARK    5  A    between atoms: C_6  and  C_12 
REMARK    6  A    between atoms: O_29  and  C_7 
REMARK    7  A    between atoms: C_8  and  N_10 
REMARK    8  A    between atoms: O_9  and  C_14 
ROOT
ATOM      1  C   UNL d   1       2.182  -2.281   0.584  0.00  0.00     0.051 A 
ATOM      2  C   UNL d   1       2.950  -3.332  -1.471  0.00  0.00     0.049 A 
ATOM      3  C   UNL d   1       3.047  -1.201   0.361  0.00  0.00     0.097 A 
ATOM      4  C   UNL d   1       2.171  -3.365  -0.303  0.00  0.00     0.043 A 
ATOM      5  C   UNL d   1       3.716  -2.190  -1.745  0.00  0.00     0.019 A 
ATOM      6  C   UNL d   1       3.762  -1.134  -0.840  0.00  0.00     0.040 A 
ENDROOT
BRANCH   1   7
ATOM      7  N   UNL d   1       1.309  -2.291   1.691  0.00  0.00    -0.207 NA
ATOM      8  C   UNL d   1      -0.041  -2.013   1.565  0.00  0.00     0.312 C 
ATOM      9  N   UNL d   1      -0.444  -1.221   0.495  0.00  0.00    -0.236 N 
ATOM     10  O   UNL d   1      -0.816  -2.511   2.370  0.00  0.00    -0.253 OA
ATOM     11  H   UNL d   1       0.241  -0.783  -0.106  0.00  0.00     0.183 HD
ATOM     12  H   UNL d   1       1.373  -3.104   2.295  0.00  0.00     0.138 HD
BRANCH   9  13
ATOM     13  S   UNL d   1      -2.011  -0.781   0.133  0.00  0.00     0.266 S 
ATOM     14  O   UNL d   1      -1.876   0.243  -0.891  0.00  0.00    -0.200 OA
ATOM     15  O   UNL d   1      -2.767  -0.528   1.333  0.00  0.00    -0.200 OA
BRANCH  13  16
ATOM     16  C   UNL d   1      -2.655  -2.239  -0.656  0.00  0.00     0.080 A 
ATOM     17  C   UNL d   1      -2.888  -3.386   0.104  0.00  0.00     0.026 A 
ATOM     18  C   UNL d   1      -3.202  -4.586  -0.537  0.00  0.00     0.008 A 
ATOM     19  C   UNL d   1      -3.313  -4.638  -1.932  0.00  0.00    -0.062 A 
ATOM     20  C   UNL d   1      -3.191  -3.456  -2.673  0.00  0.00     0.008 A 
ATOM     21  C   UNL d   1      -3.502  -5.962  -2.615  0.00  0.00     0.048 C 
ATOM     22  C   UNL d   1      -2.864  -2.255  -2.038  0.00  0.00     0.026 A 
ENDBRANCH  13  16
ENDBRANCH   9  13
ENDBRANCH   1   7
BRANCH   3  23
ATOM     23  O   UNL d   1       3.153  -0.220   1.323  0.00  0.00    -0.307 OA
BRANCH  23  24
ATOM     24  C   UNL d   1       4.305   0.489   1.482  0.00  0.00     0.099 A 
ATOM     25  C   UNL d   1       4.290   1.842   1.766  0.00  0.00     0.114 A 
ATOM     26  S   UNL d   1       5.891   2.476   1.803  0.00  0.00    -0.093 SA
ATOM     27  C   UNL d   1       6.589   0.948   1.504  0.00  0.00     0.053 A 
ATOM     28  C   UNL d   1       5.635  -0.039   1.412  0.00  0.00     0.046 A 
BRANCH  25  29
ATOM     29  C   UNL d   1       3.183   2.758   1.985  0.00  0.00     0.302 C 
ATOM     30  O   UNL d   1       3.274   3.934   2.307  0.00  0.00    -0.259 OA
BRANCH  29  31
ATOM     31  O   UNL d   1       1.998   2.116   1.772  0.00  0.00    -0.322 OA
ATOM     32  C   UNL d   1       0.823   2.909   1.942  0.00  0.00     0.213 C 
ENDBRANCH  29  31
ENDBRANCH  25  29
ENDBRANCH  23  24
ENDBRANCH   3  23
BRANCH   2  33
ATOM     33  C   UNL d   1       2.965  -4.482  -2.447  0.00  0.00     0.417 C 
ATOM     34  F   UNL d   1       2.254  -5.562  -2.025  0.00  0.00    -0.166 F 
ATOM     35  F   UNL d   1       2.448  -4.137  -3.658  0.00  0.00    -0.166 F 
ATOM     36  F   UNL d   1       4.226  -4.934  -2.691  0.00  0.00    -0.166 F 
ENDBRANCH   2  33
TORSDOF 8
