REMARK  7 active torsions:
REMARK  status: ('A' for Active; 'I' for Inactive)
REMARK    1  A    between atoms: C_10  and  C_1 
REMARK    2  A    between atoms: C_13  and  N_4 
REMARK    3  A    between atoms: C_8  and  C_11 
REMARK    4  A    between atoms: C_9  and  C_12 
REMARK    5  A    between atoms: C_16  and  C_13 
REMARK    6  A    between atoms: C_14  and  C_15 
REMARK       I    between atoms: C_15  and  N_22 
REMARK       I    between atoms: N_23  and  C_16 
REMARK    7  A    between atoms: N_22  and  N_23 
ROOT
ATOM      1  C   UNL d   1      -0.504  -1.094   0.136  0.00  0.00     0.144 A 
ATOM      2  N   UNL d   1       0.598  -0.581   0.706  0.00  0.00    -0.268 N 
ATOM      3  HN  UNL d   1       1.234  -1.000   1.385  1.00  0.00     0.190 HD
ATOM      4  N   UNL d   1       0.635   0.640   0.136  0.00  0.00    -0.207 N 
ATOM      5  N   UNL d   1      -1.152  -0.176  -0.656  0.00  0.00    -0.266 N 
ATOM      6  HN  UNL d   1      -2.033  -0.315  -1.150  1.00  0.00     0.186 HD
ATOM      7  N   UNL d   1      -0.410   0.927  -0.657  0.00  0.00    -0.002 NA
ENDROOT
BRANCH   1   8
ATOM      8  C   UNL d   1      -0.848  -2.510   0.207  0.00  0.00     0.012 A 
ATOM      9  C   UNL d   1      -0.008  -3.396   0.905  0.00  0.00     0.031 A 
ATOM     10  C   UNL d   1      -0.210  -4.783   0.867  0.00  0.00     0.049 A 
ATOM     11  C   UNL d   1      -1.295  -5.282   0.131  0.00  0.00     0.032 A 
ATOM     12  C   UNL d   1      -2.170  -4.417  -0.551  0.00  0.00     0.049 A 
ATOM     13  C   UNL d   1      -1.938  -3.030  -0.503  0.00  0.00     0.031 A 
BRANCH  10  14
ATOM     14  C   UNL d   1       0.750  -5.729   1.550  0.00  0.00     0.417 C 
ATOM     15  F   UNL d   1       1.710  -5.099   2.281  0.00  0.00    -0.166 F 
ATOM     16  F   UNL d   1       0.123  -6.580   2.406  0.00  0.00    -0.166 F 
ATOM     17  F   UNL d   1       1.415  -6.514   0.659  0.00  0.00    -0.166 F 
ENDBRANCH  10  14
BRANCH  12  18
ATOM     18  C   UNL d   1      -3.311  -4.995  -1.359  0.00  0.00     0.417 C 
ATOM     19  F   UNL d   1      -4.112  -4.052  -1.925  0.00  0.00    -0.166 F 
ATOM     20  F   UNL d   1      -2.869  -5.777  -2.381  0.00  0.00    -0.166 F 
ATOM     21  F   UNL d   1      -4.128  -5.783  -0.609  0.00  0.00    -0.166 F 
ENDBRANCH  12  18
ENDBRANCH   1   8
BRANCH   4  22
ATOM     22  C   UNL d   1       1.881   1.372   0.170  0.00  0.00     0.271 C 
BRANCH  22  23
ATOM     23  C   UNL d   1       2.019   2.692  -0.525  0.00  0.00     0.257 C 
ATOM     24  N   UNL d   1       1.005   3.199  -1.300  0.00  0.00    -0.266 N 
ATOM     25  H   UNL d   1       0.138   2.714  -1.536  0.00  0.00     0.190 HD
ATOM     26  O   UNL d   1       3.074   3.329  -0.398  0.00  0.00    -0.270 OA
BRANCH  24  27
ATOM     27  N   UNL d   1       1.249   4.442  -1.903  0.00  0.00    -0.267 N 
ATOM     28  C   UNL d   1       0.459   4.885  -2.937  0.00  0.00     0.240 C 
ATOM     29  O   UNL d   1      -0.519   4.281  -3.363  0.00  0.00    -0.271 OA
ATOM     30  H   UNL d   1       2.113   4.910  -1.633  0.00  0.00     0.190 HD
BRANCH  28  31
ATOM     31  C   UNL d   1       0.881   6.204  -3.491  0.00  0.00     0.080 A 
ATOM     32  C   UNL d   1      -0.164   7.265  -3.749  0.00  0.00     0.015 A 
ATOM     33  C   UNL d   1       0.536   6.607  -4.904  0.00  0.00     0.015 A 
ENDBRANCH  28  31
ENDBRANCH  24  27
ENDBRANCH  22  23
ENDBRANCH   4  22
TORSDOF 7
