REMARK  2 active torsions:
REMARK  status: ('A' for Active; 'I' for Inactive)
REMARK       I    between atoms: N_2  and  C_1 
REMARK       I    between atoms: N_3  and  C_1 
REMARK    1  A    between atoms: C_6  and  N_2 
REMARK    2  A    between atoms: C_5  and  N_3 
ROOT
ATOM      1  C   UNL d   1       1.050  -0.089  -0.107  0.00  0.00     0.325 C 
ATOM      2  N   UNL d   1       0.420   0.944  -0.785  0.00  0.00    -0.309 N 
ATOM      3  N   UNL d   1       0.160  -0.766   0.710  0.00  0.00    -0.309 N 
ATOM      4  O   UNL d   1       2.241  -0.359  -0.201  0.00  0.00    -0.247 OA
ATOM      5  H   UNL d   1      -0.468   1.236  -0.406  0.00  0.00     0.170 HD
ATOM      6  H   UNL d   1      -0.809  -0.743   0.426  0.00  0.00     0.170 HD
ENDROOT
BRANCH   2   7
ATOM      7  C   UNL d   1       1.032   1.820  -1.710  0.00  0.00     0.036 A 
ATOM      8  C   UNL d   1       2.271   1.566  -2.311  0.00  0.00     0.032 A 
ATOM      9  C   UNL d   1       2.845   2.496  -3.181  0.00  0.00     0.044 A 
ATOM     10  C   UNL d   1       2.174   3.676  -3.462  0.00  0.00     0.116 A 
ATOM     11  C   UNL d   1       0.930   3.937  -2.900  0.00  0.00     0.044 A 
ATOM     12  F   UNL d   1       2.730   4.574  -4.285  0.00  0.00    -0.206 F 
ATOM     13  C   UNL d   1       0.355   3.005  -2.030  0.00  0.00     0.032 A 
ENDBRANCH   2   7
BRANCH   3  14
ATOM     14  C   UNL d   1       0.512  -1.713   1.698  0.00  0.00     0.036 A 
ATOM     15  C   UNL d   1       1.810  -1.829   2.214  0.00  0.00     0.032 A 
ATOM     16  C   UNL d   1       2.108  -2.783   3.190  0.00  0.00     0.044 A 
ATOM     17  C   UNL d   1       1.104  -3.616   3.659  0.00  0.00     0.116 A 
ATOM     18  C   UNL d   1      -0.195  -3.505   3.177  0.00  0.00     0.044 A 
ATOM     19  F   UNL d   1       1.389  -4.534   4.590  0.00  0.00    -0.206 F 
ATOM     20  C   UNL d   1      -0.494  -2.549   2.201  0.00  0.00     0.032 A 
ENDBRANCH   3  14
TORSDOF 2
