REMARK  7 active torsions:
REMARK  status: ('A' for Active; 'I' for Inactive)
REMARK    1  A    between atoms: N_2  and  S_1 
REMARK    2  A    between atoms: C_10  and  S_1 
REMARK    3  A    between atoms: C_3  and  N_2 
REMARK    4  A    between atoms: C_7  and  N_14 
REMARK    5  A    between atoms: N_8  and  C_7 
REMARK    6  A    between atoms: C_15  and  N_8 
REMARK    7  A    between atoms: N_14  and  C_20 
ROOT
ATOM      1  C   UNL d   1       1.101   1.567  -0.985  0.00  0.00     0.075 A 
ATOM      2  C   UNL d   1       0.515   1.414  -2.245  0.00  0.00     0.027 A 
ATOM      3  C   UNL d   1       1.255   2.840  -0.431  0.00  0.00     0.027 A 
ATOM      4  C   UNL d   1       0.137   3.810  -2.358  0.00  0.00     0.034 A 
ATOM      5  C   UNL d   1       0.027   2.534  -2.923  0.00  0.00     0.031 A 
ATOM      6  C   UNL d   1       0.785   3.961  -1.127  0.00  0.00     0.031 A 
ENDROOT
BRANCH   4   7
ATOM      7  N   UNL d   1      -0.571   4.865  -2.974  0.00  0.00    -0.333 N 
ATOM      8  H   UNL d   1      -1.286   4.600  -3.641  0.00  0.00     0.168 HD
BRANCH   7   9
ATOM      9  C   UNL d   1      -0.357   6.215  -2.900  0.00  0.00     0.176 C 
ATOM     10  S   UNL d   1       1.139   6.964  -2.834  0.00  0.00    -0.041 SA
BRANCH   9  11
ATOM     11  N   UNL d   1      -1.465   7.014  -3.038  0.00  0.00    -0.331 N 
ATOM     12  H   UNL d   1      -1.250   7.977  -3.290  0.00  0.00     0.168 HD
BRANCH  11  13
ATOM     13  C   UNL d   1      -2.766   6.847  -2.493  0.00  0.00     0.073 A 
ATOM     14  C   UNL d   1      -3.672   7.906  -2.658  0.00  0.00     0.143 A 
ATOM     15  F   UNL d   1      -3.322   8.973  -3.394  0.00  0.00    -0.204 F 
ATOM     16  C   UNL d   1      -4.925   7.901  -2.045  0.00  0.00     0.044 A 
ATOM     17  C   UNL d   1      -5.295   6.822  -1.249  0.00  0.00     0.003 A 
ATOM     18  C   UNL d   1      -4.415   5.750  -1.091  0.00  0.00     0.002 A 
ATOM     19  C   UNL d   1      -3.158   5.763  -1.711  0.00  0.00     0.033 A 
ENDBRANCH  11  13
ENDBRANCH   9  11
ENDBRANCH   7   9
ENDBRANCH   4   7
BRANCH   1  20
ATOM     20  S   UNL d   1       1.387   0.118   0.012  0.00  0.00     0.247 S 
ATOM     21  O   UNL d   1       1.344   0.537   1.400  0.00  0.00    -0.205 OA
ATOM     22  O   UNL d   1       0.509  -0.916  -0.485  0.00  0.00    -0.205 OA
BRANCH  20  23
ATOM     23  N   UNL d   1       3.008  -0.256  -0.311  0.00  0.00    -0.165 NA
ATOM     24  H   UNL d   1       3.476  -0.201   0.600  0.00  0.00     0.147 HD
BRANCH  23  25
ATOM     25  C   UNL d   1       3.233  -1.498  -0.897  0.00  0.00     0.117 A 
ATOM     26  N   UNL d   1       3.559  -2.573  -0.176  0.00  0.00    -0.249 N 
ATOM     27  O   UNL d   1       3.626  -3.620  -1.089  0.00  0.00    -0.241 OA
ATOM     28  HN  UNL d   1       3.723  -2.617   0.830  1.00  0.00     0.196 HD
ATOM     29  C   UNL d   1       3.413  -3.132  -2.342  0.00  0.00     0.075 A 
ATOM     30  C   UNL d   1       3.195  -1.779  -2.273  0.00  0.00     0.079 A 
ATOM     31  C   UNL d   1       3.452  -4.106  -3.446  0.00  0.00     0.079 C 
ENDBRANCH  23  25
ENDBRANCH  20  23
ENDBRANCH   1  20
TORSDOF 7
