REMARK  9 active torsions:
REMARK  status: ('A' for Active; 'I' for Inactive)
REMARK    1  A    between atoms: N_2  and  C_1 
REMARK    2  A    between atoms: C_3  and  C_1 
REMARK    3  A    between atoms: N_4  and  C_1 
REMARK    4  A    between atoms: C_6  and  C_1 
REMARK       I    between atoms: C_5  and  N_2 
REMARK    5  A    between atoms: C_7  and  N_4 
REMARK    6  A    between atoms: C_9  and  C_5 
REMARK    7  A    between atoms: O_15  and  C_6 
REMARK    8  A    between atoms: O_16  and  C_11 
REMARK    9  A    between atoms: C_21  and  O_15 
ROOT
ATOM      1  C   UNL d   1       1.284   0.046  -0.273  0.00  0.00     0.281 C 
ENDROOT
BRANCH   1   2
ATOM      2  N   UNL d   1       0.688   0.524  -1.534  0.00  0.00    -0.319 N 
ATOM      3  C   UNL d   1       0.769   1.838  -1.928  0.00  0.00     0.253 C 
ATOM      4  O   UNL d   1       1.315   2.706  -1.263  0.00  0.00    -0.268 OA
ATOM      5  H   UNL d   1       0.462  -0.180  -2.224  0.00  0.00     0.165 HD
BRANCH   3   6
ATOM      6  C   UNL d   1       0.180   2.134  -3.257  0.00  0.00     0.032 A 
ATOM      7  C   UNL d   1      -1.041   1.561  -3.637  0.00  0.00     0.017 A 
ATOM      8  C   UNL d   1      -1.581   1.849  -4.891  0.00  0.00     0.001 A 
ATOM      9  C   UNL d   1      -0.904   2.705  -5.761  0.00  0.00     0.000 A 
ATOM     10  C   UNL d   1       0.308   3.280  -5.378  0.00  0.00     0.001 A 
ATOM     11  C   UNL d   1       0.850   3.002  -4.123  0.00  0.00     0.017 A 
ENDBRANCH   3   6
ENDBRANCH   1   2
BRANCH   1  12
ATOM     12  C   UNL d   1       1.273  -1.522  -0.128  0.00  0.00     0.436 C 
ATOM     13  F   UNL d   1       0.754  -2.078  -1.265  0.00  0.00    -0.166 F 
ATOM     14  F   UNL d   1       2.493  -2.083   0.042  0.00  0.00    -0.166 F 
ATOM     15  F   UNL d   1       0.504  -1.975   0.890  0.00  0.00    -0.166 F 
ENDBRANCH   1  12
BRANCH   1  16
ATOM     16  N   UNL d   1       0.619   0.810   0.823  0.00  0.00    -0.248 NA
ATOM     17  H   UNL d   1       0.832   1.803   0.676  0.00  0.00     0.131 HD
BRANCH  16  18
ATOM     18  C   UNL d   1      -0.736   0.702   1.175  0.00  0.00     0.044 A 
ATOM     19  C   UNL d   1      -1.266   1.405   2.284  0.00  0.00     0.089 A 
ATOM     20  C   UNL d   1      -2.635   1.308   2.598  0.00  0.00     0.038 A 
ATOM     21  C   UNL d   1      -3.502   0.529   1.841  0.00  0.00     0.003 A 
ATOM     22  C   UNL d   1      -3.001  -0.168   0.753  0.00  0.00     0.002 A 
ATOM     23  C   UNL d   1      -1.642  -0.086   0.435  0.00  0.00     0.026 A 
BRANCH  19  24
ATOM     24  O   UNL d   1      -0.622   2.260   3.141  0.00  0.00    -0.354 OA
ATOM     25  C   UNL d   1       0.781   2.157   3.308  0.00  0.00     0.210 C 
ENDBRANCH  19  24
ENDBRANCH  16  18
ENDBRANCH   1  16
BRANCH   1  26
ATOM     26  C   UNL d   1       2.809   0.322  -0.350  0.00  0.00     0.312 C 
ATOM     27  O   UNL d   1       3.473   0.206  -1.380  0.00  0.00    -0.260 OA
BRANCH  26  28
ATOM     28  O   UNL d   1       3.337   0.644   0.868  0.00  0.00    -0.319 OA
BRANCH  28  29
ATOM     29  C   UNL d   1       4.758   0.849   0.897  0.00  0.00     0.174 C 
ATOM     30  C   UNL d   1       5.087   2.287   0.543  0.00  0.00     0.034 C 
ENDBRANCH  28  29
ENDBRANCH  26  28
ENDBRANCH   1  26
TORSDOF 9
