REMARK  6 active torsions:
REMARK  status: ('A' for Active; 'I' for Inactive)
REMARK    1  A    between atoms: C_8  and  C_3 
REMARK    2  A    between atoms: N_20  and  C_4 
REMARK    3  A    between atoms: O_17  and  C_12 
REMARK    4  A    between atoms: C_22  and  O_17 
REMARK    5  A    between atoms: O_23  and  C_19 
REMARK    6  A    between atoms: C_24  and  C_22 
ROOT
ATOM      1  C   UNL d   1       0.640   2.394   0.222  0.00  0.00     0.080 C 
ATOM      2  C   UNL d   1       2.549   0.837  -0.102  0.00  0.00     0.031 C 
ATOM      3  C   UNL d   1       1.142   1.170  -0.524  0.00  0.00     0.105 C 
ATOM      4  C   UNL d   1       1.507   3.268   0.779  0.00  0.00     0.138 C 
ATOM      5  C   UNL d   1       3.352   1.785   0.404  0.00  0.00     0.066 C 
ATOM      6  O   UNL d   1       2.882   3.061   0.678  0.00  0.00    -0.301 OA
ATOM      7  C   UNL d   1       3.041  -0.566  -0.177  0.00  0.00     0.159 C 
ATOM      8  C   UNL d   1      -0.768   2.588   0.320  0.00  0.00     0.100 C 
ATOM      9  N   UNL d   1      -1.909   2.763   0.391  0.00  0.00    -0.191 NA
ATOM     10  C   UNL d   1       4.806   1.590   0.706  0.00  0.00     0.075 C 
ATOM     11  C   UNL d   1       5.399   0.340   0.021  0.00  0.00    -0.035 C 
ATOM     12  C   UNL d   1       4.464  -0.856   0.268  0.00  0.00     0.092 C 
ATOM     13  O   UNL d   1       2.283  -1.474  -0.510  0.00  0.00    -0.293 OA
ATOM     14  C   UNL d   1       6.784   0.061   0.627  0.00  0.00     0.015 C 
ATOM     15  C   UNL d   1       5.576   0.565  -1.498  0.00  0.00     0.015 C 
ENDROOT
BRANCH   3  16
ATOM     16  C   UNL d   1       1.073   1.350  -2.048  0.00  0.00    -0.041 A 
ATOM     17  C   UNL d   1       0.844   0.227  -2.860  0.00  0.00     0.047 A 
ATOM     18  C   UNL d   1       0.774   0.327  -4.258  0.00  0.00     0.102 A 
ATOM     19  C   UNL d   1       0.934   1.580  -4.867  0.00  0.00     0.101 A 
ATOM     20  C   UNL d   1       1.165   2.702  -4.067  0.00  0.00     0.040 A 
ATOM     21  C   UNL d   1       1.256   2.589  -2.679  0.00  0.00     0.011 A 
BRANCH  18  22
ATOM     22  O   UNL d   1       0.445  -0.741  -5.045  0.00  0.00    -0.344 OA
BRANCH  22  23
ATOM     23  C   UNL d   1       0.868  -2.029  -4.599  0.00  0.00     0.214 C 
BRANCH  23  24
ATOM     24  C   UNL d   1       0.459  -3.068  -5.616  0.00  0.00    -0.034 A 
ATOM     25  C   UNL d   1       1.234  -4.224  -5.777  0.00  0.00     0.009 A 
ATOM     26  C   UNL d   1       0.840  -5.221  -6.670  0.00  0.00     0.001 A 
ATOM     27  C   UNL d   1      -0.338  -5.077  -7.402  0.00  0.00     0.000 A 
ATOM     28  C   UNL d   1      -1.127  -3.941  -7.239  0.00  0.00     0.001 A 
ATOM     29  C   UNL d   1      -0.734  -2.944  -6.346  0.00  0.00     0.009 A 
ENDBRANCH  23  24
ENDBRANCH  22  23
ENDBRANCH  18  22
BRANCH  19  30
ATOM     30  O   UNL d   1       0.844   1.873  -6.204  0.00  0.00    -0.353 OA
ATOM     31  C   UNL d   1       1.260   0.861  -7.115  0.00  0.00     0.210 C 
ENDBRANCH  19  30
ENDBRANCH   3  16
BRANCH   4  32
ATOM     32  N   UNL d   1       1.185   4.420   1.450  0.00  0.00    -0.282 NA
ATOM     33  H   UNL d   1       0.277   4.822   1.232  0.00  0.00     0.126 HD
ATOM     34  H   UNL d   1       1.941   5.099   1.437  0.00  0.00     0.126 HD
ENDBRANCH   4  32
TORSDOF 6
