REMARK  9 active torsions:
REMARK  status: ('A' for Active; 'I' for Inactive)
REMARK    1  A    between atoms: N_9  and  C_1 
REMARK    2  A    between atoms: N_6  and  C_2 
REMARK    3  A    between atoms: N_5  and  C_3 
REMARK    4  A    between atoms: S_4  and  N_7 
REMARK    5  A    between atoms: C_12  and  S_4 
REMARK    6  A    between atoms: N_7  and  N_9 
REMARK    7  A    between atoms: C_8  and  C_13 
REMARK    8  A    between atoms: C_10  and  C_16 
REMARK    9  A    between atoms: C_11  and  C_17 
ROOT
ATOM      1  N   UNL d   1       3.524  -1.770   0.530  0.00  0.00    -0.222 N 
ATOM      2  H   UNL d   1       3.123  -2.707   0.413  0.00  0.00     0.200 HD
ENDROOT
BRANCH   1   3
ATOM      3  S   UNL d   1       5.225  -1.697   0.628  0.00  0.00     0.276 S 
ATOM      4  O   UNL d   1       5.727  -1.396  -0.697  0.00  0.00    -0.199 OA
ATOM      5  O   UNL d   1       5.561  -0.871   1.765  0.00  0.00    -0.199 OA
BRANCH   3   6
ATOM      6  C   UNL d   1       5.668  -3.378   1.003  0.00  0.00     0.082 A 
ATOM      7  C   UNL d   1       5.768  -4.310  -0.038  0.00  0.00     0.041 A 
ATOM      8  C   UNL d   1       6.213  -5.614   0.226  0.00  0.00     0.050 A 
ATOM      9  C   UNL d   1       6.563  -5.960   1.544  0.00  0.00     0.032 A 
ATOM     10  C   UNL d   1       6.492  -5.023   2.591  0.00  0.00     0.050 A 
ATOM     11  C   UNL d   1       6.029  -3.727   2.310  0.00  0.00     0.041 A 
BRANCH   8  12
ATOM     12  C   UNL d   1       6.348  -6.638  -0.881  0.00  0.00     0.417 C 
ATOM     13  F   UNL d   1       6.081  -6.138  -2.117  0.00  0.00    -0.166 F 
ATOM     14  F   UNL d   1       7.602  -7.163  -0.949  0.00  0.00    -0.166 F 
ATOM     15  F   UNL d   1       5.506  -7.693  -0.710  0.00  0.00    -0.166 F 
ENDBRANCH   8  12
BRANCH  10  16
ATOM     16  C   UNL d   1       6.958  -5.411   3.978  0.00  0.00     0.417 C 
ATOM     17  F   UNL d   1       6.888  -4.395   4.880  0.00  0.00    -0.166 F 
ATOM     18  F   UNL d   1       6.230  -6.433   4.502  0.00  0.00    -0.166 F 
ATOM     19  F   UNL d   1       8.253  -5.830   3.984  0.00  0.00    -0.166 F 
ENDBRANCH  10  16
ENDBRANCH   3   6
ENDBRANCH   1   3
BRANCH   1  20
ATOM     20  N   UNL d   1       2.784  -0.542   0.235  0.00  0.00    -0.286 N 
ATOM     21  H   UNL d   1       3.393   0.289   0.133  0.00  0.00     0.188 HD
BRANCH  20  22
ATOM     22  C   UNL d   1       1.395  -0.312   0.143  0.00  0.00     0.114 A 
ATOM     23  C   UNL d   1       0.405  -1.299   0.338  0.00  0.00     0.134 A 
ATOM     24  C   UNL d   1      -0.981  -1.022   0.348  0.00  0.00     0.054 A 
ATOM     25  C   UNL d   1      -1.446   0.277   0.142  0.00  0.00     0.052 A 
ATOM     26  C   UNL d   1      -0.502   1.280  -0.104  0.00  0.00     0.054 A 
ATOM     27  C   UNL d   1       0.887   0.995  -0.114  0.00  0.00     0.134 A 
BRANCH  23  28
ATOM     28  N   UNL d   1       0.754  -2.688   0.564  0.00  0.00    -0.113 N 
ATOM     29  O   UNL d   1       1.401  -3.271  -0.316  0.00  0.00    -0.532 OA
ATOM     30  O   UNL d   1       0.369  -3.198   1.622  0.00  0.00    -0.532 OA
ENDBRANCH  23  28
BRANCH  25  31
ATOM     31  C   UNL d   1      -2.922   0.610   0.187  0.00  0.00     0.417 C 
ATOM     32  F   UNL d   1      -3.710  -0.478   0.391  0.00  0.00    -0.166 F 
ATOM     33  F   UNL d   1      -3.217   1.487   1.181  0.00  0.00    -0.166 F 
ATOM     34  F   UNL d   1      -3.353   1.181  -0.969  0.00  0.00    -0.166 F 
ENDBRANCH  25  31
BRANCH  27  35
ATOM     35  N   UNL d   1       1.788   2.134  -0.400  0.00  0.00    -0.113 N 
ATOM     36  O   UNL d   1       3.009   1.923  -0.420  0.00  0.00    -0.532 OA
ATOM     37  O   UNL d   1       1.270   3.240  -0.608  0.00  0.00    -0.532 OA
ENDBRANCH  27  35
ENDBRANCH  20  22
ENDBRANCH   1  20
TORSDOF 9
