REMARK  9 active torsions:
REMARK  status: ('A' for Active; 'I' for Inactive)
REMARK    1  A    between atoms: C_7  and  C_1 
REMARK    2  A    between atoms: C_3  and  C_2 
REMARK    3  A    between atoms: O_14  and  C_6 
REMARK    4  A    between atoms: O_27  and  C_7 
REMARK    5  A    between atoms: N_8  and  O_14 
REMARK    6  A    between atoms: C_15  and  C_12 
REMARK    7  A    between atoms: N_26  and  C_12 
REMARK    8  A    between atoms: C_16  and  C_17 
REMARK    9  A    between atoms: C_31  and  O_27 
ROOT
ATOM      1  C   UNL d   1      -2.480  -1.284  -0.351  0.00  0.00     0.086 A 
ATOM      2  C   UNL d   1      -3.600  -0.503  -0.115  0.00  0.00     0.137 A 
ATOM      3  N   UNL d   1      -3.494   0.862  -0.005  0.00  0.00    -0.316 N 
ATOM      4  HN  UNL d   1      -4.319   1.437   0.164  1.00  0.00     0.169 HD
ATOM      5  C   UNL d   1      -2.279   1.423  -0.123  0.00  0.00     0.247 A 
ATOM      6  N   UNL d   1      -1.151   0.737  -0.349  0.00  0.00    -0.330 N 
ATOM      7  HN  UNL d   1      -0.245   1.199  -0.432  1.00  0.00     0.168 HD
ATOM      8  C   UNL d   1      -1.281  -0.598  -0.460  0.00  0.00     0.111 A 
ENDROOT
BRANCH   5   9
ATOM      9  O   UNL d   1      -2.261   2.810  -0.005  0.00  0.00    -0.199 OA
BRANCH   9  10
ATOM     10  N   UNL d   1      -0.954   3.329  -0.125  0.00  0.00    -0.246 N 
ATOM     11  C   UNL d   1      -0.953   4.613   0.074  0.00  0.00     0.109 C 
ATOM     12  HN  UNL d   1      -0.126   2.774  -0.339  1.00  0.00     0.196 HD
BRANCH  11  13
ATOM     13  C   UNL d   1       0.354   5.339   0.008  0.00  0.00     0.004 A 
ATOM     14  C   UNL d   1       1.401   4.843  -0.770  0.00  0.00     0.015 A 
ATOM     15  C   UNL d   1       2.622   5.530  -0.823  0.00  0.00     0.009 A 
ATOM     16  C   UNL d   1       2.835   6.714  -0.089  0.00  0.00    -0.051 A 
ATOM     17  C   UNL d   1       1.763   7.193   0.683  0.00  0.00     0.009 A 
ATOM     18  C   UNL d   1       0.538   6.517   0.732  0.00  0.00     0.015 A 
BRANCH  16  19
ATOM     19  C   UNL d   1       4.208   7.413  -0.119  0.00  0.00    -0.024 C 
ATOM     20  C   UNL d   1       4.280   8.671   0.779  0.00  0.00     0.019 C 
ATOM     21  C   UNL d   1       5.295   6.436   0.379  0.00  0.00     0.019 C 
ATOM     22  C   UNL d   1       4.552   7.859  -1.555  0.00  0.00     0.019 C 
ENDBRANCH  16  19
ENDBRANCH  11  13
BRANCH  11  23
ATOM     23  N   UNL d   1      -2.092   5.346   0.333  0.00  0.00    -0.286 NA
ATOM     24  H   UNL d   1      -2.941   4.832   0.116  0.00  0.00     0.125 HD
ATOM     25  H   UNL d   1      -2.103   6.284  -0.050  0.00  0.00     0.125 HD
ENDBRANCH  11  23
ENDBRANCH   9  10
ENDBRANCH   5   9
BRANCH   2  26
ATOM     26  C   UNL d   1      -5.005  -1.045   0.082  0.00  0.00     0.433 C 
ATOM     27  F   UNL d   1      -5.148  -2.397   0.098  0.00  0.00    -0.165 F 
ATOM     28  F   UNL d   1      -5.529  -0.640   1.281  0.00  0.00    -0.165 F 
ATOM     29  F   UNL d   1      -5.871  -0.589  -0.862  0.00  0.00    -0.165 F 
ENDBRANCH   2  26
BRANCH   1  30
ATOM     30  C   UNL d   1      -2.472  -2.740  -0.570  0.00  0.00     0.296 C 
ATOM     31  O   UNL d   1      -3.337  -3.347  -1.171  0.00  0.00    -0.259 OA
BRANCH  30  32
ATOM     32  O   UNL d   1      -1.332  -3.253  -0.047  0.00  0.00    -0.318 OA
BRANCH  32  33
ATOM     33  C   UNL d   1      -1.114  -4.664  -0.230  0.00  0.00     0.174 C 
ATOM     34  C   UNL d   1      -0.640  -4.970  -1.641  0.00  0.00     0.034 C 
ENDBRANCH  32  33
ENDBRANCH  30  32
ENDBRANCH   1  30
TORSDOF 9
