REMARK  5 active torsions:
REMARK  status: ('A' for Active; 'I' for Inactive)
REMARK    1  A    between atoms: C_4  and  C_1 
REMARK    2  A    between atoms: C_7  and  N_2 
REMARK    3  A    between atoms: N_3  and  C_6 
REMARK       I    between atoms: C_5  and  N_12 
REMARK    4  A    between atoms: C_14  and  C_5 
REMARK    5  A    between atoms: N_12  and  C_26 
ROOT
ATOM      1  C   UNL d   1      -1.965  -3.233   8.748  0.00  0.00     0.103 A 
ATOM      2  N   UNL d   1      -0.971  -3.222   9.662  0.00  0.00    -0.350 N 
ATOM      3  HN  UNL d   1      -0.007  -3.041   9.382  1.00  0.00     0.166 HD
ATOM      4  C   UNL d   1      -3.273  -3.491   9.158  0.00  0.00     0.051 A 
ATOM      5  C   UNL d   1      -2.561  -3.740  11.448  0.00  0.00     0.050 A 
ATOM      6  C   UNL d   1      -1.285  -3.458  10.969  0.00  0.00     0.119 A 
ATOM      7  C   UNL d   1      -3.570  -3.744  10.498  0.00  0.00     0.035 A 
ENDROOT
BRANCH   1   8
ATOM      8  N   UNL d   1      -1.677  -3.022   7.421  0.00  0.00    -0.364 N 
ATOM      9  C   UNL d   1      -0.340  -3.301   6.873  0.00  0.00     0.144 C 
ATOM     10  C   UNL d   1       0.301  -2.049   6.237  0.00  0.00     0.144 C 
ATOM     11  N   UNL d   1      -0.637  -1.330   5.360  0.00  0.00    -0.364 N 
ATOM     12  C   UNL d   1      -1.957  -1.050   5.930  0.00  0.00     0.144 C 
ATOM     13  C   UNL d   1      -2.598  -2.330   6.513  0.00  0.00     0.144 C 
BRANCH  11  14
ATOM     14  C   UNL d   1      -0.314  -1.037   4.058  0.00  0.00     0.103 A 
ATOM     15  C   UNL d   1      -0.831   0.095   3.426  0.00  0.00     0.049 A 
ATOM     16  C   UNL d   1      -0.512   0.376   2.098  0.00  0.00     0.021 A 
ATOM     17  C   UNL d   1       0.321  -0.489   1.395  0.00  0.00     0.063 A 
ATOM     18  C   UNL d   1       0.807  -1.586   2.085  0.00  0.00     0.106 A 
ATOM     19  N   UNL d   1       0.519  -1.860   3.385  0.00  0.00    -0.352 N 
ATOM     20  HN  UNL d   1       0.926  -2.675   3.845  1.00  0.00     0.166 HD
BRANCH  17  21
ATOM     21  C   UNL d   1       0.679  -0.237  -0.035  0.00  0.00     0.418 C 
ATOM     22  F   UNL d   1       1.459  -1.206  -0.587  0.00  0.00    -0.166 F 
ATOM     23  F   UNL d   1       1.360   0.931  -0.202  0.00  0.00    -0.166 F 
ATOM     24  F   UNL d   1      -0.418  -0.142  -0.837  0.00  0.00    -0.166 F 
ENDBRANCH  17  21
ENDBRANCH  11  14
ENDBRANCH   1   8
BRANCH   5  25
ATOM     25  N   UNL d   1      -2.763  -4.044  12.819  0.00  0.00    -0.322 N 
ATOM     26  C   UNL d   1      -3.980  -4.356  13.405  0.00  0.00     0.256 C 
ATOM     27  O   UNL d   1      -5.081  -4.291  12.862  0.00  0.00    -0.267 OA
ATOM     28  H   UNL d   1      -1.943  -4.019  13.410  0.00  0.00     0.169 HD
BRANCH  26  29
ATOM     29  C   UNL d   1      -3.961  -4.812  14.824  0.00  0.00     0.032 A 
ATOM     30  C   UNL d   1      -5.125  -4.610  15.585  0.00  0.00     0.018 A 
ATOM     31  C   UNL d   1      -5.231  -5.128  16.877  0.00  0.00     0.025 A 
ATOM     32  C   UNL d   1      -4.173  -5.853  17.414  0.00  0.00     0.034 A 
ATOM     33  C   UNL d   1      -3.003  -6.046  16.677  0.00  0.00     0.025 A 
ATOM     34 CL   UNL d   1      -4.322  -6.545  18.982  0.00  0.00    -0.084 Cl
ATOM     35  C   UNL d   1      -2.893  -5.528  15.379  0.00  0.00     0.018 A 
ENDBRANCH  26  29
ENDBRANCH   5  25
TORSDOF 5
