REMARK  4 active torsions:
REMARK  status: ('A' for Active; 'I' for Inactive)
REMARK    1  A    between atoms: C_7  and  N_1 
REMARK    2  A    between atoms: N_4  and  C_8 
REMARK    3  A    between atoms: C_11  and  C_5 
REMARK    4  A    between atoms: O_23  and  C_20 
ROOT
ATOM      1  N   UNL d   1       0.035   0.840  -0.074  0.00  0.00    -0.252 N 
ATOM      2  C   UNL d   1      -1.100   0.071   0.091  0.00  0.00     0.240 C 
ATOM      3  C   UNL d   1       1.165   0.055  -0.177  0.00  0.00     0.232 C 
ATOM      4  C   UNL d   1      -0.721  -1.392   0.011  0.00  0.00     0.120 C 
ATOM      5  C   UNL d   1       0.794  -1.386   0.004  0.00  0.00     0.122 C 
ATOM      6  O   UNL d   1      -2.261   0.435   0.228  0.00  0.00    -0.272 OA
ATOM      7  O   UNL d   1       2.332   0.389  -0.320  0.00  0.00    -0.273 OA
ENDROOT
BRANCH   4   8
ATOM      8  C   UNL d   1      -1.335  -2.087  -1.191  0.00  0.00    -0.044 A 
ATOM      9  C   UNL d   1      -1.023  -1.702  -2.507  0.00  0.00     0.010 A 
ATOM     10  C   UNL d   1      -1.633  -2.328  -3.598  0.00  0.00     0.036 A 
ATOM     11  C   UNL d   1      -2.567  -3.346  -3.378  0.00  0.00     0.102 A 
ATOM     12  C   UNL d   1      -2.877  -3.755  -2.076  0.00  0.00     0.036 A 
ATOM     13  C   UNL d   1      -2.262  -3.125  -0.991  0.00  0.00     0.010 A 
BRANCH  11  14
ATOM     14  N   UNL d   1      -3.238  -3.977  -4.521  0.00  0.00    -0.116 N 
ATOM     15  O   UNL d   1      -2.945  -3.575  -5.656  0.00  0.00    -0.532 OA
ATOM     16  O   UNL d   1      -4.060  -4.874  -4.284  0.00  0.00    -0.532 OA
ENDBRANCH  11  14
ENDBRANCH   4   8
BRANCH   1  17
ATOM     17  C   UNL d   1       0.048   2.271  -0.117  0.00  0.00     0.045 A 
ATOM     18  C   UNL d   1      -1.008   3.036   0.406  0.00  0.00     0.033 A 
ATOM     19  C   UNL d   1      -0.979   4.441   0.394  0.00  0.00     0.039 A 
ATOM     20  C   UNL d   1       0.105   5.115  -0.159  0.00  0.00     0.068 A 
ATOM     21  C   UNL d   1       1.158   4.375  -0.685  0.00  0.00     0.039 A 
ATOM     22  C   UNL d   1       1.127   2.975  -0.670  0.00  0.00     0.033 A 
BRANCH  20  23
ATOM     23  O   UNL d   1       0.266   6.470  -0.204  0.00  0.00    -0.356 OA
ATOM     24  C   UNL d   1      -0.932   7.238  -0.207  0.00  0.00     0.210 C 
ENDBRANCH  20  23
ENDBRANCH   1  17
TORSDOF 4
