REMARK  4 active torsions:
REMARK  status: ('A' for Active; 'I' for Inactive)
REMARK    1  A    between atoms: C_8  and  C_1 
REMARK    2  A    between atoms: N_7  and  C_2 
REMARK    3  A    between atoms: C_11  and  C_3 
REMARK       I    between atoms: C_9  and  N_7 
REMARK    4  A    between atoms: C_10  and  C_9 
ROOT
ATOM      1  C   UNL d   1       1.574   0.754  -0.123  0.00  0.00     0.147 A 
ATOM      2  C   UNL d   1       0.150  -0.957   0.069  0.00  0.00     0.138 A 
ATOM      3  C   UNL d   1       1.508  -0.676   0.024  0.00  0.00     0.053 A 
ATOM      4  N   UNL d   1       0.337   1.292  -0.117  0.00  0.00    -0.292 N 
ATOM      5  HN  UNL d   1       0.089   2.277  -0.210  1.00  0.00     0.187 HD
ATOM      6  N   UNL d   1      -0.496   0.254   0.039  0.00  0.00    -0.280 N 
ATOM      7  C   UNL d   1      -1.884   0.529   0.328  0.00  0.00     0.179 C 
ENDROOT
BRANCH   2   8
ATOM      8  N   UNL d   1      -0.397  -2.212   0.279  0.00  0.00    -0.305 N 
ATOM      9  C   UNL d   1      -1.349  -2.903  -0.542  0.00  0.00     0.281 C 
ATOM     10  O   UNL d   1      -1.671  -3.994  -0.096  0.00  0.00    -0.265 OA
ATOM     11  H   UNL d   1       0.056  -2.817   0.954  0.00  0.00     0.170 HD
BRANCH   9  12
ATOM     12  C   UNL d   1      -1.772  -2.399  -1.830  0.00  0.00     0.142 A 
ATOM     13  O   UNL d   1      -1.393  -1.164  -2.279  0.00  0.00    -0.317 OA
ATOM     14  C   UNL d   1      -1.929  -0.988  -3.514  0.00  0.00     0.143 A 
ATOM     15  C   UNL d   1      -2.635  -2.103  -3.893  0.00  0.00     0.027 A 
ATOM     16  C   UNL d   1      -2.534  -3.013  -2.813  0.00  0.00     0.045 A 
ENDBRANCH   9  12
ENDBRANCH   2   8
BRANCH   3  17
ATOM     17  C   UNL d   1       2.559  -1.694   0.085  0.00  0.00    -0.020 A 
ATOM     18  C   UNL d   1       2.427  -2.916  -0.599  0.00  0.00     0.014 A 
ATOM     19  C   UNL d   1       3.408  -3.909  -0.500  0.00  0.00     0.020 A 
ATOM     20  C   UNL d   1       4.558  -3.670   0.245  0.00  0.00     0.011 A 
ATOM     21  C   UNL d   1       4.726  -2.453   0.899  0.00  0.00     0.020 A 
ATOM     22 BR   UNL d   1       5.893  -5.000   0.367  0.00  0.00    -0.051 Br
ATOM     23  C   UNL d   1       3.722  -1.480   0.837  0.00  0.00     0.014 A 
ENDBRANCH   3  17
BRANCH   1  24
ATOM     24  C   UNL d   1       2.784   1.656  -0.252  0.00  0.00     0.434 C 
ATOM     25  F   UNL d   1       3.936   0.976  -0.479  0.00  0.00    -0.165 F 
ATOM     26  F   UNL d   1       2.658   2.544  -1.274  0.00  0.00    -0.165 F 
ATOM     27  F   UNL d   1       2.983   2.379   0.882  0.00  0.00    -0.165 F 
ENDBRANCH   1  24
TORSDOF 4
