REMARK  7 active torsions:
REMARK  status: ('A' for Active; 'I' for Inactive)
REMARK    1  A    between atoms: C_8  and  C_1 
REMARK    2  A    between atoms: N_6  and  C_2 
REMARK    3  A    between atoms: O_18  and  C_8 
REMARK    4  A    between atoms: C_9  and  O_14 
REMARK    5  A    between atoms: N_10  and  O_18 
REMARK    6  A    between atoms: O_14  and  C_23 
REMARK    7  A    between atoms: C_24  and  C_22 
ROOT
ATOM      1  O   UNL d   1       2.618  -2.916  -0.113  0.00  0.00    -0.195 OA
ENDROOT
BRANCH   1   2
ATOM      2  N   UNL d   1       3.891  -3.527  -0.157  0.00  0.00    -0.268 N 
ATOM      3  C   UNL d   1       3.766  -4.803  -0.321  0.00  0.00     0.126 C 
ATOM      4  HN  UNL d   1       4.780  -3.033  -0.073  1.00  0.00     0.194 HD
BRANCH   3   5
ATOM      5  C   UNL d   1       4.945  -5.688  -0.395  0.00  0.00    -0.019 A 
ATOM      6  C   UNL d   1       6.237  -5.168  -0.300  0.00  0.00     0.015 A 
ATOM      7  C   UNL d   1       7.336  -6.029  -0.342  0.00  0.00     0.038 A 
ATOM      8  C   UNL d   1       7.156  -7.410  -0.468  0.00  0.00     0.078 A 
ATOM      9  C   UNL d   1       5.865  -7.918  -0.621  0.00  0.00     0.038 A 
ATOM     10  C   UNL d   1       4.757  -7.061  -0.566  0.00  0.00     0.015 A 
BRANCH   8  11
ATOM     11  O   UNL d   1       8.306  -8.136  -0.503  0.00  0.00    -0.255 OA
BRANCH  11  12
ATOM     12  C   UNL d   1       8.327  -9.447   0.047  0.00  0.00     0.530 C 
ATOM     13  F   UNL d   1       7.164  -9.839   0.607  0.00  0.00    -0.144 F 
ATOM     14  F   UNL d   1       8.656 -10.326  -0.924  0.00  0.00    -0.144 F 
ATOM     15  F   UNL d   1       9.284  -9.500   1.002  0.00  0.00    -0.144 F 
ENDBRANCH  11  12
ENDBRANCH   8  11
ENDBRANCH   3   5
ENDBRANCH   1   2
BRANCH   1  16
ATOM     16  C   UNL d   1       2.764  -1.546  -0.041  0.00  0.00     0.320 C 
ATOM     17  O   UNL d   1       3.835  -0.948   0.015  0.00  0.00    -0.257 OA
BRANCH  16  18
ATOM     18  C   UNL d   1       1.480  -0.867  -0.020  0.00  0.00     0.104 A 
ATOM     19  C   UNL d   1       1.151   0.423  -0.430  0.00  0.00     0.145 A 
ATOM     20  N   UNL d   1      -0.168   0.609  -0.085  0.00  0.00    -0.280 N 
ATOM     21  C   UNL d   1      -1.082   1.688  -0.387  0.00  0.00     0.179 C 
ATOM     22  N   UNL d   1      -0.710  -0.479   0.507  0.00  0.00    -0.307 N 
ATOM     23  C   UNL d   1       0.284  -1.362   0.539  0.00  0.00     0.129 A 
ATOM     24  HN  UNL d   1      -1.663  -0.596   0.851  1.00  0.00     0.186 HD
BRANCH  19  25
ATOM     25  N   UNL d   1       1.956   1.355  -1.097  0.00  0.00    -0.317 N 
ATOM     26  C   UNL d   1       1.889   2.734  -1.017  0.00  0.00     0.098 A 
ATOM     27  C   UNL d   1       2.842   3.293  -1.841  0.00  0.00     0.019 A 
ATOM     28  C   UNL d   1       3.538   2.232  -2.449  0.00  0.00     0.019 A 
ATOM     29  C   UNL d   1       2.979   1.065  -1.981  0.00  0.00     0.098 A 
ENDBRANCH  19  25
ENDBRANCH  16  18
ENDBRANCH   1  16
TORSDOF 7
