REMARK  4 active torsions:
REMARK  status: ('A' for Active; 'I' for Inactive)
REMARK       I    between atoms: N_4  and  C_1 
REMARK    1  A    between atoms: C_9  and  C_1 
REMARK    2  A    between atoms: C_2  and  C_7 
REMARK    3  A    between atoms: C_7  and  N_3 
REMARK    4  A    between atoms: C_11  and  N_4 
ROOT
ATOM      1  N   UNL d   1       1.064  -5.318  -0.458  0.00  0.00     0.092 N 
ATOM      2  C   UNL d   1       1.270  -2.438  -0.199  0.00  0.00     0.088 C 
ATOM      3  C   UNL d   1       1.171  -3.127  -1.566  0.00  0.00     0.055 C 
ATOM      4  C   UNL d   1       1.150  -3.338   1.038  0.00  0.00     0.055 C 
ATOM      5  C   UNL d   1       0.561  -4.723   0.794  0.00  0.00     0.275 C 
ATOM      6  C   UNL d   1       0.521  -4.508  -1.561  0.00  0.00     0.275 C 
ENDROOT
BRANCH   2   7
ATOM      7  N   UNL d   1       0.465  -1.219  -0.109  0.00  0.00    -0.352 N 
ATOM      8  C   UNL d   1      -0.912  -1.183  -0.112  0.00  0.00     0.252 C 
ATOM      9  O   UNL d   1      -1.618  -2.181  -0.183  0.00  0.00    -0.268 OA
ATOM     10  H   UNL d   1       0.961  -0.348  -0.232  0.00  0.00     0.163 HD
BRANCH   8  11
ATOM     11  C   UNL d   1      -1.520   0.182  -0.060  0.00  0.00     0.032 A 
ATOM     12  C   UNL d   1      -2.765   0.387  -0.666  0.00  0.00     0.017 A 
ATOM     13  C   UNL d   1      -3.351   1.659  -0.652  0.00  0.00     0.001 A 
ATOM     14  C   UNL d   1      -2.703   2.721  -0.024  0.00  0.00     0.000 A 
ATOM     15  C   UNL d   1      -1.473   2.519   0.599  0.00  0.00     0.001 A 
ATOM     16  C   UNL d   1      -0.883   1.251   0.586  0.00  0.00     0.017 A 
ENDBRANCH   8  11
ENDBRANCH   2   7
BRANCH   1  17
ATOM     17  C   UNL d   1       0.606  -6.722  -0.539  0.00  0.00     0.312 C 
BRANCH  17  18
ATOM     18  C   UNL d   1       1.141  -7.495  -1.734  0.00  0.00    -0.008 A 
ATOM     19  C   UNL d   1       0.304  -8.129  -2.669  0.00  0.00     0.043 A 
ATOM     20  C   UNL d   1       0.841  -8.875  -3.725  0.00  0.00     0.048 A 
ATOM     21 CL   UNL d   1      -1.420  -8.036  -2.581  0.00  0.00    -0.084 Cl
ATOM     22  C   UNL d   1       2.221  -8.996  -3.856  0.00  0.00     0.035 A 
ATOM     23  C   UNL d   1       3.071  -8.375  -2.948  0.00  0.00     0.024 A 
ATOM     24 CL   UNL d   1       2.876  -9.927  -5.147  0.00  0.00    -0.084 Cl
ATOM     25  C   UNL d   1       2.535  -7.630  -1.894  0.00  0.00     0.012 A 
ENDBRANCH  17  18
ENDBRANCH   1  17
TORSDOF 4
