REMARK  6 active torsions:
REMARK  status: ('A' for Active; 'I' for Inactive)
REMARK    1  A    between atoms: C_3  and  N_1 
REMARK    2  A    between atoms: CA_6  and  C_2 
REMARK    3  A    between atoms: OXT_13  and  C_2 
REMARK    4  A    between atoms: CA_6  and  C_8 
REMARK    5  A    between atoms: N_12  and  CA_6 
REMARK    6  A    between atoms: C_8  and  C_11 
ROOT
ATOM      1  C   UNL d   1       0.170   0.877   0.449  0.00  0.00     0.102 A 
ATOM      2  C   UNL d   1       0.638   2.151   0.112  0.00  0.00     0.036 A 
ATOM      3  C   UNL d   1      -1.032   0.726   1.153  0.00  0.00     0.036 A 
ATOM      4  C   UNL d   1      -1.306   3.141   1.194  0.00  0.00    -0.056 A 
ATOM      5  C   UNL d   1      -1.770   1.857   1.515  0.00  0.00     0.009 A 
ATOM      6  C   UNL d   1      -0.100   3.276   0.487  0.00  0.00     0.009 A 
ENDROOT
BRANCH   4   7
ATOM      7  C   UNL d   1      -2.109   4.373   1.552  0.00  0.00     0.085 C 
BRANCH   7   8
ATOM      8  CA  UNL d   1      -2.366   4.565   3.055  0.00  0.00     0.318 C 
BRANCH   8   9
ATOM      9  C   UNL d   1      -1.044   4.835   3.793  0.00  0.00     0.174 C 
ATOM     10  O   UNL d   1      -0.549   5.946   3.921  0.00  0.00    -0.648 OA
BRANCH   9  11
ATOM     11  OXT UNL d   1      -0.471   3.727   4.319  0.00  0.00    -0.775 OA
ATOM     12  HXT UNL d   1      -0.953   2.897   4.142  0.00  0.00     0.167 HD
ENDBRANCH   9  11
ENDBRANCH   8   9
BRANCH   8  13
ATOM     13  N   UNL d   1      -3.286   5.713   3.257  0.00  0.00     0.093 N 
ATOM     14  H1  UNL d   1      -2.880   6.531   2.793  0.00  0.00     0.314 HD
ATOM     15  H2  UNL d   1      -3.270   5.973   4.247  0.00  0.00     0.314 HD
ENDBRANCH   8  13
ENDBRANCH   7   8
ENDBRANCH   4   7
BRANCH   1  16
ATOM     16  N   UNL d   1       0.937  -0.309   0.051  0.00  0.00    -0.116 N 
ATOM     17  O   UNL d   1       1.968  -0.135  -0.614  0.00  0.00    -0.532 OA
ATOM     18  O   UNL d   1       0.506  -1.418   0.406  0.00  0.00    -0.532 OA
ENDBRANCH   1  16
TORSDOF 6
