REMARK  3 active torsions:
REMARK  status: ('A' for Active; 'I' for Inactive)
REMARK    1  A    between atoms: C_2  and  S_1 
REMARK    2  A    between atoms: N_3  and  S_1 
REMARK    3  A    between atoms: C_4  and  N_3 
ROOT
ATOM      1  S   UNL d   1       0.968  -0.098  -0.124  0.00  0.00     0.248 S 
ATOM      2  O   UNL d   1       0.212  -0.275   1.099  0.00  0.00    -0.205 OA
ATOM      3  O   UNL d   1       2.411  -0.126  -0.099  0.00  0.00    -0.205 OA
ENDROOT
BRANCH   1   4
ATOM      4  C   UNL d   1       0.383   1.427  -0.847  0.00  0.00     0.098 A 
ATOM      5  C   UNL d   1      -0.927   1.828  -0.513  0.00  0.00     0.052 A 
ATOM      6  C   UNL d   1      -1.444   3.038  -0.985  0.00  0.00     0.057 A 
ATOM      7 CL   UNL d   1      -3.062   3.452  -0.543  0.00  0.00    -0.083 Cl
ATOM      8  C   UNL d   1      -0.654   3.866  -1.784  0.00  0.00     0.057 A 
ATOM      9  C   UNL d   1       0.646   3.473  -2.110  0.00  0.00     0.051 A 
ATOM     10 CL   UNL d   1      -1.213   5.382  -2.393  0.00  0.00    -0.082 Cl
ATOM     11  C   UNL d   1       1.174   2.258  -1.643  0.00  0.00     0.058 A 
ATOM     12 CL   UNL d   1       2.785   1.912  -2.145  0.00  0.00    -0.083 Cl
ENDBRANCH   1   4
BRANCH   1  13
ATOM     13  N   UNL d   1       0.413  -1.342  -1.153  0.00  0.00    -0.165 NA
ATOM     14  H   UNL d   1      -0.467  -1.679  -0.758  0.00  0.00     0.147 HD
BRANCH  13  15
ATOM     15  C   UNL d   1       0.401  -1.068  -2.551  0.00  0.00     0.111 A 
ATOM     16  N   UNL d   1       1.428  -1.125  -3.458  0.00  0.00    -0.285 N 
ATOM     17  N   UNL d   1       1.039  -0.763  -4.701  0.00  0.00    -0.309 N 
ATOM     18  C   UNL d   1       2.753  -1.669  -3.274  0.00  0.00     0.179 C 
ATOM     19  C   UNL d   1      -0.277  -0.574  -4.583  0.00  0.00     0.110 A 
ATOM     20  HN  UNL d   1       1.617  -0.659  -5.535  1.00  0.00     0.186 HD
ATOM     21  C   UNL d   1      -0.734  -0.776  -3.270  0.00  0.00     0.063 A 
ENDBRANCH  13  15
ENDBRANCH   1  13
TORSDOF 3
