REMARK  1 active torsions:
REMARK  status: ('A' for Active; 'I' for Inactive)
REMARK    1  A    between atoms: N_5  and  C_3 
ROOT
ATOM      1  N   UNL d   1       0.534  -0.366   0.871  0.00  0.00    -0.307 N 
ATOM      2  HN  UNL d   1       1.033  -0.352   1.760  1.00  0.00     0.171 HD
ATOM      3  C   UNL d   1       0.660  -1.318   0.004  0.00  0.00     0.145 A 
ATOM      4  S   UNL d   1      -0.273  -1.130  -1.468  0.00  0.00    -0.085 SA
ATOM      5  C   UNL d   1      -0.336   0.624   0.481  0.00  0.00     0.233 A 
ATOM      6  C   UNL d   1      -0.927   0.444  -0.895  0.00  0.00     0.185 A 
ATOM      7  O   UNL d   1      -0.615   1.593   1.179  0.00  0.00    -0.272 OA
ENDROOT
BRANCH   3   8
ATOM      8  N   UNL d   1       1.489  -2.405   0.154  0.00  0.00    -0.358 N 
ATOM      9  C   UNL d   1       2.314  -2.554   1.367  0.00  0.00     0.151 C 
ATOM     10  C   UNL d   1       3.684  -3.138   0.987  0.00  0.00     0.187 C 
ATOM     11  O   UNL d   1       3.547  -4.386   0.289  0.00  0.00    -0.388 OA
ATOM     12  C   UNL d   1       2.775  -4.207  -0.909  0.00  0.00     0.187 C 
ATOM     13  C   UNL d   1       1.374  -3.665  -0.596  0.00  0.00     0.151 C 
ENDBRANCH   3   8
TORSDOF 1
