REMARK  4 active torsions:
REMARK  status: ('A' for Active; 'I' for Inactive)
REMARK    1  A    between atoms: C_8  and  C_1 
REMARK    2  A    between atoms: N_6  and  C_2 
REMARK    3  A    between atoms: C_11  and  C_4 
REMARK       I    between atoms: C_7  and  N_6 
REMARK    4  A    between atoms: C_9  and  C_7 
REMARK       I    between atoms: N_17  and  C_8 
ROOT
ATOM      1  C   UNL d   1       0.041   1.188  -0.416  0.00  0.00     0.100 C 
ATOM      2  C   UNL d   1       1.340   0.844  -0.071  0.00  0.00     0.059 C 
ATOM      3  S   UNL d   1      -1.028  -0.131  -0.176  0.00  0.00    -0.082 SA
ATOM      4  C   UNL d   1       0.251  -1.262  -0.037  0.00  0.00     0.018 C 
ATOM      5  C   UNL d   1       1.453  -0.584   0.088  0.00  0.00     0.051 C 
ENDROOT
BRANCH   2   6
ATOM      6  N   UNL d   1       2.466   1.662   0.052  0.00  0.00    -0.320 N 
ATOM      7  C   UNL d   1       2.479   3.029   0.276  0.00  0.00     0.280 C 
ATOM      8  O   UNL d   1       1.483   3.721   0.448  0.00  0.00    -0.265 OA
ATOM      9  H   UNL d   1       3.365   1.201   0.147  0.00  0.00     0.169 HD
BRANCH   7  10
ATOM     10  C   UNL d   1       3.813   3.597   0.280  0.00  0.00     0.142 A 
ATOM     11  O   UNL d   1       4.906   2.775   0.175  0.00  0.00    -0.317 OA
ATOM     12  C   UNL d   1       6.006   3.573   0.176  0.00  0.00     0.143 A 
ATOM     13  C   UNL d   1       5.645   4.896   0.272  0.00  0.00     0.027 A 
ATOM     14  C   UNL d   1       4.233   4.913   0.350  0.00  0.00     0.045 A 
ENDBRANCH   7  10
ENDBRANCH   2   6
BRANCH   1  15
ATOM     15  C   UNL d   1      -0.554   2.381  -0.992  0.00  0.00     0.258 C 
ATOM     16  O   UNL d   1      -1.687   2.799  -0.761  0.00  0.00    -0.267 OA
ATOM     17  N   UNL d   1       0.192   2.997  -1.962  0.00  0.00    -0.365 N 
ATOM     18  H   UNL d   1       1.171   2.792  -2.071  0.00  0.00     0.159 HD
ATOM     19  H   UNL d   1      -0.150   3.899  -2.266  0.00  0.00     0.159 HD
ENDBRANCH   1  15
BRANCH   4  20
ATOM     20  C   UNL d   1      -0.026  -2.716  -0.046  0.00  0.00    -0.019 A 
ATOM     21  C   UNL d   1      -1.169  -3.241  -0.679  0.00  0.00     0.013 A 
ATOM     22  C   UNL d   1      -1.407  -4.617  -0.733  0.00  0.00     0.001 A 
ATOM     23  C   UNL d   1      -0.501  -5.500  -0.159  0.00  0.00     0.000 A 
ATOM     24  C   UNL d   1       0.637  -5.007   0.474  0.00  0.00     0.001 A 
ATOM     25  C   UNL d   1       0.872  -3.627   0.532  0.00  0.00     0.013 A 
ENDBRANCH   4  20
TORSDOF 4
