REMARK  1 active torsions:
REMARK  status: ('A' for Active; 'I' for Inactive)
REMARK    1  A    between atoms: C_2  and  N_1 
ROOT
ATOM      1  C   UNL d   1      -0.005   2.308  -0.035  0.00  0.00     0.051 A 
ATOM      2  C   UNL d   1      -0.653   3.047   0.972  0.00  0.00    -0.034 A 
ATOM      3  C   UNL d   1       0.666   2.982  -1.066  0.00  0.00     0.031 A 
ATOM      4  C   UNL d   1      -0.638   4.452   0.898  0.00  0.00     0.015 A 
ATOM      5  C   UNL d   1       0.657   4.378  -1.134  0.00  0.00     0.009 A 
ATOM      6  C   UNL d   1       0.000   5.124  -0.154  0.00  0.00    -0.061 A 
ATOM      7  C   UNL d   1      -1.291   2.425   2.185  0.00  0.00     0.050 C 
ATOM      8  C   UNL d   1      -0.004   6.623  -0.200  0.00  0.00     0.048 C 
ENDROOT
BRANCH   1   9
ATOM      9  N   UNL d   1      -0.003   0.900  -0.036  0.00  0.00    -0.245 N 
ATOM     10  C   UNL d   1      -1.124   0.116  -0.062  0.00  0.00     0.255 A 
ATOM     11  C   UNL d   1      -0.659  -1.277  -0.051  0.00  0.00     0.080 A 
ATOM     12  O   UNL d   1      -2.299   0.416  -0.125  0.00  0.00    -0.268 OA
ATOM     13  C   UNL d   1       0.674  -1.270  -0.036  0.00  0.00     0.080 A 
ATOM     14  C   UNL d   1       1.120   0.131  -0.059  0.00  0.00     0.255 A 
ATOM     15  O   UNL d   1       2.298   0.443  -0.051  0.00  0.00    -0.268 OA
ENDBRANCH   1   9
TORSDOF 1
