REMARK  11 active torsions:
REMARK  status: ('A' for Active; 'I' for Inactive)
REMARK    1  A    between atoms: C_7  and  C_1 
REMARK    2  A    between atoms: O_13  and  C_1 
REMARK    3  A    between atoms: C_8  and  C_2 
REMARK    4  A    between atoms: O_14  and  C_2 
REMARK    5  A    between atoms: C_9  and  C_4 
REMARK    6  A    between atoms: C_10  and  C_5 
REMARK    7  A    between atoms: C_11  and  C_6 
REMARK    8  A    between atoms: O_26  and  C_9 
REMARK    9  A    between atoms: O_27  and  C_10 
REMARK   10  A    between atoms: C_29  and  O_26 
REMARK   11  A    between atoms: C_28  and  O_27 
ROOT
ATOM      1  C   UNL d   1       0.726   1.317  -0.345  0.00  0.00     0.371 C 
ATOM      2  C   UNL d   1       0.777  -1.181  -0.286  0.00  0.00     0.371 C 
ATOM      3  N   UNL d   1       1.439   0.086   0.050  0.00  0.00     0.174 N 
ATOM      4  C   UNL d   1      -0.629  -1.208   0.367  0.00  0.00     0.171 C 
ATOM      5  C   UNL d   1      -0.740   1.347   0.168  0.00  0.00     0.171 C 
ATOM      6  C   UNL d   1      -1.464   0.015  -0.108  0.00  0.00     0.063 C 
ATOM      7  H   UNL d   1       2.349   0.116  -0.413  0.00  0.00     0.324 HD
ENDROOT
BRANCH   1   8
ATOM      8  C   UNL d   1       1.486   2.617   0.212  0.00  0.00     0.449 C 
ATOM      9  F   UNL d   1       2.706   2.305   0.718  0.00  0.00    -0.166 F 
ATOM     10  F   UNL d   1       1.689   3.523  -0.773  0.00  0.00    -0.166 F 
ATOM     11  F   UNL d   1       0.800   3.245   1.194  0.00  0.00    -0.166 F 
ENDBRANCH   1   8
BRANCH   1  12
ATOM     12  O   UNL d   1       0.759   1.256  -1.774  0.00  0.00    -0.355 OA
ATOM     13  H   UNL d   1       0.155   1.933  -2.151  0.00  0.00     0.213 HD
ENDBRANCH   1  12
BRANCH   5  14
ATOM     14  C   UNL d   1      -1.450   2.497  -0.518  0.00  0.00     0.269 C 
ATOM     15  O   UNL d   1      -1.495   2.613  -1.737  0.00  0.00    -0.265 OA
BRANCH  14  16
ATOM     16  O   UNL d   1      -1.923   3.401   0.373  0.00  0.00    -0.321 OA
BRANCH  16  17
ATOM     17  C   UNL d   1      -2.533   4.573  -0.190  0.00  0.00     0.174 C 
ATOM     18  C   UNL d   1      -1.478   5.572  -0.634  0.00  0.00     0.034 C 
ENDBRANCH  16  17
ENDBRANCH  14  16
ENDBRANCH   5  14
BRANCH   2  19
ATOM     19  C   UNL d   1       0.684  -1.632  -1.828  0.00  0.00     0.449 C 
ATOM     20  F   UNL d   1       1.592  -0.990  -2.600  0.00  0.00    -0.166 F 
ATOM     21  F   UNL d   1       0.992  -2.954  -1.940  0.00  0.00    -0.166 F 
ATOM     22  F   UNL d   1      -0.535  -1.475  -2.376  0.00  0.00    -0.166 F 
ENDBRANCH   2  19
BRANCH   2  23
ATOM     23  O   UNL d   1       1.595  -2.173   0.366  0.00  0.00    -0.355 OA
ATOM     24  H   UNL d   1       2.365  -2.348  -0.203  0.00  0.00     0.213 HD
ENDBRANCH   2  23
BRANCH   6  25
ATOM     25  C   UNL d   1      -2.891  -0.030   0.409  0.00  0.00    -0.011 A 
ATOM     26  S   UNL d   1      -4.099  -0.792  -0.551  0.00  0.00    -0.106 SA
ATOM     27  C   UNL d   1      -5.326  -0.427   0.576  0.00  0.00     0.050 A 
ATOM     28  C   UNL d   1      -4.837   0.251   1.669  0.00  0.00     0.008 A 
ATOM     29  C   UNL d   1      -3.432   0.474   1.577  0.00  0.00     0.015 A 
ENDBRANCH   6  25
BRANCH   4  30
ATOM     30  C   UNL d   1      -0.457  -1.228   1.891  0.00  0.00     0.269 C 
ATOM     31  O   UNL d   1      -0.428  -0.234   2.598  0.00  0.00    -0.265 OA
BRANCH  30  32
ATOM     32  O   UNL d   1      -0.269  -2.504   2.340  0.00  0.00    -0.321 OA
BRANCH  32  33
ATOM     33  C   UNL d   1       0.367  -2.591   3.630  0.00  0.00     0.174 C 
ATOM     34  C   UNL d   1       1.876  -2.564   3.441  0.00  0.00     0.034 C 
ENDBRANCH  32  33
ENDBRANCH  30  32
ENDBRANCH   4  30
TORSDOF 11
