REMARK  8 active torsions:
REMARK  status: ('A' for Active; 'I' for Inactive)
REMARK    1  A    between atoms: C_2  and  C_1 
REMARK    2  A    between atoms: N_3  and  C_1 
REMARK    3  A    between atoms: C_4  and  C_1 
REMARK    4  A    between atoms: O_5  and  C_1 
REMARK       I    between atoms: C_6  and  N_3 
REMARK    5  A    between atoms: O_13  and  C_4 
REMARK    6  A    between atoms: C_12  and  O_5 
REMARK    7  A    between atoms: C_15  and  C_12 
REMARK    8  A    between atoms: C_22  and  O_13 
ROOT
ATOM      1  C   UNL d   1       0.982   0.009   0.045  0.00  0.00     0.327 C 
ENDROOT
BRANCH   1   2
ATOM      2  C   UNL d   1       0.431  -1.451   0.057  0.00  0.00     0.448 C 
ATOM      3  F   UNL d   1       0.102  -1.841   1.318  0.00  0.00    -0.166 F 
ATOM      4  F   UNL d   1      -0.647  -1.648  -0.730  0.00  0.00    -0.166 F 
ATOM      5  F   UNL d   1       1.375  -2.339  -0.361  0.00  0.00    -0.166 F 
ENDBRANCH   1   2
BRANCH   1   6
ATOM      6  N   UNL d   1       0.478   0.930   1.074  0.00  0.00    -0.314 N 
ATOM      7  C   UNL d   1      -0.866   1.035   1.320  0.00  0.00     0.216 C 
ATOM      8  O   UNL d   1      -1.693   0.301   0.794  0.00  0.00    -0.274 OA
ATOM      9  C   UNL d   1      -1.244   2.101   2.311  0.00  0.00     0.117 C 
ATOM     10  H   UNL d   1       1.056   1.742   1.247  0.00  0.00     0.166 HD
ENDBRANCH   1   6
BRANCH   1  11
ATOM     11  C   UNL d   1       0.645   0.576  -1.351  0.00  0.00     0.325 C 
ATOM     12  O   UNL d   1       0.045   1.631  -1.548  0.00  0.00    -0.259 OA
BRANCH  11  13
ATOM     13  O   UNL d   1       1.169  -0.195  -2.350  0.00  0.00    -0.318 OA
BRANCH  13  14
ATOM     14  C   UNL d   1       0.859   0.219  -3.689  0.00  0.00     0.174 C 
ATOM     15  C   UNL d   1       1.754   1.361  -4.136  0.00  0.00     0.034 C 
ENDBRANCH  13  14
ENDBRANCH  11  13
ENDBRANCH   1  11
BRANCH   1  16
ATOM     16  O   UNL d   1       2.421   0.135   0.124  0.00  0.00    -0.341 OA
BRANCH  16  17
ATOM     17  C   UNL d   1       3.037  -0.480   1.254  0.00  0.00     0.210 C 
BRANCH  17  18
ATOM     18  C   UNL d   1       4.531  -0.220   1.213  0.00  0.00    -0.034 A 
ATOM     19  C   UNL d   1       5.065   0.901   0.556  0.00  0.00     0.012 A 
ATOM     20  C   UNL d   1       6.443   1.136   0.553  0.00  0.00     0.043 A 
ATOM     21  C   UNL d   1       7.286   0.256   1.220  0.00  0.00     0.116 A 
ATOM     22  C   UNL d   1       6.782  -0.851   1.890  0.00  0.00     0.043 A 
ATOM     23  F   UNL d   1       8.607   0.482   1.220  0.00  0.00    -0.206 F 
ATOM     24  C   UNL d   1       5.402  -1.088   1.889  0.00  0.00     0.012 A 
ENDBRANCH  17  18
ENDBRANCH  16  17
ENDBRANCH   1  16
TORSDOF 8
