REMARK  7 active torsions:
REMARK  status: ('A' for Active; 'I' for Inactive)
REMARK    1  A    between atoms: N_7  and  C_1 
REMARK    2  A    between atoms: C_10  and  N_4 
REMARK    3  A    between atoms: C_9  and  C_6 
REMARK       I    between atoms: C_8  and  N_7 
REMARK       I    between atoms: N_12  and  C_8 
REMARK    4  A    between atoms: C_19  and  N_12 
REMARK    5  A    between atoms: O_20  and  C_21 
REMARK    6  A    between atoms: C_23  and  O_20 
REMARK    7  A    between atoms: C_31  and  C_23 
ROOT
ATOM      1  N   UNL d   1      -1.081  -2.340  -0.059  0.00  0.00    -0.293 N 
ATOM      2  C   UNL d   1      -2.403  -2.702   0.211  0.00  0.00     0.326 C 
ATOM      3  N   UNL d   1      -3.270  -1.660  -0.093  0.00  0.00    -0.309 N 
ATOM      4  O   UNL d   1      -2.727  -3.805   0.632  0.00  0.00    -0.247 OA
ATOM      5  H   UNL d   1      -0.982  -1.682  -0.819  0.00  0.00     0.172 HD
ATOM      6  H   UNL d   1      -2.851  -0.777  -0.340  0.00  0.00     0.170 HD
ENDROOT
BRANCH   1   7
ATOM      7  C   UNL d   1      -0.097  -3.329  -0.004  0.00  0.00     0.133 C 
ATOM      8  N   UNL d   1       0.125  -4.304   0.981  0.00  0.00    -0.239 N 
ATOM      9  N   UNL d   1       0.861  -5.326   0.457  0.00  0.00    -0.291 N 
ATOM     10  C   UNL d   1       1.399  -4.827  -0.656  0.00  0.00     0.069 C 
ATOM     11  HN  UNL d   1       0.974  -6.267   0.834  1.00  0.00     0.187 HD
ATOM     12  C   UNL d   1       0.892  -3.544  -0.946  0.00  0.00     0.083 C 
BRANCH   8  13
ATOM     13  C   UNL d   1      -0.094  -4.277   2.398  0.00  0.00     0.058 A 
ATOM     14  C   UNL d   1       0.467  -5.306   3.186  0.00  0.00     0.034 A 
ATOM     15  C   UNL d   1       0.382  -5.270   4.580  0.00  0.00     0.044 A 
ATOM     16  C   UNL d   1      -0.286  -4.221   5.193  0.00  0.00     0.116 A 
ATOM     17  C   UNL d   1      -0.858  -3.204   4.439  0.00  0.00     0.044 A 
ATOM     18  F   UNL d   1      -0.368  -4.180   6.529  0.00  0.00    -0.206 F 
ATOM     19  C   UNL d   1      -0.746  -3.219   3.043  0.00  0.00     0.034 A 
ENDBRANCH   8  13
BRANCH  10  20
ATOM     20  C   UNL d   1       2.395  -5.615  -1.452  0.00  0.00     0.033 A 
ATOM     21  S   UNL d   1       3.413  -4.965  -2.658  0.00  0.00    -0.100 SA
ATOM     22  C   UNL d   1       4.194  -6.471  -2.897  0.00  0.00     0.050 A 
ATOM     23  C   UNL d   1       3.637  -7.469  -2.128  0.00  0.00     0.008 A 
ATOM     24  C   UNL d   1       2.602  -6.970  -1.284  0.00  0.00     0.021 A 
ENDBRANCH  10  20
ENDBRANCH   1   7
BRANCH   3  25
ATOM     25  C   UNL d   1      -4.686  -1.703  -0.091  0.00  0.00     0.036 A 
ATOM     26  C   UNL d   1      -5.422  -2.819   0.304  0.00  0.00     0.032 A 
ATOM     27  C   UNL d   1      -6.823  -2.805   0.241  0.00  0.00     0.039 A 
ATOM     28  C   UNL d   1      -7.511  -1.683  -0.216  0.00  0.00     0.069 A 
ATOM     29  C   UNL d   1      -6.783  -0.562  -0.611  0.00  0.00     0.039 A 
ATOM     30  C   UNL d   1      -5.378  -0.571  -0.539  0.00  0.00     0.032 A 
BRANCH  28  31
ATOM     31  O   UNL d   1      -8.867  -1.827  -0.229  0.00  0.00    -0.347 OA
BRANCH  31  32
ATOM     32  C   UNL d   1      -9.667  -0.676  -0.496  0.00  0.00     0.214 C 
BRANCH  32  33
ATOM     33  C   UNL d   1     -11.097  -0.892  -0.038  0.00  0.00    -0.034 A 
ATOM     34  C   UNL d   1     -11.444  -1.903   0.872  0.00  0.00     0.009 A 
ATOM     35  C   UNL d   1     -12.751  -2.018   1.350  0.00  0.00     0.001 A 
ATOM     36  C   UNL d   1     -13.730  -1.121   0.929  0.00  0.00     0.000 A 
ATOM     37  C   UNL d   1     -13.405  -0.118   0.018  0.00  0.00     0.001 A 
ATOM     38  C   UNL d   1     -12.099  -0.005  -0.463  0.00  0.00     0.009 A 
ENDBRANCH  32  33
ENDBRANCH  31  32
ENDBRANCH  28  31
ENDBRANCH   3  25
TORSDOF 7
