REMARK  8 active torsions:
REMARK  status: ('A' for Active; 'I' for Inactive)
REMARK    1  A    between atoms: N_3  and  C_1 
REMARK    2  A    between atoms: N_5  and  C_1 
REMARK    3  A    between atoms: C_2  and  N_3 
REMARK       I    between atoms: C_4  and  N_8 
REMARK    4  A    between atoms: C_15  and  C_4 
REMARK    5  A    between atoms: N_8  and  N_5 
REMARK    6  A    between atoms: O_21  and  C_6 
REMARK    7  A    between atoms: O_22  and  C_10 
REMARK    8  A    between atoms: C_13  and  C_15 
ROOT
ATOM      1  C   UNL d   1      -1.826  -0.637   2.377  0.00  0.00     0.240 C 
ATOM      2  N   UNL d   1      -1.229  -0.074   1.264  0.00  0.00    -0.268 N 
ATOM      3  O   UNL d   1      -1.190  -1.219   3.256  0.00  0.00    -0.272 OA
ATOM      4  H   UNL d   1      -1.775   0.241   0.468  0.00  0.00     0.190 HD
ENDROOT
BRANCH   2   5
ATOM      5  N   UNL d   1       0.089  -0.433   1.005  0.00  0.00    -0.274 N 
ATOM      6  H   UNL d   1       0.487  -1.131   1.636  0.00  0.00     0.189 HD
BRANCH   5   7
ATOM      7  C   UNL d   1       0.976   0.382   0.333  0.00  0.00     0.191 C 
ATOM      8  S   UNL d   1       0.683   1.954  -0.147  0.00  0.00    -0.039 SA
BRANCH   7   9
ATOM      9  N   UNL d   1       2.197  -0.202   0.068  0.00  0.00    -0.332 N 
ATOM     10  H   UNL d   1       2.956   0.439  -0.134  0.00  0.00     0.168 HD
BRANCH   9  11
ATOM     11  C   UNL d   1       2.432  -1.572  -0.186  0.00  0.00     0.040 A 
ATOM     12  C   UNL d   1       3.711  -2.128  -0.029  0.00  0.00    -0.035 A 
ATOM     13  C   UNL d   1       3.899  -3.491  -0.339  0.00  0.00     0.009 A 
ATOM     14  C   UNL d   1       4.896  -1.369   0.499  0.00  0.00     0.050 C 
ATOM     15  C   UNL d   1       2.843  -4.285  -0.786  0.00  0.00     0.007 A 
ATOM     16  C   UNL d   1       1.574  -3.736  -0.965  0.00  0.00    -0.060 A 
ATOM     17  C   UNL d   1       1.391  -2.382  -0.678  0.00  0.00     0.037 A 
ATOM     18  C   UNL d   1       0.434  -4.570  -1.465  0.00  0.00     0.048 C 
ENDBRANCH   9  11
ENDBRANCH   7   9
ENDBRANCH   5   7
ENDBRANCH   2   5
BRANCH   1  19
ATOM     19  C   UNL d   1      -3.335  -0.521   2.395  0.00  0.00     0.143 C 
BRANCH  19  20
ATOM     20  C   UNL d   1      -3.801   0.851   2.804  0.00  0.00    -0.047 A 
ATOM     21  C   UNL d   1      -4.100   1.823   1.838  0.00  0.00     0.047 A 
ATOM     22  C   UNL d   1      -4.476   3.124   2.207  0.00  0.00     0.102 A 
ATOM     23  C   UNL d   1      -4.601   3.435   3.571  0.00  0.00     0.101 A 
ATOM     24  C   UNL d   1      -4.287   2.465   4.532  0.00  0.00     0.040 A 
ATOM     25  C   UNL d   1      -3.890   1.184   4.156  0.00  0.00     0.010 A 
BRANCH  22  26
ATOM     26  O   UNL d   1      -4.748   4.090   1.276  0.00  0.00    -0.353 OA
ATOM     27  C   UNL d   1      -3.976   4.038   0.080  0.00  0.00     0.210 C 
ENDBRANCH  22  26
BRANCH  23  28
ATOM     28  O   UNL d   1      -4.947   4.643   4.122  0.00  0.00    -0.353 OA
ATOM     29  C   UNL d   1      -5.832   5.460   3.370  0.00  0.00     0.210 C 
ENDBRANCH  23  28
ENDBRANCH  19  20
ENDBRANCH   1  19
TORSDOF 8
