REMARK  2 active torsions:
REMARK  status: ('A' for Active; 'I' for Inactive)
REMARK    1  A    between atoms: C_2  and  N_1 
REMARK    2  A    between atoms: O_9  and  C_8 
ROOT
ATOM      1  N   UNL d   1       0.738   1.140  -0.402  0.00  0.00    -0.374 N 
ATOM      2  O   UNL d   1      -0.696  -1.202   0.339  0.00  0.00    -0.378 OA
ATOM      3  C   UNL d   1       1.440   0.009   0.244  0.00  0.00     0.154 C 
ATOM      4  C   UNL d   1      -0.647   1.261   0.091  0.00  0.00     0.154 C 
ATOM      5  C   UNL d   1       0.665  -1.274  -0.140  0.00  0.00     0.136 C 
ATOM      6  C   UNL d   1      -1.381  -0.064  -0.231  0.00  0.00     0.136 C 
ATOM      7  C   UNL d   1      -2.804  -0.052   0.307  0.00  0.00     0.041 C 
ATOM      8  C   UNL d   1       1.314  -2.520   0.439  0.00  0.00     0.041 C 
ENDROOT
BRANCH   1   9
ATOM      9  C   UNL d   1       1.387   2.150  -1.083  0.00  0.00     0.064 A 
ATOM     10  C   UNL d   1       2.474   1.900  -1.951  0.00  0.00     0.092 A 
ATOM     11  C   UNL d   1       3.142   2.909  -2.651  0.00  0.00     0.039 A 
ATOM     12  C   UNL d   1       2.696   4.217  -2.553  0.00  0.00     0.003 A 
ATOM     13  C   UNL d   1       1.602   4.506  -1.748  0.00  0.00     0.002 A 
ATOM     14  C   UNL d   1       0.968   3.490  -1.016  0.00  0.00     0.032 A 
BRANCH  10  15
ATOM     15  O   UNL d   1       2.848   0.620  -2.273  0.00  0.00    -0.358 OA
ATOM     16  H   UNL d   1       2.029   0.114  -2.154  0.00  0.00     0.217 HD
ENDBRANCH  10  15
ENDBRANCH   1   9
TORSDOF 2
