REMARK  3 active torsions:
REMARK  status: ('A' for Active; 'I' for Inactive)
REMARK    1  A    between atoms: C_10  and  N_2 
REMARK    2  A    between atoms: N_12  and  C_6 
REMARK    3  A    between atoms: C_13  and  N_7 
ROOT
ATOM      1  C   UNL d   1      -0.585  -1.022  -0.144  0.00  0.00     0.080 C 
ATOM      2  N   UNL d   1       1.155   0.443   0.166  0.00  0.00    -0.242 N 
ATOM      3  C   UNL d   1       0.857  -0.911   0.158  0.00  0.00     0.269 C 
ATOM      4  C   UNL d   1       0.015   1.226   0.121  0.00  0.00     0.283 C 
ATOM      5  C   UNL d   1      -1.170   0.273   0.255  0.00  0.00     0.119 C 
ATOM      6  C   UNL d   1      -1.261  -2.007  -0.751  0.00  0.00     0.104 C 
ATOM      7  N   UNL d   1      -2.267   0.669   0.801  0.00  0.00    -0.351 N 
ATOM      8  HN  UNL d   1      -2.417   1.670   0.927  1.00  0.00     0.166 HD
ATOM      9  O   UNL d   1       1.557  -1.854   0.492  0.00  0.00    -0.266 OA
ATOM     10  O   UNL d   1      -0.131   2.418  -0.045  0.00  0.00    -0.265 OA
ENDROOT
BRANCH   7  11
ATOM     11  C   UNL d   1      -3.265  -0.221   1.228  0.00  0.00     0.032 A 
ATOM     12  C   UNL d   1      -2.989  -1.443   1.856  0.00  0.00     0.029 A 
ATOM     13  C   UNL d   1      -4.016  -2.296   2.262  0.00  0.00     0.002 A 
ATOM     14  C   UNL d   1      -5.340  -1.896   2.126  0.00  0.00     0.000 A 
ATOM     15  C   UNL d   1      -5.633  -0.647   1.581  0.00  0.00     0.002 A 
ATOM     16  C   UNL d   1      -4.600   0.180   1.129  0.00  0.00     0.029 A 
ENDBRANCH   7  11
BRANCH   2  17
ATOM     17  C   UNL d   1       2.484   0.947   0.271  0.00  0.00     0.046 A 
ATOM     18  C   UNL d   1       3.592   0.120   0.010  0.00  0.00     0.030 A 
ATOM     19  C   UNL d   1       4.902   0.590   0.136  0.00  0.00     0.002 A 
ATOM     20  C   UNL d   1       5.133   1.902   0.528  0.00  0.00     0.000 A 
ATOM     21  C   UNL d   1       4.054   2.743   0.782  0.00  0.00     0.002 A 
ATOM     22  C   UNL d   1       2.742   2.273   0.648  0.00  0.00     0.030 A 
ENDBRANCH   2  17
BRANCH   6  23
ATOM     23  N   UNL d   1      -0.904  -3.245  -1.281  0.00  0.00    -0.398 N 
ATOM     24  C   UNL d   1       0.455  -3.791  -1.284  0.00  0.00     0.148 C 
ATOM     25  C   UNL d   1      -1.926  -4.241  -1.628  0.00  0.00     0.148 C 
ENDBRANCH   6  23
TORSDOF 3
