REMARK  4 active torsions:
REMARK  status: ('A' for Active; 'I' for Inactive)
REMARK    1  A    between atoms: C_10  and  N_3 
REMARK    2  A    between atoms: C_8  and  C_4 
REMARK    3  A    between atoms: O_9  and  C_8 
REMARK    4  A    between atoms: C_12  and  O_9 
ROOT
ATOM      1  N   UNL d   1      -0.177  -1.044  -0.241  0.00  0.00    -0.272 N 
ATOM      2  HN  UNL d   1      -0.426  -1.976  -0.572  1.00  0.00     0.189 HD
ATOM      3  N   UNL d   1       1.059  -0.542   0.033  0.00  0.00    -0.196 N 
ATOM      4  C   UNL d   1      -0.990  -0.005   0.034  0.00  0.00     0.149 A 
ATOM      5  N   UNL d   1       1.094   0.750   0.444  0.00  0.00    -0.281 N 
ATOM      6  HN  UNL d   1       1.905   1.317   0.693  1.00  0.00     0.189 HD
ATOM      7  C   UNL d   1      -0.197   1.097   0.444  0.00  0.00     0.058 A 
ATOM      8  C   UNL d   1      -0.595   2.474   0.817  0.00  0.00     0.072 C 
ENDROOT
BRANCH   4   9
ATOM      9  C   UNL d   1      -2.450  -0.050  -0.069  0.00  0.00     0.318 C 
ATOM     10  O   UNL d   1      -3.163   0.890   0.272  0.00  0.00    -0.257 OA
BRANCH   9  11
ATOM     11  O   UNL d   1      -2.922  -1.270  -0.567  0.00  0.00    -0.274 OA
BRANCH  11  12
ATOM     12  C   UNL d   1      -4.306  -1.535  -0.628  0.00  0.00     0.079 A 
ATOM     13  C   UNL d   1      -5.256  -0.586  -1.007  0.00  0.00     0.039 A 
ATOM     14  C   UNL d   1      -6.609  -0.937  -1.029  0.00  0.00     0.026 A 
ATOM     15  C   UNL d   1      -6.995  -2.237  -0.701  0.00  0.00     0.034 A 
ATOM     16  C   UNL d   1      -6.040  -3.194  -0.360  0.00  0.00     0.026 A 
ATOM     17 CL   UNL d   1      -8.662  -2.663  -0.722  0.00  0.00    -0.084 Cl
ATOM     18  C   UNL d   1      -4.688  -2.843  -0.327  0.00  0.00     0.039 A 
ENDBRANCH  11  12
ENDBRANCH   9  11
ENDBRANCH   4   9
BRANCH   3  19
ATOM     19  C   UNL d   1       2.246  -1.308  -0.103  0.00  0.00     0.074 A 
ATOM     20  C   UNL d   1       2.192  -2.623  -0.584  0.00  0.00     0.033 A 
ATOM     21  C   UNL d   1       3.372  -3.361  -0.725  0.00  0.00     0.002 A 
ATOM     22  C   UNL d   1       4.600  -2.794  -0.382  0.00  0.00     0.000 A 
ATOM     23  C   UNL d   1       4.657  -1.489   0.104  0.00  0.00     0.002 A 
ATOM     24  C   UNL d   1       3.485  -0.744   0.243  0.00  0.00     0.033 A 
ENDBRANCH   3  19
TORSDOF 4
