REMARK  6 active torsions:
REMARK  status: ('A' for Active; 'I' for Inactive)
REMARK       I    between atoms: C_2  and  N_1 
REMARK    1  A    between atoms: C_3  and  N_1 
REMARK    2  A    between atoms: C_14  and  C_2 
REMARK    3  A    between atoms: C_6  and  C_15 
REMARK    4  A    between atoms: O_12  and  C_6 
REMARK    5  A    between atoms: O_11  and  C_14 
REMARK    6  A    between atoms: C_15  and  O_11 
ROOT
ATOM      1  N   UNL d   1       1.013   0.128   0.116  0.00  0.00    -0.310 N 
ATOM      2  C   UNL d   1       0.305   1.312   0.067  0.00  0.00     0.246 C 
ATOM      3  O   UNL d   1       0.752   2.452  -0.037  0.00  0.00    -0.271 OA
ATOM      4  H   UNL d   1       0.478  -0.725   0.205  0.00  0.00     0.170 HD
ENDROOT
BRANCH   1   5
ATOM      5  C   UNL d   1       2.412   0.037   0.084  0.00  0.00     0.123 A 
ATOM      6  N   UNL d   1       3.175   1.147   0.049  0.00  0.00    -0.350 N 
ATOM      7  C   UNL d   1       4.514   0.969   0.031  0.00  0.00     0.106 A 
ATOM      8  HN  UNL d   1       2.760   2.079   0.037  1.00  0.00     0.166 HD
ATOM      9  C   UNL d   1       5.093  -0.285   0.042  0.00  0.00     0.104 A 
ATOM     10  N   UNL d   1       4.356  -1.416   0.070  0.00  0.00    -0.371 N 
ATOM     11  C   UNL d   1       3.011  -1.223   0.092  0.00  0.00     0.136 A 
ATOM     12  HN  UNL d   1       4.777  -2.345   0.075  1.00  0.00     0.164 HD
ENDBRANCH   1   5
BRANCH   2  13
ATOM     13  C   UNL d   1      -1.206   1.087   0.076  0.00  0.00     0.271 C 
BRANCH  13  14
ATOM     14  O   UNL d   1      -1.618   0.274   1.172  0.00  0.00    -0.372 OA
BRANCH  14  15
ATOM     15  C   UNL d   1      -3.038   0.218   1.272  0.00  0.00     0.277 C 
BRANCH  15  16
ATOM     16  C   UNL d   1      -3.721  -0.593   0.169  0.00  0.00     0.164 C 
ATOM     17  O   UNL d   1      -3.152  -1.417  -0.534  0.00  0.00    -0.648 OA
BRANCH  16  18
ATOM     18  O   UNL d   1      -5.036  -0.307   0.024  0.00  0.00    -0.775 OA
ATOM     19  H   UNL d   1      -5.377   0.389   0.619  0.00  0.00     0.167 HD
ENDBRANCH  16  18
ENDBRANCH  15  16
ENDBRANCH  14  15
ENDBRANCH  13  14
ENDBRANCH   2  13
TORSDOF 6
