REMARK  7 active torsions:
REMARK  status: ('A' for Active; 'I' for Inactive)
REMARK    1  A    between atoms: N_2  and  N_1 
REMARK    2  A    between atoms: C_3  and  N_2 
REMARK    3  A    between atoms: C_4  and  N_2 
REMARK    4  A    between atoms: C_6  and  C_3 
REMARK    5  A    between atoms: C_5  and  C_4 
REMARK    6  A    between atoms: O_12  and  C_5 
REMARK    7  A    between atoms: O_11  and  C_6 
ROOT
ATOM      1  N   UNL d   1       0.211  -0.698  -1.034  0.00  0.00    -0.150 NA
ENDROOT
BRANCH   1   2
ATOM      2  N   UNL d   1       1.076   0.085  -0.288  0.00  0.00    -0.062 N 
ATOM      3  O   UNL d   1       2.267   0.048  -0.596  0.00  0.00    -0.521 OA
ATOM      4  O   UNL d   1       0.574   0.747   0.621  0.00  0.00    -0.521 OA
ENDBRANCH   1   2
BRANCH   1   5
ATOM      5  C   UNL d   1      -1.105  -0.913  -0.409  0.00  0.00     0.230 C 
BRANCH   5   6
ATOM      6  C   UNL d   1      -2.126  -1.499  -1.373  0.00  0.00     0.155 C 
ATOM      7  O   UNL d   1      -1.892  -1.825  -2.531  0.00  0.00    -0.649 OA
BRANCH   6   8
ATOM      8  O   UNL d   1      -3.350  -1.662  -0.823  0.00  0.00    -0.775 OA
ATOM      9  H   UNL d   1      -3.446  -1.348   0.098  0.00  0.00     0.167 HD
ENDBRANCH   6   8
ENDBRANCH   5   6
ENDBRANCH   1   5
BRANCH   1  10
ATOM     10  C   UNL d   1       0.832  -1.894  -1.626  0.00  0.00     0.230 C 
BRANCH  10  11
ATOM     11  C   UNL d   1       1.252  -1.595  -3.061  0.00  0.00     0.155 C 
ATOM     12  O   UNL d   1       2.406  -1.381  -3.407  0.00  0.00    -0.649 OA
BRANCH  11  13
ATOM     13  O   UNL d   1       0.229  -1.585  -3.947  0.00  0.00    -0.775 OA
ATOM     14  H   UNL d   1      -0.663  -1.754  -3.553  0.00  0.00     0.167 HD
ENDBRANCH  11  13
ENDBRANCH  10  11
ENDBRANCH   1  10
TORSDOF 7
