REMARK  8 active torsions:
REMARK  status: ('A' for Active; 'I' for Inactive)
REMARK    1  A    between atoms: N_3  and  C_1 
REMARK    2  A    between atoms: O_9  and  C_2 
REMARK    3  A    between atoms: C_7  and  N_3 
REMARK    4  A    between atoms: N_4  and  N_10 
REMARK    5  A    between atoms: C_20  and  O_9 
REMARK    6  A    between atoms: O_22  and  C_11 
REMARK    7  A    between atoms: C_19  and  C_16 
REMARK    8  A    between atoms: C_23  and  C_20 
ROOT
ATOM      1  N   UNL d   1       3.580  -0.455  -1.244  0.00  0.00    -0.309 N 
ATOM      2  HN  UNL d   1       3.188  -0.925  -2.060  1.00  0.00     0.186 HD
ATOM      3  C   UNL d   1       4.835  -0.582  -0.904  0.00  0.00     0.118 C 
ENDROOT
BRANCH   1   4
ATOM      4  N   UNL d   1       2.820   0.356  -0.427  0.00  0.00    -0.277 N 
ATOM      5  C   UNL d   1       1.477   0.459  -0.457  0.00  0.00     0.186 C 
ATOM      6  S   UNL d   1       0.716   1.026   0.923  0.00  0.00    -0.040 SA
ATOM      7  H   UNL d   1       3.262   0.665   0.435  0.00  0.00     0.189 HD
BRANCH   5   8
ATOM      8  N   UNL d   1       0.694   0.146  -1.506  0.00  0.00    -0.361 N 
ATOM      9  H   UNL d   1      -0.290   0.123  -1.250  0.00  0.00     0.162 HD
BRANCH   8  10
ATOM     10  C   UNL d   1       0.958  -0.155  -2.929  0.00  0.00     0.085 C 
ATOM     11  C   UNL d   1      -0.020   0.640  -3.844  0.00  0.00     0.034 C 
ATOM     12  C   UNL d   1       0.073   0.232  -5.337  0.00  0.00    -0.045 C 
ATOM     13  C   UNL d   1      -0.933   0.997  -6.223  0.00  0.00     0.015 C 
ATOM     14  C   UNL d   1       1.485   0.510  -5.891  0.00  0.00     0.015 C 
ATOM     15  C   UNL d   1      -0.283  -1.258  -5.444  0.00  0.00     0.013 C 
ATOM     16  C   UNL d   1       0.574  -2.177  -4.568  0.00  0.00    -0.016 C 
ATOM     17  C   UNL d   1       0.822  -1.669  -3.139  0.00  0.00     0.029 C 
ATOM     18  C   UNL d   1      -0.090  -3.561  -4.513  0.00  0.00     0.010 C 
ENDBRANCH   8  10
ENDBRANCH   5   8
ENDBRANCH   1   4
BRANCH   3  19
ATOM     19  C   UNL d   1       5.772  -1.426  -1.692  0.00  0.00    -0.017 A 
ATOM     20  C   UNL d   1       7.140  -1.534  -1.367  0.00  0.00     0.052 A 
ATOM     21  C   UNL d   1       8.018  -2.251  -2.210  0.00  0.00     0.103 A 
ATOM     22  C   UNL d   1       7.508  -2.862  -3.372  0.00  0.00     0.101 A 
ATOM     23  C   UNL d   1       6.144  -2.762  -3.661  0.00  0.00     0.040 A 
ATOM     24  C   UNL d   1       5.280  -2.059  -2.831  0.00  0.00     0.016 A 
BRANCH  21  25
ATOM     25  O   UNL d   1       9.376  -2.276  -2.047  0.00  0.00    -0.344 OA
BRANCH  25  26
ATOM     26  C   UNL d   1       9.948  -2.228  -0.743  0.00  0.00     0.214 C 
BRANCH  26  27
ATOM     27  C   UNL d   1      10.793  -0.990  -0.528  0.00  0.00    -0.034 A 
ATOM     28  C   UNL d   1      10.961  -0.008  -1.516  0.00  0.00     0.009 A 
ATOM     29  C   UNL d   1      11.768   1.109  -1.283  0.00  0.00     0.001 A 
ATOM     30  C   UNL d   1      12.423   1.256  -0.062  0.00  0.00     0.000 A 
ATOM     31  C   UNL d   1      12.273   0.286   0.926  0.00  0.00     0.001 A 
ATOM     32  C   UNL d   1      11.466  -0.830   0.694  0.00  0.00     0.009 A 
ENDBRANCH  26  27
ENDBRANCH  25  26
ENDBRANCH  21  25
BRANCH  22  33
ATOM     33  O   UNL d   1       8.197  -3.533  -4.348  0.00  0.00    -0.353 OA
ATOM     34  C   UNL d   1       9.441  -4.135  -4.018  0.00  0.00     0.210 C 
ENDBRANCH  22  33
ENDBRANCH   3  19
TORSDOF 8
