REMARK  0 active torsions:
REMARK  status: ('A' for Active; 'I' for Inactive)
ROOT
ATOM      1  C   UNL d   1      -1.107   0.864   0.061  0.00  0.00     0.086 A 
ATOM      2  N   UNL d   1       0.007   1.652   0.152  0.00  0.00    -0.352 N 
ATOM      3  C   UNL d   1      -0.704  -0.456   0.058  0.00  0.00    -0.015 A 
ATOM      4  C   UNL d   1       0.720  -0.466   0.064  0.00  0.00    -0.000 A 
ATOM      5  C   UNL d   1       1.138   0.867   0.102  0.00  0.00     0.043 A 
ATOM      6  C   UNL d   1      -2.471   1.316  -0.050  0.00  0.00     0.176 C 
ATOM      7  C   UNL d   1       1.695  -1.481   0.010  0.00  0.00     0.021 A 
ATOM      8  C   UNL d   1       2.487   1.233   0.074  0.00  0.00     0.031 A 
ATOM      9  O   UNL d   1      -2.807   2.489   0.058  0.00  0.00    -0.291 OA
ATOM     10  C   UNL d   1      -1.667  -1.593  -0.021  0.00  0.00     0.042 C 
ATOM     11  C   UNL d   1       3.057  -1.140  -0.029  0.00  0.00    -0.061 A 
ATOM     12  C   UNL d   1       3.436   0.207   0.001  0.00  0.00     0.009 A 
ATOM     13  C   UNL d   1      -3.450   0.211  -0.438  0.00  0.00     0.086 C 
ATOM     14  C   UNL d   1      -3.110  -1.122   0.246  0.00  0.00     0.012 C 
ATOM     15  C   UNL d   1       4.108  -2.208  -0.116  0.00  0.00     0.048 C 
ATOM     16  H   UNL d   1      -0.006   2.663   0.179  0.00  0.00     0.166 HD
ENDROOT
TORSDOF 0
