REMARK  5 active torsions:
REMARK  status: ('A' for Active; 'I' for Inactive)
REMARK    1  A    between atoms: N_15  and  C_3 
REMARK    2  A    between atoms: C_13  and  C_5 
REMARK    3  A    between atoms: C_18  and  C_26 
REMARK    4  A    between atoms: O_23  and  C_20 
REMARK    5  A    between atoms: C_26  and  O_23 
ROOT
ATOM      1  C   UNL d   1       2.226   0.142  -0.139  0.00  0.00     0.080 C 
ATOM      2  C   UNL d   1      -0.226   0.566  -0.077  0.00  0.00     0.031 C 
ATOM      3  C   UNL d   1       1.961  -1.150   0.152  0.00  0.00     0.138 C 
ATOM      4  C   UNL d   1      -0.408  -0.745   0.143  0.00  0.00     0.066 C 
ATOM      5  C   UNL d   1       1.109   1.097  -0.533  0.00  0.00     0.105 C 
ATOM      6  O   UNL d   1       0.654  -1.640   0.102  0.00  0.00    -0.301 OA
ATOM      7  C   UNL d   1      -1.351   1.509   0.144  0.00  0.00     0.159 C 
ATOM      8  C   UNL d   1       3.552   0.659  -0.074  0.00  0.00     0.100 C 
ATOM      9  N   UNL d   1       4.634   1.070  -0.021  0.00  0.00    -0.191 NA
ATOM     10  C   UNL d   1      -1.744  -1.381   0.392  0.00  0.00     0.075 C 
ATOM     11  C   UNL d   1      -2.932  -0.469   0.005  0.00  0.00    -0.035 C 
ATOM     12  C   UNL d   1      -2.689   0.939   0.579  0.00  0.00     0.092 C 
ATOM     13  O   UNL d   1      -1.166   2.721   0.066  0.00  0.00    -0.293 OA
ATOM     14  C   UNL d   1      -4.223  -1.059   0.598  0.00  0.00     0.015 C 
ATOM     15  C   UNL d   1      -3.109  -0.388  -1.527  0.00  0.00     0.015 C 
ENDROOT
BRANCH   3  16
ATOM     16  N   UNL d   1       2.882  -2.112   0.492  0.00  0.00    -0.282 NA
ATOM     17  H   UNL d   1       3.837  -1.936   0.186  0.00  0.00     0.126 HD
ATOM     18  H   UNL d   1       2.558  -3.051   0.275  0.00  0.00     0.126 HD
ENDBRANCH   3  16
BRANCH   5  19
ATOM     19  C   UNL d   1       1.102   1.309  -2.053  0.00  0.00    -0.044 A 
ATOM     20  C   UNL d   1       1.329   2.574  -2.611  0.00  0.00     0.011 A 
ATOM     21  C   UNL d   1       1.376   2.735  -4.003  0.00  0.00     0.037 A 
ATOM     22  C   UNL d   1       1.202   1.641  -4.853  0.00  0.00     0.069 A 
ATOM     23  C   UNL d   1       0.904   0.396  -4.306  0.00  0.00     0.037 A 
ATOM     24  C   UNL d   1       0.873   0.229  -2.924  0.00  0.00     0.011 A 
BRANCH  22  25
ATOM     25  O   UNL d   1       1.348   1.880  -6.195  0.00  0.00    -0.348 OA
BRANCH  25  26
ATOM     26  C   UNL d   1       1.691   0.726  -6.968  0.00  0.00     0.202 C 
BRANCH  26  27
ATOM     27  C   UNL d   1       2.330   1.170  -8.247  0.00  0.00    -0.011 C 
ATOM     28  C   UNL d   1       3.584   0.857  -8.598  0.00  0.00     0.009 C 
ENDBRANCH  26  27
ENDBRANCH  25  26
ENDBRANCH  22  25
ENDBRANCH   5  19
TORSDOF 5
