REMARK  6 active torsions:
REMARK  status: ('A' for Active; 'I' for Inactive)
REMARK    1  A    between atoms: C_7  and  C_1 
REMARK    2  A    between atoms: C_6  and  S_13 
REMARK    3  A    between atoms: C_15  and  C_7 
REMARK    4  A    between atoms: C_14  and  C_9 
REMARK    5  A    between atoms: S_13  and  C_15 
REMARK    6  A    between atoms: O_25  and  C_22 
ROOT
ATOM      1  N   UNL d   1      -1.677  -5.651   0.065  0.00  0.00    -0.336 N 
ATOM      2  HN  UNL d   1      -0.720  -5.317  -0.052  1.00  0.00     0.168 HD
ATOM      3  C   UNL d   1      -2.694  -4.799   0.279  0.00  0.00     0.144 A 
ATOM      4  C   UNL d   1      -1.974  -6.975   0.012  0.00  0.00     0.045 A 
ATOM      5  N   UNL d   1      -3.976  -5.163   0.427  0.00  0.00    -0.347 N 
ATOM      6  HN  UNL d   1      -4.713  -4.476   0.588  1.00  0.00     0.167 HD
ATOM      7  C   UNL d   1      -3.274  -7.431   0.148  0.00  0.00     0.047 A 
ATOM      8  C   UNL d   1      -4.239  -6.475   0.354  0.00  0.00     0.092 A 
ENDROOT
BRANCH   3   9
ATOM      9  S   UNL d   1      -2.363  -3.059   0.419  0.00  0.00    -0.086 SA
BRANCH   9  10
ATOM     10  C   UNL d   1      -0.671  -2.997  -0.233  0.00  0.00     0.166 C 
BRANCH  10  11
ATOM     11  C   UNL d   1      -0.122  -1.578  -0.218  0.00  0.00     0.175 C 
ATOM     12  O   UNL d   1       0.011  -0.986  -1.294  0.00  0.00    -0.291 OA
BRANCH  11  13
ATOM     13  C   UNL d   1       0.286  -0.938   1.037  0.00  0.00     0.053 A 
ATOM     14  S   UNL d   1       0.133  -1.677   2.576  0.00  0.00    -0.074 SA
ATOM     15  C   UNL d   1       0.710  -0.299   3.367  0.00  0.00     0.075 A 
ATOM     16 CL   UNL d   1       0.783  -0.262   5.082  0.00  0.00    -0.076 Cl
ATOM     17  C   UNL d   1       1.085   0.704   2.513  0.00  0.00     0.033 A 
ATOM     18  C   UNL d   1       0.845   0.327   1.157  0.00  0.00     0.025 A 
ENDBRANCH  11  13
ENDBRANCH  10  11
ENDBRANCH   9  10
ENDBRANCH   3   9
BRANCH   4  19
ATOM     19  C   UNL d   1      -0.831  -7.886  -0.204  0.00  0.00    -0.009 A 
ATOM     20  C   UNL d   1      -0.771  -9.162   0.388  0.00  0.00     0.016 A 
ATOM     21  C   UNL d   1       0.325 -10.015   0.190  0.00  0.00     0.037 A 
ATOM     22  C   UNL d   1       1.391  -9.607  -0.609  0.00  0.00     0.068 A 
ATOM     23  C   UNL d   1       1.341  -8.361  -1.227  0.00  0.00     0.037 A 
ATOM     24  C   UNL d   1       0.250  -7.506  -1.016  0.00  0.00     0.016 A 
BRANCH  22  25
ATOM     25  O   UNL d   1       2.504 -10.354  -0.881  0.00  0.00    -0.356 OA
ATOM     26  C   UNL d   1       2.890 -11.273   0.136  0.00  0.00     0.210 C 
ENDBRANCH  22  25
ENDBRANCH   4  19
TORSDOF 6
