REMARK  7 active torsions:
REMARK  status: ('A' for Active; 'I' for Inactive)
REMARK    1  A    between atoms: C_4  and  C_1 
REMARK    2  A    between atoms: N_2  and  C_3 
REMARK       I    between atoms: N_5  and  C_4 
REMARK    3  A    between atoms: C_12  and  N_5 
REMARK    4  A    between atoms: O_20  and  C_14 
REMARK    5  A    between atoms: C_22  and  O_20 
REMARK    6  A    between atoms: O_21  and  C_23 
REMARK    7  A    between atoms: C_23  and  C_22 
ROOT
ATOM      1  C   UNL d   1       4.027  -0.040  -0.586  0.00  0.00     0.258 C 
ATOM      2  N   UNL d   1       4.625  -1.193  -0.082  0.00  0.00    -0.323 N 
ATOM      3  O   UNL d   1       3.022   0.009  -1.293  0.00  0.00    -0.267 OA
ATOM      4  H   UNL d   1       5.343  -1.112   0.627  0.00  0.00     0.169 HD
ENDROOT
BRANCH   2   5
ATOM      5  C   UNL d   1       4.118  -2.507  -0.288  0.00  0.00     0.035 A 
ATOM      6  C   UNL d   1       3.200  -2.819  -1.292  0.00  0.00     0.032 A 
ATOM      7  C   UNL d   1       2.600  -4.082  -1.368  0.00  0.00     0.039 A 
ATOM      8  C   UNL d   1       2.917  -5.072  -0.443  0.00  0.00     0.069 A 
ATOM      9  C   UNL d   1       3.914  -4.804   0.501  0.00  0.00     0.039 A 
ATOM     10  C   UNL d   1       4.522  -3.537   0.572  0.00  0.00     0.032 A 
BRANCH   8  11
ATOM     11  O   UNL d   1       2.328  -6.306  -0.367  0.00  0.00    -0.349 OA
BRANCH  11  12
ATOM     12  C   UNL d   1       1.171  -6.504  -1.190  0.00  0.00     0.201 C 
BRANCH  12  13
ATOM     13  C   UNL d   1       0.504  -7.837  -0.850  0.00  0.00     0.193 C 
BRANCH  13  14
ATOM     14  O   UNL d   1      -0.608  -8.037  -1.726  0.00  0.00    -0.394 OA
ATOM     15  C   UNL d   1      -1.267  -9.272  -1.476  0.00  0.00     0.201 C 
ENDBRANCH  13  14
ENDBRANCH  12  13
ENDBRANCH  11  12
ENDBRANCH   8  11
ENDBRANCH   2   5
BRANCH   1  16
ATOM     16  C   UNL d   1       4.556   1.274  -0.134  0.00  0.00     0.065 A 
ATOM     17  C   UNL d   1       5.905   1.609  -0.048  0.00  0.00     0.120 A 
ATOM     18  C   UNL d   1       6.342   2.849   0.440  0.00  0.00     0.060 A 
ATOM     19  C   UNL d   1       5.391   3.816   0.749  0.00  0.00     0.036 A 
ATOM     20  C   UNL d   1       4.032   3.549   0.579  0.00  0.00     0.025 A 
ATOM     21 CL   UNL d   1       5.893   5.373   1.277  0.00  0.00    -0.084 Cl
ATOM     22  C   UNL d   1       3.619   2.276   0.162  0.00  0.00     0.021 A 
BRANCH  17  23
ATOM     23  N   UNL d   1       6.881   0.766  -0.686  0.00  0.00    -0.115 N 
ATOM     24  O   UNL d   1       6.955   0.829  -1.916  0.00  0.00    -0.532 OA
ATOM     25  O   UNL d   1       7.567   0.062   0.063  0.00  0.00    -0.532 OA
ENDBRANCH  17  23
ENDBRANCH   1  16
TORSDOF 7
