REMARK  5 active torsions:
REMARK  status: ('A' for Active; 'I' for Inactive)
REMARK    1  A    between atoms: C_6  and  C_1 
REMARK    2  A    between atoms: N_7  and  C_6 
REMARK    3  A    between atoms: C_15  and  N_7 
REMARK    4  A    between atoms: C_10  and  C_16 
REMARK    5  A    between atoms: C_16  and  C_15 
ROOT
ATOM      1  C   UNL d   1      -1.570  -4.609   2.605  0.00  0.00     0.139 C 
ATOM      2  C   UNL d   1      -0.999  -5.435   3.611  0.00  0.00     0.112 C 
ATOM      3  C   UNL d   1      -2.947  -4.264   2.696  0.00  0.00     0.112 C 
ATOM      4  N   UNL d   1      -0.514  -6.119   4.416  0.00  0.00    -0.191 NA
ATOM      5  N   UNL d   1      -4.066  -3.970   2.759  0.00  0.00    -0.191 NA
ENDROOT
BRANCH   1   6
ATOM      6  C   UNL d   1      -0.836  -4.155   1.569  0.00  0.00     0.117 C 
BRANCH   6   7
ATOM      7  N   UNL d   1       0.501  -4.355   1.302  0.00  0.00    -0.397 N 
ATOM      8  H   UNL d   1       0.992  -5.021   1.904  0.00  0.00     0.158 HD
BRANCH   7   9
ATOM      9  C   UNL d   1       1.181  -4.032   0.051  0.00  0.00     0.123 C 
BRANCH   9  10
ATOM     10  C   UNL d   1       2.566  -4.702  -0.002  0.00  0.00     0.058 C 
BRANCH  10  11
ATOM     11  C   UNL d   1       2.588  -6.221   0.003  0.00  0.00    -0.057 A 
ATOM     12  C   UNL d   1       1.422  -7.005  -0.042  0.00  0.00     0.009 A 
ATOM     13  C   UNL d   1       1.486  -8.396   0.026  0.00  0.00     0.024 A 
ATOM     14  C   UNL d   1       2.722  -9.027   0.107  0.00  0.00     0.034 A 
ATOM     15  C   UNL d   1       3.893  -8.274   0.121  0.00  0.00     0.024 A 
ATOM     16 CL   UNL d   1       2.796 -10.743   0.186  0.00  0.00    -0.084 Cl
ATOM     17  C   UNL d   1       3.826  -6.878   0.073  0.00  0.00     0.009 A 
ENDBRANCH  10  11
ENDBRANCH   9  10
ENDBRANCH   7   9
ENDBRANCH   6   7
ENDBRANCH   1   6
TORSDOF 5
