REMARK  6 active torsions:
REMARK  status: ('A' for Active; 'I' for Inactive)
REMARK       I    between atoms: N_2  and  C_1 
REMARK    1  A    between atoms: C_9  and  C_1 
REMARK    2  A    between atoms: C_3  and  N_2 
REMARK    3  A    between atoms: C_6  and  C_12 
REMARK    4  A    between atoms: O_15  and  C_6 
REMARK    5  A    between atoms: C_7  and  C_9 
REMARK    6  A    between atoms: C_12  and  C_7 
ROOT
ATOM      1  C   UNL d   1       0.784  -0.020  -0.453  0.00  0.00     0.222 C 
ATOM      2  N   UNL d   1      -0.099  -0.044   0.613  0.00  0.00    -0.326 N 
ATOM      3  O   UNL d   1       0.461  -0.034  -1.640  0.00  0.00    -0.273 OA
ATOM      4  H   UNL d   1       0.291  -0.227   1.534  0.00  0.00     0.169 HD
ENDROOT
BRANCH   1   5
ATOM      5  C   UNL d   1       2.239  -0.003  -0.005  0.00  0.00     0.112 C 
BRANCH   5   6
ATOM      6  C   UNL d   1       3.293  -0.351  -1.095  0.00  0.00    -0.030 C 
ATOM      7  C   UNL d   1       4.698  -0.169  -0.477  0.00  0.00     0.016 C 
ATOM      8  C   UNL d   1       3.154  -1.841  -1.484  0.00  0.00     0.016 C 
BRANCH   6   9
ATOM      9  C   UNL d   1       3.192   0.493  -2.396  0.00  0.00     0.119 C 
BRANCH   9  10
ATOM     10  C   UNL d   1       3.103   1.993  -2.213  0.00  0.00     0.140 C 
ATOM     11  O   UNL d   1       3.380   2.602  -1.193  0.00  0.00    -0.650 OA
BRANCH  10  12
ATOM     12  O   UNL d   1       2.724   2.629  -3.346  0.00  0.00    -0.776 OA
ATOM     13  H   UNL d   1       2.511   2.021  -4.080  0.00  0.00     0.167 HD
ENDBRANCH  10  12
ENDBRANCH   9  10
ENDBRANCH   6   9
ENDBRANCH   5   6
ENDBRANCH   1   5
BRANCH   2  14
ATOM     14  C   UNL d   1      -1.494  -0.251   0.493  0.00  0.00     0.056 A 
ATOM     15  C   UNL d   1      -2.179  -0.895   1.538  0.00  0.00     0.062 A 
ATOM     16  C   UNL d   1      -3.520  -1.260   1.393  0.00  0.00     0.050 A 
ATOM     17 CL   UNL d   1      -1.364  -1.335   3.000  0.00  0.00    -0.082 Cl
ATOM     18  C   UNL d   1      -4.193  -0.941   0.217  0.00  0.00     0.035 A 
ATOM     19  C   UNL d   1      -3.552  -0.230  -0.793  0.00  0.00     0.026 A 
ATOM     20 CL   UNL d   1      -5.823  -1.444   0.001  0.00  0.00    -0.084 Cl
ATOM     21  C   UNL d   1      -2.206   0.117  -0.652  0.00  0.00     0.033 A 
ENDBRANCH   2  14
TORSDOF 6
