REMARK  6 active torsions:
REMARK  status: ('A' for Active; 'I' for Inactive)
REMARK    1  A    between atoms: N_7  and  S_1 
REMARK    2  A    between atoms: C_11  and  S_1 
REMARK    3  A    between atoms: C_4  and  C_2 
REMARK    4  A    between atoms: C_3  and  N_5 
REMARK    5  A    between atoms: N_6  and  C_8 
REMARK    6  A    between atoms: C_16  and  N_7 
ROOT
ATOM      1  C   UNL d   1       1.500   4.909  -1.609  0.00  0.00     0.082 A 
ATOM      2  N   UNL d   1       0.230   4.567  -1.907  0.00  0.00    -0.354 N 
ATOM      3  HN  UNL d   1      -0.461   5.270  -2.168  1.00  0.00     0.166 HD
ATOM      4  C   UNL d   1       0.787   2.247  -1.463  0.00  0.00     0.058 A 
ATOM      5  C   UNL d   1       2.442   3.949  -1.227  0.00  0.00     0.044 A 
ATOM      6  C   UNL d   1      -0.095   3.248  -1.847  0.00  0.00     0.119 A 
ATOM      7  C   UNL d   1       2.081   2.612  -1.136  0.00  0.00     0.035 A 
ENDROOT
BRANCH   1   8
ATOM      8  N   UNL d   1       1.922   6.236  -1.599  0.00  0.00    -0.266 NA
ATOM      9  C   UNL d   1       0.876   7.251  -1.364  0.00  0.00     0.117 C 
ATOM     10  C   UNL d   1       1.592   8.595  -1.038  0.00  0.00     0.139 C 
ATOM     11  N   UNL d   1       2.424   8.954  -2.202  0.00  0.00    -0.364 N 
ATOM     12  C   UNL d   1       3.493   7.961  -2.442  0.00  0.00     0.139 C 
ATOM     13  C   UNL d   1       2.814   6.595  -2.732  0.00  0.00     0.117 C 
BRANCH  11  14
ATOM     14  C   UNL d   1       2.609  10.251  -2.610  0.00  0.00     0.118 A 
ATOM     15  C   UNL d   1       1.554  11.096  -2.971  0.00  0.00     0.091 A 
ATOM     16  C   UNL d   1       1.863  12.385  -3.462  0.00  0.00     0.021 A 
ATOM     17  C   UNL d   1       3.173  12.800  -3.595  0.00  0.00     0.018 A 
ATOM     18  C   UNL d   1       4.152  11.904  -3.226  0.00  0.00     0.089 A 
ATOM     19  N   UNL d   1       3.892  10.668  -2.755  0.00  0.00    -0.352 N 
ATOM     20  HN  UNL d   1       4.660  10.046  -2.506  1.00  0.00     0.166 HD
BRANCH  15  21
ATOM     21  C   UNL d   1       0.093  10.750  -2.958  0.00  0.00     0.421 C 
ATOM     22  F   UNL d   1      -0.263   9.484  -2.624  0.00  0.00    -0.166 F 
ATOM     23  F   UNL d   1      -0.597  11.550  -2.090  0.00  0.00    -0.166 F 
ATOM     24  F   UNL d   1      -0.492  10.957  -4.175  0.00  0.00    -0.166 F 
ENDBRANCH  15  21
ENDBRANCH  11  14
ENDBRANCH   1   8
BRANCH   4  25
ATOM     25  N   UNL d   1       0.413   0.885  -1.370  0.00  0.00    -0.279 N 
ATOM     26  H   UNL d   1       0.096   0.386  -2.201  0.00  0.00     0.179 HD
BRANCH  25  27
ATOM     27  S   UNL d   1      -0.103   0.253   0.094  0.00  0.00     0.263 S 
ATOM     28  O   UNL d   1       0.821   0.617   1.135  0.00  0.00    -0.200 OA
ATOM     29  O   UNL d   1      -0.446  -1.129  -0.166  0.00  0.00    -0.200 OA
BRANCH  27  30
ATOM     30  C   UNL d   1      -1.636   1.122   0.389  0.00  0.00     0.080 A 
ATOM     31  C   UNL d   1      -2.829   0.607  -0.135  0.00  0.00     0.027 A 
ATOM     32  C   UNL d   1      -4.036   1.256   0.133  0.00  0.00     0.025 A 
ATOM     33  C   UNL d   1      -4.045   2.405   0.925  0.00  0.00     0.034 A 
ATOM     34  C   UNL d   1      -2.856   2.915   1.448  0.00  0.00     0.025 A 
ATOM     35 CL   UNL d   1      -5.536   3.191   1.266  0.00  0.00    -0.084 Cl
ATOM     36  C   UNL d   1      -1.646   2.270   1.189  0.00  0.00     0.027 A 
ENDBRANCH  27  30
ENDBRANCH  25  27
ENDBRANCH   4  25
TORSDOF 6
