REMARK  6 active torsions:
REMARK  status: ('A' for Active; 'I' for Inactive)
REMARK    1  A    between atoms: C_3  and  C_1 
REMARK    2  A    between atoms: C_8  and  C_2 
REMARK    3  A    between atoms: C_4  and  C_6 
REMARK    4  A    between atoms: O_24  and  C_5 
REMARK       I    between atoms: N_10  and  C_8 
REMARK    5  A    between atoms: C_23  and  N_10 
REMARK    6  A    between atoms: C_12  and  C_23 
ROOT
ATOM      1  C   UNL d   1       1.541  -0.313  -0.048  0.00  0.00     0.067 C 
ATOM      2  C   UNL d   1       0.649  -1.401  -0.083  0.00  0.00     0.080 C 
ATOM      3  C   UNL d   1      -0.716  -1.161   0.188  0.00  0.00     0.085 C 
ATOM      4  C   UNL d   1      -0.371   1.239   0.207  0.00  0.00     0.051 C 
ATOM      5  C   UNL d   1       1.004   0.997   0.074  0.00  0.00     0.033 C 
ATOM      6  C   UNL d   1      -1.222   0.141   0.289  0.00  0.00     0.053 C 
ENDROOT
BRANCH   2   7
ATOM      7  C   UNL d   1       1.006  -2.767  -0.575  0.00  0.00     0.255 C 
ATOM      8  N   UNL d   1       2.064  -3.404   0.018  0.00  0.00    -0.352 N 
ATOM      9  H   UNL d   1       2.698  -2.902   0.628  0.00  0.00     0.163 HD
ATOM     10  O   UNL d   1       0.339  -3.281  -1.462  0.00  0.00    -0.268 OA
BRANCH   8  11
ATOM     11  C   UNL d   1       2.523  -4.698  -0.439  0.00  0.00     0.169 C 
BRANCH  11  12
ATOM     12  C   UNL d   1       3.072  -5.413   0.752  0.00  0.00     0.000 A 
ATOM     13  S   UNL d   1       4.690  -5.152   1.254  0.00  0.00    -0.105 SA
ATOM     14  C   UNL d   1       4.502  -6.185   2.603  0.00  0.00     0.050 A 
ATOM     15  C   UNL d   1       3.241  -6.734   2.664  0.00  0.00     0.008 A 
ATOM     16  C   UNL d   1       2.416  -6.292   1.591  0.00  0.00     0.017 A 
ENDBRANCH  11  12
ENDBRANCH   8  11
ENDBRANCH   2   7
BRANCH   1  17
ATOM     17  C   UNL d   1       3.040  -0.396  -0.148  0.00  0.00     0.418 C 
ATOM     18  F   UNL d   1       3.590  -1.569   0.258  0.00  0.00    -0.166 F 
ATOM     19  F   UNL d   1       3.504  -0.159  -1.402  0.00  0.00    -0.166 F 
ATOM     20  F   UNL d   1       3.639   0.541   0.649  0.00  0.00    -0.166 F 
ENDBRANCH   1  17
BRANCH   3  21
ATOM     21  O   UNL d   1      -1.644  -2.152   0.380  0.00  0.00    -0.355 OA
ATOM     22  C   UNL d   1      -1.330  -2.950   1.526  0.00  0.00     0.210 C 
ENDBRANCH   3  21
BRANCH   4  23
ATOM     23  C   UNL d   1      -0.919   2.644   0.265  0.00  0.00     0.417 C 
ATOM     24  F   UNL d   1       0.051   3.598   0.333  0.00  0.00    -0.166 F 
ATOM     25  F   UNL d   1      -1.674   2.955  -0.824  0.00  0.00    -0.166 F 
ATOM     26  F   UNL d   1      -1.717   2.846   1.350  0.00  0.00    -0.166 F 
ENDBRANCH   4  23
TORSDOF 6
