REMARK  6 active torsions:
REMARK  status: ('A' for Active; 'I' for Inactive)
REMARK    1  A    between atoms: C_9  and  C_1 
REMARK    2  A    between atoms: N_6  and  C_9 
REMARK    3  A    between atoms: C_11  and  N_6 
REMARK    4  A    between atoms: C_7  and  C_8 
REMARK    5  A    between atoms: C_8  and  C_11 
REMARK    6  A    between atoms: O_10  and  C_8 
ROOT
ATOM      1  N   UNL d   1      -0.108  -3.666  -0.084  0.00  0.00     0.090 N 
ATOM      2  H   UNL d   1      -0.372  -3.400  -1.031  0.00  0.00     0.316 HD
ENDROOT
BRANCH   1   3
ATOM      3  C   UNL d   1       1.197  -3.092   0.227  0.00  0.00     0.309 C 
BRANCH   3   4
ATOM      4  C   UNL d   1       1.068  -1.607   0.045  0.00  0.00    -0.012 A 
ATOM      5  C   UNL d   1       1.287  -0.966  -1.163  0.00  0.00     0.060 A 
ATOM      6  S   UNL d   1       0.992   0.705  -1.092  0.00  0.00    -0.101 SA
ATOM      7  C   UNL d   1       0.567   0.636   0.573  0.00  0.00     0.015 A 
ATOM      8  C   UNL d   1       0.677  -0.664   1.077  0.00  0.00    -0.011 A 
ATOM      9  C   UNL d   1       0.149   1.714   1.378  0.00  0.00     0.019 A 
ATOM     10  C   UNL d   1       0.378  -0.860   2.453  0.00  0.00     0.013 A 
ATOM     11  C   UNL d   1      -0.024   0.211   3.259  0.00  0.00     0.001 A 
ATOM     12  C   UNL d   1      -0.146   1.484   2.722  0.00  0.00     0.001 A 
ENDBRANCH   3   4
ENDBRANCH   1   3
BRANCH   1  13
ATOM     13  C   UNL d   1      -0.156  -5.125   0.039  0.00  0.00     0.306 C 
BRANCH  13  14
ATOM     14  C   UNL d   1       0.135  -5.749   1.432  0.00  0.00     0.179 C 
BRANCH  14  15
ATOM     15  C   UNL d   1      -0.731  -5.319   2.606  0.00  0.00    -0.028 A 
ATOM     16  C   UNL d   1      -1.780  -4.396   2.500  0.00  0.00     0.010 A 
ATOM     17  C   UNL d   1      -2.498  -3.990   3.628  0.00  0.00     0.001 A 
ATOM     18  C   UNL d   1      -2.192  -4.514   4.880  0.00  0.00     0.000 A 
ATOM     19  C   UNL d   1      -1.170  -5.450   5.005  0.00  0.00     0.001 A 
ATOM     20  C   UNL d   1      -0.446  -5.847   3.878  0.00  0.00     0.010 A 
ENDBRANCH  14  15
BRANCH  14  21
ATOM     21  O   UNL d   1       0.032  -7.174   1.284  0.00  0.00    -0.389 OA
ATOM     22  H   UNL d   1      -0.910  -7.396   1.387  0.00  0.00     0.210 HD
ENDBRANCH  14  21
ENDBRANCH  13  14
ENDBRANCH   1  13
TORSDOF 6
