REMARK  12 active torsions:
REMARK  status: ('A' for Active; 'I' for Inactive)
REMARK    1  A    between atoms: N_2  and  S_1 
REMARK    2  A    between atoms: C_11  and  S_1 
REMARK       I    between atoms: N_7  and  C_4 
REMARK       I    between atoms: N_8  and  C_4 
REMARK    3  A    between atoms: C_5  and  N_12 
REMARK    4  A    between atoms: N_14  and  C_5 
REMARK    5  A    between atoms: C_6  and  N_13 
REMARK    6  A    between atoms: N_15  and  C_6 
REMARK    7  A    between atoms: N_12  and  N_7 
REMARK    8  A    between atoms: N_13  and  N_8 
REMARK    9  A    between atoms: C_18  and  N_14 
REMARK   10  A    between atoms: C_19  and  N_15 
REMARK   11  A    between atoms: O_30  and  C_20 
REMARK   12  A    between atoms: O_31  and  C_21 
ROOT
ATOM      1  N   UNL d   1       0.894  -0.900  -1.206  0.00  0.00    -0.110 N 
ATOM      2  HN  UNL d   1       0.337  -1.752  -1.274  1.00  0.00     0.197 HD
ATOM      3  C   UNL d   1       1.365  -0.462  -2.329  0.00  0.00     0.717 C 
ATOM      4  N   UNL d   1       2.196   0.578  -2.689  0.00  0.00    -0.128 N 
ATOM      5  N   UNL d   1       0.997  -1.253  -3.405  0.00  0.00    -0.146 N 
ATOM      6  H   UNL d   1       1.702   1.352  -3.148  0.00  0.00     0.205 HD
ATOM      7  H   UNL d   1       0.208  -1.878  -3.231  0.00  0.00     0.200 HD
ENDROOT
BRANCH   1   8
ATOM      8  S   UNL d   1       1.051  -0.308   0.281  0.00  0.00     0.276 S 
ATOM      9  O   UNL d   1      -0.249   0.143   0.744  0.00  0.00    -0.200 OA
ATOM     10  O   UNL d   1       2.223   0.520   0.416  0.00  0.00    -0.200 OA
BRANCH   8  11
ATOM     11  C   UNL d   1       1.455  -1.749   1.245  0.00  0.00     0.080 A 
ATOM     12  C   UNL d   1       1.553  -3.008   0.645  0.00  0.00     0.025 A 
ATOM     13  C   UNL d   1       1.942  -4.101   1.416  0.00  0.00     0.002 A 
ATOM     14  C   UNL d   1       2.240  -3.932   2.768  0.00  0.00     0.000 A 
ATOM     15  C   UNL d   1       2.162  -2.666   3.356  0.00  0.00     0.002 A 
ATOM     16  C   UNL d   1       1.770  -1.567   2.595  0.00  0.00     0.025 A 
ENDBRANCH   8  11
ENDBRANCH   1   8
BRANCH   4  17
ATOM     17  N   UNL d   1       3.214   1.033  -1.816  0.00  0.00    -0.262 N 
ATOM     18  H   UNL d   1       3.284   0.502  -0.945  0.00  0.00     0.190 HD
BRANCH  17  19
ATOM     19  C   UNL d   1       3.394   2.408  -1.646  0.00  0.00     0.191 C 
ATOM     20  S   UNL d   1       2.755   3.542  -2.715  0.00  0.00    -0.039 SA
BRANCH  19  21
ATOM     21  N   UNL d   1       4.213   2.669  -0.540  0.00  0.00    -0.332 N 
ATOM     22  H   UNL d   1       4.951   1.995  -0.376  0.00  0.00     0.168 HD
BRANCH  21  23
ATOM     23  C   UNL d   1       4.350   3.923   0.091  0.00  0.00     0.034 C 
ATOM     24  C   UNL d   1       3.223   4.697   0.367  0.00  0.00     0.032 C 
ATOM     25  C   UNL d   1       3.355   6.004   0.833  0.00  0.00     0.039 C 
ATOM     26  C   UNL d   1       4.622   6.546   1.033  0.00  0.00     0.068 C 
ATOM     27  C   UNL d   1       5.745   5.725   0.884  0.00  0.00     0.039 C 
ATOM     28  C   UNL d   1       5.612   4.402   0.441  0.00  0.00     0.032 C 
BRANCH  26  29
ATOM     29  O   UNL d   1       4.875   7.851   1.361  0.00  0.00    -0.356 OA
ATOM     30  C   UNL d   1       3.754   8.733   1.324  0.00  0.00     0.210 C 
ENDBRANCH  26  29
ENDBRANCH  21  23
ENDBRANCH  19  21
ENDBRANCH  17  19
ENDBRANCH   4  17
BRANCH   5  31
ATOM     31  N   UNL d   1       1.084  -0.769  -4.719  0.00  0.00    -0.166 NA
ATOM     32  H   UNL d   1       2.054  -0.634  -4.998  0.00  0.00     0.155 HD
BRANCH  31  33
ATOM     33  C   UNL d   1       0.307  -1.349  -5.695  0.00  0.00     0.169 C 
ATOM     34  S   UNL d   1      -0.582  -2.760  -5.494  0.00  0.00    -0.045 SA
BRANCH  33  35
ATOM     35  N   UNL d   1       0.194  -0.705  -6.901  0.00  0.00    -0.337 N 
ATOM     36  H   UNL d   1      -0.440  -1.197  -7.524  0.00  0.00     0.168 HD
BRANCH  35  37
ATOM     37  C   UNL d   1       0.366   0.669  -7.194  0.00  0.00     0.034 A 
ATOM     38  C   UNL d   1       1.207   1.530  -6.492  0.00  0.00     0.032 A 
ATOM     39  C   UNL d   1       1.157   2.910  -6.699  0.00  0.00     0.039 A 
ATOM     40  C   UNL d   1       0.274   3.451  -7.626  0.00  0.00     0.068 A 
ATOM     41  C   UNL d   1      -0.486   2.589  -8.415  0.00  0.00     0.039 A 
ATOM     42  C   UNL d   1      -0.432   1.205  -8.212  0.00  0.00     0.032 A 
BRANCH  40  43
ATOM     43  O   UNL d   1       0.073   4.786  -7.841  0.00  0.00    -0.356 OA
ATOM     44  C   UNL d   1       0.681   5.667  -6.900  0.00  0.00     0.210 C 
ENDBRANCH  40  43
ENDBRANCH  35  37
ENDBRANCH  33  35
ENDBRANCH  31  33
ENDBRANCH   5  31
TORSDOF 12
