REMARK  6 active torsions:
REMARK  status: ('A' for Active; 'I' for Inactive)
REMARK    1  A    between atoms: C_2  and  S_1 
REMARK    2  A    between atoms: N_7  and  S_1 
REMARK    3  A    between atoms: N_10  and  C_3 
REMARK    4  A    between atoms: C_16  and  N_7 
REMARK       I    between atoms: C_15  and  N_10 
REMARK    5  A    between atoms: O_25  and  C_14 
REMARK    6  A    between atoms: O_26  and  C_22 
ROOT
ATOM      1  C   UNL d   1       3.814  -0.796   5.376  0.00  0.00     0.092 C 
ATOM      2  C   UNL d   1       3.097  -1.631   6.417  0.00  0.00     0.311 C 
ATOM      3  O   UNL d   1       2.287  -2.674   5.919  0.00  0.00    -0.274 OA
ATOM      4  C   UNL d   1       3.903  -1.394   4.181  0.00  0.00     0.105 C 
ATOM      5  C   UNL d   1       2.506  -1.626   3.782  0.00  0.00    -0.016 C 
ATOM      6  C   UNL d   1       1.756  -2.432   4.633  0.00  0.00     0.086 C 
ATOM      7  C   UNL d   1       0.538  -1.168   2.516  0.00  0.00     0.043 C 
ATOM      8  C   UNL d   1       1.872  -0.903   2.794  0.00  0.00     0.040 C 
ATOM      9  O   UNL d   1       3.177  -1.368   7.614  0.00  0.00    -0.258 OA
ATOM     10  C   UNL d   1       0.447  -2.781   4.331  0.00  0.00     0.040 C 
ATOM     11  C   UNL d   1      -0.163  -2.142   3.248  0.00  0.00     0.033 C 
ENDROOT
BRANCH   7  12
ATOM     12  N   UNL d   1      -0.180  -0.333   1.633  0.00  0.00    -0.281 N 
ATOM     13  H   UNL d   1      -0.824   0.360   2.011  0.00  0.00     0.179 HD
BRANCH  12  14
ATOM     14  S   UNL d   1       0.391   0.059   0.102  0.00  0.00     0.266 S 
ATOM     15  O   UNL d   1      -0.428   1.192  -0.280  0.00  0.00    -0.200 OA
ATOM     16  O   UNL d   1       1.833   0.160   0.078  0.00  0.00    -0.200 OA
BRANCH  14  17
ATOM     17  C   UNL d   1      -0.043  -1.392  -0.814  0.00  0.00     0.115 A 
ATOM     18  C   UNL d   1       0.579  -2.591  -0.399  0.00  0.00     0.065 A 
ATOM     19  C   UNL d   1       0.143  -3.821  -0.875  0.00  0.00     0.069 A 
ATOM     20  C   UNL d   1      -0.869  -3.844  -1.832  0.00  0.00     0.039 A 
ATOM     21  C   UNL d   1      -1.431  -2.651  -2.304  0.00  0.00     0.041 A 
ATOM     22  C   UNL d   1      -1.017  -1.411  -1.811  0.00  0.00     0.091 A 
BRANCH  19  23
ATOM     23  O   UNL d   1       0.597  -5.045  -0.467  0.00  0.00    -0.356 OA
ATOM     24  C   UNL d   1       1.572  -5.066   0.573  0.00  0.00     0.210 C 
ENDBRANCH  19  23
BRANCH  22  25
ATOM     25  O   UNL d   1      -1.713  -0.336  -2.280  0.00  0.00    -0.354 OA
ATOM     26  C   UNL d   1      -0.922   0.643  -2.963  0.00  0.00     0.210 C 
ENDBRANCH  22  25
ENDBRANCH  14  17
ENDBRANCH  12  14
ENDBRANCH   7  12
BRANCH   1  27
ATOM     27  N   UNL d   1       3.780   0.592   5.462  0.00  0.00    -0.326 N 
ATOM     28  C   UNL d   1       4.303   1.429   4.485  0.00  0.00     0.218 C 
ATOM     29  O   UNL d   1       5.101   1.074   3.608  0.00  0.00    -0.274 OA
ATOM     30  C   UNL d   1       3.806   2.843   4.538  0.00  0.00     0.117 C 
ATOM     31  H   UNL d   1       3.360   0.996   6.292  0.00  0.00     0.168 HD
ENDBRANCH   1  27
TORSDOF 6
