REMARK  4 active torsions:
REMARK  status: ('A' for Active; 'I' for Inactive)
REMARK    1  A    between atoms: C_3  and  C_1 
REMARK    2  A    between atoms: C_9  and  C_2 
REMARK    3  A    between atoms: O_8  and  C_3 
REMARK    4  A    between atoms: C_11  and  O_8 
ROOT
ATOM      1  C   UNL d   1       0.002  -1.373   0.316  0.00  0.00     0.123 A 
ATOM      2  C   UNL d   1       1.310  -0.921   0.228  0.00  0.00     0.080 A 
ATOM      3  N   UNL d   1       0.294   1.061   0.567  0.00  0.00    -0.060 NA
ATOM      4  N   UNL d   1       1.452   0.460   0.352  0.00  0.00    -0.291 N 
ATOM      5  HN  UNL d   1       2.344   0.949   0.286  1.00  0.00     0.183 HD
ATOM      6  S   UNL d   1      -0.988  -0.007   0.615  0.00  0.00     0.008 SA
ENDROOT
BRANCH   1   7
ATOM      7  C   UNL d   1      -0.558  -2.680   0.127  0.00  0.00     0.309 C 
ATOM      8  O   UNL d   1      -0.153  -3.502  -0.685  0.00  0.00    -0.258 OA
BRANCH   7   9
ATOM      9  O   UNL d   1      -1.600  -2.893   1.039  0.00  0.00    -0.275 OA
BRANCH   9  10
ATOM     10  C   UNL d   1      -2.366  -4.079   1.165  0.00  0.00     0.079 A 
ATOM     11  C   UNL d   1      -2.086  -5.278   0.514  0.00  0.00     0.039 A 
ATOM     12  C   UNL d   1      -2.936  -6.374   0.691  0.00  0.00     0.026 A 
ATOM     13  C   UNL d   1      -4.048  -6.267   1.524  0.00  0.00     0.034 A 
ATOM     14  C   UNL d   1      -4.313  -5.075   2.197  0.00  0.00     0.026 A 
ATOM     15 CL   UNL d   1      -5.100  -7.614   1.721  0.00  0.00    -0.084 Cl
ATOM     16  C   UNL d   1      -3.469  -3.977   2.019  0.00  0.00     0.039 A 
ENDBRANCH   9  10
ENDBRANCH   7   9
ENDBRANCH   1   7
BRANCH   2  17
ATOM     17  C   UNL d   1       2.485  -1.761   0.037  0.00  0.00    -0.007 A 
ATOM     18  C   UNL d   1       3.512  -1.332  -0.814  0.00  0.00     0.014 A 
ATOM     19  C   UNL d   1       4.654  -2.116  -1.001  0.00  0.00     0.001 A 
ATOM     20  C   UNL d   1       4.784  -3.333  -0.333  0.00  0.00     0.000 A 
ATOM     21  C   UNL d   1       3.778  -3.762   0.529  0.00  0.00     0.001 A 
ATOM     22  C   UNL d   1       2.638  -2.977   0.720  0.00  0.00     0.014 A 
ENDBRANCH   2  17
TORSDOF 4
