REMARK  8 active torsions:
REMARK  status: ('A' for Active; 'I' for Inactive)
REMARK    1  A    between atoms: N_2  and  C_1 
REMARK    2  A    between atoms: N_3  and  C_1 
REMARK    3  A    between atoms: C_8  and  N_2 
REMARK    4  A    between atoms: C_13  and  N_3 
REMARK    5  A    between atoms: C_9  and  C_19 
REMARK       I    between atoms: N_11  and  C_9 
REMARK    6  A    between atoms: C_14  and  N_11 
REMARK    7  A    between atoms: S_12  and  C_15 
REMARK    8  A    between atoms: C_19  and  S_12 
ROOT
ATOM      1  C   UNL d   1       0.795  -0.424  -2.513  0.00  0.00     0.051 A 
ATOM      2  C   UNL d   1       1.552  -1.596  -2.726  0.00  0.00     0.027 A 
ATOM      3  C   UNL d   1       0.595   0.458  -3.592  0.00  0.00     0.031 A 
ATOM      4  C   UNL d   1       2.179  -1.778  -3.974  0.00  0.00     0.021 A 
ATOM      5  C   UNL d   1       1.196   0.242  -4.831  0.00  0.00     0.002 A 
ATOM      6  C   UNL d   1       2.007  -0.869  -5.017  0.00  0.00     0.002 A 
ENDROOT
BRANCH   1   7
ATOM      7  N   UNL d   1       0.119  -0.059  -1.325  0.00  0.00    -0.332 N 
ATOM      8  H   UNL d   1      -0.551   0.691  -1.443  0.00  0.00     0.168 HD
BRANCH   7   9
ATOM      9  C   UNL d   1       0.490  -0.173  -0.012  0.00  0.00     0.176 C 
ATOM     10  S   UNL d   1       2.049  -0.254   0.589  0.00  0.00    -0.041 SA
BRANCH   9  11
ATOM     11  N   UNL d   1      -0.521  -0.040   0.913  0.00  0.00    -0.333 N 
ATOM     12  H   UNL d   1      -0.157   0.076   1.855  0.00  0.00     0.168 HD
BRANCH  11  13
ATOM     13  C   UNL d   1      -1.923   0.044   0.769  0.00  0.00     0.035 A 
ATOM     14  C   UNL d   1      -2.630  -0.345  -0.374  0.00  0.00     0.055 A 
ATOM     15  C   UNL d   1      -4.012  -0.132  -0.468  0.00  0.00     0.058 A 
ATOM     16 CL   UNL d   1      -4.793  -0.586  -1.942  0.00  0.00    -0.082 Cl
ATOM     17  C   UNL d   1      -4.705   0.445   0.598  0.00  0.00     0.055 A 
ATOM     18  C   UNL d   1      -4.017   0.774   1.766  0.00  0.00     0.028 A 
ATOM     19 CL   UNL d   1      -6.396   0.784   0.533  0.00  0.00    -0.083 Cl
ATOM     20  C   UNL d   1      -2.637   0.564   1.854  0.00  0.00     0.031 A 
ENDBRANCH  11  13
ENDBRANCH   9  11
ENDBRANCH   7   9
ENDBRANCH   1   7
BRANCH   2  21
ATOM     21  S   UNL d   1       1.714  -3.009  -1.628  0.00  0.00    -0.118 SA
BRANCH  21  22
ATOM     22  C   UNL d   1      -0.029  -3.445  -1.342  0.00  0.00     0.182 C 
BRANCH  22  23
ATOM     23  C   UNL d   1      -0.778  -3.806  -2.614  0.00  0.00     0.231 C 
ATOM     24  N   UNL d   1      -0.086  -4.672  -3.445  0.00  0.00    -0.326 N 
ATOM     25  H   UNL d   1       0.869  -4.873  -3.164  0.00  0.00     0.169 HD
ATOM     26  O   UNL d   1      -1.934  -3.421  -2.776  0.00  0.00    -0.272 OA
BRANCH  24  27
ATOM     27  C   UNL d   1      -0.563  -5.326  -4.598  0.00  0.00     0.036 A 
ATOM     28  C   UNL d   1      -1.827  -5.109  -5.151  0.00  0.00     0.055 A 
ATOM     29  C   UNL d   1      -2.262  -5.858  -6.253  0.00  0.00     0.058 A 
ATOM     30 CL   UNL d   1      -3.846  -5.540  -6.869  0.00  0.00    -0.082 Cl
ATOM     31  C   UNL d   1      -1.428  -6.831  -6.811  0.00  0.00     0.055 A 
ATOM     32  C   UNL d   1      -0.151  -7.029  -6.284  0.00  0.00     0.028 A 
ATOM     33 CL   UNL d   1      -1.915  -7.825  -8.138  0.00  0.00    -0.083 Cl
ATOM     34  C   UNL d   1       0.281  -6.274  -5.189  0.00  0.00     0.031 A 
ENDBRANCH  24  27
ENDBRANCH  22  23
ENDBRANCH  21  22
ENDBRANCH   2  21
TORSDOF 8
