REMARK  7 active torsions:
REMARK  status: ('A' for Active; 'I' for Inactive)
REMARK    1  A    between atoms: C_9  and  C_1 
REMARK       I    between atoms: N_18  and  C_1 
REMARK    2  A    between atoms: C_11  and  N_3 
REMARK    3  A    between atoms: C_20  and  C_11 
REMARK    4  A    between atoms: C_12  and  O_19 
REMARK    5  A    between atoms: O_19  and  C_21 
REMARK    6  A    between atoms: C_21  and  C_20 
REMARK    7  A    between atoms: O_23  and  C_20 
ROOT
ATOM      1  C   UNL d   1      -1.490   3.873  -2.982  0.00  0.00     0.170 C 
ENDROOT
BRANCH   1   2
ATOM      2  C   UNL d   1      -1.690   2.396  -2.573  0.00  0.00     0.306 C 
BRANCH   2   3
ATOM      3  N   UNL d   1      -1.473   1.994  -1.162  0.00  0.00     0.091 N 
ATOM      4  C   UNL d   1      -1.702   0.537  -1.073  0.00  0.00     0.273 C 
ATOM      5  C   UNL d   1      -1.569  -0.002   0.352  0.00  0.00     0.044 C 
ATOM      6  C   UNL d   1      -2.520   0.716   1.310  0.00  0.00     0.081 C 
ATOM      7  C   UNL d   1      -2.287   2.226   1.195  0.00  0.00     0.044 C 
ATOM      8  C   UNL d   1      -2.378   2.724  -0.256  0.00  0.00     0.273 C 
BRANCH   6   9
ATOM      9  C   UNL d   1      -3.987   0.352   1.071  0.00  0.00     0.219 C 
ATOM     10  O   UNL d   1      -4.880   1.163   0.871  0.00  0.00    -0.273 OA
ATOM     11  N   UNL d   1      -4.282  -0.980   1.133  0.00  0.00    -0.370 N 
ATOM     12  H   UNL d   1      -3.645  -1.665   1.513  0.00  0.00     0.159 HD
ATOM     13  H   UNL d   1      -5.262  -1.229   1.057  0.00  0.00     0.159 HD
ENDBRANCH   6   9
ENDBRANCH   2   3
ENDBRANCH   1   2
BRANCH   1  14
ATOM     14  C   UNL d   1      -0.067   4.387  -2.713  0.00  0.00     0.209 C 
BRANCH  14  15
ATOM     15  O   UNL d   1       0.026   5.747  -3.172  0.00  0.00    -0.348 OA
BRANCH  15  16
ATOM     16  C   UNL d   1       1.116   6.463  -2.750  0.00  0.00     0.071 A 
ATOM     17  C   UNL d   1       2.266   5.912  -2.182  0.00  0.00     0.076 A 
ATOM     18  C   UNL d   1       3.240   6.779  -1.735  0.00  0.00     0.107 A 
ATOM     19  O   UNL d   1       4.394   6.415  -1.112  0.00  0.00    -0.323 OA
ATOM     20  C   UNL d   1       3.120   8.143  -1.862  0.00  0.00     0.105 A 
ATOM     21  C   UNL d   1       4.934   7.708  -0.774  0.00  0.00     0.352 A 
ATOM     22  O   UNL d   1       4.180   8.807  -1.328  0.00  0.00    -0.323 OA
ATOM     23  C   UNL d   1       2.026   8.718  -2.468  0.00  0.00     0.042 A 
ATOM     24  C   UNL d   1       1.013   7.860  -2.916  0.00  0.00     0.039 A 
ENDBRANCH  15  16
ENDBRANCH  14  15
ENDBRANCH   1  14
BRANCH   1  25
ATOM     25  O   UNL d   1      -1.799   3.970  -4.387  0.00  0.00    -0.392 OA
ATOM     26  H   UNL d   1      -1.027   3.652  -4.886  0.00  0.00     0.210 HD
ENDBRANCH   1  25
TORSDOF 7
