REMARK  4 active torsions:
REMARK  status: ('A' for Active; 'I' for Inactive)
REMARK    1  A    between atoms: C_6  and  C_1 
REMARK    2  A    between atoms: C_5  and  C_2 
REMARK    3  A    between atoms: O_11  and  C_8 
REMARK    4  A    between atoms: C_17  and  O_11 
ROOT
ATOM      1  C   UNL d   1       0.794  -0.254  -0.825  0.00  0.00     0.055 C 
ATOM      2  C   UNL d   1       0.350  -1.150   0.089  0.00  0.00     0.037 C 
ATOM      3  C   UNL d   1       1.968  -0.546  -1.654  0.00  0.00     0.100 C 
ATOM      4  N   UNL d   1       2.923  -0.757  -2.300  0.00  0.00    -0.191 NA
ENDROOT
BRANCH   1   5
ATOM      5  C   UNL d   1       0.093   1.074  -0.932  0.00  0.00    -0.014 A 
ATOM      6  C   UNL d   1      -1.290   1.240  -0.694  0.00  0.00     0.036 A 
ATOM      7  C   UNL d   1      -1.895   2.499  -0.798  0.00  0.00     0.034 A 
ATOM      8 CL   UNL d   1      -3.579   2.668  -0.477  0.00  0.00    -0.084 Cl
ATOM      9  C   UNL d   1      -1.148   3.616  -1.154  0.00  0.00     0.024 A 
ATOM     10  C   UNL d   1       0.213   3.477  -1.407  0.00  0.00     0.003 A 
ATOM     11  C   UNL d   1       0.824   2.220  -1.294  0.00  0.00     0.013 A 
ENDBRANCH   1   5
BRANCH   2  12
ATOM     12  C   UNL d   1       0.981  -2.465   0.286  0.00  0.00    -0.001 A 
ATOM     13  C   UNL d   1       2.000  -2.733   1.215  0.00  0.00     0.079 A 
ATOM     14  C   UNL d   1       2.640  -3.981   1.183  0.00  0.00     0.037 A 
ATOM     15  C   UNL d   1       2.265  -4.965   0.268  0.00  0.00     0.003 A 
ATOM     16  C   UNL d   1       1.238  -4.713  -0.630  0.00  0.00     0.001 A 
ATOM     17  C   UNL d   1       0.598  -3.473  -0.620  0.00  0.00     0.014 A 
BRANCH  13  18
ATOM     18  O   UNL d   1       2.548  -1.896   2.146  0.00  0.00    -0.351 OA
BRANCH  18  19
ATOM     19  C   UNL d   1       1.737  -0.895   2.752  0.00  0.00     0.171 C 
ATOM     20  C   UNL d   1       2.280  -0.640   4.152  0.00  0.00     0.034 C 
ENDBRANCH  18  19
ENDBRANCH  13  18
ENDBRANCH   2  12
TORSDOF 4
