REMARK  3 active torsions:
REMARK  status: ('A' for Active; 'I' for Inactive)
REMARK    1  A    between atoms: C_8  and  N_1 
REMARK    2  A    between atoms: C_3  and  O_9 
REMARK    3  A    between atoms: O_9  and  C_16 
ROOT
ATOM      1  C   UNL d   1      -1.952  -7.085  -0.745  0.00  0.00    -0.015 A 
ATOM      2  C   UNL d   1      -1.727  -5.313  -2.411  0.00  0.00     0.099 A 
ATOM      3  C   UNL d   1      -2.038  -5.723  -1.106  0.00  0.00     0.075 A 
ATOM      4  C   UNL d   1      -1.607  -8.028  -1.746  0.00  0.00     0.047 A 
ATOM      5  C   UNL d   1      -1.268  -7.618  -3.048  0.00  0.00    -0.037 A 
ATOM      6  C   UNL d   1      -1.268  -6.250  -3.342  0.00  0.00     0.047 A 
ATOM      7 CL   UNL d   1      -2.563  -4.521   0.033  0.00  0.00    -0.081 Cl
ATOM      8 CL   UNL d   1      -1.615  -9.723  -1.361  0.00  0.00    -0.083 Cl
ATOM      9  C   UNL d   1      -2.244  -7.563   0.657  0.00  0.00     0.052 C 
ATOM     10  C   UNL d   1      -0.990  -8.551  -4.194  0.00  0.00     0.050 C 
ENDROOT
BRANCH   2  11
ATOM     11  O   UNL d   1      -1.876  -3.979  -2.752  0.00  0.00    -0.309 OA
BRANCH  11  12
ATOM     12  C   UNL d   1      -2.347  -3.678  -4.014  0.00  0.00     0.076 A 
ATOM     13  C   UNL d   1      -3.315  -4.445  -4.679  0.00  0.00     0.040 A 
ATOM     14  C   UNL d   1      -3.659  -4.149  -5.998  0.00  0.00     0.039 A 
ATOM     15  C   UNL d   1      -3.083  -3.041  -6.630  0.00  0.00     0.103 A 
ATOM     16  C   UNL d   1      -2.179  -2.219  -5.939  0.00  0.00     0.039 A 
ATOM     17  C   UNL d   1      -1.812  -2.544  -4.630  0.00  0.00     0.040 A 
BRANCH  15  18
ATOM     18  N   UNL d   1      -3.423  -2.746  -8.027  0.00  0.00    -0.116 N 
ATOM     19  O   UNL d   1      -2.957  -1.716  -8.528  0.00  0.00    -0.532 OA
ATOM     20  O   UNL d   1      -4.150  -3.555  -8.624  0.00  0.00    -0.532 OA
ENDBRANCH  15  18
ENDBRANCH  11  12
ENDBRANCH   2  11
TORSDOF 3
