REMARK  5 active torsions:
REMARK  status: ('A' for Active; 'I' for Inactive)
REMARK    1  A    between atoms: C_10  and  C_3 
REMARK    2  A    between atoms: N_4  and  C_9 
REMARK    3  A    between atoms: C_14  and  C_7 
REMARK    4  A    between atoms: O_15  and  C_14 
REMARK    5  A    between atoms: C_16  and  O_15 
ROOT
ATOM      1  N   UNL d   1       1.297   0.140  -0.068  0.00  0.00    -0.321 N 
ATOM      2  HN  UNL d   1       2.304   0.281  -0.148  1.00  0.00     0.169 HD
ATOM      3  C   UNL d   1       0.298   1.085  -0.000  0.00  0.00     0.138 A 
ATOM      4  N   UNL d   1      -0.936   0.567   0.113  0.00  0.00    -0.242 N 
ATOM      5  HN  UNL d   1      -1.824   1.064   0.185  1.00  0.00     0.196 HD
ATOM      6  C   UNL d   1       0.629  -0.989  -0.002  0.00  0.00     0.172 A 
ATOM      7  O   UNL d   1      -0.718  -0.811   0.107  0.00  0.00    -0.220 OA
ENDROOT
BRANCH   3   8
ATOM      8  C   UNL d   1       0.599   2.511   0.000  0.00  0.00     0.012 A 
ATOM      9  C   UNL d   1       1.927   2.939  -0.148  0.00  0.00     0.051 A 
ATOM     10  C   UNL d   1       2.233   4.305  -0.097  0.00  0.00     0.103 A 
ATOM     11  C   UNL d   1       1.222   5.256   0.093  0.00  0.00     0.036 A 
ATOM     12  C   UNL d   1      -0.101   4.834   0.226  0.00  0.00     0.003 A 
ATOM     13  C   UNL d   1      -0.410   3.471   0.179  0.00  0.00     0.015 A 
BRANCH  10  14
ATOM     14  N   UNL d   1       3.627   4.739  -0.228  0.00  0.00    -0.116 N 
ATOM     15  O   UNL d   1       4.493   3.867  -0.388  0.00  0.00    -0.532 OA
ATOM     16  O   UNL d   1       3.860   5.955  -0.168  0.00  0.00    -0.532 OA
ENDBRANCH  10  14
ENDBRANCH   3   8
BRANCH   6  17
ATOM     17  C   UNL d   1       1.128  -2.383   0.016  0.00  0.00     0.262 C 
BRANCH  17  18
ATOM     18  O   UNL d   1       1.108  -2.848  -1.332  0.00  0.00    -0.343 OA
BRANCH  18  19
ATOM     19  C   UNL d   1       1.517  -4.133  -1.550  0.00  0.00     0.069 A 
ATOM     20  C   UNL d   1       1.992  -5.021  -0.583  0.00  0.00     0.038 A 
ATOM     21  C   UNL d   1       2.367  -6.318  -0.948  0.00  0.00     0.026 A 
ATOM     22  C   UNL d   1       2.269  -6.726  -2.277  0.00  0.00     0.034 A 
ATOM     23  C   UNL d   1       1.804  -5.844  -3.248  0.00  0.00     0.026 A 
ATOM     24 CL   UNL d   1       2.723  -8.324  -2.717  0.00  0.00    -0.084 Cl
ATOM     25  C   UNL d   1       1.431  -4.549  -2.882  0.00  0.00     0.038 A 
ENDBRANCH  18  19
ENDBRANCH  17  18
ENDBRANCH   6  17
TORSDOF 5
