REMARK  7 active torsions:
REMARK  status: ('A' for Active; 'I' for Inactive)
REMARK    1  A    between atoms: C_2  and  N_1 
REMARK    2  A    between atoms: C_4  and  C_2 
REMARK    3  A    between atoms: S_3  and  C_4 
REMARK    4  A    between atoms: C_5  and  S_3 
REMARK    5  A    between atoms: C_8  and  C_4 
REMARK    6  A    between atoms: C_16  and  C_9 
REMARK    7  A    between atoms: N_15  and  C_10 
ROOT
ATOM      1  C   UNL d   1       1.294   1.608   1.727  0.00  0.00     0.109 C 
ENDROOT
BRANCH   1   2
ATOM      2  S   UNL d   1       2.685   2.341   0.729  0.00  0.00    -0.117 SA
BRANCH   2   3
ATOM      3  C   UNL d   1       3.967   2.700   1.949  0.00  0.00     0.022 A 
ATOM      4  C   UNL d   1       4.707   3.904   1.831  0.00  0.00     0.022 A 
ATOM      5  C   UNL d   1       5.750   4.155   2.732  0.00  0.00     0.024 A 
ATOM      6  C   UNL d   1       6.007   3.285   3.788  0.00  0.00     0.002 A 
ATOM      7  C   UNL d   1       5.245   2.130   3.935  0.00  0.00     0.001 A 
ATOM      8  C   UNL d   1       4.241   1.830   3.012  0.00  0.00     0.020 A 
BRANCH   4   9
ATOM      9  N   UNL d   1       4.553   4.764   0.726  0.00  0.00    -0.302 NA
ATOM     10  H   UNL d   1       3.651   4.649   0.270  0.00  0.00     0.124 HD
ATOM     11  H   UNL d   1       4.793   5.732   0.913  0.00  0.00     0.124 HD
ENDBRANCH   4   9
ENDBRANCH   2   3
ENDBRANCH   1   2
BRANCH   1  12
ATOM     12  C   UNL d   1       0.130   1.224   0.804  0.00  0.00     0.221 C 
BRANCH  12  13
ATOM     13  N   UNL d   1       0.564   0.234  -0.235  0.00  0.00    -0.154 N 
ATOM     14  O   UNL d   1       1.069  -0.823   0.172  0.00  0.00    -0.536 OA
ATOM     15  O   UNL d   1       0.332   0.517  -1.412  0.00  0.00    -0.536 OA
ENDBRANCH  12  13
ENDBRANCH   1  12
BRANCH   1  16
ATOM     16  C   UNL d   1       0.749   2.502   2.850  0.00  0.00    -0.042 A 
ATOM     17  C   UNL d   1       1.111   3.845   3.026  0.00  0.00     0.009 A 
ATOM     18  C   UNL d   1       0.630   4.597   4.098  0.00  0.00     0.008 A 
ATOM     19  C   UNL d   1      -0.285   4.054   5.005  0.00  0.00    -0.055 A 
ATOM     20  C   UNL d   1      -0.696   2.732   4.815  0.00  0.00     0.008 A 
ATOM     21  C   UNL d   1      -0.173   1.963   3.767  0.00  0.00     0.009 A 
BRANCH  19  22
ATOM     22  C   UNL d   1      -0.801   4.867   6.177  0.00  0.00     0.010 C 
ATOM     23  C   UNL d   1       0.323   5.151   7.178  0.00  0.00     0.015 C 
ATOM     24  C   UNL d   1      -1.463   6.170   5.717  0.00  0.00     0.015 C 
ENDBRANCH  19  22
ENDBRANCH   1  16
TORSDOF 7
