REMARK  6 active torsions:
REMARK  status: ('A' for Active; 'I' for Inactive)
REMARK    1  A    between atoms: C_9  and  N_1 
REMARK    2  A    between atoms: C_8  and  C_2 
REMARK    3  A    between atoms: S_10  and  C_5 
REMARK    4  A    between atoms: C_15  and  S_10 
REMARK    5  A    between atoms: C_13  and  C_15 
REMARK    6  A    between atoms: C_14  and  C_13 
ROOT
ATOM      1  N   UNL d   1      -0.337  -1.326   0.109  0.00  0.00    -0.279 N 
ATOM      2  C   UNL d   1       0.914  -0.712   0.127  0.00  0.00     0.109 A 
ATOM      3  N   UNL d   1       0.773   0.597   0.184  0.00  0.00    -0.286 N 
ATOM      4  HN  UNL d   1       1.530   1.278   0.236  1.00  0.00     0.188 HD
ATOM      5  C   UNL d   1      -1.220  -0.250   0.151  0.00  0.00     0.168 A 
ATOM      6  N   UNL d   1      -0.562   0.886   0.163  0.00  0.00    -0.278 N 
ATOM      7  HN  UNL d   1      -0.975   1.819   0.156  1.00  0.00     0.189 HD
ENDROOT
BRANCH   5   8
ATOM      8  S   UNL d   1      -2.931  -0.366   0.427  0.00  0.00    -0.084 SA
BRANCH   8   9
ATOM      9  C   UNL d   1      -3.457   1.371   0.307  0.00  0.00     0.166 C 
BRANCH   9  10
ATOM     10  C   UNL d   1      -4.943   1.514   0.610  0.00  0.00     0.169 C 
ATOM     11  O   UNL d   1      -5.665   0.582   0.959  0.00  0.00    -0.291 OA
BRANCH  10  12
ATOM     12  C   UNL d   1      -5.570   2.869   0.487  0.00  0.00     0.011 A 
ATOM     13  C   UNL d   1      -4.844   4.009   0.119  0.00  0.00     0.017 A 
ATOM     14  C   UNL d   1      -5.488   5.246   0.007  0.00  0.00     0.025 A 
ATOM     15  C   UNL d   1      -6.855   5.353   0.263  0.00  0.00     0.034 A 
ATOM     16  C   UNL d   1      -7.587   4.228   0.636  0.00  0.00     0.025 A 
ATOM     17 CL   UNL d   1      -7.640   6.875   0.114  0.00  0.00    -0.084 Cl
ATOM     18  C   UNL d   1      -6.947   2.992   0.748  0.00  0.00     0.017 A 
ENDBRANCH  10  12
ENDBRANCH   9  10
ENDBRANCH   8   9
ENDBRANCH   5   8
BRANCH   1  19
ATOM     19  C   UNL d   1      -0.620  -2.728   0.135  0.00  0.00     0.043 A 
ATOM     20  C   UNL d   1       0.237  -3.611   0.809  0.00  0.00     0.032 A 
ATOM     21  C   UNL d   1      -0.049  -4.980   0.864  0.00  0.00     0.026 A 
ATOM     22  C   UNL d   1      -1.206  -5.473   0.267  0.00  0.00     0.034 A 
ATOM     23  C   UNL d   1      -2.067  -4.610  -0.403  0.00  0.00     0.026 A 
ATOM     24 CL   UNL d   1      -1.574  -7.149   0.367  0.00  0.00    -0.084 Cl
ATOM     25  C   UNL d   1      -1.769  -3.244  -0.481  0.00  0.00     0.032 A 
ENDBRANCH   1  19
BRANCH   2  26
ATOM     26  C   UNL d   1       2.293  -1.370   0.034  0.00  0.00     0.055 A 
ATOM     27  C   UNL d   1       3.284  -1.028   1.129  0.00  0.00     0.013 A 
ATOM     28  C   UNL d   1       3.517  -0.528  -0.257  0.00  0.00     0.013 A 
ENDBRANCH   2  26
TORSDOF 6
