REMARK  5 active torsions:
REMARK  status: ('A' for Active; 'I' for Inactive)
REMARK    1  A    between atoms: N_3  and  C_10 
REMARK    2  A    between atoms: N_13  and  C_4 
REMARK    3  A    between atoms: C_12  and  C_5 
REMARK    4  A    between atoms: C_6  and  C_7 
REMARK       I    between atoms: C_7  and  N_11 
REMARK    5  A    between atoms: N_11  and  N_13 
ROOT
ATOM      1  N   UNL d   1       1.451  -0.668   0.011  0.00  0.00    -0.334 N 
ATOM      2  HN  UNL d   1       2.343  -1.161  -0.045  1.00  0.00     0.168 HD
ATOM      3  C   UNL d   1       0.274  -1.254   0.107  0.00  0.00     0.163 A 
ATOM      4  C   UNL d   1       1.308   0.712  -0.003  0.00  0.00     0.051 A 
ATOM      5  S   UNL d   1      -1.069  -0.173   0.103  0.00  0.00    -0.062 SA
ATOM      6  C   UNL d   1       0.002   1.159   0.002  0.00  0.00     0.083 A 
ENDROOT
BRANCH   3   7
ATOM      7  N   UNL d   1       0.069  -2.590   0.211  0.00  0.00    -0.277 N 
ATOM      8  H   UNL d   1      -0.886  -2.941   0.104  0.00  0.00     0.189 HD
BRANCH   7   9
ATOM      9  N   UNL d   1       1.033  -3.510  -0.211  0.00  0.00    -0.264 N 
ATOM     10  C   UNL d   1       0.603  -4.726  -0.703  0.00  0.00     0.271 C 
ATOM     11  O   UNL d   1      -0.590  -5.025  -0.744  0.00  0.00    -0.266 OA
ATOM     12  H   UNL d   1       2.007  -3.232  -0.101  0.00  0.00     0.190 HD
BRANCH  10  13
ATOM     13  C   UNL d   1       1.633  -5.657  -1.258  0.00  0.00     0.055 A 
ATOM     14  C   UNL d   1       2.998  -5.653  -0.928  0.00  0.00     0.049 A 
ATOM     15 CL   UNL d   1       3.696  -4.643   0.289  0.00  0.00    -0.083 Cl
ATOM     16  C   UNL d   1       3.879  -6.538  -1.571  0.00  0.00     0.025 A 
ATOM     17  C   UNL d   1       3.413  -7.444  -2.523  0.00  0.00     0.002 A 
ATOM     18  C   UNL d   1       2.058  -7.481  -2.833  0.00  0.00     0.001 A 
ATOM     19  C   UNL d   1       1.176  -6.595  -2.206  0.00  0.00     0.019 A 
ENDBRANCH  10  13
ENDBRANCH   7   9
ENDBRANCH   3   7
BRANCH   4  20
ATOM     20  C   UNL d   1       2.473   1.591  -0.021  0.00  0.00    -0.006 A 
ATOM     21  C   UNL d   1       3.662   1.150  -0.620  0.00  0.00     0.049 A 
ATOM     22  C   UNL d   1       4.803   1.966  -0.594  0.00  0.00     0.103 A 
ATOM     23  C   UNL d   1       4.770   3.225   0.018  0.00  0.00     0.036 A 
ATOM     24  C   UNL d   1       3.590   3.665   0.614  0.00  0.00     0.003 A 
ATOM     25  C   UNL d   1       2.451   2.853   0.596  0.00  0.00     0.014 A 
BRANCH  22  26
ATOM     26  N   UNL d   1       6.051   1.486  -1.201  0.00  0.00    -0.116 N 
ATOM     27  O   UNL d   1       6.053   0.361  -1.713  0.00  0.00    -0.532 OA
ATOM     28  O   UNL d   1       7.036   2.242  -1.160  0.00  0.00    -0.532 OA
ENDBRANCH  22  26
ENDBRANCH   4  20
TORSDOF 5
