REMARK  8 active torsions:
REMARK  status: ('A' for Active; 'I' for Inactive)
REMARK    1  A    between atoms: C_2  and  C_1 
REMARK    2  A    between atoms: N_3  and  C_1 
REMARK    3  A    between atoms: N_5  and  C_1 
REMARK    4  A    between atoms: C_7  and  C_1 
REMARK    5  A    between atoms: C_8  and  N_3 
REMARK    6  A    between atoms: C_4  and  C_6 
REMARK       I    between atoms: C_9  and  N_5 
REMARK    7  A    between atoms: O_18  and  C_7 
REMARK    8  A    between atoms: C_22  and  O_18 
ROOT
ATOM      1  C   UNL d   1       1.069   0.056  -0.072  0.00  0.00     0.296 C 
ENDROOT
BRANCH   1   2
ATOM      2  C   UNL d   1       0.406   0.037  -1.496  0.00  0.00     0.442 C 
ATOM      3  F   UNL d   1      -0.450  -1.000  -1.669  0.00  0.00    -0.166 F 
ATOM      4  F   UNL d   1      -0.295   1.174  -1.747  0.00  0.00    -0.166 F 
ATOM      5  F   UNL d   1       1.325  -0.059  -2.494  0.00  0.00    -0.166 F 
ENDBRANCH   1   2
BRANCH   1   6
ATOM      6  N   UNL d   1       0.971  -1.200   0.724  0.00  0.00    -0.347 N 
ATOM      7  H   UNL d   1       0.048  -1.230   1.169  0.00  0.00     0.163 HD
BRANCH   6   8
ATOM      8  C   UNL d   1       1.381  -2.471   0.327  0.00  0.00     0.045 A 
ATOM      9  C   UNL d   1       1.185  -3.583   1.179  0.00  0.00     0.074 A 
ATOM     10  C   UNL d   1       1.674  -4.857   0.809  0.00  0.00     0.018 A 
ATOM     11  C   UNL d   1       2.351  -5.053  -0.388  0.00  0.00     0.001 A 
ATOM     12  C   UNL d   1       2.565  -3.970  -1.222  0.00  0.00     0.002 A 
ATOM     13  C   UNL d   1       2.105  -2.701  -0.859  0.00  0.00     0.030 A 
BRANCH   9  14
ATOM     14  C   UNL d   1       0.486  -3.507   2.519  0.00  0.00     0.419 C 
ATOM     15  F   UNL d   1      -0.082  -2.304   2.820  0.00  0.00    -0.166 F 
ATOM     16  F   UNL d   1      -0.532  -4.414   2.614  0.00  0.00    -0.166 F 
ATOM     17  F   UNL d   1       1.320  -3.796   3.559  0.00  0.00    -0.166 F 
ENDBRANCH   9  14
ENDBRANCH   6   8
ENDBRANCH   1   6
BRANCH   1  18
ATOM     18  N   UNL d   1       0.502   1.071   0.851  0.00  0.00    -0.319 N 
ATOM     19  C   UNL d   1      -0.834   1.149   1.118  0.00  0.00     0.216 C 
ATOM     20  O   UNL d   1      -1.632   0.310   0.716  0.00  0.00    -0.274 OA
ATOM     21  C   UNL d   1      -1.247   2.336   1.948  0.00  0.00     0.117 C 
ATOM     22  H   UNL d   1       1.101   1.847   1.104  0.00  0.00     0.165 HD
ENDBRANCH   1  18
BRANCH   1  23
ATOM     23  C   UNL d   1       2.543   0.506  -0.278  0.00  0.00     0.318 C 
ATOM     24  O   UNL d   1       3.548  -0.134   0.013  0.00  0.00    -0.260 OA
BRANCH  23  25
ATOM     25  O   UNL d   1       2.598   1.779  -0.793  0.00  0.00    -0.318 OA
BRANCH  25  26
ATOM     26  C   UNL d   1       3.922   2.307  -0.993  0.00  0.00     0.174 C 
ATOM     27  C   UNL d   1       4.572   1.734  -2.242  0.00  0.00     0.034 C 
ENDBRANCH  25  26
ENDBRANCH  23  25
ENDBRANCH   1  23
TORSDOF 8
