REMARK  5 active torsions:
REMARK  status: ('A' for Active; 'I' for Inactive)
REMARK    1  A    between atoms: C_16  and  C_1 
REMARK    2  A    between atoms: C_9  and  C_3 
REMARK    3  A    between atoms: N_14  and  C_7 
REMARK       I    between atoms: C_11  and  N_15 
REMARK    4  A    between atoms: C_13  and  C_11 
REMARK    5  A    between atoms: O_31  and  C_16 
ROOT
ATOM      1  C   UNL d   1      -0.149  -0.365  -2.308  0.00  0.00     0.074 A 
ATOM      2  C   UNL d   1       0.648  -0.137  -1.124  0.00  0.00     0.068 A 
ATOM      3  C   UNL d   1       0.529  -0.157   1.304  0.00  0.00     0.070 A 
ATOM      4  C   UNL d   1      -0.084  -0.333   0.056  0.00  0.00     0.047 A 
ATOM      5  N   UNL d   1       1.963   0.223  -1.105  0.00  0.00    -0.341 N 
ATOM      6  HN  UNL d   1       2.482   0.340  -1.976  1.00  0.00     0.167 HD
ATOM      7  C   UNL d   1       2.562   0.421   0.074  0.00  0.00     0.104 A 
ATOM      8  S   UNL d   1      -1.702  -0.796  -0.294  0.00  0.00    -0.098 SA
ATOM      9  C   UNL d   1      -1.442  -0.728  -1.967  0.00  0.00     0.070 A 
ATOM     10  C   UNL d   1       1.877   0.226   1.266  0.00  0.00     0.066 A 
ENDROOT
BRANCH   7  11
ATOM     11  N   UNL d   1       3.901   0.750   0.118  0.00  0.00    -0.364 N 
ATOM     12  C   UNL d   1       4.773   0.520  -1.046  0.00  0.00     0.144 C 
ATOM     13  C   UNL d   1       6.169   0.056  -0.547  0.00  0.00     0.146 C 
ATOM     14  N   UNL d   1       6.698   0.935   0.517  0.00  0.00    -0.345 N 
ATOM     15  C   UNL d   1       7.988   1.438   0.402  0.00  0.00     0.254 C 
ATOM     16  C   UNL d   1       5.760   1.109   1.639  0.00  0.00     0.146 C 
ATOM     17  O   UNL d   1       8.751   1.089  -0.499  0.00  0.00    -0.267 OA
ATOM     18  C   UNL d   1       4.439   1.692   1.108  0.00  0.00     0.144 C 
BRANCH  15  19
ATOM     19  C   UNL d   1       8.517   2.436   1.372  0.00  0.00     0.035 A 
ATOM     20  C   UNL d   1       9.867   2.350   1.736  0.00  0.00     0.041 A 
ATOM     21  C   UNL d   1      10.409   3.273   2.630  0.00  0.00     0.036 A 
ATOM     22 CL   UNL d   1      12.073   3.176   3.055  0.00  0.00    -0.084 Cl
ATOM     23  C   UNL d   1       9.617   4.275   3.184  0.00  0.00     0.047 A 
ATOM     24  C   UNL d   1       8.287   4.381   2.790  0.00  0.00     0.036 A 
ATOM     25  C   UNL d   1       7.746   3.498   1.857  0.00  0.00     0.041 A 
ATOM     26 CL   UNL d   1       7.288   5.606   3.470  0.00  0.00    -0.084 Cl
ENDBRANCH  15  19
ENDBRANCH   7  11
BRANCH   3  27
ATOM     27  C   UNL d   1      -0.104  -0.358   2.652  0.00  0.00     0.418 C 
ATOM     28  F   UNL d   1      -1.416  -0.702   2.640  0.00  0.00    -0.166 F 
ATOM     29  F   UNL d   1       0.530  -1.329   3.370  0.00  0.00    -0.166 F 
ATOM     30  F   UNL d   1      -0.022   0.767   3.420  0.00  0.00    -0.166 F 
ENDBRANCH   3  27
BRANCH   1  31
ATOM     31  C   UNL d   1       0.238  -0.256  -3.708  0.00  0.00     0.295 C 
ATOM     32  O   UNL d   1      -0.544  -0.485  -4.625  0.00  0.00    -0.259 OA
BRANCH  31  33
ATOM     33  O   UNL d   1       1.532   0.124  -3.904  0.00  0.00    -0.322 OA
ATOM     34  C   UNL d   1       1.903   0.245  -5.274  0.00  0.00     0.213 C 
ENDBRANCH  31  33
ENDBRANCH   1  31
TORSDOF 5
