REMARK  5 active torsions:
REMARK  status: ('A' for Active; 'I' for Inactive)
REMARK    1  A    between atoms: C_2  and  S_1 
REMARK    2  A    between atoms: C_14  and  S_1 
REMARK    3  A    between atoms: C_9  and  C_3 
REMARK    4  A    between atoms: C_5  and  C_6 
REMARK    5  A    between atoms: O_16  and  C_9 
ROOT
ATOM      1  C   UNL d   1       0.381  -0.852  -1.492  0.00  0.00     0.144 C 
ATOM      2  C   UNL d   1      -0.445  -1.910  -1.367  0.00  0.00     0.048 C 
ATOM      3  C   UNL d   1       0.924  -0.118  -0.410  0.00  0.00     0.112 C 
ATOM      4  N   UNL d   1       1.362   0.471   0.487  0.00  0.00    -0.191 NA
ENDROOT
BRANCH   1   5
ATOM      5  S   UNL d   1       0.765  -0.277  -3.082  0.00  0.00     0.216 S 
ATOM      6  O   UNL d   1       0.231   1.063  -3.241  0.00  0.00    -0.216 OA
ATOM      7  O   UNL d   1       0.448  -1.290  -4.075  0.00  0.00    -0.216 OA
BRANCH   5   8
ATOM      8  C   UNL d   1       2.546  -0.129  -3.088  0.00  0.00     0.065 A 
ATOM      9  C   UNL d   1       3.325  -1.232  -3.454  0.00  0.00     0.024 A 
ATOM     10  C   UNL d   1       4.710  -1.089  -3.558  0.00  0.00     0.002 A 
ATOM     11  C   UNL d   1       5.307   0.146  -3.306  0.00  0.00     0.000 A 
ATOM     12  C   UNL d   1       4.525   1.245  -2.946  0.00  0.00     0.002 A 
ATOM     13  C   UNL d   1       3.140   1.113  -2.841  0.00  0.00     0.024 A 
ENDBRANCH   5   8
ENDBRANCH   1   5
BRANCH   2  14
ATOM     14  C   UNL d   1      -0.924  -2.482  -0.149  0.00  0.00    -0.016 A 
ATOM     15  C   UNL d   1      -1.231  -1.801   1.004  0.00  0.00     0.102 A 
ATOM     16  N   UNL d   1      -1.574  -2.717   1.966  0.00  0.00    -0.355 N 
ATOM     17  C   UNL d   1      -1.827  -2.366   3.349  0.00  0.00     0.156 C 
ATOM     18  C   UNL d   1      -1.604  -3.987   1.424  0.00  0.00     0.110 A 
ATOM     19  C   UNL d   1      -1.213  -3.848   0.095  0.00  0.00     0.049 A 
BRANCH  18  20
ATOM     20  C   UNL d   1      -1.965  -5.188   2.151  0.00  0.00     0.309 C 
ATOM     21  O   UNL d   1      -2.288  -5.237   3.332  0.00  0.00    -0.258 OA
BRANCH  20  22
ATOM     22  O   UNL d   1      -1.896  -6.271   1.325  0.00  0.00    -0.321 OA
ATOM     23  C   UNL d   1      -2.249  -7.503   1.952  0.00  0.00     0.213 C 
ENDBRANCH  20  22
ENDBRANCH  18  20
ENDBRANCH   2  14
TORSDOF 5
