REMARK  2 active torsions:
REMARK  status: ('A' for Active; 'I' for Inactive)
REMARK    1  A    between atoms: N_3  and  C_1 
REMARK    2  A    between atoms: C_6  and  C_2 
ROOT
ATOM      1  C   UNL d   1      -2.717  -1.665  -0.037  0.00  0.00     0.115 C 
ATOM      2  C   UNL d   1      -3.466  -0.412  -0.367  0.00  0.00     0.221 C 
ATOM      3  C   UNL d   1      -1.402  -1.718   0.204  0.00  0.00     0.049 C 
ATOM      4  O   UNL d   1      -2.761   0.791   0.042  0.00  0.00    -0.334 OA
ATOM      5  C   UNL d   1      -0.651  -0.462   0.096  0.00  0.00     0.011 A 
ATOM      6  C   UNL d   1      -1.389   0.736   0.037  0.00  0.00     0.081 A 
ATOM      7  C   UNL d   1       0.776  -0.422   0.060  0.00  0.00    -0.013 A 
ATOM      8  C   UNL d   1      -0.741   1.965   0.006  0.00  0.00     0.038 A 
ATOM      9  C   UNL d   1       1.417   0.843  -0.001  0.00  0.00    -0.025 A 
ATOM     10  C   UNL d   1       0.651   2.017  -0.015  0.00  0.00     0.015 A 
ATOM     11  C   UNL d   1       1.613  -1.567   0.065  0.00  0.00     0.013 A 
ATOM     12  C   UNL d   1       2.819   0.925  -0.049  0.00  0.00     0.012 A 
ATOM     13  C   UNL d   1       3.006  -1.469   0.014  0.00  0.00     0.001 A 
ATOM     14  C   UNL d   1       3.609  -0.222  -0.043  0.00  0.00     0.001 A 
ENDROOT
BRANCH   2  15
ATOM     15  C   UNL d   1      -4.877  -0.294   0.204  0.00  0.00     0.021 A 
ATOM     16  C   UNL d   1      -5.128  -0.326   1.592  0.00  0.00     0.044 A 
ATOM     17 CL   UNL d   1      -3.858  -0.390   2.767  0.00  0.00    -0.084 Cl
ATOM     18  C   UNL d   1      -6.436  -0.328   2.095  0.00  0.00     0.024 A 
ATOM     19  C   UNL d   1      -7.524  -0.286   1.230  0.00  0.00     0.003 A 
ATOM     20  C   UNL d   1      -7.304  -0.215  -0.140  0.00  0.00     0.024 A 
ATOM     21  C   UNL d   1      -5.999  -0.208  -0.649  0.00  0.00     0.044 A 
ATOM     22 CL   UNL d   1      -5.861  -0.101  -2.373  0.00  0.00    -0.084 Cl
ENDBRANCH   2  15
BRANCH   1  23
ATOM     23  N   UNL d   1      -3.442  -2.917  -0.075  0.00  0.00    -0.117 N 
ATOM     24  O   UNL d   1      -3.038  -3.844   0.641  0.00  0.00    -0.532 OA
ATOM     25  O   UNL d   1      -4.410  -2.991  -0.840  0.00  0.00    -0.532 OA
ENDBRANCH   1  23
TORSDOF 2
