REMARK  5 active torsions:
REMARK  status: ('A' for Active; 'I' for Inactive)
REMARK    1  A    between atoms: C_4  and  C_1 
REMARK       I    between atoms: N_7  and  C_4 
REMARK    2  A    between atoms: C_11  and  N_7 
REMARK    3  A    between atoms: C_17  and  N_7 
REMARK    4  A    between atoms: C_16  and  C_11 
REMARK    5  A    between atoms: C_15  and  C_17 
ROOT
ATOM      1  N   UNL d   1       2.778  -5.648  -0.924  0.00  0.00    -0.197 NA
ATOM      2  C   UNL d   1       3.229  -4.591  -1.094  0.00  0.00     0.060 C 
ATOM      3  C   UNL d   1       3.794  -3.253  -1.288  0.00  0.00     0.143 C 
ENDROOT
BRANCH   3   4
ATOM      4  C   UNL d   1       4.131  -2.628   0.065  0.00  0.00     0.140 C 
BRANCH   4   5
ATOM      5  N   UNL d   1       4.574  -1.228  -0.037  0.00  0.00    -0.342 N 
ATOM      6  C   UNL d   1       3.732  -0.122  -0.260  0.00  0.00     0.262 C 
ATOM      7  O   UNL d   1       4.211   0.996  -0.451  0.00  0.00    -0.267 OA
BRANCH   6   8
ATOM      8  C   UNL d   1       2.298  -0.342  -0.327  0.00  0.00     0.096 C 
ATOM      9  S   UNL d   1       1.488   0.104  -1.766  0.00  0.00    -0.082 SA
ATOM     10  C   UNL d   1      -0.019  -0.505  -1.207  0.00  0.00     0.017 A 
ATOM     11  C   UNL d   1      -1.237  -0.531  -1.917  0.00  0.00     0.020 A 
ATOM     12  C   UNL d   1       0.084  -1.002   0.095  0.00  0.00     0.004 A 
ATOM     13  C   UNL d   1      -2.355  -1.120  -1.324  0.00  0.00     0.001 A 
ATOM     14  C   UNL d   1      -2.272  -1.660  -0.049  0.00  0.00     0.001 A 
ATOM     15  C   UNL d   1      -1.074  -1.591   0.668  0.00  0.00     0.014 A 
ATOM     16  C   UNL d   1       1.407  -0.787   0.626  0.00  0.00     0.068 C 
ATOM     17 CL   UNL d   1       1.788  -1.096   2.276  0.00  0.00    -0.082 Cl
ENDBRANCH   6   8
BRANCH   5  18
ATOM     18  C   UNL d   1       6.022  -0.996  -0.018  0.00  0.00     0.164 C 
BRANCH  18  19
ATOM     19  C   UNL d   1       6.598  -1.066   1.376  0.00  0.00    -0.038 A 
ATOM     20  C   UNL d   1       7.483  -2.084   1.742  0.00  0.00     0.025 A 
ATOM     21  C   UNL d   1       7.983  -2.099   3.037  0.00  0.00     0.088 A 
ATOM     22  N   UNL d   1       7.668  -1.181   3.973  0.00  0.00    -0.375 N 
ATOM     23  C   UNL d   1       6.819  -0.200   3.600  0.00  0.00     0.088 A 
ATOM     24  HN  UNL d   1       8.053  -1.226   4.917  1.00  0.00     0.164 HD
ATOM     25  C   UNL d   1       6.267  -0.101   2.332  0.00  0.00     0.025 A 
ENDBRANCH  18  19
ENDBRANCH   5  18
ENDBRANCH   4   5
ENDBRANCH   3   4
TORSDOF 5
