REMARK  6 active torsions:
REMARK  status: ('A' for Active; 'I' for Inactive)
REMARK       I    between atoms: N_8  and  C_1 
REMARK    1  A    between atoms: O_9  and  C_1 
REMARK    2  A    between atoms: O_12  and  C_2 
REMARK    3  A    between atoms: O_13  and  C_3 
REMARK    4  A    between atoms: O_14  and  C_4 
REMARK    5  A    between atoms: C_5  and  N_8 
REMARK    6  A    between atoms: C_11  and  O_9 
ROOT
ATOM      1  C   UNL d   1       2.249   4.051   2.905  0.00  0.00     0.135 A 
ATOM      2  C   UNL d   1       1.089   3.423   3.406  0.00  0.00     0.106 A 
ATOM      3  C   UNL d   1       2.735   3.649   1.639  0.00  0.00     0.106 A 
ATOM      4  C   UNL d   1       0.930   2.025   1.405  0.00  0.00     0.042 A 
ATOM      5  C   UNL d   1       0.449   2.434   2.645  0.00  0.00     0.069 A 
ATOM      6  C   UNL d   1       2.088   2.623   0.920  0.00  0.00     0.069 A 
ENDROOT
BRANCH   4   7
ATOM      7  N   UNL d   1       0.294   1.029   0.635  0.00  0.00    -0.303 N 
ATOM      8  C   UNL d   1      -0.982   0.566   0.824  0.00  0.00     0.365 C 
ATOM      9  O   UNL d   1      -1.805   1.009   1.616  0.00  0.00    -0.238 OA
ATOM     10  H   UNL d   1       0.765   0.667  -0.183  0.00  0.00     0.171 HD
BRANCH   8  11
ATOM     11  O   UNL d   1      -1.233  -0.462  -0.029  0.00  0.00    -0.294 OA
BRANCH  11  12
ATOM     12  C   UNL d   1      -2.557  -1.068  -0.024  0.00  0.00     0.061 C 
ATOM     13  C   UNL d   1      -3.605  -0.072  -0.535  0.00  0.00     0.046 C 
ATOM     14  C   UNL d   1      -2.471  -2.240  -1.012  0.00  0.00     0.046 C 
ATOM     15  C   UNL d   1      -2.934  -1.640   1.354  0.00  0.00     0.046 C 
ENDBRANCH  11  12
ENDBRANCH   8  11
ENDBRANCH   4   7
BRANCH   2  16
ATOM     16  O   UNL d   1       0.553   3.835   4.603  0.00  0.00    -0.353 OA
ATOM     17  C   UNL d   1      -0.171   2.861   5.352  0.00  0.00     0.210 C 
ENDBRANCH   2  16
BRANCH   3  18
ATOM     18  O   UNL d   1       3.820   4.132   0.946  0.00  0.00    -0.353 OA
ATOM     19  C   UNL d   1       4.478   5.304   1.405  0.00  0.00     0.210 C 
ENDBRANCH   3  18
BRANCH   1  20
ATOM     20  O   UNL d   1       2.972   5.017   3.555  0.00  0.00    -0.351 OA
ATOM     21  C   UNL d   1       2.647   5.385   4.887  0.00  0.00     0.210 C 
ENDBRANCH   1  20
TORSDOF 6
