REMARK  1 active torsions:
REMARK  status: ('A' for Active; 'I' for Inactive)
REMARK    1  A    between atoms: C_12  and  N_6 
ROOT
ATOM      1  N   UNL d   1       0.377   0.496  -0.408  0.00  0.00    -0.315 N 
ATOM      2  C   UNL d   1       0.825  -0.805  -0.361  0.00  0.00     0.115 A 
ATOM      3  N   UNL d   1      -0.191  -1.638  -0.217  0.00  0.00    -0.342 N 
ATOM      4  HN  UNL d   1      -0.150  -2.657  -0.188  1.00  0.00     0.167 HD
ATOM      5  C   UNL d   1       1.232   1.664  -0.548  0.00  0.00     0.259 C 
ATOM      6  N   UNL d   1       2.318   1.782   0.419  0.00  0.00    -0.343 N 
ATOM      7  C   UNL d   1      -0.992   0.492  -0.269  0.00  0.00     0.064 A 
ATOM      8  C   UNL d   1      -1.310  -0.853  -0.117  0.00  0.00     0.060 A 
ATOM      9  C   UNL d   1       3.413   0.834   0.281  0.00  0.00     0.296 C 
ATOM     10  O   UNL d   1       3.014  -0.497   0.558  0.00  0.00    -0.359 OA
ATOM     11  C   UNL d   1       2.267  -1.200  -0.435  0.00  0.00     0.187 C 
ATOM     12  C   UNL d   1      -1.963   1.504  -0.227  0.00  0.00     0.032 A 
ATOM     13  C   UNL d   1      -2.641  -1.228   0.115  0.00  0.00     0.032 A 
ATOM     14  C   UNL d   1       2.841  -1.157  -1.848  0.00  0.00     0.048 C 
ATOM     15  C   UNL d   1      -3.284   1.112   0.016  0.00  0.00     0.002 A 
ATOM     16  C   UNL d   1      -3.621  -0.231   0.190  0.00  0.00     0.002 A 
ENDROOT
BRANCH   6  17
ATOM     17  C   UNL d   1       2.128   2.457   1.620  0.00  0.00     0.033 A 
ATOM     18  C   UNL d   1       0.862   2.615   2.211  0.00  0.00     0.032 A 
ATOM     19  C   UNL d   1       0.675   3.354   3.383  0.00  0.00     0.044 A 
ATOM     20  C   UNL d   1       1.764   3.951   3.994  0.00  0.00     0.116 A 
ATOM     21  C   UNL d   1       3.031   3.817   3.454  0.00  0.00     0.044 A 
ATOM     22  F   UNL d   1       1.591   4.672   5.110  0.00  0.00    -0.206 F 
ATOM     23  C   UNL d   1       3.208   3.075   2.278  0.00  0.00     0.032 A 
ENDBRANCH   6  17
TORSDOF 1
