REMARK  9 active torsions:
REMARK  status: ('A' for Active; 'I' for Inactive)
REMARK    1  A    between atoms: C_4  and  C_1 
REMARK    2  A    between atoms: C_9  and  N_5 
REMARK    3  A    between atoms: C_7  and  S_14 
REMARK    4  A    between atoms: C_8  and  C_9 
REMARK    5  A    between atoms: N_24  and  C_8 
REMARK    6  A    between atoms: C_10  and  O_16 
REMARK       I    between atoms: N_15  and  C_10 
REMARK    7  A    between atoms: O_16  and  N_12 
REMARK    8  A    between atoms: S_14  and  C_26 
REMARK    9  A    between atoms: C_25  and  N_15 
ROOT
ATOM      1  C   UNL d   1       3.094   0.431   0.573  0.00  0.00     0.095 C 
ATOM      2  N   UNL d   1       2.991  -0.574  -0.241  0.00  0.00    -0.248 N 
ATOM      3  HN  UNL d   1       3.751  -0.899  -0.838  1.00  0.00     0.196 HD
ENDROOT
BRANCH   2   4
ATOM      4  O   UNL d   1       1.708  -1.168  -0.209  0.00  0.00    -0.180 OA
BRANCH   4   5
ATOM      5  C   UNL d   1       1.837  -2.528  -0.329  0.00  0.00     0.387 C 
ATOM      6  N   UNL d   1       1.048  -3.151  -1.270  0.00  0.00    -0.301 N 
ATOM      7  H   UNL d   1       1.116  -4.157  -1.183  0.00  0.00     0.171 HD
ATOM      8  O   UNL d   1       2.569  -3.210   0.397  0.00  0.00    -0.236 OA
BRANCH   6   9
ATOM      9  C   UNL d   1       0.368  -2.656  -2.403  0.00  0.00     0.036 A 
ATOM     10  C   UNL d   1       0.379  -1.326  -2.816  0.00  0.00     0.031 A 
ATOM     11  C   UNL d   1      -0.242  -0.941  -4.016  0.00  0.00     0.021 A 
ATOM     12  C   UNL d   1      -0.892  -1.876  -4.824  0.00  0.00     0.009 A 
ATOM     13  C   UNL d   1      -0.914  -3.210  -4.413  0.00  0.00     0.021 A 
ATOM     14  C   UNL d   1      -0.291  -3.594  -3.214  0.00  0.00     0.031 A 
BRANCH  12  15
ATOM     15  S   UNL d   1      -1.487  -1.383  -6.430  0.00  0.00    -0.016 SA
BRANCH  15  16
ATOM     16  C   UNL d   1      -3.271  -1.496  -6.234  0.00  0.00     0.448 C 
ATOM     17  F   UNL d   1      -3.658  -2.132  -5.105  0.00  0.00    -0.160 F 
ATOM     18  F   UNL d   1      -3.837  -0.265  -6.220  0.00  0.00    -0.160 F 
ATOM     19  F   UNL d   1      -3.820  -2.169  -7.277  0.00  0.00    -0.160 F 
ENDBRANCH  15  16
ENDBRANCH  12  15
ENDBRANCH   6   9
ENDBRANCH   4   5
ENDBRANCH   2   4
BRANCH   1  20
ATOM     20  C   UNL d   1       4.375   1.268   0.477  0.00  0.00     0.219 C 
BRANCH  20  21
ATOM     21  N   UNL d   1       4.062   2.606  -0.012  0.00  0.00    -0.296 N 
ATOM     22  N   UNL d   1       3.017   3.279   0.520  0.00  0.00    -0.294 N 
ATOM     23  C   UNL d   1       2.816   4.309  -0.326  0.00  0.00     0.133 C 
ATOM     24  HN  UNL d   1       2.498   3.058   1.369  1.00  0.00     0.187 HD
ATOM     25  C   UNL d   1       3.866   4.379  -1.280  0.00  0.00     0.054 C 
ATOM     26  C   UNL d   1       4.656   3.277  -1.041  0.00  0.00     0.113 C 
BRANCH  23  27
ATOM     27  C   UNL d   1       1.589   5.179  -0.255  0.00  0.00     0.433 C 
ATOM     28  F   UNL d   1       0.981   5.148   0.962  0.00  0.00    -0.165 F 
ATOM     29  F   UNL d   1       1.860   6.482  -0.528  0.00  0.00    -0.165 F 
ATOM     30  F   UNL d   1       0.655   4.779  -1.162  0.00  0.00    -0.165 F 
ENDBRANCH  23  27
ENDBRANCH  20  21
ENDBRANCH   1  20
BRANCH   1  31
ATOM     31  N   UNL d   1       2.142   0.832   1.493  0.00  0.00    -0.289 NA
ATOM     32  H   UNL d   1       2.155   1.846   1.653  0.00  0.00     0.125 HD
ATOM     33  H   UNL d   1       1.206   0.498   1.298  0.00  0.00     0.125 HD
ENDBRANCH   1  31
TORSDOF 9
