REMARK  7 active torsions:
REMARK  status: ('A' for Active; 'I' for Inactive)
REMARK    1  A    between atoms: C_2  and  C_1 
REMARK    2  A    between atoms: N_3  and  C_1 
REMARK    3  A    between atoms: N_4  and  C_1 
REMARK    4  A    between atoms: C_5  and  C_1 
REMARK    5  A    between atoms: C_6  and  N_3 
REMARK       I    between atoms: C_7  and  N_4 
REMARK    6  A    between atoms: O_14  and  C_5 
REMARK    7  A    between atoms: C_19  and  O_14 
ROOT
ATOM      1  C   UNL d   1       1.039   0.213   0.050  0.00  0.00     0.296 C 
ENDROOT
BRANCH   1   2
ATOM      2  C   UNL d   1       0.342   1.605   0.237  0.00  0.00     0.442 C 
ATOM      3  F   UNL d   1      -0.642   1.824  -0.670  0.00  0.00    -0.166 F 
ATOM      4  F   UNL d   1      -0.216   1.733   1.470  0.00  0.00    -0.166 F 
ATOM      5  F   UNL d   1       1.208   2.643   0.105  0.00  0.00    -0.166 F 
ENDBRANCH   1   2
BRANCH   1   6
ATOM      6  N   UNL d   1       0.989  -0.357  -1.317  0.00  0.00    -0.347 N 
ATOM      7  H   UNL d   1       0.088  -0.808  -1.487  0.00  0.00     0.163 HD
BRANCH   6   8
ATOM      8  C   UNL d   1       1.449   0.258  -2.484  0.00  0.00     0.052 A 
ATOM      9  C   UNL d   1       1.236  -0.372  -3.734  0.00  0.00     0.060 A 
ATOM     10 CL   UNL d   1       0.333  -1.851  -3.833  0.00  0.00    -0.082 Cl
ATOM     11  C   UNL d   1       1.739   0.158  -4.927  0.00  0.00     0.026 A 
ATOM     12  C   UNL d   1       2.471   1.340  -4.904  0.00  0.00     0.002 A 
ATOM     13  C   UNL d   1       2.715   1.969  -3.690  0.00  0.00     0.002 A 
ATOM     14  C   UNL d   1       2.233   1.419  -2.496  0.00  0.00     0.031 A 
ENDBRANCH   6   8
ENDBRANCH   1   6
BRANCH   1  15
ATOM     15  N   UNL d   1       0.479  -0.883   0.872  0.00  0.00    -0.319 N 
ATOM     16  C   UNL d   1      -0.860  -1.137   0.957  0.00  0.00     0.216 C 
ATOM     17  O   UNL d   1      -1.690  -0.545   0.282  0.00  0.00    -0.274 OA
ATOM     18  C   UNL d   1      -1.239  -2.187   1.967  0.00  0.00     0.117 C 
ATOM     19  H   UNL d   1       1.135  -1.517   1.306  0.00  0.00     0.165 HD
ENDBRANCH   1  15
BRANCH   1  20
ATOM     20  C   UNL d   1       2.504   0.296   0.570  0.00  0.00     0.318 C 
ATOM     21  O   UNL d   1       3.436  -0.388   0.147  0.00  0.00    -0.260 OA
BRANCH  20  22
ATOM     22  O   UNL d   1       2.597   1.029   1.723  0.00  0.00    -0.318 OA
BRANCH  22  23
ATOM     23  C   UNL d   1       3.828   0.915   2.459  0.00  0.00     0.174 C 
ATOM     24  C   UNL d   1       4.726   2.105   2.184  0.00  0.00     0.034 C 
ENDBRANCH  22  23
ENDBRANCH  20  22
ENDBRANCH   1  20
TORSDOF 7
