REMARK  5 active torsions:
REMARK  status: ('A' for Active; 'I' for Inactive)
REMARK    1  A    between atoms: C_13  and  C_1 
REMARK    2  A    between atoms: C_15  and  C_7 
REMARK    3  A    between atoms: C_8  and  C_12 
REMARK    4  A    between atoms: C_9  and  C_11 
REMARK    5  A    between atoms: C_10  and  C_14 
ROOT
ATOM      1  C   UNL d   1      -0.185  -1.062  -0.027  0.00  0.00     0.174 A 
ATOM      2  O   UNL d   1      -1.047   0.003  -0.048  0.00  0.00    -0.273 OA
ATOM      3  N   UNL d   1       1.078  -0.689  -0.000  0.00  0.00    -0.277 N 
ATOM      4  HN  UNL d   1       1.896  -1.299   0.017  1.00  0.00     0.189 HD
ATOM      5  N   UNL d   1       1.077   0.693   0.001  0.00  0.00    -0.277 N 
ATOM      6  HN  UNL d   1       1.895   1.303   0.019  1.00  0.00     0.189 HD
ATOM      7  C   UNL d   1      -0.186   1.069  -0.026  0.00  0.00     0.174 A 
ENDROOT
BRANCH   1   8
ATOM      8  C   UNL d   1      -0.778  -2.395  -0.026  0.00  0.00     0.018 A 
ATOM      9  C   UNL d   1      -2.169  -2.579  -0.083  0.00  0.00     0.032 A 
ATOM     10  C   UNL d   1      -2.740  -3.863  -0.085  0.00  0.00     0.049 A 
ATOM     11  C   UNL d   1      -1.896  -4.980  -0.016  0.00  0.00     0.032 A 
ATOM     12  C   UNL d   1      -0.501  -4.829   0.036  0.00  0.00     0.049 A 
ATOM     13  C   UNL d   1       0.044  -3.532   0.029  0.00  0.00     0.032 A 
BRANCH  10  14
ATOM     14  C   UNL d   1      -4.241  -4.014  -0.175  0.00  0.00     0.417 C 
ATOM     15  F   UNL d   1      -4.657  -5.309  -0.187  0.00  0.00    -0.166 F 
ATOM     16  F   UNL d   1      -4.885  -3.420   0.866  0.00  0.00    -0.166 F 
ATOM     17  F   UNL d   1      -4.747  -3.446  -1.304  0.00  0.00    -0.166 F 
ENDBRANCH  10  14
BRANCH  12  18
ATOM     18  C   UNL d   1       0.412  -6.033   0.084  0.00  0.00     0.417 C 
ATOM     19  F   UNL d   1      -0.260  -7.218   0.117  0.00  0.00    -0.166 F 
ATOM     20  F   UNL d   1       1.236  -6.101  -0.996  0.00  0.00    -0.166 F 
ATOM     21  F   UNL d   1       1.220  -6.031   1.179  0.00  0.00    -0.166 F 
ENDBRANCH  12  18
ENDBRANCH   1   8
BRANCH   7  22
ATOM     22  C   UNL d   1      -0.777   2.401  -0.015  0.00  0.00     0.017 A 
ATOM     23  C   UNL d   1      -2.168   2.596  -0.077  0.00  0.00     0.032 A 
ATOM     24  C   UNL d   1      -2.727   3.886  -0.049  0.00  0.00     0.048 A 
ATOM     25  C   UNL d   1      -1.871   4.994   0.041  0.00  0.00     0.016 A 
ATOM     26  C   UNL d   1      -0.490   4.816   0.099  0.00  0.00     0.002 A 
ATOM     27  C   UNL d   1       0.052   3.529   0.070  0.00  0.00     0.016 A 
BRANCH  24  28
ATOM     28  C   UNL d   1      -4.222   4.092  -0.106  0.00  0.00     0.417 C 
ATOM     29  F   UNL d   1      -4.925   2.930  -0.212  0.00  0.00    -0.166 F 
ATOM     30  F   UNL d   1      -4.703   4.719   1.002  0.00  0.00    -0.166 F 
ATOM     31  F   UNL d   1      -4.603   4.856  -1.166  0.00  0.00    -0.166 F 
ENDBRANCH  24  28
ENDBRANCH   7  22
TORSDOF 5
