REMARK  1 active torsions:
REMARK  status: ('A' for Active; 'I' for Inactive)
REMARK    1  A    between atoms: N_4  and  C_1 
REMARK       I    between atoms: C_7  and  N_4 
ROOT
ATOM      1  C   UNL d   1      -2.557   0.110   0.065  0.00  0.00     0.112 A 
ATOM      2  C   UNL d   1      -1.899  -1.110  -0.119  0.00  0.00     0.147 A 
ATOM      3  C   UNL d   1      -1.776   1.267   0.153  0.00  0.00     0.147 A 
ATOM      4  C   UNL d   1      -0.510  -1.200  -0.143  0.00  0.00     0.064 A 
ATOM      5  C   UNL d   1      -0.383   1.198   0.122  0.00  0.00     0.064 A 
ATOM      6  C   UNL d   1       0.243  -0.038  -0.009  0.00  0.00     0.017 A 
ATOM      7  F   UNL d   1      -2.333   2.484   0.174  0.00  0.00    -0.204 F 
ATOM      8  F   UNL d   1      -2.622  -2.236  -0.243  0.00  0.00    -0.204 F 
ATOM      9 BR   UNL d   1       2.130  -0.137  -0.025  0.00  0.00    -0.051 Br
ENDROOT
BRANCH   1  10
ATOM     10  N   UNL d   1      -3.970   0.085   0.130  0.00  0.00    -0.322 N 
ATOM     11  C   UNL d   1      -4.743   0.977   0.847  0.00  0.00     0.218 C 
ATOM     12  O   UNL d   1      -4.327   1.843   1.608  0.00  0.00    -0.274 OA
ATOM     13  C   UNL d   1      -6.221   0.726   0.697  0.00  0.00     0.117 C 
ATOM     14  H   UNL d   1      -4.405  -0.797  -0.124  0.00  0.00     0.169 HD
ENDBRANCH   1  10
TORSDOF 1
