REMARK  7 active torsions:
REMARK  status: ('A' for Active; 'I' for Inactive)
REMARK    1  A    between atoms: C_8  and  N_1 
REMARK    2  A    between atoms: C_13  and  C_2 
REMARK    3  A    between atoms: S_12  and  C_5 
REMARK    4  A    between atoms: C_9  and  C_10 
REMARK    5  A    between atoms: C_23  and  S_12 
REMARK    6  A    between atoms: C_14  and  C_15 
REMARK    7  A    between atoms: C_25  and  C_23 
ROOT
ATOM      1  N   UNL d   1      -0.352  -1.271  -0.048  0.00  0.00    -0.275 N 
ATOM      2  C   UNL d   1       0.903  -0.639  -0.047  0.00  0.00     0.139 A 
ATOM      3  N   UNL d   1       0.715   0.671  -0.041  0.00  0.00    -0.282 N 
ATOM      4  HN  UNL d   1       1.450   1.375   0.031  1.00  0.00     0.188 HD
ATOM      5  C   UNL d   1      -1.258  -0.219  -0.173  0.00  0.00     0.168 A 
ATOM      6  N   UNL d   1      -0.622   0.930  -0.146  0.00  0.00    -0.278 N 
ATOM      7  HN  UNL d   1      -1.051   1.854  -0.194  1.00  0.00     0.189 HD
ENDROOT
BRANCH   1   8
ATOM      8  C   UNL d   1      -0.611  -2.678   0.040  0.00  0.00     0.044 A 
ATOM      9  C   UNL d   1       0.217  -3.502   0.826  0.00  0.00     0.046 A 
ATOM     10  C   UNL d   1       0.062  -4.902   0.815  0.00  0.00     0.050 A 
ATOM     11  C   UNL d   1      -0.978  -5.462   0.065  0.00  0.00     0.016 A 
ATOM     12  C   UNL d   1      -1.828  -4.648  -0.683  0.00  0.00     0.003 A 
ATOM     13  C   UNL d   1      -1.636  -3.264  -0.706  0.00  0.00     0.030 A 
BRANCH  10  14
ATOM     14  C   UNL d   1       1.012  -5.802   1.569  0.00  0.00     0.417 C 
ATOM     15  F   UNL d   1       2.032  -5.137   2.177  0.00  0.00    -0.166 F 
ATOM     16  F   UNL d   1       0.391  -6.515   2.547  0.00  0.00    -0.166 F 
ATOM     17  F   UNL d   1       1.604  -6.722   0.755  0.00  0.00    -0.166 F 
ENDBRANCH  10  14
ENDBRANCH   1   8
BRANCH   2  18
ATOM     18  C   UNL d   1       2.240  -1.259  -0.117  0.00  0.00     0.010 A 
ATOM     19  C   UNL d   1       2.511  -2.385  -0.902  0.00  0.00     0.016 A 
ATOM     20  C   UNL d   1       3.776  -2.992  -0.888  0.00  0.00     0.009 A 
ATOM     21  C   UNL d   1       4.841  -2.461  -0.140  0.00  0.00    -0.051 A 
ATOM     22  C   UNL d   1       4.582  -1.287   0.585  0.00  0.00     0.009 A 
ATOM     23  C   UNL d   1       3.305  -0.699   0.598  0.00  0.00     0.016 A 
BRANCH  21  24
ATOM     24  C   UNL d   1       6.212  -3.164  -0.135  0.00  0.00    -0.024 C 
ATOM     25  C   UNL d   1       7.288  -2.417   0.685  0.00  0.00     0.019 C 
ATOM     26  C   UNL d   1       6.069  -4.576   0.475  0.00  0.00     0.019 C 
ATOM     27  C   UNL d   1       6.751  -3.298  -1.577  0.00  0.00     0.019 C 
ENDBRANCH  21  24
ENDBRANCH   2  18
BRANCH   5  28
ATOM     28  S   UNL d   1      -2.996  -0.340  -0.142  0.00  0.00    -0.087 SA
BRANCH  28  29
ATOM     29  C   UNL d   1      -3.480   1.182  -1.017  0.00  0.00     0.121 C 
BRANCH  29  30
ATOM     30  C   UNL d   1      -4.984   1.353  -1.085  0.00  0.00    -0.049 A 
ATOM     31  C   UNL d   1      -5.658   2.090  -0.097  0.00  0.00     0.008 A 
ATOM     32  C   UNL d   1      -7.042   2.275  -0.163  0.00  0.00     0.001 A 
ATOM     33  C   UNL d   1      -7.774   1.722  -1.210  0.00  0.00     0.000 A 
ATOM     34  C   UNL d   1      -7.121   0.979  -2.193  0.00  0.00     0.001 A 
ATOM     35  C   UNL d   1      -5.736   0.794  -2.130  0.00  0.00     0.008 A 
ENDBRANCH  29  30
ENDBRANCH  28  29
ENDBRANCH   5  28
TORSDOF 7
