REMARK  4 active torsions:
REMARK  status: ('A' for Active; 'I' for Inactive)
REMARK    1  A    between atoms: C_14  and  N_2 
REMARK    2  A    between atoms: C_16  and  C_9 
REMARK    3  A    between atoms: C_15  and  C_10 
REMARK    4  A    between atoms: C_17  and  C_14 
ROOT
ATOM      1  C   UNL d   1      -0.572  -1.197   0.075  0.00  0.00     0.106 A 
ATOM      2  N   UNL d   1       0.733  -0.777   0.106  0.00  0.00    -0.284 N 
ATOM      3  C   UNL d   1      -1.049  -2.537   0.020  0.00  0.00     0.200 A 
ATOM      4  N   UNL d   1      -2.234  -2.828  -0.466  0.00  0.00    -0.317 N 
ATOM      5  HN  UNL d   1      -2.938  -2.190  -0.836  1.00  0.00     0.169 HD
ATOM      6  N   UNL d   1       0.848   0.576   0.086  0.00  0.00    -0.301 N 
ATOM      7  HN  UNL d   1       1.707   1.127   0.087  1.00  0.00     0.187 HD
ATOM      8  C   UNL d   1      -1.330  -0.045   0.055  0.00  0.00     0.063 A 
ATOM      9  C   UNL d   1      -2.301  -4.196  -0.358  0.00  0.00     0.138 A 
ATOM     10  C   UNL d   1      -0.412   1.028   0.064  0.00  0.00     0.036 A 
ATOM     11  N   UNL d   1      -1.208  -4.746   0.197  0.00  0.00    -0.242 N 
ATOM     12  HN  UNL d   1      -1.028  -5.731   0.393  1.00  0.00     0.196 HD
ATOM     13  O   UNL d   1      -0.378  -3.650   0.444  0.00  0.00    -0.215 OA
ENDROOT
BRANCH   2  14
ATOM     14  C   UNL d   1       1.953  -1.574   0.014  0.00  0.00     0.187 C 
BRANCH  14  15
ATOM     15  C   UNL d   1       2.482  -1.989   1.365  0.00  0.00    -0.038 A 
ATOM     16  C   UNL d   1       2.717  -3.342   1.650  0.00  0.00     0.009 A 
ATOM     17  C   UNL d   1       3.226  -3.728   2.891  0.00  0.00     0.001 A 
ATOM     18  C   UNL d   1       3.515  -2.768   3.859  0.00  0.00     0.000 A 
ATOM     19  C   UNL d   1       3.304  -1.419   3.583  0.00  0.00     0.001 A 
ATOM     20  C   UNL d   1       2.798  -1.031   2.342  0.00  0.00     0.009 A 
ENDBRANCH  14  15
ENDBRANCH   2  14
BRANCH  10  21
ATOM     21  C   UNL d   1      -0.742   2.510   0.025  0.00  0.00    -0.007 C 
ATOM     22  C   UNL d   1      -1.585   2.891   1.259  0.00  0.00     0.021 C 
ATOM     23  C   UNL d   1       0.523   3.392   0.018  0.00  0.00     0.021 C 
ATOM     24  C   UNL d   1      -1.553   2.829  -1.249  0.00  0.00     0.021 C 
ENDBRANCH  10  21
BRANCH   9  25
ATOM     25  C   UNL d   1      -3.458  -4.938  -0.848  0.00  0.00     0.010 A 
ATOM     26  C   UNL d   1      -4.449  -4.271  -1.588  0.00  0.00     0.015 A 
ATOM     27  C   UNL d   1      -5.557  -4.961  -2.084  0.00  0.00     0.001 A 
ATOM     28  C   UNL d   1      -5.690  -6.325  -1.844  0.00  0.00     0.000 A 
ATOM     29  C   UNL d   1      -4.718  -7.000  -1.107  0.00  0.00     0.001 A 
ATOM     30  C   UNL d   1      -3.605  -6.311  -0.612  0.00  0.00     0.015 A 
ENDBRANCH   9  25
TORSDOF 4
