REMARK  6 active torsions:
REMARK  status: ('A' for Active; 'I' for Inactive)
REMARK    1  A    between atoms: C_16  and  N_1 
REMARK    2  A    between atoms: S_14  and  C_2 
REMARK    3  A    between atoms: C_19  and  C_7 
REMARK    4  A    between atoms: C_8  and  C_15 
REMARK    5  A    between atoms: C_15  and  S_14 
REMARK    6  A    between atoms: O_30  and  C_22 
ROOT
ATOM      1  N   UNL d   1      -2.292   2.004  -1.520  0.00  0.00    -0.197 NA
ATOM      2  C   UNL d   1      -2.412   1.332  -0.585  0.00  0.00     0.066 C 
ATOM      3  C   UNL d   1      -2.601   0.502   0.616  0.00  0.00     0.202 C 
ENDROOT
BRANCH   3   4
ATOM      4  C   UNL d   1      -1.444  -0.413   0.874  0.00  0.00     0.118 C 
ATOM      5  N   UNL d   1      -1.575  -1.726   0.903  0.00  0.00    -0.286 N 
ATOM      6  N   UNL d   1      -0.335  -2.288   0.924  0.00  0.00    -0.278 N 
ATOM      7  HN  UNL d   1      -2.459  -2.234   0.908  1.00  0.00     0.188 HD
ATOM      8  C   UNL d   1       0.558  -1.325   0.926  0.00  0.00     0.167 C 
ATOM      9  HN  UNL d   1      -0.134  -3.288   0.937  1.00  0.00     0.189 HD
ATOM     10  N   UNL d   1      -0.088  -0.082   1.015  0.00  0.00    -0.278 N 
BRANCH   8  11
ATOM     11  S   UNL d   1       2.282  -1.651   0.986  0.00  0.00    -0.087 SA
BRANCH  11  12
ATOM     12  C   UNL d   1       2.382  -3.245   0.099  0.00  0.00     0.122 C 
BRANCH  12  13
ATOM     13  C   UNL d   1       3.804  -3.716  -0.260  0.00  0.00    -0.035 A 
ATOM     14  C   UNL d   1       4.507  -4.637   0.574  0.00  0.00    -0.048 A 
ATOM     15  C   UNL d   1       5.771  -5.161   0.167  0.00  0.00    -0.049 A 
ATOM     16  C   UNL d   1       3.947  -5.117   1.897  0.00  0.00     0.049 C 
ATOM     17  C   UNL d   1       6.555  -6.123   1.043  0.00  0.00     0.049 C 
ATOM     18  C   UNL d   1       6.336  -4.793  -1.080  0.00  0.00    -0.049 A 
ATOM     19  C   UNL d   1       5.656  -3.874  -1.912  0.00  0.00    -0.049 A 
ATOM     20  C   UNL d   1       7.672  -5.391  -1.486  0.00  0.00     0.049 C 
ATOM     21  C   UNL d   1       4.418  -3.302  -1.484  0.00  0.00    -0.048 A 
ATOM     22  C   UNL d   1       6.267  -3.526  -3.257  0.00  0.00     0.049 C 
ATOM     23  C   UNL d   1       3.778  -2.262  -2.379  0.00  0.00     0.049 C 
ENDBRANCH  12  13
ENDBRANCH  11  12
ENDBRANCH   8  11
BRANCH  10  24
ATOM     24  C   UNL d   1       0.475   1.213   1.237  0.00  0.00     0.043 A 
ATOM     25  C   UNL d   1       1.756   1.513   0.768  0.00  0.00     0.033 A 
ATOM     26  C   UNL d   1       2.384   2.716   1.102  0.00  0.00     0.039 A 
ATOM     27  C   UNL d   1       1.722   3.668   1.869  0.00  0.00     0.068 A 
ATOM     28  C   UNL d   1       0.416   3.410   2.284  0.00  0.00     0.039 A 
ATOM     29  C   UNL d   1      -0.205   2.188   1.983  0.00  0.00     0.033 A 
BRANCH  27  30
ATOM     30  O   UNL d   1       2.244   4.867   2.268  0.00  0.00    -0.356 OA
ATOM     31  C   UNL d   1       3.605   5.106   1.918  0.00  0.00     0.210 C 
ENDBRANCH  27  30
ENDBRANCH  10  24
ENDBRANCH   3   4
TORSDOF 6
