REMARK  3 active torsions:
REMARK  status: ('A' for Active; 'I' for Inactive)
REMARK    1  A    between atoms: O_7  and  C_1 
REMARK    2  A    between atoms: C_11  and  C_2 
REMARK    3  A    between atoms: S_4  and  O_7 
ROOT
ATOM      1  C   UNL d   1      -2.364  -0.183   0.002  0.00  0.00     0.174 A 
ATOM      2  C   UNL d   1      -1.903  -1.449  -0.011  0.00  0.00     0.125 A 
ATOM      3  C   UNL d   1      -1.348   0.908   0.078  0.00  0.00     0.222 A 
ATOM      4  O   UNL d   1      -0.571  -1.822   0.035  0.00  0.00    -0.306 OA
ATOM      5  C   UNL d   1       0.067   0.509   0.039  0.00  0.00     0.051 A 
ATOM      6  C   UNL d   1       0.382  -0.842   0.029  0.00  0.00     0.090 A 
ATOM      7  O   UNL d   1      -1.639   2.089   0.191  0.00  0.00    -0.284 OA
ATOM      8  C   UNL d   1       1.082   1.472   0.024  0.00  0.00     0.018 A 
ATOM      9  C   UNL d   1       1.717  -1.247   0.014  0.00  0.00     0.038 A 
ATOM     10  C   UNL d   1       2.417   1.069   0.002  0.00  0.00     0.001 A 
ATOM     11  C   UNL d   1       2.734  -0.290  -0.000  0.00  0.00     0.003 A 
ENDROOT
BRANCH   2  12
ATOM     12  C   UNL d   1      -2.789  -2.616  -0.127  0.00  0.00     0.001 A 
ATOM     13  C   UNL d   1      -3.136  -3.100  -1.395  0.00  0.00     0.014 A 
ATOM     14  C   UNL d   1      -3.900  -4.261  -1.523  0.00  0.00     0.001 A 
ATOM     15  C   UNL d   1      -4.324  -4.945  -0.384  0.00  0.00     0.000 A 
ATOM     16  C   UNL d   1      -3.990  -4.466   0.882  0.00  0.00     0.001 A 
ATOM     17  C   UNL d   1      -3.224  -3.304   1.013  0.00  0.00     0.014 A 
ENDBRANCH   2  12
BRANCH   1  18
ATOM     18  O   UNL d   1      -3.727   0.090  -0.028  0.00  0.00    -0.226 OA
BRANCH  18  19
ATOM     19  S   UNL d   1      -4.342   1.484  -0.617  0.00  0.00     0.266 S 
ATOM     20  O   UNL d   1      -4.416   2.486   0.428  0.00  0.00    -0.199 OA
ATOM     21  O   UNL d   1      -3.795   1.738  -1.936  0.00  0.00    -0.199 OA
ATOM     22  C   UNL d   1      -5.999   0.898  -0.847  0.00  0.00     0.194 C 
ENDBRANCH  18  19
ENDBRANCH   1  18
TORSDOF 3
