REMARK  7 active torsions:
REMARK  status: ('A' for Active; 'I' for Inactive)
REMARK    1  A    between atoms: O_14  and  C_3 
REMARK    2  A    between atoms: S_11  and  C_4 
REMARK    3  A    between atoms: C_17  and  C_5 
REMARK    4  A    between atoms: C_8  and  C_10 
REMARK    5  A    between atoms: C_10  and  S_11 
REMARK    6  A    between atoms: C_22  and  C_17 
REMARK    7  A    between atoms: C_23  and  C_22 
ROOT
ATOM      1  N   UNL d   1      -0.561   1.261  -0.005  0.00  0.00    -0.317 N 
ATOM      2  HN  UNL d   1      -1.022   2.171   0.017  1.00  0.00     0.170 HD
ATOM      3  C   UNL d   1      -1.247   0.111   0.010  0.00  0.00     0.150 A 
ATOM      4  C   UNL d   1       0.767   1.134  -0.053  0.00  0.00     0.146 A 
ATOM      5  C   UNL d   1      -0.713  -1.162  -0.037  0.00  0.00     0.015 A 
ATOM      6  N   UNL d   1       1.417  -0.038  -0.062  0.00  0.00    -0.340 N 
ATOM      7  HN  UNL d   1       2.436  -0.075  -0.085  1.00  0.00     0.167 HD
ATOM      8  C   UNL d   1       0.677  -1.170  -0.040  0.00  0.00     0.018 A 
ATOM      9  C   UNL d   1       1.474  -2.443  -0.006  0.00  0.00     0.069 C 
ENDROOT
BRANCH   4  10
ATOM     10  S   UNL d   1       1.719   2.632  -0.070  0.00  0.00    -0.089 SA
BRANCH  10  11
ATOM     11  C   UNL d   1       3.227   2.006  -0.870  0.00  0.00     0.126 C 
BRANCH  11  12
ATOM     12  C   UNL d   1       4.255   3.089  -1.079  0.00  0.00     0.012 A 
ATOM     13  C   UNL d   1       5.257   3.272  -0.118  0.00  0.00     0.125 A 
ATOM     14  F   UNL d   1       5.291   2.485   0.968  0.00  0.00    -0.205 F 
ATOM     15  C   UNL d   1       6.246   4.245  -0.257  0.00  0.00     0.043 A 
ATOM     16  C   UNL d   1       6.247   5.072  -1.375  0.00  0.00     0.005 A 
ATOM     17  C   UNL d   1       5.255   4.918  -2.343  0.00  0.00     0.024 A 
ATOM     18  C   UNL d   1       4.264   3.938  -2.196  0.00  0.00     0.044 A 
ATOM     19 CL   UNL d   1       3.080   3.813  -3.449  0.00  0.00    -0.084 Cl
ENDBRANCH  11  12
ENDBRANCH  10  11
ENDBRANCH   4  10
BRANCH   3  20
ATOM     20  O   UNL d   1      -2.583   0.325   0.086  0.00  0.00    -0.346 OA
ATOM     21  H   UNL d   1      -2.607   1.299   0.070  0.00  0.00     0.219 HD
ENDBRANCH   3  20
BRANCH   5  22
ATOM     22  C   UNL d   1      -1.517  -2.437   0.006  0.00  0.00     0.045 C 
BRANCH  22  23
ATOM     23  C   UNL d   1      -2.897  -2.478  -0.664  0.00  0.00     0.004 C 
BRANCH  23  24
ATOM     24  C   UNL d   1      -2.866  -2.141  -2.156  0.00  0.00    -0.004 C 
ATOM     25  C   UNL d   1      -4.266  -2.176  -2.753  0.00  0.00     0.005 C 
ENDBRANCH  23  24
ENDBRANCH  22  23
ENDBRANCH   5  22
TORSDOF 7
