REMARK  2 active torsions:
REMARK  status: ('A' for Active; 'I' for Inactive)
REMARK    1  A    between atoms: C_10  and  C_3 
REMARK    2  A    between atoms: C_9  and  C_4 
ROOT
ATOM      1  N   UNL d   1      -1.113  -2.272  -3.425  0.00  0.00    -0.197 NA
ATOM      2  C   UNL d   1      -0.694  -2.333  -2.344  0.00  0.00     0.065 C 
ATOM      3  C   UNL d   1      -0.187  -2.444  -0.971  0.00  0.00     0.188 C 
ENDROOT
BRANCH   3   4
ATOM      4  C   UNL d   1       0.133  -1.087  -0.432  0.00  0.00     0.064 A 
ATOM      5  N   UNL d   1       1.305  -0.496  -0.548  0.00  0.00    -0.352 N 
ATOM      6  C   UNL d   1       1.270   0.763   0.037  0.00  0.00     0.049 A 
ATOM      7  HN  UNL d   1       2.121  -0.905  -1.002  1.00  0.00     0.166 HD
ATOM      8  C   UNL d   1       0.056   1.097   0.605  0.00  0.00     0.081 A 
ATOM      9  S   UNL d   1      -1.062  -0.188   0.420  0.00  0.00    -0.085 SA
BRANCH   6  10
ATOM     10  C   UNL d   1       2.422   1.657  -0.010  0.00  0.00    -0.009 A 
ATOM     11  C   UNL d   1       3.340   1.546  -1.065  0.00  0.00     0.014 A 
ATOM     12  C   UNL d   1       4.425   2.421  -1.162  0.00  0.00     0.001 A 
ATOM     13  C   UNL d   1       4.612   3.410  -0.199  0.00  0.00     0.000 A 
ATOM     14  C   UNL d   1       3.722   3.518   0.867  0.00  0.00     0.001 A 
ATOM     15  C   UNL d   1       2.634   2.645   0.963  0.00  0.00     0.014 A 
ENDBRANCH   6  10
ENDBRANCH   3   4
TORSDOF 2
