REMARK  6 active torsions:
REMARK  status: ('A' for Active; 'I' for Inactive)
REMARK    1  A    between atoms: C_7  and  C_1 
REMARK    2  A    between atoms: C_8  and  C_7 
REMARK    3  A    between atoms: C_11  and  C_18 
REMARK    4  A    between atoms: O_23  and  C_11 
REMARK    5  A    between atoms: O_17  and  C_16 
REMARK    6  A    between atoms: C_18  and  O_17 
ROOT
ATOM      1  C   UNL d   1      -1.758  -0.912  -0.014  0.00  0.00     0.029 A 
ATOM      2  C   UNL d   1      -1.967   0.563   0.021  0.00  0.00     0.295 A 
ATOM      3  C   UNL d   1      -0.519  -1.454  -0.063  0.00  0.00    -0.036 A 
ATOM      4  O   UNL d   1      -0.845   1.366  -0.053  0.00  0.00    -0.274 OA
ATOM      5  C   UNL d   1       0.446   0.820  -0.065  0.00  0.00     0.092 A 
ATOM      6  C   UNL d   1       0.651  -0.556  -0.049  0.00  0.00     0.005 A 
ATOM      7  C   UNL d   1       1.497   1.743  -0.086  0.00  0.00     0.075 A 
ATOM      8  C   UNL d   1       1.977  -1.003  -0.017  0.00  0.00     0.017 A 
ATOM      9  O   UNL d   1      -3.086   1.062   0.101  0.00  0.00    -0.259 OA
ATOM     10  C   UNL d   1       2.806   1.278  -0.100  0.00  0.00     0.072 A 
ATOM     11  C   UNL d   1       3.043  -0.094  -0.032  0.00  0.00     0.038 A 
ATOM     12  C   UNL d   1      -0.255  -2.939  -0.085  0.00  0.00     0.050 C 
ENDROOT
BRANCH   1  13
ATOM     13  C   UNL d   1      -3.043  -1.702  -0.014  0.00  0.00     0.087 C 
BRANCH  13  14
ATOM     14  C   UNL d   1      -3.537  -2.362   1.271  0.00  0.00    -0.010 A 
ATOM     15  C   UNL d   1      -3.056  -2.129   2.577  0.00  0.00     0.042 A 
ATOM     16 CL   UNL d   1      -1.830  -0.983   2.996  0.00  0.00    -0.084 Cl
ATOM     17  C   UNL d   1      -3.576  -2.829   3.679  0.00  0.00     0.024 A 
ATOM     18  C   UNL d   1      -4.606  -3.749   3.523  0.00  0.00     0.003 A 
ATOM     19  C   UNL d   1      -5.132  -3.965   2.260  0.00  0.00     0.024 A 
ATOM     20  C   UNL d   1      -4.611  -3.283   1.153  0.00  0.00     0.042 A 
ATOM     21 CL   UNL d   1      -5.372  -3.625  -0.370  0.00  0.00    -0.084 Cl
ENDBRANCH  13  14
ENDBRANCH   1  13
BRANCH  10  22
ATOM     22  O   UNL d   1       3.923   2.063  -0.158  0.00  0.00    -0.341 OA
BRANCH  22  23
ATOM     23  C   UNL d   1       3.736   3.361  -0.739  0.00  0.00     0.285 C 
BRANCH  23  24
ATOM     24  C   UNL d   1       5.084   3.866  -1.228  0.00  0.00     0.164 C 
ATOM     25  O   UNL d   1       5.248   4.937  -1.791  0.00  0.00    -0.648 OA
BRANCH  24  26
ATOM     26  O   UNL d   1       6.101   3.003  -0.984  0.00  0.00    -0.775 OA
ATOM     27  H   UNL d   1       5.751   2.208  -0.525  0.00  0.00     0.167 HD
ENDBRANCH  24  26
ENDBRANCH  23  24
ENDBRANCH  22  23
ENDBRANCH  10  22
TORSDOF 6
