REMARK  0 active torsions:
REMARK  status: ('A' for Active; 'I' for Inactive)
ROOT
ATOM      1  C   UNL d   1       2.556  -0.018  -0.496  0.00  0.00     0.079 A 
ATOM      2  C   UNL d   1       3.998  -0.064  -0.416  0.00  0.00     0.171 C 
ATOM      3  S   UNL d   1       1.701  -1.481  -0.229  0.00  0.00    -0.084 SA
ATOM      4  N   UNL d   1       4.661  -1.136  -0.702  0.00  0.00    -0.335 N 
ATOM      5  HN  UNL d   1       4.219  -1.921  -1.180  1.00  0.00     0.168 HD
ATOM      6  C   UNL d   1       1.685   1.034  -0.691  0.00  0.00     0.067 A 
ATOM      7  O   UNL d   1       4.516   1.089   0.070  0.00  0.00    -0.256 OA
ATOM      8  C   UNL d   1       5.836   1.153   0.355  0.00  0.00     0.302 C 
ATOM      9  C   UNL d   1       6.603  -0.093   0.282  0.00  0.00     0.066 A 
ATOM     10  C   UNL d   1       5.998  -1.178  -0.333  0.00  0.00     0.052 A 
ATOM     11  C   UNL d   1       0.297   0.650  -0.573  0.00  0.00     0.004 A 
ATOM     12  C   UNL d   1       0.173  -0.714  -0.302  0.00  0.00     0.017 A 
ATOM     13  C   UNL d   1       6.689  -2.385  -0.439  0.00  0.00     0.054 A 
ATOM     14  C   UNL d   1       7.874  -0.210   0.855  0.00  0.00     0.022 A 
ATOM     15  O   UNL d   1       6.377   2.199   0.705  0.00  0.00    -0.259 OA
ATOM     16 CL   UNL d   1       2.142   2.656  -1.039  0.00  0.00    -0.082 Cl
ATOM     17  C   UNL d   1       7.950  -2.515   0.141  0.00  0.00     0.036 A 
ATOM     18  C   UNL d   1       8.538  -1.435   0.804  0.00  0.00     0.025 A 
ATOM     19 CL   UNL d   1       8.760  -4.030   0.088  0.00  0.00    -0.084 Cl
ATOM     20  C   UNL d   1      -0.899   1.407  -0.676  0.00  0.00     0.014 A 
ATOM     21  C   UNL d   1      -1.080  -1.331  -0.124  0.00  0.00     0.020 A 
ATOM     22  C   UNL d   1      -2.148   0.799  -0.506  0.00  0.00     0.001 A 
ATOM     23  C   UNL d   1      -2.235  -0.557  -0.229  0.00  0.00     0.001 A 
ENDROOT
TORSDOF 0
