REMARK  5 active torsions:
REMARK  status: ('A' for Active; 'I' for Inactive)
REMARK    1  A    between atoms: C_2  and  S_1 
REMARK    2  A    between atoms: C_4  and  S_1 
REMARK    3  A    between atoms: C_3  and  C_2 
REMARK    4  A    between atoms: C_7  and  C_3 
REMARK    5  A    between atoms: O_19  and  C_13 
ROOT
ATOM      1  C   UNL d   1       0.480  -1.282  -0.839  0.00  0.00     0.229 C 
ENDROOT
BRANCH   1   2
ATOM      2  S   UNL d   1       1.093   0.146  -0.009  0.00  0.00     0.182 S 
ATOM      3  O   UNL d   1       2.536   0.185  -0.151  0.00  0.00    -0.222 OA
ATOM      4  O   UNL d   1       0.506   0.147   1.322  0.00  0.00    -0.222 OA
BRANCH   2   5
ATOM      5  C   UNL d   1       0.417   1.540  -0.877  0.00  0.00     0.059 A 
ATOM      6  C   UNL d   1      -0.811   2.068  -0.475  0.00  0.00     0.024 A 
ATOM      7  C   UNL d   1      -1.330   3.181  -1.137  0.00  0.00     0.008 A 
ATOM      8  C   UNL d   1      -0.623   3.776  -2.191  0.00  0.00    -0.062 A 
ATOM      9  C   UNL d   1       0.618   3.247  -2.570  0.00  0.00     0.008 A 
ATOM     10  C   UNL d   1      -1.200   4.971  -2.891  0.00  0.00     0.048 C 
ATOM     11  C   UNL d   1       1.146   2.136  -1.910  0.00  0.00     0.024 A 
ENDBRANCH   2   5
ENDBRANCH   1   2
BRANCH   1  12
ATOM     12  C   UNL d   1       0.979  -1.334  -2.250  0.00  0.00     0.173 C 
ATOM     13  O   UNL d   1       0.318  -0.832  -3.159  0.00  0.00    -0.291 OA
BRANCH  12  14
ATOM     14  C   UNL d   1       2.272  -2.012  -2.579  0.00  0.00     0.011 A 
ATOM     15  C   UNL d   1       3.083  -2.621  -1.614  0.00  0.00     0.018 A 
ATOM     16  C   UNL d   1       4.282  -3.245  -1.982  0.00  0.00     0.037 A 
ATOM     17  C   UNL d   1       4.686  -3.264  -3.316  0.00  0.00     0.068 A 
ATOM     18  C   UNL d   1       3.874  -2.673  -4.284  0.00  0.00     0.037 A 
ATOM     19  C   UNL d   1       2.680  -2.043  -3.920  0.00  0.00     0.018 A 
BRANCH  17  20
ATOM     20  O   UNL d   1       5.816  -3.872  -3.787  0.00  0.00    -0.356 OA
ATOM     21  C   UNL d   1       6.915  -3.918  -2.882  0.00  0.00     0.210 C 
ENDBRANCH  17  20
ENDBRANCH  12  14
ENDBRANCH   1  12
TORSDOF 5
