REMARK  4 active torsions:
REMARK  status: ('A' for Active; 'I' for Inactive)
REMARK    1  A    between atoms: C_7  and  C_3 
REMARK    2  A    between atoms: O_17  and  C_8 
REMARK    3  A    between atoms: O_19  and  C_11 
REMARK    4  A    between atoms: O_18  and  C_12 
ROOT
ATOM      1  C   UNL d   1      -1.274   0.397   0.045  0.00  0.00     0.058 C 
ATOM      2  C   UNL d   1       1.283   0.344   0.024  0.00  0.00     0.058 C 
ATOM      3  C   UNL d   1       0.021   1.202  -0.137  0.00  0.00     0.110 C 
ATOM      4  N   UNL d   1      -0.041  -1.629  -0.043  0.00  0.00    -0.361 N 
ATOM      5  C   UNL d   1       1.201  -1.010   0.032  0.00  0.00     0.023 C 
ATOM      6  C   UNL d   1      -1.245  -0.956   0.040  0.00  0.00     0.023 C 
ATOM      7  C   UNL d   1      -2.499   1.117   0.161  0.00  0.00     0.098 C 
ATOM      8  C   UNL d   1       2.541   1.016   0.130  0.00  0.00     0.098 C 
ATOM      9  N   UNL d   1       3.568   1.545   0.233  0.00  0.00    -0.192 NA
ATOM     10  N   UNL d   1      -3.500   1.694   0.269  0.00  0.00    -0.192 NA
ATOM     11  C   UNL d   1       2.409  -1.909   0.100  0.00  0.00     0.069 C 
ATOM     12  C   UNL d   1      -2.493  -1.804   0.086  0.00  0.00     0.069 C 
ATOM     13  H   UNL d   1      -0.057  -2.642   0.032  0.00  0.00     0.165 HD
ENDROOT
BRANCH   3  14
ATOM     14  C   UNL d   1      -0.003   1.880  -1.511  0.00  0.00    -0.038 A 
ATOM     15  C   UNL d   1       0.006   1.087  -2.671  0.00  0.00     0.048 A 
ATOM     16  C   UNL d   1      -0.085   1.640  -3.954  0.00  0.00     0.104 A 
ATOM     17  C   UNL d   1      -0.174   3.041  -4.100  0.00  0.00     0.135 A 
ATOM     18  C   UNL d   1      -0.218   3.844  -2.934  0.00  0.00     0.104 A 
ATOM     19  C   UNL d   1      -0.110   3.264  -1.658  0.00  0.00     0.048 A 
BRANCH  16  20
ATOM     20  O   UNL d   1      -0.111   0.850  -5.072  0.00  0.00    -0.353 OA
ATOM     21  C   UNL d   1      -0.031  -0.562  -4.917  0.00  0.00     0.210 C 
ENDBRANCH  16  20
BRANCH  17  22
ATOM     22  O   UNL d   1      -0.195   3.723  -5.289  0.00  0.00    -0.351 OA
ATOM     23  C   UNL d   1      -0.115   3.023  -6.520  0.00  0.00     0.210 C 
ENDBRANCH  17  22
BRANCH  18  24
ATOM     24  O   UNL d   1      -0.323   5.216  -2.884  0.00  0.00    -0.353 OA
ATOM     25  C   UNL d   1      -1.095   5.841  -3.905  0.00  0.00     0.210 C 
ENDBRANCH  18  24
ENDBRANCH   3  14
TORSDOF 4
