REMARK  2 active torsions:
REMARK  status: ('A' for Active; 'I' for Inactive)
REMARK    1  A    between atoms: C_8  and  N_1 
REMARK    2  A    between atoms: C_16  and  C_8 
ROOT
ATOM      1  N   UNL d   1       2.773   0.024  -0.004  0.00  0.00    -0.276 N 
ATOM      2  C   UNL d   1       2.097   1.222  -0.207  0.00  0.00     0.261 C 
ATOM      3  C   UNL d   1       2.151  -1.217   0.091  0.00  0.00     0.261 C 
ATOM      4  C   UNL d   1       0.621   1.192  -0.085  0.00  0.00     0.044 A 
ATOM      5  C   UNL d   1      -0.053  -0.032  -0.006  0.00  0.00     0.007 A 
ATOM      6  C   UNL d   1       0.667  -1.236   0.035  0.00  0.00     0.044 A 
ATOM      7  C   UNL d   1      -1.473  -0.056   0.018  0.00  0.00    -0.006 A 
ATOM      8  C   UNL d   1      -0.084   2.403  -0.077  0.00  0.00     0.019 A 
ATOM      9  O   UNL d   1       2.761  -2.276   0.206  0.00  0.00    -0.267 OA
ATOM     10  O   UNL d   1       2.646   2.279  -0.504  0.00  0.00    -0.267 OA
ATOM     11  C   UNL d   1      -2.165   1.185   0.023  0.00  0.00     0.022 A 
ATOM     12  C   UNL d   1      -1.472   2.398  -0.012  0.00  0.00     0.021 A 
ATOM     13  C   UNL d   1       0.004  -2.468   0.053  0.00  0.00     0.018 A 
ATOM     14 BR   UNL d   1      -4.066   1.300   0.074  0.00  0.00    -0.050 Br
ATOM     15  C   UNL d   1      -2.112  -1.319   0.039  0.00  0.00     0.014 A 
ATOM     16  C   UNL d   1      -1.384  -2.509   0.043  0.00  0.00     0.002 A 
ENDROOT
BRANCH   1  17
ATOM     17  C   UNL d   1       4.235   0.063   0.021  0.00  0.00     0.175 C 
BRANCH  17  18
ATOM     18  C   UNL d   1       4.767   0.442   1.381  0.00  0.00    -0.024 A 
ATOM     19  C   UNL d   1       5.054  -0.524   2.339  0.00  0.00     0.096 A 
ATOM     20  N   UNL d   1       5.462  -0.245   3.600  0.00  0.00    -0.375 N 
ATOM     21  C   UNL d   1       5.588   1.060   3.925  0.00  0.00     0.087 A 
ATOM     22  HN  UNL d   1       5.663  -0.985   4.273  1.00  0.00     0.164 HD
ATOM     23  C   UNL d   1       5.353   2.098   3.041  0.00  0.00     0.018 A 
ATOM     24  C   UNL d   1       4.942   1.781   1.750  0.00  0.00     0.011 A 
ENDBRANCH  17  18
ENDBRANCH   1  17
TORSDOF 2
