REMARK  6 active torsions:
REMARK  status: ('A' for Active; 'I' for Inactive)
REMARK    1  A    between atoms: C_13  and  N_1 
REMARK    2  A    between atoms: S_18  and  C_2 
REMARK    3  A    between atoms: C_19  and  C_9 
REMARK    4  A    between atoms: N_10  and  C_16 
REMARK    5  A    between atoms: C_14  and  C_25 
REMARK    6  A    between atoms: C_25  and  S_18 
ROOT
ATOM      1  N   UNL d   1       1.167  -2.970  -2.299  0.00  0.00    -0.322 N 
ATOM      2  HN  UNL d   1       0.645  -2.112  -2.121  1.00  0.00     0.169 HD
ATOM      3  C   UNL d   1       1.048  -3.844  -3.357  0.00  0.00     0.138 A 
ATOM      4  N   UNL d   1       1.911  -4.870  -3.310  0.00  0.00    -0.242 N 
ATOM      5  HN  UNL d   1       2.025  -5.628  -3.984  1.00  0.00     0.196 HD
ATOM      6  C   UNL d   1       2.120  -3.515  -1.576  0.00  0.00     0.158 A 
ATOM      7  O   UNL d   1       2.617  -4.659  -2.127  0.00  0.00    -0.222 OA
ENDROOT
BRANCH   6   8
ATOM      8  C   UNL d   1       2.697  -3.113  -0.267  0.00  0.00     0.169 C 
BRANCH   8   9
ATOM      9  S   UNL d   1       2.863  -1.312  -0.070  0.00  0.00    -0.083 SA
BRANCH   9  10
ATOM     10  C   UNL d   1       1.198  -0.827   0.010  0.00  0.00     0.177 A 
ATOM     11  N   UNL d   1       0.694   0.429  -0.310  0.00  0.00    -0.218 N 
ATOM     12  N   UNL d   1      -0.612   0.436   0.070  0.00  0.00     0.001 NA
ATOM     13  N   UNL d   1      -0.872  -0.766   0.558  0.00  0.00    -0.006 NA
ATOM     14  N   UNL d   1       0.242  -1.557   0.542  0.00  0.00    -0.264 N 
ATOM     15  HN  UNL d   1       0.316  -2.518   0.875  1.00  0.00     0.186 HD
BRANCH  11  16
ATOM     16  C   UNL d   1       1.255   1.531  -1.017  0.00  0.00     0.062 A 
ATOM     17  C   UNL d   1       0.836   2.862  -0.791  0.00  0.00    -0.033 A 
ATOM     18  C   UNL d   1       1.326   3.879  -1.640  0.00  0.00     0.015 A 
ATOM     19  C   UNL d   1      -0.070   3.324   0.322  0.00  0.00     0.050 C 
ATOM     20  C   UNL d   1       2.236   3.609  -2.668  0.00  0.00    -0.061 A 
ATOM     21  C   UNL d   1       2.684   2.303  -2.842  0.00  0.00     0.009 A 
ATOM     22  C   UNL d   1       2.690   4.710  -3.580  0.00  0.00     0.048 C 
ATOM     23  C   UNL d   1       2.194   1.274  -2.033  0.00  0.00     0.032 A 
ENDBRANCH  11  16
ENDBRANCH   9  10
ENDBRANCH   8   9
ENDBRANCH   6   8
BRANCH   3  24
ATOM     24  C   UNL d   1       0.063  -3.649  -4.417  0.00  0.00     0.012 A 
ATOM     25  C   UNL d   1      -0.001  -4.516  -5.519  0.00  0.00     0.051 A 
ATOM     26  C   UNL d   1      -0.956  -4.298  -6.524  0.00  0.00     0.103 A 
ATOM     27  C   UNL d   1      -1.851  -3.223  -6.442  0.00  0.00     0.036 A 
ATOM     28  C   UNL d   1      -1.792  -2.365  -5.346  0.00  0.00     0.003 A 
ATOM     29  C   UNL d   1      -0.843  -2.577  -4.342  0.00  0.00     0.015 A 
BRANCH  26  30
ATOM     30  N   UNL d   1      -1.019  -5.205  -7.678  0.00  0.00    -0.116 N 
ATOM     31  O   UNL d   1      -0.211  -6.144  -7.714  0.00  0.00    -0.532 OA
ATOM     32  O   UNL d   1      -1.872  -4.976  -8.546  0.00  0.00    -0.532 OA
ENDBRANCH  26  30
ENDBRANCH   3  24
TORSDOF 6
