REMARK  4 active torsions:
REMARK  status: ('A' for Active; 'I' for Inactive)
REMARK    1  A    between atoms: C_14  and  C_3 
REMARK    2  A    between atoms: N_16  and  C_15 
REMARK    3  A    between atoms: C_22  and  N_16 
REMARK    4  A    between atoms: C_21  and  C_22 
ROOT
ATOM      1  N   UNL d   1      10.906  -0.802  -3.820  0.00  0.00    -0.197 NA
ATOM      2  C   UNL d   1       9.782  -0.529  -3.884  0.00  0.00     0.060 C 
ATOM      3  C   UNL d   1       8.365  -0.162  -3.965  0.00  0.00     0.143 C 
ENDROOT
BRANCH   3   4
ATOM      4  C   UNL d   1       8.223   1.362  -4.054  0.00  0.00     0.136 C 
BRANCH   4   5
ATOM      5  N   UNL d   1       6.817   1.769  -4.205  0.00  0.00    -0.384 N 
ATOM      6  C   UNL d   1       6.567   2.870  -5.138  0.00  0.00     0.149 C 
BRANCH   5   7
ATOM      7  C   UNL d   1       5.887   1.576  -3.188  0.00  0.00     0.029 A 
ATOM      8  C   UNL d   1       6.222   1.451  -1.832  0.00  0.00     0.030 A 
ATOM      9  C   UNL d   1       5.257   1.161  -0.849  0.00  0.00     0.011 A 
ATOM     10  C   UNL d   1       3.915   0.976  -1.200  0.00  0.00    -0.035 A 
ATOM     11  C   UNL d   1       3.567   1.148  -2.551  0.00  0.00     0.011 A 
ATOM     12  C   UNL d   1       4.533   1.436  -3.518  0.00  0.00     0.030 A 
BRANCH  10  13
ATOM     13  C   UNL d   1       2.846   0.587  -0.172  0.00  0.00     0.141 C 
ATOM     14  S   UNL d   1       2.140  -1.036  -0.691  0.00  0.00    -0.144 SA
ATOM     15  C   UNL d   1       1.022  -1.440   0.676  0.00  0.00     0.114 C 
ATOM     16  C   UNL d   1      -0.331  -0.804   0.488  0.00  0.00    -0.041 A 
ATOM     17  C   UNL d   1      -0.534   0.558   0.755  0.00  0.00    -0.041 A 
ATOM     18  C   UNL d   1      -1.395  -1.560  -0.036  0.00  0.00     0.015 A 
ATOM     19  C   UNL d   1       0.578   1.426   1.281  0.00  0.00     0.114 C 
ATOM     20  C   UNL d   1      -1.777   1.139   0.447  0.00  0.00     0.015 A 
ATOM     21  S   UNL d   1       1.661   1.982  -0.052  0.00  0.00    -0.144 SA
ATOM     22  C   UNL d   1      -2.834   0.388  -0.091  0.00  0.00    -0.056 A 
ATOM     23  C   UNL d   1      -2.649  -0.986  -0.315  0.00  0.00    -0.056 A 
ATOM     24  C   UNL d   1      -4.126   1.086  -0.417  0.00  0.00     0.049 C 
ATOM     25  C   UNL d   1      -3.727  -1.883  -0.862  0.00  0.00     0.049 C 
ENDBRANCH  10  13
ENDBRANCH   5   7
ENDBRANCH   4   5
ENDBRANCH   3   4
TORSDOF 4
