REMARK  6 active torsions:
REMARK  status: ('A' for Active; 'I' for Inactive)
REMARK    1  A    between atoms: C_6  and  C_1 
REMARK    2  A    between atoms: N_8  and  C_2 
REMARK       I    between atoms: C_9  and  N_8 
REMARK       I    between atoms: N_12  and  C_9 
REMARK    3  A    between atoms: C_10  and  N_13 
REMARK    4  A    between atoms: N_11  and  C_10 
REMARK    5  A    between atoms: C_17  and  N_11 
REMARK    6  A    between atoms: N_13  and  N_12 
ROOT
ATOM      1  N   UNL d   1       0.195  -2.297   0.152  0.00  0.00    -0.303 N 
ATOM      2  C   UNL d   1       1.486  -2.751   0.081  0.00  0.00     0.339 C 
ATOM      3  N   UNL d   1       2.526  -1.859   0.075  0.00  0.00    -0.249 N 
ATOM      4  O   UNL d   1       1.675  -3.965  -0.044  0.00  0.00    -0.245 OA
ATOM      5  H   UNL d   1      -0.436  -3.028  -0.160  0.00  0.00     0.171 HD
ATOM      6  H   UNL d   1       2.393  -0.855  -0.022  0.00  0.00     0.192 HD
ENDROOT
BRANCH   1   7
ATOM      7  C   UNL d   1      -0.226  -0.992  -0.067  0.00  0.00     0.097 C 
ATOM      8  C   UNL d   1      -1.159  -0.503  -1.046  0.00  0.00     0.096 C 
ATOM      9  N   UNL d   1      -1.244   0.833  -0.940  0.00  0.00    -0.258 N 
ATOM     10  O   UNL d   1      -0.567   1.186   0.202  0.00  0.00    -0.240 OA
ATOM     11  HN  UNL d   1      -1.721   1.464  -1.584  1.00  0.00     0.195 HD
ATOM     12  C   UNL d   1      -0.004   0.086   0.757  0.00  0.00     0.101 C 
ATOM     13  C   UNL d   1       0.551   0.278   2.110  0.00  0.00     0.081 C 
BRANCH   8  14
ATOM     14  C   UNL d   1      -1.913  -1.233  -2.079  0.00  0.00     0.017 A 
ATOM     15  C   UNL d   1      -3.217  -0.870  -2.480  0.00  0.00     0.046 A 
ATOM     16 CL   UNL d   1      -4.114   0.442  -1.789  0.00  0.00    -0.083 Cl
ATOM     17  C   UNL d   1      -3.896  -1.610  -3.461  0.00  0.00     0.025 A 
ATOM     18  C   UNL d   1      -3.308  -2.732  -4.036  0.00  0.00     0.002 A 
ATOM     19  C   UNL d   1      -2.030  -3.112  -3.647  0.00  0.00     0.001 A 
ATOM     20  C   UNL d   1      -1.333  -2.364  -2.690  0.00  0.00     0.015 A 
ENDBRANCH   8  14
ENDBRANCH   1   7
BRANCH   3  21
ATOM     21  N   UNL d   1       3.782  -2.371  -0.354  0.00  0.00    -0.272 N 
ATOM     22  H   UNL d   1       3.829  -3.380  -0.398  0.00  0.00     0.189 HD
BRANCH  21  23
ATOM     23  C   UNL d   1       4.724  -1.584  -0.966  0.00  0.00     0.187 C 
ATOM     24  S   UNL d   1       4.715   0.088  -0.932  0.00  0.00    -0.040 SA
BRANCH  23  25
ATOM     25  N   UNL d   1       5.728  -2.195  -1.655  0.00  0.00    -0.358 N 
ATOM     26  H   UNL d   1       6.383  -1.515  -2.031  0.00  0.00     0.162 HD
BRANCH  25  27
ATOM     27  C   UNL d   1       5.909  -3.580  -2.156  0.00  0.00     0.021 C 
ATOM     28  C   UNL d   1       4.657  -4.056  -2.911  0.00  0.00     0.037 C 
ATOM     29  C   UNL d   1       7.085  -3.574  -3.159  0.00  0.00     0.037 C 
ATOM     30  C   UNL d   1       6.270  -4.555  -1.025  0.00  0.00     0.037 C 
ENDBRANCH  25  27
ENDBRANCH  23  25
ENDBRANCH  21  23
ENDBRANCH   3  21
TORSDOF 6
