REMARK  2 active torsions:
REMARK  status: ('A' for Active; 'I' for Inactive)
REMARK    1  A    between atoms: O_6  and  C_1 
REMARK    2  A    between atoms: C_9  and  O_6 
ROOT
ATOM      1  C   UNL d   1      -0.475   4.061   1.175  0.00  0.00    -0.091 C 
ATOM      2  C   UNL d   1      -0.041   5.098   1.594  0.00  0.00     0.014 C 
ATOM      3  C   UNL d   1      -1.060   2.803   0.682  0.00  0.00     0.268 C 
ENDROOT
BRANCH   3   4
ATOM      4  O   UNL d   1      -0.078   2.068  -0.047  0.00  0.00    -0.336 OA
BRANCH   4   5
ATOM      5  C   UNL d   1      -0.131   0.697   0.010  0.00  0.00     0.113 A 
ATOM      6  C   UNL d   1      -1.286  -0.101  -0.032  0.00  0.00     0.069 A 
ATOM      7 CL   UNL d   1      -2.892   0.519  -0.207  0.00  0.00    -0.081 Cl
ATOM      8  C   UNL d   1      -1.185  -1.502  -0.002  0.00  0.00     0.027 A 
ATOM      9  C   UNL d   1       0.057  -2.128   0.034  0.00  0.00     0.003 A 
ATOM     10  C   UNL d   1       1.212  -1.354   0.039  0.00  0.00     0.027 A 
ATOM     11  C   UNL d   1       1.119   0.043   0.025  0.00  0.00     0.069 A 
ATOM     12 CL   UNL d   1       2.604   0.934   0.029  0.00  0.00    -0.081 Cl
ENDBRANCH   4   5
ENDBRANCH   3   4
TORSDOF 2
