REMARK  2 active torsions:
REMARK  status: ('A' for Active; 'I' for Inactive)
REMARK    1  A    between atoms: C_2  and  C_1 
REMARK    2  A    between atoms: O_6  and  C_1 
ROOT
ATOM      1  C   UNL d   1       1.104  -0.008   0.535  0.00  0.00     0.089 C 
ATOM      2  O   UNL d   1      -1.703  -0.048  -0.156  0.00  0.00    -0.391 OA
ATOM      3  C   UNL d   1       0.239  -1.281   0.597  0.00  0.00     0.069 C 
ATOM      4  C   UNL d   1       0.205   1.236   0.624  0.00  0.00     0.069 C 
ATOM      5  C   UNL d   1      -0.907  -1.206  -0.406  0.00  0.00     0.171 C 
ATOM      6  C   UNL d   1      -0.957   1.153  -0.356  0.00  0.00     0.171 C 
ENDROOT
BRANCH   1   7
ATOM      7  C   UNL d   1       2.202   0.081   1.601  0.00  0.00    -0.024 A 
ATOM      8  C   UNL d   1       3.385   0.800   1.334  0.00  0.00     0.010 A 
ATOM      9  C   UNL d   1       4.374   0.958   2.308  0.00  0.00     0.001 A 
ATOM     10  C   UNL d   1       4.197   0.414   3.575  0.00  0.00     0.000 A 
ATOM     11  C   UNL d   1       3.036  -0.298   3.863  0.00  0.00     0.001 A 
ATOM     12  C   UNL d   1       2.049  -0.462   2.886  0.00  0.00     0.010 A 
ENDBRANCH   1   7
BRANCH   1  13
ATOM     13  O   UNL d   1       1.728  -0.015  -0.762  0.00  0.00    -0.385 OA
ATOM     14  H   UNL d   1       2.479  -0.633  -0.711  0.00  0.00     0.211 HD
ENDBRANCH   1  13
TORSDOF 2
