REMARK  5 active torsions:
REMARK  status: ('A' for Active; 'I' for Inactive)
REMARK    1  A    between atoms: C_3  and  C_1 
REMARK    2  A    between atoms: N_4  and  C_2 
REMARK       I    between atoms: C_6  and  N_5 
REMARK    3  A    between atoms: C_7  and  C_6 
REMARK    4  A    between atoms: C_11  and  C_8 
REMARK    5  A    between atoms: O_22  and  C_11 
ROOT
ATOM      1  N   UNL d   1      -1.583   2.368  -0.120  0.00  0.00    -0.363 N 
ATOM      2  N   UNL d   1      -2.624   4.808   0.993  0.00  0.00    -0.346 N 
ATOM      3  C   UNL d   1      -3.657   5.729   1.020  0.00  0.00     0.243 C 
ATOM      4  C   UNL d   1      -1.604   3.591  -0.936  0.00  0.00     0.144 C 
ATOM      5  C   UNL d   1      -2.517   2.334   1.020  0.00  0.00     0.144 C 
ATOM      6  C   UNL d   1      -2.433   3.626   1.852  0.00  0.00     0.146 C 
ATOM      7  C   UNL d   1      -1.633   4.879  -0.085  0.00  0.00     0.146 C 
ATOM      8  O   UNL d   1      -3.757   6.633   0.189  0.00  0.00    -0.268 OA
ENDROOT
BRANCH   1   9
ATOM      9  C   UNL d   1      -0.670   1.348  -0.250  0.00  0.00     0.118 A 
ATOM     10  C   UNL d   1      -0.276   0.761  -1.455  0.00  0.00     0.091 A 
ATOM     11  C   UNL d   1       0.655  -0.308  -1.414  0.00  0.00     0.021 A 
ATOM     12  C   UNL d   1       1.165  -0.769  -0.215  0.00  0.00     0.018 A 
ATOM     13  C   UNL d   1       0.727  -0.144   0.924  0.00  0.00     0.089 A 
ATOM     14  N   UNL d   1      -0.163   0.877   0.922  0.00  0.00    -0.352 N 
ATOM     15  HN  UNL d   1      -0.456   1.296   1.805  1.00  0.00     0.166 HD
BRANCH  10  16
ATOM     16  C   UNL d   1      -0.791   1.096  -2.825  0.00  0.00     0.421 C 
ATOM     17  F   UNL d   1      -1.786   2.012  -2.927  0.00  0.00    -0.166 F 
ATOM     18  F   UNL d   1       0.210   1.561  -3.632  0.00  0.00    -0.166 F 
ATOM     19  F   UNL d   1      -1.276  -0.009  -3.468  0.00  0.00    -0.166 F 
ENDBRANCH  10  16
ENDBRANCH   1   9
BRANCH   3  20
ATOM     20  C   UNL d   1      -4.679   5.622   2.089  0.00  0.00     0.081 C 
ATOM     21  C   UNL d   1      -5.669   6.523   2.154  0.00  0.00     0.086 C 
BRANCH  21  22
ATOM     22  C   UNL d   1      -6.671   6.401   3.224  0.00  0.00     0.165 C 
ATOM     23  O   UNL d   1      -6.668   5.523   4.069  0.00  0.00    -0.647 OA
BRANCH  22  24
ATOM     24  O   UNL d   1      -7.604   7.371   3.168  0.00  0.00    -0.773 OA
ATOM     25  H   UNL d   1      -7.498   8.016   2.446  0.00  0.00     0.167 HD
ENDBRANCH  22  24
ENDBRANCH  21  22
ENDBRANCH   3  20
TORSDOF 5
