REMARK  2 active torsions:
REMARK  status: ('A' for Active; 'I' for Inactive)
REMARK    1  A    between atoms: C_2  and  N_1 
REMARK       I    between atoms: C_3  and  N_1 
REMARK    2  A    between atoms: C_5  and  C_3 
ROOT
ATOM      1  C   UNL d   1       0.317   0.776  -1.096  0.00  0.00     0.095 A 
ATOM      2  C   UNL d   1       0.576   0.634  -2.472  0.00  0.00     0.077 A 
ATOM      3  C   UNL d   1      -0.739   1.604  -0.688  0.00  0.00     0.147 A 
ATOM      4  C   UNL d   1       1.492  -0.343  -2.991  0.00  0.00     0.102 C 
ATOM      5  N   UNL d   1       2.173  -1.165  -3.450  0.00  0.00    -0.191 NA
ATOM      6  C   UNL d   1      -1.480   2.344  -1.598  0.00  0.00     0.087 A 
ATOM      7  C   UNL d   1      -0.182   1.372  -3.394  0.00  0.00     0.067 A 
ATOM      8  C   UNL d   1      -1.186   2.226  -2.947  0.00  0.00     0.120 A 
ATOM      9  F   UNL d   1      -1.016   1.721   0.621  0.00  0.00    -0.204 F 
ATOM     10  F   UNL d   1      -1.897   2.927  -3.839  0.00  0.00    -0.206 F 
ENDROOT
BRANCH   1  11
ATOM     11  N   UNL d   1       1.040   0.119  -0.074  0.00  0.00    -0.319 N 
ATOM     12  C   UNL d   1       2.427   0.115  -0.010  0.00  0.00     0.263 C 
ATOM     13  O   UNL d   1       3.122   0.703  -0.835  0.00  0.00    -0.267 OA
ATOM     14  H   UNL d   1       0.584   0.041   0.832  0.00  0.00     0.169 HD
BRANCH  12  15
ATOM     15  C   UNL d   1       2.995  -0.552   1.156  0.00  0.00     0.072 A 
ATOM     16  S   UNL d   1       2.044  -1.497   2.226  0.00  0.00    -0.097 SA
ATOM     17  C   UNL d   1       3.397  -1.893   3.192  0.00  0.00     0.050 A 
ATOM     18  C   UNL d   1       4.553  -1.311   2.724  0.00  0.00     0.009 A 
ATOM     19  C   UNL d   1       4.322  -0.541   1.548  0.00  0.00     0.025 A 
ENDBRANCH  12  15
ENDBRANCH   1  11
TORSDOF 2
