REMARK  6 active torsions:
REMARK  status: ('A' for Active; 'I' for Inactive)
REMARK    1  A    between atoms: C_7  and  C_1 
REMARK    2  A    between atoms: C_8  and  C_2 
REMARK    3  A    between atoms: O_12  and  C_3 
REMARK    4  A    between atoms: O_11  and  C_4 
REMARK    5  A    between atoms: N_9  and  C_7 
REMARK    6  A    between atoms: N_10  and  C_8 
ROOT
ATOM      1  C   UNL d   1       0.323   1.343  -0.052  0.00  0.00     0.017 A 
ATOM      2  C   UNL d   1       0.610  -1.498  -0.005  0.00  0.00     0.017 A 
ATOM      3  C   UNL d   1       1.577   0.733   0.017  0.00  0.00     0.108 A 
ATOM      4  C   UNL d   1       1.720  -0.655   0.021  0.00  0.00     0.108 A 
ATOM      5  C   UNL d   1      -0.840   0.501  -0.039  0.00  0.00    -0.014 A 
ATOM      6  C   UNL d   1      -0.687  -0.921   0.002  0.00  0.00    -0.014 A 
ATOM      7  C   UNL d   1      -2.173   1.002  -0.035  0.00  0.00     0.013 A 
ATOM      8  C   UNL d   1      -1.854  -1.732   0.050  0.00  0.00     0.013 A 
ATOM      9  C   UNL d   1      -3.298   0.174  -0.009  0.00  0.00     0.001 A 
ATOM     10  C   UNL d   1      -3.134  -1.203   0.040  0.00  0.00     0.001 A 
ENDROOT
BRANCH   1  11
ATOM     11  C   UNL d   1       0.216   2.865  -0.030  0.00  0.00     0.315 C 
BRANCH  11  12
ATOM     12  N   UNL d   1       1.365   3.595  -0.665  0.00  0.00     0.092 N 
ATOM     13  C   UNL d   1       1.314   3.413  -2.135  0.00  0.00     0.272 C 
ATOM     14  C   UNL d   1       2.273   4.317  -2.911  0.00  0.00     0.030 C 
ATOM     15  C   UNL d   1       2.092   5.779  -2.538  0.00  0.00     0.003 C 
ATOM     16  C   UNL d   1       2.224   5.949  -1.034  0.00  0.00     0.030 C 
ATOM     17  C   UNL d   1       1.278   5.017  -0.273  0.00  0.00     0.272 C 
ENDBRANCH  11  12
ENDBRANCH   1  11
BRANCH   3  18
ATOM     18  O   UNL d   1       2.752   1.445   0.082  0.00  0.00    -0.357 OA
ATOM     19  H   UNL d   1       2.515   2.389  -0.079  0.00  0.00     0.217 HD
ENDBRANCH   3  18
BRANCH   4  20
ATOM     20  O   UNL d   1       2.996  -1.157   0.052  0.00  0.00    -0.357 OA
ATOM     21  H   UNL d   1       3.564  -0.356   0.065  0.00  0.00     0.217 HD
ENDBRANCH   4  20
BRANCH   2  22
ATOM     22  C   UNL d   1       0.826  -3.002   0.043  0.00  0.00     0.315 C 
BRANCH  22  23
ATOM     23  N   UNL d   1       0.213  -3.761  -1.079  0.00  0.00     0.092 N 
ATOM     24  C   UNL d   1       0.881  -3.434  -2.347  0.00  0.00     0.272 C 
ATOM     25  C   UNL d   1       0.484  -4.350  -3.506  0.00  0.00     0.030 C 
ATOM     26  C   UNL d   1       0.655  -5.814  -3.133  0.00  0.00     0.003 C 
ATOM     27  C   UNL d   1      -0.169  -6.112  -1.891  0.00  0.00     0.030 C 
ATOM     28  C   UNL d   1       0.232  -5.191  -0.741  0.00  0.00     0.272 C 
ENDBRANCH  22  23
ENDBRANCH   2  22
TORSDOF 6
