REMARK  5 active torsions:
REMARK  status: ('A' for Active; 'I' for Inactive)
REMARK    1  A    between atoms: N_2  and  S_1 
REMARK    2  A    between atoms: C_10  and  S_1 
REMARK    3  A    between atoms: C_3  and  N_8 
REMARK    4  A    between atoms: C_4  and  C_5 
REMARK    5  A    between atoms: C_19  and  C_20 
ROOT
ATOM      1  N   UNL d   1       0.473  -1.253  -0.178  0.00  0.00    -0.304 N 
ATOM      2  N   UNL d   1      -1.220  -2.571   1.776  0.00  0.00    -0.265 NA
ATOM      3  C   UNL d   1      -0.968  -0.887  -0.010  0.00  0.00     0.150 C 
ATOM      4  C   UNL d   1       0.748  -2.649   0.292  0.00  0.00     0.150 C 
ATOM      5  C   UNL d   1       0.221  -2.909   1.720  0.00  0.00     0.117 C 
ATOM      6  C   UNL d   1      -1.448  -1.146   1.436  0.00  0.00     0.117 C 
ENDROOT
BRANCH   1   7
ATOM      7  S   UNL d   1       1.610  -0.056   0.216  0.00  0.00     0.260 S 
ATOM      8  O   UNL d   1       2.913  -0.666   0.348  0.00  0.00    -0.200 OA
ATOM      9  O   UNL d   1       1.050   0.774   1.262  0.00  0.00    -0.200 OA
BRANCH   7  10
ATOM     10  C   UNL d   1       1.641   0.897  -1.290  0.00  0.00     0.079 A 
ATOM     11  C   UNL d   1       1.225   2.225  -1.315  0.00  0.00     0.026 A 
ATOM     12  C   UNL d   1       1.218   2.924  -2.530  0.00  0.00     0.009 A 
ATOM     13  C   UNL d   1       1.606   2.308  -3.740  0.00  0.00    -0.051 A 
ATOM     14  C   UNL d   1       2.092   0.990  -3.662  0.00  0.00     0.009 A 
ATOM     15  C   UNL d   1       2.104   0.285  -2.454  0.00  0.00     0.026 A 
BRANCH  13  16
ATOM     16  C   UNL d   1       1.503   3.049  -5.090  0.00  0.00    -0.024 C 
ATOM     17  C   UNL d   1       1.348   2.077  -6.285  0.00  0.00     0.019 C 
ATOM     18  C   UNL d   1       0.272   3.986  -5.137  0.00  0.00     0.019 C 
ATOM     19  C   UNL d   1       2.772   3.892  -5.313  0.00  0.00     0.019 C 
ENDBRANCH  13  16
ENDBRANCH   7  10
ENDBRANCH   1   7
BRANCH   2  20
ATOM     20  C   UNL d   1      -1.867  -2.932   2.975  0.00  0.00     0.104 A 
ATOM     21  N   UNL d   1      -1.120  -3.111   4.095  0.00  0.00    -0.354 N 
ATOM     22  C   UNL d   1      -1.756  -3.413   5.257  0.00  0.00     0.105 A 
ATOM     23  HN  UNL d   1      -0.105  -3.020   4.064  1.00  0.00     0.166 HD
ATOM     24  C   UNL d   1      -3.128  -3.555   5.382  0.00  0.00     0.065 A 
ATOM     25  C   UNL d   1      -3.891  -3.405   4.226  0.00  0.00     0.044 A 
ATOM     26  C   UNL d   1      -3.264  -3.104   3.017  0.00  0.00     0.073 A 
ATOM     27 CL   UNL d   1      -4.264  -3.018   1.605  0.00  0.00    -0.081 Cl
BRANCH  24  28
ATOM     28  C   UNL d   1      -3.740  -3.870   6.712  0.00  0.00     0.418 C 
ATOM     29  F   UNL d   1      -5.098  -3.956   6.674  0.00  0.00    -0.166 F 
ATOM     30  F   UNL d   1      -3.306  -5.056   7.220  0.00  0.00    -0.166 F 
ATOM     31  F   UNL d   1      -3.453  -2.930   7.653  0.00  0.00    -0.166 F 
ENDBRANCH  24  28
ENDBRANCH   2  20
TORSDOF 5
