REMARK  9 active torsions:
REMARK  status: ('A' for Active; 'I' for Inactive)
REMARK    1  A    between atoms: N_6  and  C_1 
REMARK    2  A    between atoms: N_4  and  C_2 
REMARK    3  A    between atoms: N_5  and  C_3 
REMARK    4  A    between atoms: C_13  and  N_6 
REMARK    5  A    between atoms: C_7  and  C_8 
REMARK    6  A    between atoms: N_11  and  C_21 
REMARK    7  A    between atoms: C_16  and  C_14 
REMARK    8  A    between atoms: O_26  and  C_15 
REMARK    9  A    between atoms: O_27  and  C_22 
ROOT
ATOM      1  C   UNL d   1       3.332  -1.846   0.335  0.00  0.00     0.059 A 
ATOM      2  C   UNL d   1       3.124  -2.720  -0.767  0.00  0.00     0.059 A 
ATOM      3  C   UNL d   1       4.177  -2.256   1.382  0.00  0.00     0.032 A 
ATOM      4  C   UNL d   1       3.833  -3.937  -0.796  0.00  0.00     0.032 A 
ATOM      5  C   UNL d   1       4.824  -3.491   1.349  0.00  0.00     0.002 A 
ATOM      6  C   UNL d   1       4.658  -4.330   0.257  0.00  0.00     0.002 A 
ENDROOT
BRANCH   1   7
ATOM      7  N   UNL d   1       2.723  -0.557   0.352  0.00  0.00    -0.350 N 
ATOM      8  H   UNL d   1       1.728  -0.663   0.115  0.00  0.00     0.166 HD
BRANCH   7   9
ATOM      9  C   UNL d   1       3.053   0.602   1.097  0.00  0.00     0.099 A 
ATOM     10  C   UNL d   1       4.373   1.110   1.164  0.00  0.00     0.132 A 
ATOM     11  C   UNL d   1       4.737   2.239   1.927  0.00  0.00     0.054 A 
ATOM     12  C   UNL d   1       3.777   2.931   2.669  0.00  0.00     0.052 A 
ATOM     13  C   UNL d   1       2.458   2.457   2.635  0.00  0.00     0.054 A 
ATOM     14  C   UNL d   1       2.101   1.314   1.871  0.00  0.00     0.132 A 
BRANCH  10  15
ATOM     15  N   UNL d   1       5.448   0.533   0.373  0.00  0.00    -0.113 N 
ATOM     16  O   UNL d   1       5.368   0.644  -0.858  0.00  0.00    -0.532 OA
ATOM     17  O   UNL d   1       6.414   0.074   0.999  0.00  0.00    -0.532 OA
ENDBRANCH  10  15
BRANCH  12  18
ATOM     18  C   UNL d   1       4.168   4.154   3.470  0.00  0.00     0.417 C 
ATOM     19  F   UNL d   1       3.120   4.740   4.109  0.00  0.00    -0.166 F 
ATOM     20  F   UNL d   1       5.085   3.864   4.433  0.00  0.00    -0.166 F 
ATOM     21  F   UNL d   1       4.726   5.120   2.693  0.00  0.00    -0.166 F 
ENDBRANCH  12  18
BRANCH  14  22
ATOM     22  N   UNL d   1       0.684   0.893   1.939  0.00  0.00    -0.113 N 
ATOM     23  O   UNL d   1       0.333  -0.103   1.298  0.00  0.00    -0.532 OA
ATOM     24  O   UNL d   1      -0.081   1.573   2.642  0.00  0.00    -0.532 OA
ENDBRANCH  14  22
ENDBRANCH   7   9
ENDBRANCH   1   7
BRANCH   2  25
ATOM     25  N   UNL d   1       2.290  -2.337  -1.856  0.00  0.00    -0.363 N 
ATOM     26  C   UNL d   1       1.624  -3.273  -2.467  0.00  0.00     0.102 C 
ATOM     27  HN  UNL d   1       2.217  -1.362  -2.147  1.00  0.00     0.165 HD
BRANCH  26  28
ATOM     28  C   UNL d   1       0.831  -3.032  -3.693  0.00  0.00     0.015 A 
ATOM     29  C   UNL d   1       0.621  -1.748  -4.223  0.00  0.00     0.110 A 
ATOM     30  C   UNL d   1      -0.135  -1.600  -5.396  0.00  0.00     0.102 A 
ATOM     31  C   UNL d   1      -0.664  -2.743  -6.017  0.00  0.00     0.040 A 
ATOM     32  C   UNL d   1      -0.444  -4.017  -5.497  0.00  0.00     0.004 A 
ATOM     33  C   UNL d   1       0.307  -4.164  -4.337  0.00  0.00     0.016 A 
BRANCH  29  34
ATOM     34  O   UNL d   1       1.156  -0.654  -3.590  0.00  0.00    -0.357 OA
ATOM     35  H   UNL d   1       1.738  -0.976  -2.865  0.00  0.00     0.217 HD
ENDBRANCH  29  34
BRANCH  30  36
ATOM     36  O   UNL d   1      -0.451  -0.452  -6.072  0.00  0.00    -0.353 OA
ATOM     37  C   UNL d   1       0.050   0.780  -5.577  0.00  0.00     0.210 C 
ENDBRANCH  30  36
ENDBRANCH  26  28
ENDBRANCH   2  25
TORSDOF 9
