REMARK  6 active torsions:
REMARK  status: ('A' for Active; 'I' for Inactive)
REMARK    1  A    between atoms: C_2  and  C_1 
REMARK       I    between atoms: N_5  and  C_1 
REMARK    2  A    between atoms: C_17  and  N_5 
REMARK    3  A    between atoms: C_7  and  C_14 
REMARK    4  A    between atoms: S_9  and  C_18 
REMARK    5  A    between atoms: C_14  and  S_9 
REMARK    6  A    between atoms: C_18  and  C_17 
ROOT
ATOM      1  C   UNL d   1       4.883   0.423  -0.471  0.00  0.00     0.093 C 
ENDROOT
BRANCH   1   2
ATOM      2  S   UNL d   1       5.708   1.208  -1.914  0.00  0.00    -0.163 SA
BRANCH   2   3
ATOM      3  C   UNL d   1       5.114   2.919  -1.726  0.00  0.00     0.112 C 
BRANCH   3   4
ATOM      4  C   UNL d   1       5.548   3.803  -2.870  0.00  0.00    -0.049 A 
ATOM      5  C   UNL d   1       4.748   3.925  -4.019  0.00  0.00     0.009 A 
ATOM      6  C   UNL d   1       5.129   4.768  -5.066  0.00  0.00     0.024 A 
ATOM      7  C   UNL d   1       6.316   5.489  -4.974  0.00  0.00     0.034 A 
ATOM      8  C   UNL d   1       7.129   5.369  -3.849  0.00  0.00     0.024 A 
ATOM      9 CL   UNL d   1       6.780   6.538  -6.257  0.00  0.00    -0.084 Cl
ATOM     10  C   UNL d   1       6.749   4.525  -2.802  0.00  0.00     0.009 A 
ENDBRANCH   3   4
ENDBRANCH   2   3
ENDBRANCH   1   2
BRANCH   1  11
ATOM     11  C   UNL d   1       3.360   0.472  -0.598  0.00  0.00     0.133 C 
BRANCH  11  12
ATOM     12  N   UNL d   1       2.633  -0.292   0.398  0.00  0.00    -0.357 N 
ATOM     13  C   UNL d   1       2.473   0.171   1.686  0.00  0.00     0.241 C 
ATOM     14  O   UNL d   1       3.130   1.084   2.164  0.00  0.00    -0.269 OA
ATOM     15  H   UNL d   1       1.992  -0.992   0.048  0.00  0.00     0.162 HD
BRANCH  13  16
ATOM     16  C   UNL d   1       1.350  -0.522   2.392  0.00  0.00     0.076 C 
ATOM     17  C   UNL d   1       0.936  -0.376   3.667  0.00  0.00    -0.082 C 
ATOM     18  C   UNL d   1       1.558   0.494   4.724  0.00  0.00     0.043 C 
ATOM     19  C   UNL d   1      -0.278  -1.131   4.148  0.00  0.00     0.043 C 
ENDBRANCH  13  16
ENDBRANCH  11  12
ENDBRANCH   1  11
TORSDOF 6
