REMARK  6 active torsions:
REMARK  status: ('A' for Active; 'I' for Inactive)
REMARK    1  A    between atoms: C_8  and  N_1 
REMARK    2  A    between atoms: C_7  and  N_3 
REMARK    3  A    between atoms: C_21  and  C_8 
REMARK    4  A    between atoms: O_25  and  C_10 
REMARK    5  A    between atoms: O_26  and  C_15 
REMARK    6  A    between atoms: C_20  and  C_21 
ROOT
ATOM      1  N   UNL d   1      -0.433   0.952  -0.036  0.00  0.00    -0.297 N 
ATOM      2  C   UNL d   1      -0.732   0.069  -1.048  0.00  0.00     0.150 C 
ATOM      3  N   UNL d   1      -1.537   0.375  -2.007  0.00  0.00    -0.337 N 
ATOM      4  HN  UNL d   1      -1.917   1.321  -2.023  1.00  0.00     0.168 HD
ATOM      5  C   UNL d   1       0.286   0.452   1.030  0.00  0.00     0.235 C 
ATOM      6  S   UNL d   1       0.134  -1.428  -0.799  0.00  0.00    -0.084 SA
ATOM      7  C   UNL d   1       0.532  -1.026   0.906  0.00  0.00     0.185 C 
ATOM      8  O   UNL d   1       0.658   1.101   2.003  0.00  0.00    -0.272 OA
ENDROOT
BRANCH   1   9
ATOM      9  C   UNL d   1      -0.755   2.378  -0.114  0.00  0.00     0.138 C 
BRANCH   9  10
ATOM     10  C   UNL d   1      -2.255   2.687  -0.070  0.00  0.00     0.059 C 
BRANCH  10  11
ATOM     11  C   UNL d   1      -2.526   4.173  -0.132  0.00  0.00    -0.054 A 
ATOM     12  C   UNL d   1      -2.627   4.826  -1.374  0.00  0.00     0.046 A 
ATOM     13  C   UNL d   1      -2.870   6.207  -1.458  0.00  0.00     0.102 A 
ATOM     14  C   UNL d   1      -3.036   6.938  -0.270  0.00  0.00     0.101 A 
ATOM     15  C   UNL d   1      -2.905   6.291   0.966  0.00  0.00     0.040 A 
ATOM     16  C   UNL d   1      -2.653   4.921   1.039  0.00  0.00     0.010 A 
BRANCH  13  17
ATOM     17  O   UNL d   1      -2.925   6.894  -2.642  0.00  0.00    -0.353 OA
ATOM     18  C   UNL d   1      -2.705   6.176  -3.848  0.00  0.00     0.210 C 
ENDBRANCH  13  17
BRANCH  14  19
ATOM     19  O   UNL d   1      -3.267   8.286  -0.152  0.00  0.00    -0.353 OA
ATOM     20  C   UNL d   1      -4.066   8.887  -1.164  0.00  0.00     0.210 C 
ENDBRANCH  14  19
ENDBRANCH  10  11
ENDBRANCH   9  10
ENDBRANCH   1   9
BRANCH   3  21
ATOM     21  C   UNL d   1      -1.929  -0.504  -3.032  0.00  0.00     0.037 A 
ATOM     22  C   UNL d   1      -2.295  -1.837  -2.819  0.00  0.00     0.053 A 
ATOM     23  C   UNL d   1      -2.638  -2.665  -3.887  0.00  0.00     0.037 A 
ATOM     24 CL   UNL d   1      -2.946  -4.334  -3.600  0.00  0.00    -0.084 Cl
ATOM     25  C   UNL d   1      -2.726  -2.156  -5.176  0.00  0.00     0.048 A 
ATOM     26  C   UNL d   1      -2.467  -0.805  -5.382  0.00  0.00     0.037 A 
ATOM     27  C   UNL d   1      -2.062   0.014  -4.325  0.00  0.00     0.053 A 
ATOM     28 CL   UNL d   1      -2.658  -0.138  -6.957  0.00  0.00    -0.084 Cl
ENDBRANCH   3  21
TORSDOF 6
