REMARK  4 active torsions:
REMARK  status: ('A' for Active; 'I' for Inactive)
REMARK    1  A    between atoms: N_13  and  C_7 
REMARK    2  A    between atoms: C_16  and  N_13 
REMARK    3  A    between atoms: O_15  and  C_17 
REMARK    4  A    between atoms: C_17  and  C_16 
ROOT
ATOM      1  C   UNL d   1      -0.248   0.965  -0.001  0.00  0.00     0.065 A 
ATOM      2  C   UNL d   1       0.121  -0.370   0.010  0.00  0.00     0.137 A 
ATOM      3  N   UNL d   1       2.045   0.852  -0.037  0.00  0.00    -0.307 N 
ATOM      4  HN  UNL d   1       3.033   1.104  -0.050  1.00  0.00     0.186 HD
ATOM      5  N   UNL d   1       1.491  -0.383  -0.018  0.00  0.00    -0.281 N 
ATOM      6  C   UNL d   1       0.978   1.664  -0.035  0.00  0.00     0.126 A 
ATOM      7  C   UNL d   1      -1.618   1.261   0.018  0.00  0.00     0.096 A 
ATOM      8  N   UNL d   1      -0.703  -1.430   0.036  0.00  0.00    -0.337 N 
ATOM      9  HN  UNL d   1      -0.393  -2.402   0.045  1.00  0.00     0.168 HD
ATOM     10  N   UNL d   1      -2.479   0.212   0.057  0.00  0.00    -0.342 N 
ATOM     11  HN  UNL d   1      -3.486   0.372   0.090  1.00  0.00     0.167 HD
ATOM     12  C   UNL d   1      -1.988  -1.044   0.051  0.00  0.00     0.183 A 
ATOM     13  C   UNL d   1       2.345  -1.544  -0.032  0.00  0.00     0.179 C 
ENDROOT
BRANCH   7  14
ATOM     14  N   UNL d   1      -2.106   2.563  -0.040  0.00  0.00    -0.276 NA
ATOM     15  H   UNL d   1      -1.421   3.268   0.217  0.00  0.00     0.129 HD
BRANCH  14  16
ATOM     16  C   UNL d   1      -3.408   2.822   0.575  0.00  0.00     0.119 C 
BRANCH  16  17
ATOM     17  C   UNL d   1      -3.244   3.153   2.063  0.00  0.00     0.178 C 
BRANCH  17  18
ATOM     18  O   UNL d   1      -2.423   4.316   2.211  0.00  0.00    -0.400 OA
ATOM     19  H   UNL d   1      -2.396   4.521   3.162  0.00  0.00     0.209 HD
ENDBRANCH  17  18
ENDBRANCH  16  17
ENDBRANCH  14  16
ENDBRANCH   7  14
TORSDOF 4
