REMARK  9 active torsions:
REMARK  status: ('A' for Active; 'I' for Inactive)
REMARK    1  A    between atoms: N_4  and  C_1 
REMARK    2  A    between atoms: N_5  and  C_2 
REMARK    3  A    between atoms: N_25  and  C_3 
REMARK    4  A    between atoms: C_6  and  C_10 
REMARK    5  A    between atoms: C_16  and  C_7 
REMARK    6  A    between atoms: C_8  and  C_14 
REMARK    7  A    between atoms: C_9  and  C_13 
REMARK    8  A    between atoms: C_18  and  C_30 
REMARK    9  A    between atoms: N_22  and  N_25 
ROOT
ATOM      1  N   UNL d   1       2.415  -2.960   0.150  0.00  0.00    -0.309 N 
ATOM      2  HN  UNL d   1       2.975  -2.258   0.633  1.00  0.00     0.186 HD
ATOM      3  C   UNL d   1       2.955  -4.055  -0.288  0.00  0.00     0.144 C 
ENDROOT
BRANCH   1   4
ATOM      4  N   UNL d   1       1.099  -2.774  -0.048  0.00  0.00    -0.296 N 
ATOM      5  H   UNL d   1       0.445  -3.553  -0.176  0.00  0.00     0.187 HD
BRANCH   4   6
ATOM      6  C   UNL d   1       0.561  -1.492   0.205  0.00  0.00     0.114 A 
ATOM      7  C   UNL d   1      -0.643  -1.084  -0.408  0.00  0.00     0.134 A 
ATOM      8  C   UNL d   1      -1.143   0.235  -0.336  0.00  0.00     0.054 A 
ATOM      9  C   UNL d   1      -0.437   1.219   0.366  0.00  0.00     0.052 A 
ATOM     10  C   UNL d   1       0.763   0.855   0.988  0.00  0.00     0.054 A 
ATOM     11  C   UNL d   1       1.238  -0.470   0.901  0.00  0.00     0.134 A 
BRANCH   7  12
ATOM     12  N   UNL d   1      -1.418  -2.045  -1.182  0.00  0.00    -0.113 N 
ATOM     13  O   UNL d   1      -1.603  -3.161  -0.675  0.00  0.00    -0.532 OA
ATOM     14  O   UNL d   1      -1.836  -1.678  -2.287  0.00  0.00    -0.532 OA
ENDBRANCH   7  12
BRANCH   9  15
ATOM     15  C   UNL d   1      -0.942   2.640   0.476  0.00  0.00     0.417 C 
ATOM     16  F   UNL d   1      -2.147   2.830  -0.125  0.00  0.00    -0.166 F 
ATOM     17  F   UNL d   1      -1.098   3.025   1.770  0.00  0.00    -0.166 F 
ATOM     18  F   UNL d   1      -0.089   3.535  -0.087  0.00  0.00    -0.166 F 
ENDBRANCH   9  15
BRANCH  11  19
ATOM     19  N   UNL d   1       2.434  -0.751   1.677  0.00  0.00    -0.113 N 
ATOM     20  O   UNL d   1       2.285  -1.401   2.723  0.00  0.00    -0.532 OA
ATOM     21  O   UNL d   1       3.484  -0.206   1.306  0.00  0.00    -0.532 OA
ENDBRANCH  11  19
ENDBRANCH   4   6
ENDBRANCH   1   4
BRANCH   3  22
ATOM     22  C   UNL d   1       4.364  -4.240  -0.096  0.00  0.00     0.093 A 
ATOM     23  O   UNL d   1       5.018  -5.227  -0.774  0.00  0.00    -0.309 OA
ATOM     24  C   UNL d   1       6.349  -5.135  -0.452  0.00  0.00     0.086 A 
ATOM     25  C   UNL d   1       6.533  -4.104   0.450  0.00  0.00     0.041 A 
ATOM     26  C   UNL d   1       5.264  -3.532   0.679  0.00  0.00     0.041 A 
BRANCH  24  27
ATOM     27  C   UNL d   1       7.256  -6.098  -1.075  0.00  0.00    -0.001 A 
ATOM     28  C   UNL d   1       6.818  -6.996  -2.058  0.00  0.00     0.030 A 
ATOM     29  C   UNL d   1       7.686  -7.951  -2.618  0.00  0.00     0.049 A 
ATOM     30  C   UNL d   1       9.023  -7.992  -2.192  0.00  0.00     0.032 A 
ATOM     31  C   UNL d   1       9.491  -7.103  -1.215  0.00  0.00     0.049 A 
ATOM     32  C   UNL d   1       8.602  -6.157  -0.677  0.00  0.00     0.030 A 
BRANCH  29  33
ATOM     33  C   UNL d   1       7.163  -8.930  -3.644  0.00  0.00     0.417 C 
ATOM     34  F   UNL d   1       8.096  -9.834  -4.053  0.00  0.00    -0.166 F 
ATOM     35  F   UNL d   1       6.117  -9.663  -3.171  0.00  0.00    -0.166 F 
ATOM     36  F   UNL d   1       6.715  -8.316  -4.772  0.00  0.00    -0.166 F 
ENDBRANCH  29  33
BRANCH  31  37
ATOM     37  C   UNL d   1      10.915  -7.160  -0.713  0.00  0.00     0.417 C 
ATOM     38  F   UNL d   1      11.640  -8.179  -1.251  0.00  0.00    -0.166 F 
ATOM     39  F   UNL d   1      11.609  -6.021  -0.982  0.00  0.00    -0.166 F 
ATOM     40  F   UNL d   1      10.979  -7.328   0.636  0.00  0.00    -0.166 F 
ENDBRANCH  31  37
ENDBRANCH  24  27
ENDBRANCH   3  22
TORSDOF 9
