REMARK  4 active torsions:
REMARK  status: ('A' for Active; 'I' for Inactive)
REMARK    1  A    between atoms: N_2  and  C_1 
REMARK    2  A    between atoms: N_3  and  C_1 
REMARK    3  A    between atoms: C_9  and  N_2 
REMARK    4  A    between atoms: C_10  and  N_3 
ROOT
ATOM      1  C   UNL d   1       1.046   0.102   0.112  0.00  0.00     0.176 C 
ATOM      2  S   UNL d   1       2.682   0.428  -0.041  0.00  0.00    -0.041 SA
ENDROOT
BRANCH   1   3
ATOM      3  N   UNL d   1       0.488  -0.850   0.924  0.00  0.00    -0.333 N 
ATOM      4  H   UNL d   1      -0.208  -1.421   0.461  0.00  0.00     0.168 HD
BRANCH   3   5
ATOM      5  C   UNL d   1       0.908  -1.273   2.202  0.00  0.00     0.035 A 
ATOM      6  C   UNL d   1       0.562  -2.560   2.618  0.00  0.00     0.053 A 
ATOM      7  C   UNL d   1       0.919  -3.006   3.895  0.00  0.00     0.042 A 
ATOM      8 CL   UNL d   1       0.510  -4.631   4.323  0.00  0.00    -0.084 Cl
ATOM      9  C   UNL d   1       1.589  -2.161   4.792  0.00  0.00    -0.040 A 
ATOM     10  C   UNL d   1       1.891  -0.856   4.378  0.00  0.00     0.011 A 
ATOM     11  C   UNL d   1       1.991  -2.614   6.166  0.00  0.00     0.050 C 
ATOM     12  C   UNL d   1       1.556  -0.418   3.093  0.00  0.00     0.030 A 
ENDBRANCH   3   5
ENDBRANCH   1   3
BRANCH   1  13
ATOM     13  N   UNL d   1       0.192   0.745  -0.748  0.00  0.00    -0.333 N 
ATOM     14  H   UNL d   1       0.677   1.222  -1.502  0.00  0.00     0.168 HD
BRANCH  13  15
ATOM     15  C   UNL d   1      -1.188   1.018  -0.631  0.00  0.00     0.035 A 
ATOM     16  C   UNL d   1      -1.816   1.632  -1.719  0.00  0.00     0.053 A 
ATOM     17  C   UNL d   1      -3.175   1.966  -1.664  0.00  0.00     0.042 A 
ATOM     18 CL   UNL d   1      -3.877   2.727  -3.048  0.00  0.00    -0.084 Cl
ATOM     19  C   UNL d   1      -3.934   1.695  -0.517  0.00  0.00    -0.040 A 
ATOM     20  C   UNL d   1      -3.292   1.108   0.579  0.00  0.00     0.011 A 
ATOM     21  C   UNL d   1      -5.398   2.017  -0.428  0.00  0.00     0.050 C 
ATOM     22  C   UNL d   1      -1.935   0.782   0.525  0.00  0.00     0.030 A 
ENDBRANCH  13  15
ENDBRANCH   1  13
TORSDOF 4
