REMARK  2 active torsions:
REMARK  status: ('A' for Active; 'I' for Inactive)
REMARK    1  A    between atoms: O_5  and  C_3 
REMARK    2  A    between atoms: C_11  and  O_5 
ROOT
ATOM      1  C   UNL d   1      -0.918  -0.812  -0.241  0.00  0.00     0.025 A 
ATOM      2  C   UNL d   1      -0.703   0.569  -0.027  0.00  0.00     0.046 A 
ATOM      3  C   UNL d   1      -2.257  -1.257  -0.158  0.00  0.00     0.089 A 
ATOM      4  C   UNL d   1       0.597   1.048   0.022  0.00  0.00     0.054 A 
ATOM      5  C   UNL d   1       0.201  -1.642  -0.503  0.00  0.00     0.018 A 
ATOM      6  N   UNL d   1      -1.706   1.445   0.149  0.00  0.00    -0.365 N 
ATOM      7  HN  UNL d   1      -1.513   2.436   0.292  1.00  0.00     0.165 HD
ATOM      8  C   UNL d   1       1.690   0.199  -0.149  0.00  0.00     0.036 A 
ATOM      9  C   UNL d   1      -3.300  -0.346  -0.006  0.00  0.00     0.055 A 
ATOM     10  C   UNL d   1       1.498  -1.145  -0.428  0.00  0.00     0.025 A 
ATOM     11  C   UNL d   1      -2.974   0.985   0.132  0.00  0.00     0.091 A 
ATOM     12 CL   UNL d   1       3.288   0.821  -0.008  0.00  0.00    -0.084 Cl
ENDROOT
BRANCH   3  13
ATOM     13  O   UNL d   1      -2.655  -2.572  -0.280  0.00  0.00    -0.310 OA
BRANCH  13  14
ATOM     14  C   UNL d   1      -2.126  -3.538   0.550  0.00  0.00     0.076 A 
ATOM     15  C   UNL d   1      -1.389  -3.300   1.717  0.00  0.00     0.040 A 
ATOM     16  C   UNL d   1      -0.788  -4.366   2.391  0.00  0.00     0.045 A 
ATOM     17  C   UNL d   1      -0.980  -5.665   1.935  0.00  0.00     0.116 A 
ATOM     18  C   UNL d   1      -1.775  -5.921   0.825  0.00  0.00     0.045 A 
ATOM     19  F   UNL d   1      -0.390  -6.683   2.574  0.00  0.00    -0.206 F 
ATOM     20  C   UNL d   1      -2.348  -4.854   0.131  0.00  0.00     0.040 A 
ENDBRANCH  13  14
ENDBRANCH   3  13
TORSDOF 2
