REMARK  7 active torsions:
REMARK  status: ('A' for Active; 'I' for Inactive)
REMARK    1  A    between atoms: N_2  and  C_1 
REMARK    2  A    between atoms: N_3  and  C_1 
REMARK    3  A    between atoms: N_5  and  N_2 
REMARK    4  A    between atoms: C_7  and  N_3 
REMARK    5  A    between atoms: C_6  and  N_5 
REMARK    6  A    between atoms: O_13  and  C_8 
REMARK    7  A    between atoms: C_17  and  O_13 
ROOT
ATOM      1  N   UNL d   1       0.278   0.862   0.700  0.00  0.00    -0.332 N 
ATOM      2  H   UNL d   1       0.695   1.782   0.764  0.00  0.00     0.168 HD
ENDROOT
BRANCH   1   3
ATOM      3  C   UNL d   1       1.076  -0.066   0.028  0.00  0.00     0.186 C 
ATOM      4  S   UNL d   1       0.583  -1.424  -0.834  0.00  0.00    -0.040 SA
BRANCH   3   5
ATOM      5  N   UNL d   1       2.422   0.346   0.073  0.00  0.00    -0.297 N 
ATOM      6  H   UNL d   1       2.709   0.912   0.868  0.00  0.00     0.183 HD
BRANCH   5   7
ATOM      7  N   UNL d   1       3.446  -0.399  -0.570  0.00  0.00    -0.230 NA
ATOM      8  H   UNL d   1       3.011  -1.258  -0.933  0.00  0.00     0.147 HD
BRANCH   7   9
ATOM      9  C   UNL d   1       4.072   0.325  -1.700  0.00  0.00     0.019 C 
ATOM     10  C   UNL d   1       4.852   1.540  -1.178  0.00  0.00     0.033 C 
ATOM     11  C   UNL d   1       5.060  -0.655  -2.361  0.00  0.00     0.033 C 
ATOM     12  C   UNL d   1       3.048   0.766  -2.761  0.00  0.00     0.033 C 
ENDBRANCH   7   9
ENDBRANCH   5   7
ENDBRANCH   3   5
ENDBRANCH   1   3
BRANCH   1  13
ATOM     13  C   UNL d   1      -1.113   0.821   0.952  0.00  0.00     0.034 A 
ATOM     14  C   UNL d   1      -1.831  -0.363   1.119  0.00  0.00     0.032 A 
ATOM     15  C   UNL d   1      -3.219  -0.348   1.263  0.00  0.00     0.039 A 
ATOM     16  C   UNL d   1      -3.915   0.855   1.279  0.00  0.00     0.068 A 
ATOM     17  C   UNL d   1      -3.196   2.050   1.207  0.00  0.00     0.039 A 
ATOM     18  C   UNL d   1      -1.802   2.034   1.057  0.00  0.00     0.032 A 
BRANCH  16  19
ATOM     19  O   UNL d   1      -5.276   0.984   1.368  0.00  0.00    -0.352 OA
BRANCH  19  20
ATOM     20  C   UNL d   1      -6.024  -0.234   1.321  0.00  0.00     0.171 C 
ATOM     21  C   UNL d   1      -7.504   0.096   1.355  0.00  0.00     0.034 C 
ENDBRANCH  19  20
ENDBRANCH  16  19
ENDBRANCH   1  13
TORSDOF 7
