REMARK  2 active torsions:
REMARK  status: ('A' for Active; 'I' for Inactive)
REMARK    1  A    between atoms: C_7  and  C_3 
REMARK    2  A    between atoms: C_11  and  C_4 
ROOT
ATOM      1  N   UNL d   1       1.283   0.158  -0.039  0.00  0.00    -0.317 N 
ATOM      2  HN  UNL d   1       2.293   0.289  -0.093  1.00  0.00     0.169 HD
ATOM      3  C   UNL d   1       0.603  -0.965  -0.022  0.00  0.00     0.184 A 
ATOM      4  C   UNL d   1       0.293   1.122   0.032  0.00  0.00     0.154 A 
ATOM      5  N   UNL d   1      -0.947   0.607   0.142  0.00  0.00    -0.241 N 
ATOM      6  HN  UNL d   1      -1.831   1.109   0.223  1.00  0.00     0.196 HD
ATOM      7  O   UNL d   1      -0.739  -0.769   0.119  0.00  0.00    -0.217 OA
ENDROOT
BRANCH   3   8
ATOM      8  C   UNL d   1       1.095  -2.338  -0.048  0.00  0.00     0.039 A 
ATOM      9  C   UNL d   1       0.400  -3.421  -0.617  0.00  0.00     0.051 A 
ATOM     10  C   UNL d   1       0.956  -4.706  -0.613  0.00  0.00     0.067 A 
ATOM     11 CL   UNL d   1      -1.133  -3.256  -1.405  0.00  0.00    -0.083 Cl
ATOM     12  C   UNL d   1       2.207  -4.915  -0.048  0.00  0.00     0.118 A 
ATOM     13  C   UNL d   1       2.920  -3.866   0.512  0.00  0.00     0.043 A 
ATOM     14  F   UNL d   1       2.736  -6.144  -0.054  0.00  0.00    -0.206 F 
ATOM     15  C   UNL d   1       2.368  -2.583   0.508  0.00  0.00     0.020 A 
ENDBRANCH   3   8
BRANCH   4  16
ATOM     16  C   UNL d   1       0.576   2.561  -0.018  0.00  0.00     0.078 A 
ATOM     17  N   UNL d   1       1.881   2.929  -0.122  0.00  0.00    -0.363 N 
ATOM     18  C   UNL d   1       2.152   4.251  -0.189  0.00  0.00     0.088 A 
ATOM     19  HN  UNL d   1       2.626   2.234  -0.149  1.00  0.00     0.165 HD
ATOM     20  C   UNL d   1       1.185   5.239  -0.156  0.00  0.00     0.017 A 
ATOM     21  C   UNL d   1      -0.145   4.853  -0.045  0.00  0.00     0.004 A 
ATOM     22  C   UNL d   1      -0.458   3.497   0.026  0.00  0.00     0.033 A 
ENDBRANCH   4  16
TORSDOF 2
