REMARK  0 active torsions:
REMARK  status: ('A' for Active; 'I' for Inactive)
ROOT
ATOM      1  N   UNL d   1       1.704  -0.159   0.047  0.00  0.00    -0.352 N 
ATOM      2  HN  UNL d   1       2.706  -0.350   0.078  1.00  0.00     0.166 HD
ATOM      3  C   UNL d   1       0.887  -1.191   0.422  0.00  0.00     0.146 C 
ATOM      4  C   UNL d   1      -0.357  -1.396  -0.058  0.00  0.00     0.128 C 
ATOM      5  N   UNL d   1      -1.092  -0.464  -0.809  0.00  0.00    -0.272 NA
ATOM      6  C   UNL d   1      -1.335   0.890  -0.246  0.00  0.00     0.025 C 
ATOM      7  C   UNL d   1       1.366   1.029  -0.344  0.00  0.00    -0.006 C 
ATOM      8  C   UNL d   1      -0.014   1.753  -0.358  0.00  0.00     0.054 C 
ATOM      9  C   UNL d   1       1.490  -2.170   1.289  0.00  0.00     0.120 C 
ATOM     10  C   UNL d   1      -1.085  -2.599   0.251  0.00  0.00     0.114 C 
ATOM     11  N   UNL d   1      -1.724  -3.536   0.490  0.00  0.00    -0.190 NA
ATOM     12  N   UNL d   1       1.964  -2.952   2.012  0.00  0.00    -0.190 NA
ATOM     13  C   UNL d   1      -2.556   1.458  -1.046  0.00  0.00     0.026 C 
ATOM     14  C   UNL d   1      -1.810   0.726   1.242  0.00  0.00     0.026 C 
ATOM     15  C   UNL d   1       2.611   1.869  -0.693  0.00  0.00     0.053 C 
ATOM     16  C   UNL d   1      -0.025   2.693  -1.595  0.00  0.00     0.012 C 
ATOM     17  C   UNL d   1      -2.550   1.921   1.848  0.00  0.00     0.002 C 
ATOM     18  C   UNL d   1      -3.201   2.700  -0.430  0.00  0.00     0.002 C 
ATOM     19  C   UNL d   1       2.426   2.816  -1.859  0.00  0.00     0.006 C 
ATOM     20  C   UNL d   1       1.172   3.632  -1.659  0.00  0.00     0.001 C 
ATOM     21  C   UNL d   1      -3.698   2.401   0.972  0.00  0.00     0.000 C 
ATOM     22  H   UNL d   1      -1.964  -0.891  -1.134  0.00  0.00     0.129 HD
ENDROOT
TORSDOF 0
