REMARK  2 active torsions:
REMARK  status: ('A' for Active; 'I' for Inactive)
REMARK    1  A    between atoms: N_2  and  C_1 
REMARK       I    between atoms: C_6  and  N_2 
REMARK    2  A    between atoms: C_7  and  N_2 
REMARK       I    between atoms: N_10  and  C_6 
ROOT
ATOM      1  N   UNL d   1       2.225   1.416  -0.237  0.00  0.00    -0.244 N 
ATOM      2  C   UNL d   1       3.515   0.855  -0.388  0.00  0.00     0.328 C 
ATOM      3  O   UNL d   1       4.548   1.365   0.035  0.00  0.00    -0.246 OA
ATOM      4  N   UNL d   1       3.550  -0.320  -1.113  0.00  0.00    -0.347 N 
ATOM      5  C   UNL d   1       4.780  -1.012  -1.405  0.00  0.00     0.151 C 
ATOM      6  H   UNL d   1       2.681  -0.772  -1.349  0.00  0.00     0.163 HD
ENDROOT
BRANCH   1   7
ATOM      7  C   UNL d   1       1.062   0.663  -0.024  0.00  0.00     0.151 C 
ATOM      8  N   UNL d   1      -0.130   1.070  -0.325  0.00  0.00    -0.369 N 
ATOM      9  C   UNL d   1      -1.139   0.040  -0.025  0.00  0.00     0.137 C 
ATOM     10  HN  UNL d   1      -0.342   1.987  -0.718  1.00  0.00     0.161 HD
ATOM     11  C   UNL d   1      -0.620  -0.915   1.043  0.00  0.00     0.069 C 
ATOM     12  S   UNL d   1       1.162  -0.923   0.714  0.00  0.00    -0.087 SA
ATOM     13  C   UNL d   1      -0.908  -0.432   2.460  0.00  0.00     0.023 C 
ENDBRANCH   1   7
BRANCH   1  14
ATOM     14  C   UNL d   1       2.145   2.868  -0.166  0.00  0.00     0.049 A 
ATOM     15  C   UNL d   1       3.136   3.676  -0.750  0.00  0.00     0.072 A 
ATOM     16  C   UNL d   1       3.078   5.063  -0.650  0.00  0.00     0.118 A 
ATOM     17  F   UNL d   1       4.048   5.803  -1.205  0.00  0.00    -0.206 F 
ATOM     18  C   UNL d   1       2.034   5.696   0.008  0.00  0.00     0.042 A 
ATOM     19  C   UNL d   1       1.032   4.922   0.580  0.00  0.00     0.005 A 
ATOM     20  C   UNL d   1       1.091   3.527   0.499  0.00  0.00     0.030 A 
ENDBRANCH   1  14
TORSDOF 2
