REMARK  3 active torsions:
REMARK  status: ('A' for Active; 'I' for Inactive)
REMARK    1  A    between atoms: C_2  and  C_1 
REMARK    2  A    between atoms: C_6  and  C_1 
REMARK    3  A    between atoms: C_12  and  C_5 
ROOT
ATOM      1  C   UNL d   1       0.026   1.896   1.204  0.00  0.00     0.064 A 
ATOM      2  N   UNL d   1      -1.119   2.246   1.752  0.00  0.00    -0.352 N 
ATOM      3  HN  UNL d   1      -2.039   2.076   1.346  1.00  0.00     0.166 HD
ATOM      4  C   UNL d   1      -0.886   2.882   2.964  0.00  0.00     0.049 A 
ATOM      5  S   UNL d   1       1.436   2.350   2.064  0.00  0.00    -0.085 SA
ATOM      6  C   UNL d   1       0.447   3.019   3.296  0.00  0.00     0.081 A 
ENDROOT
BRANCH   1   7
ATOM      7  C   UNL d   1       0.060   0.962  -0.027  0.00  0.00     0.038 A 
ATOM      8  C   UNL d   1       0.809  -0.353   0.065  0.00  0.00     0.023 A 
ATOM      9  C   UNL d   1      -0.694  -0.350   0.131  0.00  0.00     0.023 A 
BRANCH   7  10
ATOM     10  C   UNL d   1      -0.040   1.674  -1.381  0.00  0.00    -0.021 A 
ATOM     11  C   UNL d   1       1.083   2.075  -2.140  0.00  0.00     0.043 A 
ATOM     12  C   UNL d   1       0.952   2.631  -3.417  0.00  0.00     0.048 A 
ATOM     13 CL   UNL d   1       2.692   1.889  -1.530  0.00  0.00    -0.084 Cl
ATOM     14  C   UNL d   1      -0.314   2.814  -3.962  0.00  0.00     0.035 A 
ATOM     15  C   UNL d   1      -1.447   2.472  -3.232  0.00  0.00     0.024 A 
ATOM     16 CL   UNL d   1      -0.479   3.459  -5.547  0.00  0.00    -0.084 Cl
ATOM     17  C   UNL d   1      -1.306   1.917  -1.955  0.00  0.00     0.012 A 
ENDBRANCH   7  10
ENDBRANCH   1   7
BRANCH   4  18
ATOM     18  C   UNL d   1      -1.996   3.278   3.830  0.00  0.00    -0.007 A 
ATOM     19  C   UNL d   1      -1.852   4.251   4.830  0.00  0.00     0.039 A 
ATOM     20  C   UNL d   1      -2.925   4.572   5.673  0.00  0.00     0.056 A 
ATOM     21 CL   UNL d   1      -2.654   5.772   6.889  0.00  0.00    -0.083 Cl
ATOM     22  C   UNL d   1      -4.156   3.928   5.521  0.00  0.00     0.055 A 
ATOM     23  C   UNL d   1      -4.314   2.971   4.518  0.00  0.00     0.026 A 
ATOM     24 CL   UNL d   1      -5.513   4.263   6.536  0.00  0.00    -0.083 Cl
ATOM     25  C   UNL d   1      -3.242   2.652   3.677  0.00  0.00     0.015 A 
ENDBRANCH   4  18
TORSDOF 3
