REMARK  5 active torsions:
REMARK  status: ('A' for Active; 'I' for Inactive)
REMARK    1  A    between atoms: C_8  and  C_1 
REMARK    2  A    between atoms: C_10  and  N_6 
REMARK    3  A    between atoms: C_11  and  C_10 
REMARK       I    between atoms: N_14  and  C_11 
REMARK       I    between atoms: C_12  and  N_13 
REMARK    4  A    between atoms: C_15  and  C_12 
REMARK    5  A    between atoms: N_13  and  N_14 
ROOT
ATOM      1  C   UNL d   1       1.770   1.363   0.134  0.00  0.00     0.271 C 
ENDROOT
BRANCH   1   2
ATOM      2  N   UNL d   1       0.770   0.933  -0.818  0.00  0.00    -0.207 N 
ATOM      3  N   UNL d   1       1.002   0.051  -1.808  0.00  0.00    -0.268 N 
ATOM      4  C   UNL d   1      -0.173   0.100  -2.468  0.00  0.00     0.146 A 
ATOM      5  HN  UNL d   1       1.837  -0.501  -2.005  1.00  0.00     0.190 HD
ATOM      6  N   UNL d   1      -1.069   0.945  -1.858  0.00  0.00    -0.266 N 
ATOM      7  N   UNL d   1      -0.465   1.456  -0.796  0.00  0.00    -0.002 NA
ATOM      8  HN  UNL d   1      -2.021   1.142  -2.166  1.00  0.00     0.186 HD
BRANCH   4   9
ATOM      9  C   UNL d   1      -0.407  -0.584  -3.738  0.00  0.00     0.034 A 
ATOM     10  C   UNL d   1      -1.682  -0.911  -4.242  0.00  0.00     0.069 A 
ATOM     11  C   UNL d   1      -1.787  -1.549  -5.496  0.00  0.00     0.056 A 
ATOM     12 CL   UNL d   1      -3.132  -0.582  -3.342  0.00  0.00    -0.082 Cl
ATOM     13 CL   UNL d   1      -3.309  -1.988  -6.199  0.00  0.00    -0.083 Cl
ATOM     14  C   UNL d   1      -0.643  -1.863  -6.238  0.00  0.00     0.026 A 
ATOM     15  C   UNL d   1       0.616  -1.550  -5.744  0.00  0.00     0.003 A 
ATOM     16  C   UNL d   1       0.729  -0.918  -4.508  0.00  0.00     0.017 A 
ENDBRANCH   4   9
ENDBRANCH   1   2
BRANCH   1  17
ATOM     17  C   UNL d   1       3.162   0.829  -0.097  0.00  0.00     0.257 C 
ATOM     18  N   UNL d   1       3.288  -0.536  -0.252  0.00  0.00    -0.266 N 
ATOM     19  H   UNL d   1       2.512  -1.105  -0.602  0.00  0.00     0.190 HD
ATOM     20  O   UNL d   1       4.154   1.560  -0.029  0.00  0.00    -0.270 OA
BRANCH  18  21
ATOM     21  N   UNL d   1       4.576  -1.053  -0.481  0.00  0.00    -0.263 N 
ATOM     22  C   UNL d   1       4.795  -2.386  -0.178  0.00  0.00     0.270 C 
ATOM     23  O   UNL d   1       3.904  -3.156   0.161  0.00  0.00    -0.266 OA
ATOM     24  H   UNL d   1       5.333  -0.371  -0.475  0.00  0.00     0.190 HD
BRANCH  22  25
ATOM     25  C   UNL d   1       6.202  -2.863  -0.282  0.00  0.00     0.033 A 
ATOM     26  C   UNL d   1       6.614  -3.915   0.549  0.00  0.00     0.019 A 
ATOM     27  C   UNL d   1       7.907  -4.435   0.436  0.00  0.00     0.025 A 
ATOM     28  C   UNL d   1       8.782  -3.912  -0.515  0.00  0.00     0.034 A 
ATOM     29  C   UNL d   1       8.380  -2.865  -1.345  0.00  0.00     0.025 A 
ATOM     30 CL   UNL d   1      10.360  -4.577  -0.683  0.00  0.00    -0.084 Cl
ATOM     31  C   UNL d   1       7.089  -2.337  -1.230  0.00  0.00     0.019 A 
ENDBRANCH  22  25
ENDBRANCH  18  21
ENDBRANCH   1  17
TORSDOF 5
