REMARK  5 active torsions:
REMARK  status: ('A' for Active; 'I' for Inactive)
REMARK    1  A    between atoms: N_2  and  S_1 
REMARK    2  A    between atoms: C_5  and  S_1 
REMARK    3  A    between atoms: C_3  and  N_2 
REMARK    4  A    between atoms: C_11  and  C_4 
REMARK    5  A    between atoms: C_18  and  C_8 
ROOT
ATOM      1  N   UNL d   1       0.694   0.235   1.393  0.00  0.00    -0.280 N 
ATOM      2  H   UNL d   1       1.250  -0.065   0.597  0.00  0.00     0.179 HD
ENDROOT
BRANCH   1   3
ATOM      3  S   UNL d   1       0.644   1.936   1.522  0.00  0.00     0.263 S 
ATOM      4  O   UNL d   1       1.646   2.381   2.463  0.00  0.00    -0.200 OA
ATOM      5  O   UNL d   1      -0.732   2.383   1.600  0.00  0.00    -0.200 OA
BRANCH   3   6
ATOM      6  C   UNL d   1       1.222   2.363  -0.116  0.00  0.00     0.079 A 
ATOM      7  C   UNL d   1       0.441   2.007  -1.219  0.00  0.00     0.026 A 
ATOM      8  C   UNL d   1       0.982   2.116  -2.501  0.00  0.00     0.008 A 
ATOM      9  C   UNL d   1       2.295   2.573  -2.682  0.00  0.00    -0.062 A 
ATOM     10  C   UNL d   1       3.037   2.994  -1.570  0.00  0.00     0.008 A 
ATOM     11  C   UNL d   1       2.902   2.576  -4.055  0.00  0.00     0.048 C 
ATOM     12  C   UNL d   1       2.498   2.906  -0.287  0.00  0.00     0.026 A 
ENDBRANCH   3   6
ENDBRANCH   1   3
BRANCH   1  13
ATOM     13  C   UNL d   1       0.900  -0.519   2.595  0.00  0.00     0.055 A 
ATOM     14  C   UNL d   1       2.179  -1.072   2.882  0.00  0.00    -0.027 A 
ATOM     15  C   UNL d   1       2.377  -1.680   4.140  0.00  0.00     0.010 A 
ATOM     16  C   UNL d   1       1.353  -1.773   5.071  0.00  0.00     0.001 A 
ATOM     17  C   UNL d   1       0.093  -1.291   4.753  0.00  0.00     0.009 A 
ATOM     18  C   UNL d   1      -0.168  -0.678   3.510  0.00  0.00    -0.031 A 
BRANCH  14  19
ATOM     19  C   UNL d   1       3.380  -1.132   1.940  0.00  0.00     0.013 C 
ATOM     20  C   UNL d   1       3.136  -2.047   0.734  0.00  0.00     0.015 C 
ATOM     21  C   UNL d   1       3.933   0.221   1.514  0.00  0.00     0.015 C 
ENDBRANCH  14  19
BRANCH  18  22
ATOM     22  C   UNL d   1      -1.602  -0.236   3.274  0.00  0.00     0.036 C 
ATOM     23  C   UNL d   1      -2.216  -0.600   1.926  0.00  0.00     0.010 C 
ENDBRANCH  18  22
ENDBRANCH   1  13
TORSDOF 5
