REMARK  3 active torsions:
REMARK  status: ('A' for Active; 'I' for Inactive)
REMARK    1  A    between atoms: C_5  and  C_1 
REMARK    2  A    between atoms: N_3  and  C_2 
REMARK    3  A    between atoms: N_12  and  C_4 
ROOT
ATOM      1  C   UNL d   1      -0.375  -1.537  -4.569  0.00  0.00     0.051 A 
ATOM      2  C   UNL d   1      -0.421  -0.138  -4.289  0.00  0.00     0.033 A 
ATOM      3  C   UNL d   1       0.485  -0.474  -2.027  0.00  0.00     0.049 A 
ATOM      4  C   UNL d   1       0.059   0.366  -3.059  0.00  0.00     0.041 A 
ATOM      5  C   UNL d   1       0.080  -2.349  -3.503  0.00  0.00     0.032 A 
ATOM      6  C   UNL d   1       0.493  -1.842  -2.262  0.00  0.00     0.018 A 
ENDROOT
BRANCH   1   7
ATOM      7  N   UNL d   1      -0.780  -2.146  -5.761  0.00  0.00    -0.379 N 
ATOM      8  C   UNL d   1      -0.438  -3.543  -6.037  0.00  0.00     0.123 C 
ATOM      9  C   UNL d   1      -0.916  -3.832  -7.450  0.00  0.00     0.021 C 
ATOM     10  C   UNL d   1      -1.179  -2.490  -8.098  0.00  0.00     0.021 C 
ATOM     11  C   UNL d   1      -1.063  -1.436  -7.002  0.00  0.00     0.123 C 
ENDBRANCH   1   7
BRANCH   2  12
ATOM     12  N   UNL d   1      -0.798   0.839  -5.241  0.00  0.00    -0.301 NA
ATOM     13  H   UNL d   1      -0.963   1.753  -4.836  0.00  0.00     0.124 HD
ATOM     14  H   UNL d   1      -1.619   0.534  -5.750  0.00  0.00     0.124 HD
ENDBRANCH   2  12
BRANCH   3  15
ATOM     15  C   UNL d   1       0.901   0.075  -0.687  0.00  0.00     0.417 C 
ATOM     16  F   UNL d   1       0.832   1.433  -0.605  0.00  0.00    -0.166 F 
ATOM     17  F   UNL d   1       2.183  -0.255  -0.359  0.00  0.00    -0.166 F 
ATOM     18  F   UNL d   1       0.125  -0.396   0.329  0.00  0.00    -0.166 F 
ENDBRANCH   3  15
TORSDOF 3
