REMARK  5 active torsions:
REMARK  status: ('A' for Active; 'I' for Inactive)
REMARK    1  A    between atoms: C_6  and  C_4 
REMARK    2  A    between atoms: O_9  and  C_5 
REMARK    3  A    between atoms: C_16  and  O_9 
REMARK    4  A    between atoms: O_17  and  C_12 
REMARK    5  A    between atoms: C_18  and  C_16 
ROOT
ATOM      1  C   UNL d   1      -4.726   3.452  -1.294  0.00  0.00     0.103 A 
ATOM      2  C   UNL d   1      -4.273   1.147  -0.647  0.00  0.00    -0.033 A 
ATOM      3  C   UNL d   1      -3.883   2.334  -1.283  0.00  0.00     0.051 A 
ATOM      4  C   UNL d   1      -5.989   3.358  -0.687  0.00  0.00     0.101 A 
ATOM      5  C   UNL d   1      -6.368   2.174  -0.041  0.00  0.00     0.040 A 
ATOM      6  C   UNL d   1      -5.518   1.069  -0.023  0.00  0.00     0.014 A 
ENDROOT
BRANCH   2   7
ATOM      7  C   UNL d   1      -3.305   0.057  -0.515  0.00  0.00     0.022 C 
ATOM      8  C   UNL d   1      -2.448  -0.010   0.521  0.00  0.00    -0.006 C 
ATOM      9  C   UNL d   1      -1.407  -1.090   0.506  0.00  0.00     0.189 C 
ATOM     10  C   UNL d   1      -2.384   0.929   1.693  0.00  0.00     0.047 C 
ATOM     11  C   UNL d   1      -0.145  -0.783   1.244  0.00  0.00     0.021 A 
ATOM     12  O   UNL d   1      -1.568  -2.145  -0.089  0.00  0.00    -0.287 OA
ATOM     13  C   UNL d   1       0.858  -1.758   1.306  0.00  0.00     0.016 A 
ATOM     14  C   UNL d   1       0.062   0.475   1.843  0.00  0.00    -0.044 A 
ATOM     15  C   UNL d   1       2.066  -1.479   1.947  0.00  0.00     0.001 A 
ATOM     16  C   UNL d   1       2.281  -0.226   2.521  0.00  0.00     0.001 A 
ATOM     17  C   UNL d   1       1.286   0.749   2.466  0.00  0.00     0.008 A 
ATOM     18  C   UNL d   1      -0.996   1.546   1.778  0.00  0.00     0.044 C 
ENDBRANCH   2   7
BRANCH   1  19
ATOM     19  O   UNL d   1      -4.329   4.680  -1.748  0.00  0.00    -0.344 OA
BRANCH  19  20
ATOM     20  C   UNL d   1      -3.358   4.720  -2.791  0.00  0.00     0.214 C 
BRANCH  20  21
ATOM     21  C   UNL d   1      -3.044   6.168  -3.086  0.00  0.00    -0.034 A 
ATOM     22  C   UNL d   1      -2.517   6.990  -2.077  0.00  0.00     0.009 A 
ATOM     23  C   UNL d   1      -2.178   8.316  -2.346  0.00  0.00     0.001 A 
ATOM     24  C   UNL d   1      -2.361   8.835  -3.626  0.00  0.00     0.000 A 
ATOM     25  C   UNL d   1      -2.892   8.030  -4.634  0.00  0.00     0.001 A 
ATOM     26  C   UNL d   1      -3.234   6.703  -4.366  0.00  0.00     0.009 A 
ENDBRANCH  20  21
ENDBRANCH  19  20
ENDBRANCH   1  19
BRANCH   4  27
ATOM     27  O   UNL d   1      -6.917   4.367  -0.598  0.00  0.00    -0.353 OA
ATOM     28  C   UNL d   1      -7.051   5.170  -1.768  0.00  0.00     0.210 C 
ENDBRANCH   4  27
TORSDOF 5
