REMARK  1 active torsions:
REMARK  status: ('A' for Active; 'I' for Inactive)
REMARK    1  A    between atoms: O_10  and  C_2 
ROOT
ATOM      1  C   UNL d   1       0.021  -0.748   0.036  0.00  0.00     0.080 A 
ATOM      2  C   UNL d   1       1.276  -1.352   0.075  0.00  0.00     0.156 A 
ATOM      3  N   UNL d   1       2.435  -0.681   0.091  0.00  0.00    -0.332 N 
ATOM      4  HN  UNL d   1       3.339  -1.153   0.120  1.00  0.00     0.168 HD
ATOM      5  N   UNL d   1       1.181   1.350   0.025  0.00  0.00    -0.351 N 
ATOM      6  HN  UNL d   1       1.180   2.370   0.006  1.00  0.00     0.166 HD
ATOM      7  C   UNL d   1       2.325   0.650   0.064  0.00  0.00     0.182 A 
ATOM      8  C   UNL d   1      -1.214  -1.424   0.019  0.00  0.00     0.133 A 
ATOM      9  C   UNL d   1       0.041   0.648   0.010  0.00  0.00     0.050 A 
ATOM     10  F   UNL d   1      -1.236  -2.767   0.046  0.00  0.00    -0.205 F 
ATOM     11  C   UNL d   1      -2.401   0.651  -0.054  0.00  0.00     0.005 A 
ATOM     12  C   UNL d   1      -2.420  -0.737  -0.026  0.00  0.00     0.043 A 
ATOM     13  C   UNL d   1      -1.175   1.325  -0.035  0.00  0.00     0.030 A 
ENDROOT
BRANCH   2  14
ATOM     14  O   UNL d   1       1.435  -2.710   0.100  0.00  0.00    -0.345 OA
ATOM     15  H   UNL d   1       0.556  -3.124   0.080  0.00  0.00     0.219 HD
ENDBRANCH   2  14
TORSDOF 1
