REMARK  3 active torsions:
REMARK  status: ('A' for Active; 'I' for Inactive)
REMARK    1  A    between atoms: N_15  and  C_7 
REMARK    2  A    between atoms: N_13  and  N_15 
REMARK    3  A    between atoms: C_18  and  C_16 
ROOT
ATOM      1  C   UNL d   1      -0.205   0.975  -0.223  0.00  0.00     0.072 A 
ATOM      2  C   UNL d   1       0.125  -0.368  -0.188  0.00  0.00     0.138 A 
ATOM      3  N   UNL d   1       2.057   0.785  -0.559  0.00  0.00    -0.307 N 
ATOM      4  HN  UNL d   1       3.040   1.003  -0.722  1.00  0.00     0.186 HD
ATOM      5  N   UNL d   1       1.478  -0.426  -0.397  0.00  0.00    -0.281 N 
ATOM      6  C   UNL d   1       1.023   1.628  -0.452  0.00  0.00     0.126 A 
ATOM      7  C   UNL d   1      -1.553   1.319  -0.043  0.00  0.00     0.136 A 
ATOM      8  N   UNL d   1      -0.719  -1.396   0.006  0.00  0.00    -0.337 N 
ATOM      9  HN  UNL d   1      -0.440  -2.376   0.026  1.00  0.00     0.168 HD
ATOM     10  N   UNL d   1      -2.440   0.307   0.157  0.00  0.00    -0.337 N 
ATOM     11  HN  UNL d   1      -3.432   0.504   0.293  1.00  0.00     0.168 HD
ATOM     12  C   UNL d   1      -1.981  -0.962   0.171  0.00  0.00     0.183 A 
ATOM     13  C   UNL d   1       2.299  -1.607  -0.469  0.00  0.00     0.179 C 
ENDROOT
BRANCH   7  14
ATOM     14  N   UNL d   1      -2.053   2.626  -0.060  0.00  0.00    -0.285 N 
ATOM     15  H   UNL d   1      -3.051   2.693   0.110  0.00  0.00     0.188 HD
BRANCH  14  16
ATOM     16  N   UNL d   1      -1.213   3.674  -0.180  0.00  0.00    -0.309 N 
ATOM     17  C   UNL d   1      -1.750   4.851  -0.131  0.00  0.00     0.118 C 
ATOM     18  HN  UNL d   1      -0.209   3.546  -0.302  1.00  0.00     0.186 HD
BRANCH  17  19
ATOM     19  C   UNL d   1      -0.916   6.064  -0.259  0.00  0.00    -0.019 A 
ATOM     20  C   UNL d   1       0.469   5.958  -0.432  0.00  0.00     0.013 A 
ATOM     21  C   UNL d   1       1.250   7.106  -0.557  0.00  0.00     0.001 A 
ATOM     22  C   UNL d   1       0.647   8.362  -0.508  0.00  0.00     0.000 A 
ATOM     23  C   UNL d   1      -0.733   8.470  -0.334  0.00  0.00     0.001 A 
ATOM     24  C   UNL d   1      -1.520   7.322  -0.209  0.00  0.00     0.013 A 
ENDBRANCH  17  19
ENDBRANCH  14  16
ENDBRANCH   7  14
TORSDOF 3
