REMARK  9 active torsions:
REMARK  status: ('A' for Active; 'I' for Inactive)
REMARK    1  A    between atoms: N_3  and  C_1 
REMARK    2  A    between atoms: N_4  and  C_1 
REMARK    3  A    between atoms: C_2  and  O_6 
REMARK    4  A    between atoms: C_7  and  N_3 
REMARK    5  A    between atoms: N_11  and  N_4 
REMARK    6  A    between atoms: C_13  and  N_4 
REMARK    7  A    between atoms: O_6  and  C_12 
REMARK    8  A    between atoms: C_19  and  C_13 
REMARK    9  A    between atoms: O_18  and  C_19 
ROOT
ATOM      1  N   UNL d   1       0.544  -0.297   1.028  0.00  0.00    -0.332 N 
ATOM      2  H   UNL d   1      -0.452  -0.495   0.913  0.00  0.00     0.168 HD
ENDROOT
BRANCH   1   3
ATOM      3  C   UNL d   1       1.193  -0.071  -0.180  0.00  0.00     0.189 C 
ATOM      4  S   UNL d   1       2.705  -0.693  -0.597  0.00  0.00    -0.039 SA
BRANCH   3   5
ATOM      5  N   UNL d   1       0.416   0.692  -1.080  0.00  0.00    -0.289 N 
BRANCH   5   6
ATOM      6  N   UNL d   1       0.766   0.752  -2.461  0.00  0.00    -0.245 NA
ATOM      7  H   UNL d   1       1.198  -0.150  -2.692  0.00  0.00     0.143 HD
ATOM      8  H   UNL d   1       1.545   1.415  -2.540  0.00  0.00     0.143 HD
ENDBRANCH   5   6
BRANCH   5   9
ATOM      9  C   UNL d   1      -0.661   1.601  -0.653  0.00  0.00     0.171 C 
BRANCH   9  10
ATOM     10  C   UNL d   1      -2.041   0.948  -0.684  0.00  0.00     0.185 C 
BRANCH  10  11
ATOM     11  O   UNL d   1      -2.148  -0.077   0.310  0.00  0.00    -0.399 OA
ATOM     12  H   UNL d   1      -3.050  -0.436   0.225  0.00  0.00     0.209 HD
ENDBRANCH  10  11
ENDBRANCH   9  10
ENDBRANCH   5   9
ENDBRANCH   3   5
ENDBRANCH   1   3
BRANCH   1  13
ATOM     13  C   UNL d   1       1.120  -0.642   2.264  0.00  0.00     0.034 A 
ATOM     14  C   UNL d   1       2.292  -0.032   2.714  0.00  0.00     0.032 A 
ATOM     15  C   UNL d   1       2.836  -0.365   3.959  0.00  0.00     0.039 A 
ATOM     16  C   UNL d   1       2.241  -1.350   4.740  0.00  0.00     0.078 A 
ATOM     17  C   UNL d   1       1.029  -1.910   4.321  0.00  0.00     0.039 A 
ATOM     18  C   UNL d   1       0.454  -1.547   3.094  0.00  0.00     0.032 A 
BRANCH  16  19
ATOM     19  O   UNL d   1       2.704  -1.806   5.936  0.00  0.00    -0.255 OA
BRANCH  19  20
ATOM     20  C   UNL d   1       4.106  -1.817   6.179  0.00  0.00     0.530 C 
ATOM     21  F   UNL d   1       4.864  -1.584   5.087  0.00  0.00    -0.144 F 
ATOM     22  F   UNL d   1       4.404  -0.892   7.117  0.00  0.00    -0.144 F 
ATOM     23  F   UNL d   1       4.447  -3.034   6.661  0.00  0.00    -0.144 F 
ENDBRANCH  19  20
ENDBRANCH  16  19
ENDBRANCH   1  13
TORSDOF 9
