REMARK  8 active torsions:
REMARK  status: ('A' for Active; 'I' for Inactive)
REMARK    1  A    between atoms: N_2  and  C_1 
REMARK    2  A    between atoms: C_4  and  C_1 
REMARK    3  A    between atoms: C_6  and  C_1 
REMARK    4  A    between atoms: O_9  and  C_1 
REMARK       I    between atoms: C_3  and  N_2 
REMARK    5  A    between atoms: C_5  and  C_3 
REMARK    6  A    between atoms: O_14  and  C_6 
REMARK    7  A    between atoms: O_16  and  C_8 
REMARK    8  A    between atoms: C_18  and  O_16 
ROOT
ATOM      1  N   UNL d   1      -0.568   0.311   2.043  0.00  0.00    -0.309 N 
ATOM      2  C   UNL d   1       0.699   0.835   1.891  0.00  0.00     0.257 C 
ATOM      3  O   UNL d   1       0.924   1.823   1.205  0.00  0.00    -0.267 OA
ATOM      4  H   UNL d   1      -0.702  -0.465   2.685  0.00  0.00     0.166 HD
ENDROOT
BRANCH   1   5
ATOM      5  C   UNL d   1      -1.800   1.013   1.642  0.00  0.00     0.325 C 
BRANCH   5   6
ATOM      6  C   UNL d   1      -1.996   2.474   2.160  0.00  0.00     0.448 C 
ATOM      7  F   UNL d   1      -1.008   2.860   3.007  0.00  0.00    -0.166 F 
ATOM      8  F   UNL d   1      -2.046   3.382   1.155  0.00  0.00    -0.166 F 
ATOM      9  F   UNL d   1      -3.152   2.628   2.862  0.00  0.00    -0.166 F 
ENDBRANCH   5   6
BRANCH   5  10
ATOM     10  C   UNL d   1      -2.930   0.208   2.322  0.00  0.00     0.324 C 
ATOM     11  O   UNL d   1      -2.760  -0.463   3.340  0.00  0.00    -0.259 OA
BRANCH  10  12
ATOM     12  O   UNL d   1      -4.106   0.289   1.639  0.00  0.00    -0.322 OA
ATOM     13  C   UNL d   1      -5.179  -0.467   2.203  0.00  0.00     0.213 C 
ENDBRANCH  10  12
ENDBRANCH   5  10
BRANCH   5  14
ATOM     14  O   UNL d   1      -1.879   0.858   0.228  0.00  0.00    -0.356 OA
ATOM     15  H   UNL d   1      -1.321   0.088   0.031  0.00  0.00     0.213 HD
ENDBRANCH   5  14
ENDBRANCH   1   5
BRANCH   2  16
ATOM     16  C   UNL d   1       1.763   0.111   2.659  0.00  0.00     0.065 A 
ATOM     17  C   UNL d   1       3.027  -0.184   2.115  0.00  0.00     0.084 A 
ATOM     18  C   UNL d   1       3.927  -0.939   2.886  0.00  0.00     0.038 A 
ATOM     19  C   UNL d   1       3.594  -1.375   4.172  0.00  0.00     0.003 A 
ATOM     20  C   UNL d   1       2.361  -1.049   4.720  0.00  0.00     0.001 A 
ATOM     21  C   UNL d   1       1.454  -0.303   3.972  0.00  0.00     0.020 A 
BRANCH  17  22
ATOM     22  O   UNL d   1       3.314   0.272   0.852  0.00  0.00    -0.350 OA
BRANCH  22  23
ATOM     23  C   UNL d   1       4.586  -0.074   0.298  0.00  0.00     0.171 C 
ATOM     24  C   UNL d   1       4.822   0.723  -0.972  0.00  0.00     0.034 C 
ENDBRANCH  22  23
ENDBRANCH  17  22
ENDBRANCH   2  16
TORSDOF 8
