REMARK  1 active torsions:
REMARK  status: ('A' for Active; 'I' for Inactive)
REMARK    1  A    between atoms: C_12  and  C_3 
ROOT
ATOM      1  N   UNL d   1      -0.217  -0.651   0.005  0.00  0.00    -0.243 N 
ATOM      2  C   UNL d   1      -0.198   0.747  -0.007  0.00  0.00     0.129 A 
ATOM      3  C   UNL d   1       2.164  -0.749  -0.038  0.00  0.00     0.049 A 
ATOM      4  C   UNL d   1       0.975  -1.406  -0.003  0.00  0.00     0.047 A 
ATOM      5  N   UNL d   1      -1.497  -1.117   0.025  0.00  0.00    -0.297 N 
ATOM      6  HN  UNL d   1      -1.802  -2.090   0.045  1.00  0.00     0.187 HD
ATOM      7  N   UNL d   1       0.964   1.457  -0.041  0.00  0.00    -0.350 N 
ATOM      8  HN  UNL d   1       0.980   2.477  -0.047  1.00  0.00     0.166 HD
ATOM      9  C   UNL d   1      -1.508   1.156   0.003  0.00  0.00     0.076 A 
ATOM     10  C   UNL d   1       2.047   0.747  -0.067  0.00  0.00     0.107 A 
ATOM     11  C   UNL d   1      -2.269  -0.027   0.013  0.00  0.00     0.026 A 
ATOM     12  C   UNL d   1       0.773  -2.899   0.030  0.00  0.00     0.071 C 
ATOM     13  C   UNL d   1      -3.748  -0.145   0.009  0.00  0.00     0.070 C 
ENDROOT
BRANCH   3  14
ATOM     14  C   UNL d   1       3.504  -1.420  -0.073  0.00  0.00     0.159 C 
ATOM     15  O   UNL d   1       3.642  -2.548  -0.543  0.00  0.00    -0.293 OA
ATOM     16  C   UNL d   1       4.717  -0.694   0.456  0.00  0.00     0.097 C 
ENDBRANCH   3  14
TORSDOF 1
