REMARK  5 active torsions:
REMARK  status: ('A' for Active; 'I' for Inactive)
REMARK    1  A    between atoms: N_9  and  C_3 
REMARK    2  A    between atoms: C_19  and  C_4 
REMARK       I    between atoms: C_7  and  N_10 
REMARK       I    between atoms: N_12  and  C_7 
REMARK    3  A    between atoms: C_11  and  O_18 
REMARK    4  A    between atoms: C_20  and  N_12 
REMARK    5  A    between atoms: O_18  and  C_24 
ROOT
ATOM      1  C   UNL d   1      -0.973  -6.590   0.035  0.00  0.00     0.323 C 
ATOM      2  N   UNL d   1       0.233  -2.538   0.052  0.00  0.00    -0.357 N 
ATOM      3  N   UNL d   1      -0.491  -5.313  -0.221  0.00  0.00    -0.331 N 
ATOM      4  N   UNL d   1      -2.162  -6.910  -0.583  0.00  0.00    -0.309 N 
ATOM      5  O   UNL d   1      -0.352  -7.352   0.771  0.00  0.00    -0.247 OA
ATOM      6  C   UNL d   1       0.823  -3.543   0.962  0.00  0.00     0.145 C 
ATOM      7  C   UNL d   1      -1.095  -2.919  -0.461  0.00  0.00     0.145 C 
ATOM      8  C   UNL d   1       0.820  -4.947   0.331  0.00  0.00     0.147 C 
ATOM      9  C   UNL d   1      -1.042  -4.298  -1.132  0.00  0.00     0.147 C 
ATOM     10  H   UNL d   1      -2.528  -6.256  -1.247  0.00  0.00     0.170 HD
ENDROOT
BRANCH   4  11
ATOM     11  C   UNL d   1      -2.835  -8.149  -0.559  0.00  0.00     0.036 A 
ATOM     12  C   UNL d   1      -2.431  -9.246   0.199  0.00  0.00     0.032 A 
ATOM     13  C   UNL d   1      -3.056 -10.493   0.052  0.00  0.00     0.039 A 
ATOM     14  C   UNL d   1      -4.134 -10.641  -0.814  0.00  0.00     0.078 A 
ATOM     15  C   UNL d   1      -4.581  -9.526  -1.528  0.00  0.00     0.039 A 
ATOM     16  C   UNL d   1      -3.945  -8.288  -1.399  0.00  0.00     0.032 A 
BRANCH  14  17
ATOM     17  O   UNL d   1      -4.831 -11.777  -1.079  0.00  0.00    -0.255 OA
BRANCH  17  18
ATOM     18  C   UNL d   1      -4.703 -12.918  -0.247  0.00  0.00     0.530 C 
ATOM     19  F   UNL d   1      -4.340 -12.630   1.019  0.00  0.00    -0.144 F 
ATOM     20  F   UNL d   1      -5.908 -13.530  -0.195  0.00  0.00    -0.144 F 
ATOM     21  F   UNL d   1      -3.816 -13.784  -0.781  0.00  0.00    -0.144 F 
ENDBRANCH  17  18
ENDBRANCH  14  17
ENDBRANCH   4  11
BRANCH   2  22
ATOM     22  C   UNL d   1       0.377  -1.208   0.361  0.00  0.00     0.165 A 
ATOM     23  N   UNL d   1      -0.507  -0.276   0.070  0.00  0.00    -0.321 N 
ATOM     24  C   UNL d   1      -0.075   0.965   0.552  0.00  0.00     0.123 A 
ATOM     25  HN  UNL d   1      -1.379  -0.435  -0.435  1.00  0.00     0.169 HD
ATOM     26  N   UNL d   1       1.122   1.023   1.149  0.00  0.00    -0.309 N 
ATOM     27  S   UNL d   1       1.752  -0.506   1.148  0.00  0.00     0.024 SA
ATOM     28  HN  UNL d   1       1.564   1.858   1.534  1.00  0.00     0.176 HD
BRANCH  24  29
ATOM     29  C   UNL d   1      -0.931   2.147   0.438  0.00  0.00     0.009 A 
ATOM     30  C   UNL d   1      -2.114   2.121  -0.318  0.00  0.00     0.015 A 
ATOM     31  C   UNL d   1      -2.934   3.251  -0.390  0.00  0.00     0.001 A 
ATOM     32  C   UNL d   1      -2.589   4.410   0.301  0.00  0.00     0.000 A 
ATOM     33  C   UNL d   1      -1.419   4.452   1.053  0.00  0.00     0.001 A 
ATOM     34  C   UNL d   1      -0.597   3.330   1.118  0.00  0.00     0.015 A 
ENDBRANCH  24  29
ENDBRANCH   2  22
TORSDOF 5
