REMARK  4 active torsions:
REMARK  status: ('A' for Active; 'I' for Inactive)
REMARK    1  A    between atoms: S_5  and  C_1 
REMARK    2  A    between atoms: C_11  and  S_5 
REMARK    3  A    between atoms: C_7  and  C_11 
REMARK       I    between atoms: N_9  and  C_7 
REMARK    4  A    between atoms: C_12  and  N_9 
ROOT
ATOM      1  C   UNL d   1       2.623   4.341  -0.077  0.00  0.00     0.231 C 
ATOM      2  N   UNL d   1       1.675   5.308   0.196  0.00  0.00    -0.327 N 
ATOM      3  O   UNL d   1       3.808   4.578  -0.340  0.00  0.00    -0.272 OA
ATOM      4  H   UNL d   1       0.785   4.975   0.553  0.00  0.00     0.169 HD
ENDROOT
BRANCH   1   5
ATOM      5  C   UNL d   1       2.183   2.888  -0.034  0.00  0.00     0.185 C 
BRANCH   5   6
ATOM      6  S   UNL d   1       0.424   2.583   0.298  0.00  0.00    -0.084 SA
BRANCH   6   7
ATOM      7  C   UNL d   1       0.469   0.845   0.386  0.00  0.00     0.146 A 
ATOM      8  N   UNL d   1      -0.640   0.048   0.475  0.00  0.00    -0.341 N 
ATOM      9  C   UNL d   1      -0.201  -1.246   0.610  0.00  0.00     0.109 A 
ATOM     10  C   UNL d   1      -2.030   0.429   0.436  0.00  0.00     0.158 C 
ATOM     11  C   UNL d   1       1.169  -1.169   0.549  0.00  0.00     0.107 A 
ATOM     12  N   UNL d   1       1.573   0.132   0.405  0.00  0.00    -0.345 N 
ATOM     13  HN  UNL d   1       2.531   0.475   0.329  1.00  0.00     0.167 HD
ENDBRANCH   6   7
ENDBRANCH   5   6
ENDBRANCH   1   5
BRANCH   2  14
ATOM     14  C   UNL d   1       1.841   6.707   0.075  0.00  0.00     0.034 A 
ATOM     15  C   UNL d   1       2.951   7.300  -0.540  0.00  0.00     0.031 A 
ATOM     16  C   UNL d   1       3.048   8.688  -0.671  0.00  0.00     0.021 A 
ATOM     17  C   UNL d   1       2.031   9.501  -0.183  0.00  0.00     0.011 A 
ATOM     18  C   UNL d   1       0.922   8.933   0.439  0.00  0.00     0.021 A 
ATOM     19 BR   UNL d   1       2.155  11.377  -0.379  0.00  0.00    -0.051 Br
ATOM     20  C   UNL d   1       0.825   7.540   0.562  0.00  0.00     0.031 A 
ENDBRANCH   2  14
TORSDOF 4
