REMARK  8 active torsions:
REMARK  status: ('A' for Active; 'I' for Inactive)
REMARK    1  A    between atoms: C_2  and  N_1 
REMARK    2  A    between atoms: C_4  and  C_2 
REMARK    3  A    between atoms: S_3  and  C_4 
REMARK    4  A    between atoms: C_5  and  S_3 
REMARK    5  A    between atoms: C_8  and  C_4 
REMARK    6  A    between atoms: N_12  and  C_9 
REMARK    7  A    between atoms: O_16  and  C_13 
REMARK    8  A    between atoms: C_19  and  O_16 
ROOT
ATOM      1  C   UNL d   1       1.363   1.483  -1.905  0.00  0.00     0.109 C 
ENDROOT
BRANCH   1   2
ATOM      2  S   UNL d   1       2.707   0.414  -2.629  0.00  0.00    -0.117 SA
BRANCH   2   3
ATOM      3  C   UNL d   1       3.742   1.605  -3.503  0.00  0.00     0.022 A 
ATOM      4  C   UNL d   1       4.189   1.308  -4.812  0.00  0.00     0.022 A 
ATOM      5  C   UNL d   1       4.972   2.247  -5.495  0.00  0.00     0.024 A 
ATOM      6  C   UNL d   1       5.249   3.491  -4.929  0.00  0.00     0.002 A 
ATOM      7  C   UNL d   1       4.798   3.786  -3.646  0.00  0.00     0.001 A 
ATOM      8  C   UNL d   1       4.062   2.842  -2.929  0.00  0.00     0.020 A 
BRANCH   4   9
ATOM      9  N   UNL d   1       4.037   0.026  -5.374  0.00  0.00    -0.302 NA
ATOM     10  H   UNL d   1       3.301  -0.517  -4.924  0.00  0.00     0.124 HD
ATOM     11  H   UNL d   1       4.005   0.008  -6.386  0.00  0.00     0.124 HD
ENDBRANCH   4   9
ENDBRANCH   2   3
ENDBRANCH   1   2
BRANCH   1  12
ATOM     12  C   UNL d   1       0.344   0.636  -1.135  0.00  0.00     0.221 C 
BRANCH  12  13
ATOM     13  N   UNL d   1       1.014  -0.119  -0.030  0.00  0.00    -0.154 N 
ATOM     14  O   UNL d   1       0.873  -1.345  -0.023  0.00  0.00    -0.536 OA
ATOM     15  O   UNL d   1       1.611   0.547   0.827  0.00  0.00    -0.536 OA
ENDBRANCH  12  13
ENDBRANCH   1  12
BRANCH   1  16
ATOM     16  C   UNL d   1       0.610   2.363  -2.915  0.00  0.00    -0.042 A 
ATOM     17  C   UNL d   1       0.646   2.162  -4.303  0.00  0.00     0.011 A 
ATOM     18  C   UNL d   1      -0.002   3.033  -5.186  0.00  0.00     0.037 A 
ATOM     19  C   UNL d   1      -0.761   4.093  -4.702  0.00  0.00     0.068 A 
ATOM     20  C   UNL d   1      -0.858   4.274  -3.323  0.00  0.00     0.037 A 
ATOM     21  C   UNL d   1      -0.170   3.432  -2.440  0.00  0.00     0.011 A 
BRANCH  19  22
ATOM     22  O   UNL d   1      -1.449   4.996  -5.466  0.00  0.00    -0.352 OA
BRANCH  22  23
ATOM     23  C   UNL d   1      -1.265   4.899  -6.880  0.00  0.00     0.171 C 
ATOM     24  C   UNL d   1      -2.113   5.961  -7.554  0.00  0.00     0.034 C 
ENDBRANCH  22  23
ENDBRANCH  19  22
ENDBRANCH   1  16
TORSDOF 8
