REMARK  5 active torsions:
REMARK  status: ('A' for Active; 'I' for Inactive)
REMARK    1  A    between atoms: N_5  and  C_3 
REMARK    2  A    between atoms: S_14  and  C_4 
REMARK    3  A    between atoms: C_13  and  C_6 
REMARK    4  A    between atoms: C_10  and  C_15 
REMARK    5  A    between atoms: C_11  and  S_14 
ROOT
ATOM      1  N   UNL d   1      -0.032   0.345  -0.985  0.00  0.00    -0.320 N 
ATOM      2  HN  UNL d   1      -0.065   0.649  -1.959  1.00  0.00     0.169 HD
ATOM      3  C   UNL d   1       0.007   1.123   0.139  0.00  0.00     0.165 A 
ATOM      4  C   UNL d   1      -0.019  -0.889  -0.517  0.00  0.00     0.132 A 
ATOM      5  N   UNL d   1       0.108   0.448   1.286  0.00  0.00    -0.278 N 
ATOM      6  HN  UNL d   1       0.184   0.801   2.240  1.00  0.00     0.189 HD
ATOM      7  N   UNL d   1       0.082  -0.820   0.848  0.00  0.00    -0.283 N 
ATOM      8  H   UNL d   1       0.154  -1.578   1.516  0.00  0.00     0.188 HD
ENDROOT
BRANCH   3   9
ATOM      9  S   UNL d   1      -0.109   2.862   0.099  0.00  0.00    -0.050 SA
BRANCH   9  10
ATOM     10  C   UNL d   1       1.612   3.327   0.016  0.00  0.00     0.041 A 
ATOM     11  C   UNL d   1       2.311   3.588  -1.169  0.00  0.00     0.120 A 
ATOM     12  C   UNL d   1       3.675   3.935  -1.171  0.00  0.00     0.053 A 
ATOM     13  C   UNL d   1       4.373   4.039   0.040  0.00  0.00     0.050 A 
ATOM     14  C   UNL d   1       3.675   3.810   1.236  0.00  0.00     0.017 A 
ATOM     15  C   UNL d   1       2.317   3.458   1.222  0.00  0.00     0.022 A 
BRANCH  11  16
ATOM     16  N   UNL d   1       1.647   3.528  -2.457  0.00  0.00    -0.114 N 
ATOM     17  O   UNL d   1       0.746   4.347  -2.672  0.00  0.00    -0.532 OA
ATOM     18  O   UNL d   1       2.093   2.710  -3.275  0.00  0.00    -0.532 OA
ENDBRANCH  11  16
BRANCH  13  19
ATOM     19  C   UNL d   1       5.845   4.380   0.073  0.00  0.00     0.417 C 
ATOM     20  F   UNL d   1       6.389   4.550  -1.163  0.00  0.00    -0.166 F 
ATOM     21  F   UNL d   1       6.098   5.529   0.757  0.00  0.00    -0.166 F 
ATOM     22  F   UNL d   1       6.585   3.410   0.678  0.00  0.00    -0.166 F 
ENDBRANCH  13  19
ENDBRANCH   9  10
ENDBRANCH   3   9
BRANCH   4  23
ATOM     23  C   UNL d   1      -0.051  -2.132  -1.286  0.00  0.00     0.013 A 
ATOM     24  C   UNL d   1       0.479  -2.154  -2.584  0.00  0.00     0.039 A 
ATOM     25  C   UNL d   1       0.505  -3.342  -3.317  0.00  0.00     0.036 A 
ATOM     26 CL   UNL d   1       1.202  -3.360  -4.890  0.00  0.00    -0.084 Cl
ATOM     27  C   UNL d   1      -0.011  -4.518  -2.782  0.00  0.00     0.047 A 
ATOM     28  C   UNL d   1      -0.567  -4.494  -1.508  0.00  0.00     0.036 A 
ATOM     29  C   UNL d   1      -0.593  -3.314  -0.760  0.00  0.00     0.039 A 
ATOM     30 CL   UNL d   1      -1.223  -5.937  -0.836  0.00  0.00    -0.084 Cl
ENDBRANCH   4  23
TORSDOF 5
