REMARK  2 active torsions:
REMARK  status: ('A' for Active; 'I' for Inactive)
REMARK       I    between atoms: N_4  and  C_1 
REMARK    1  A    between atoms: C_3  and  C_1 
REMARK    2  A    between atoms: C_10  and  N_4 
ROOT
ATOM      1  N   UNL d   1      -1.074   0.891  -0.100  0.00  0.00     0.101 N 
ATOM      2  C   UNL d   1       0.145   1.217  -0.899  0.00  0.00     0.316 C 
ATOM      3  C   UNL d   1      -0.094   1.204  -2.416  0.00  0.00     0.084 C 
ATOM      4  C   UNL d   1      -0.441  -0.217  -2.763  0.00  0.00    -0.048 A 
ATOM      5  C   UNL d   1      -1.961  -0.087  -0.773  0.00  0.00     0.310 C 
ATOM      6  C   UNL d   1      -1.325  -0.881  -1.894  0.00  0.00    -0.024 A 
ATOM      7  C   UNL d   1       0.156  -0.891  -3.830  0.00  0.00     0.008 A 
ATOM      8  C   UNL d   1      -1.613  -2.230  -2.116  0.00  0.00     0.009 A 
ATOM      9  C   UNL d   1      -0.114  -2.244  -4.023  0.00  0.00     0.001 A 
ATOM     10  C   UNL d   1      -0.995  -2.911  -3.169  0.00  0.00     0.001 A 
ATOM     11  H   UNL d   1      -1.613   1.751   0.018  0.00  0.00     0.317 HD
ENDROOT
BRANCH   2  12
ATOM     12  C   UNL d   1       0.765   2.548  -0.450  0.00  0.00     0.252 C 
ATOM     13  N   UNL d   1       0.763   2.728   0.919  0.00  0.00    -0.351 N 
ATOM     14  H   UNL d   1       0.376   1.950   1.452  0.00  0.00     0.163 HD
ATOM     15  O   UNL d   1       1.290   3.332  -1.237  0.00  0.00    -0.271 OA
BRANCH  13  16
ATOM     16  C   UNL d   1       1.487   3.792   1.628  0.00  0.00     0.022 C 
ATOM     17  C   UNL d   1       1.049   5.183   1.141  0.00  0.00     0.037 C 
ATOM     18  C   UNL d   1       1.169   3.685   3.129  0.00  0.00     0.037 C 
ATOM     19  C   UNL d   1       3.005   3.625   1.440  0.00  0.00     0.037 C 
ENDBRANCH  13  16
ENDBRANCH   2  12
TORSDOF 2
