REMARK  7 active torsions:
REMARK  status: ('A' for Active; 'I' for Inactive)
REMARK    1  A    between atoms: N_11  and  C_1 
REMARK    2  A    between atoms: N_15  and  C_1 
REMARK    3  A    between atoms: O_17  and  C_2 
REMARK    4  A    between atoms: C_3  and  C_12 
REMARK    5  A    between atoms: N_5  and  N_11 
REMARK    6  A    between atoms: C_12  and  N_5 
REMARK       I    between atoms: C_7  and  N_8 
REMARK    7  A    between atoms: N_8  and  C_10 
ROOT
ATOM      1  C   UNL d   1      -3.833   1.701  -0.513  0.00  0.00     0.082 A 
ATOM      2  C   UNL d   1      -3.101   1.861  -1.691  0.00  0.00     0.014 A 
ATOM      3  C   UNL d   1      -5.235   1.680  -0.570  0.00  0.00     0.067 A 
ATOM      4  C   UNL d   1      -5.914   1.845  -1.790  0.00  0.00     0.037 A 
ATOM      5  C   UNL d   1      -3.773   2.062  -2.901  0.00  0.00     0.018 A 
ATOM      6  C   UNL d   1      -5.167   2.054  -2.948  0.00  0.00     0.030 A 
ENDROOT
BRANCH   2   7
ATOM      7  C   UNL d   1      -1.631   1.755  -1.733  0.00  0.00     0.121 C 
BRANCH   7   8
ATOM      8  N   UNL d   1      -0.970   2.321  -2.691  0.00  0.00    -0.309 N 
ATOM      9  HN  UNL d   1      -1.434   2.870  -3.414  1.00  0.00     0.186 HD
BRANCH   8  10
ATOM     10  N   UNL d   1       0.379   2.140  -2.678  0.00  0.00    -0.277 N 
ATOM     11  H   UNL d   1       0.817   1.521  -2.003  0.00  0.00     0.189 HD
BRANCH  10  12
ATOM     12  C   UNL d   1       1.158   2.710  -3.649  0.00  0.00     0.184 C 
ATOM     13  S   UNL d   1       2.792   2.452  -3.752  0.00  0.00    -0.040 SA
BRANCH  12  14
ATOM     14  N   UNL d   1       0.496   3.509  -4.523  0.00  0.00    -0.375 N 
ATOM     15  H   UNL d   1       0.960   3.960  -5.296  0.00  0.00     0.158 HD
ATOM     16  H   UNL d   1      -0.507   3.579  -4.403  0.00  0.00     0.158 HD
ENDBRANCH  12  14
ENDBRANCH  10  12
ENDBRANCH   8  10
ENDBRANCH   7   8
ENDBRANCH   2   7
BRANCH   1  17
ATOM     17  O   UNL d   1      -3.273   1.480   0.719  0.00  0.00    -0.355 OA
ATOM     18  C   UNL d   1      -2.491   2.584   1.185  0.00  0.00     0.210 C 
ENDBRANCH   1  17
BRANCH   4  19
ATOM     19  N   UNL d   1      -7.324   1.764  -1.781  0.00  0.00    -0.327 N 
ATOM     20  C   UNL d   1      -8.169   1.824  -2.876  0.00  0.00     0.218 C 
ATOM     21  O   UNL d   1      -7.846   1.998  -4.048  0.00  0.00    -0.274 OA
ATOM     22  C   UNL d   1      -9.622   1.627  -2.522  0.00  0.00     0.117 C 
ATOM     23  H   UNL d   1      -7.752   1.605  -0.877  0.00  0.00     0.169 HD
ENDBRANCH   4  19
TORSDOF 7
