REMARK  5 active torsions:
REMARK  status: ('A' for Active; 'I' for Inactive)
REMARK    1  A    between atoms: C_5  and  S_1 
REMARK    2  A    between atoms: N_10  and  S_1 
REMARK    3  A    between atoms: C_7  and  C_2 
REMARK    4  A    between atoms: N_6  and  C_14 
REMARK    5  A    between atoms: C_20  and  N_10 
ROOT
ATOM      1  C   UNL d   1       1.605  -3.900   3.704  0.00  0.00     0.056 A 
ATOM      2  C   UNL d   1       0.871  -1.518   2.424  0.00  0.00     0.042 A 
ATOM      3  C   UNL d   1       0.251  -3.563   3.555  0.00  0.00     0.034 A 
ATOM      4  C   UNL d   1       2.587  -3.003   3.256  0.00  0.00     0.034 A 
ATOM      5  C   UNL d   1      -0.113  -2.372   2.915  0.00  0.00     0.032 A 
ATOM      6  C   UNL d   1       2.218  -1.822   2.608  0.00  0.00     0.032 A 
ENDROOT
BRANCH   2   7
ATOM      7  N   UNL d   1       0.525  -0.435   1.586  0.00  0.00    -0.281 N 
ATOM      8  H   UNL d   1       0.426  -0.579   0.584  0.00  0.00     0.179 HD
BRANCH   7   9
ATOM      9  S   UNL d   1       0.061   1.054   2.173  0.00  0.00     0.265 S 
ATOM     10  O   UNL d   1      -0.197   1.909   1.040  0.00  0.00    -0.200 OA
ATOM     11  O   UNL d   1      -0.974   0.834   3.170  0.00  0.00    -0.200 OA
BRANCH   9  12
ATOM     12  C   UNL d   1       1.505   1.664   3.004  0.00  0.00     0.103 A 
ATOM     13  C   UNL d   1       2.691   1.960   2.320  0.00  0.00     0.079 A 
ATOM     14  C   UNL d   1       3.772   2.486   3.051  0.00  0.00     0.057 A 
ATOM     15 CL   UNL d   1       2.883   1.645   0.624  0.00  0.00    -0.081 Cl
ATOM     16 CL   UNL d   1       5.279   2.916   2.312  0.00  0.00    -0.083 Cl
ATOM     17  C   UNL d   1       3.674   2.683   4.434  0.00  0.00     0.026 A 
ATOM     18  C   UNL d   1       2.497   2.369   5.104  0.00  0.00     0.003 A 
ATOM     19  C   UNL d   1       1.411   1.870   4.392  0.00  0.00     0.027 A 
ENDBRANCH   9  12
ENDBRANCH   7   9
ENDBRANCH   2   7
BRANCH   1  20
ATOM     20  N   UNL d   1       2.000  -5.150   4.264  0.00  0.00    -0.267 N 
ATOM     21  N   UNL d   1       3.313  -5.462   4.421  0.00  0.00    -0.290 N 
ATOM     22  C   UNL d   1       3.329  -6.690   4.975  0.00  0.00     0.134 A 
ATOM     23  HN  UNL d   1       4.118  -4.887   4.172  1.00  0.00     0.187 HD
ATOM     24  C   UNL d   1       2.012  -7.182   5.142  0.00  0.00     0.055 A 
ATOM     25  C   UNL d   1       1.191  -6.183   4.681  0.00  0.00     0.119 A 
BRANCH  22  26
ATOM     26  C   UNL d   1       4.593  -7.410   5.371  0.00  0.00     0.434 C 
ATOM     27  F   UNL d   1       5.730  -6.736   5.058  0.00  0.00    -0.165 F 
ATOM     28  F   UNL d   1       4.629  -7.638   6.712  0.00  0.00    -0.165 F 
ATOM     29  F   UNL d   1       4.684  -8.630   4.774  0.00  0.00    -0.165 F 
ENDBRANCH  22  26
ENDBRANCH   1  20
TORSDOF 5
