REMARK  4 active torsions:
REMARK  status: ('A' for Active; 'I' for Inactive)
REMARK    1  A    between atoms: C_2  and  C_1 
REMARK       I    between atoms: N_3  and  C_1 
REMARK    2  A    between atoms: C_6  and  N_3 
REMARK    3  A    between atoms: C_4  and  O_7 
REMARK    4  A    between atoms: O_7  and  C_5 
ROOT
ATOM      1  C   UNL d   1      -1.722   1.550   1.582  0.00  0.00     0.106 A 
ATOM      2  C   UNL d   1      -1.066   0.386   1.135  0.00  0.00     0.069 A 
ATOM      3  C   UNL d   1      -3.126   1.566   1.660  0.00  0.00     0.063 A 
ATOM      4  C   UNL d   1      -1.844  -0.754   0.862  0.00  0.00     0.034 A 
ATOM      5  C   UNL d   1      -3.874   0.432   1.358  0.00  0.00     0.036 A 
ATOM      6  C   UNL d   1      -3.236  -0.737   0.974  0.00  0.00     0.026 A 
ATOM      7 CL   UNL d   1      -5.590   0.487   1.442  0.00  0.00    -0.084 Cl
ENDROOT
BRANCH   2   8
ATOM      8  N   UNL d   1       0.337   0.340   0.944  0.00  0.00    -0.320 N 
ATOM      9  C   UNL d   1       0.994  -0.477   0.038  0.00  0.00     0.262 C 
ATOM     10  O   UNL d   1       0.442  -1.205  -0.781  0.00  0.00    -0.267 OA
ATOM     11  H   UNL d   1       0.908   0.984   1.474  0.00  0.00     0.169 HD
BRANCH   9  12
ATOM     12  C   UNL d   1       2.481  -0.412   0.036  0.00  0.00     0.109 A 
ATOM     13  C   UNL d   1       3.206  -0.051   1.173  0.00  0.00     0.135 A 
ATOM     14  F   UNL d   1       2.580   0.304   2.305  0.00  0.00    -0.205 F 
ATOM     15  C   UNL d   1       4.601  -0.050   1.171  0.00  0.00     0.043 A 
ATOM     16  C   UNL d   1       5.297  -0.402   0.018  0.00  0.00     0.006 A 
ATOM     17  C   UNL d   1       4.587  -0.753  -1.130  0.00  0.00     0.043 A 
ATOM     18  C   UNL d   1       3.191  -0.757  -1.113  0.00  0.00     0.135 A 
ATOM     19  F   UNL d   1       2.564  -1.080  -2.255  0.00  0.00    -0.205 F 
ENDBRANCH   9  12
ENDBRANCH   2   8
BRANCH   1  20
ATOM     20  O   UNL d   1      -1.181   2.785   1.800  0.00  0.00    -0.253 OA
BRANCH  20  21
ATOM     21  C   UNL d   1       0.012   2.906   2.545  0.00  0.00     0.530 C 
ATOM     22  F   UNL d   1       0.347   1.775   3.201  0.00  0.00    -0.144 F 
ATOM     23  F   UNL d   1       1.024   3.226   1.711  0.00  0.00    -0.144 F 
ATOM     24  F   UNL d   1      -0.129   3.897   3.449  0.00  0.00    -0.144 F 
ENDBRANCH  20  21
ENDBRANCH   1  20
TORSDOF 4
