REMARK  2 active torsions:
REMARK  status: ('A' for Active; 'I' for Inactive)
REMARK    1  A    between atoms: C_8  and  C_1 
REMARK    2  A    between atoms: O_13  and  C_8 
ROOT
ATOM      1  C   UNL d   1       0.081  -1.503  -0.005  0.00  0.00     0.058 A 
ATOM      2  C   UNL d   1       1.312  -0.797   0.010  0.00  0.00     0.011 A 
ATOM      3  N   UNL d   1       0.053   1.257  -0.049  0.00  0.00    -0.358 N 
ATOM      4  HN  UNL d   1       0.036   2.276  -0.089  1.00  0.00     0.166 HD
ATOM      5  C   UNL d   1       1.221   0.607  -0.022  0.00  0.00     0.043 A 
ATOM      6  C   UNL d   1      -1.157  -0.830   0.020  0.00  0.00    -0.018 A 
ATOM      7  C   UNL d   1      -1.109   0.560  -0.023  0.00  0.00     0.017 A 
ATOM      8  C   UNL d   1       2.601  -1.388   0.065  0.00  0.00     0.057 A 
ATOM      9  C   UNL d   1       2.384   1.367  -0.027  0.00  0.00     0.033 A 
ATOM     10  C   UNL d   1       3.745  -0.597   0.058  0.00  0.00     0.117 A 
ATOM     11  C   UNL d   1       3.647   0.779   0.008  0.00  0.00     0.044 A 
ATOM     12  F   UNL d   1       4.949  -1.180   0.099  0.00  0.00    -0.206 F 
ATOM     13  C   UNL d   1      -2.481  -1.558   0.015  0.00  0.00     0.042 C 
ATOM     14  C   UNL d   1      -2.356   1.407   0.011  0.00  0.00     0.057 C 
ATOM     15  C   UNL d   1      -3.683  -0.671   0.349  0.00  0.00     0.005 C 
ATOM     16  C   UNL d   1      -3.608   0.647  -0.406  0.00  0.00     0.006 C 
ENDROOT
BRANCH   1  17
ATOM     17  C   UNL d   1       0.092  -2.985  -0.050  0.00  0.00     0.177 C 
ATOM     18  O   UNL d   1      -0.421  -3.693   0.797  0.00  0.00    -0.646 OA
BRANCH  17  19
ATOM     19  O   UNL d   1       0.700  -3.464  -1.157  0.00  0.00    -0.773 OA
ATOM     20  H   UNL d   1       1.031  -2.785  -1.776  0.00  0.00     0.167 HD
ENDBRANCH  17  19
ENDBRANCH   1  17
TORSDOF 2
