REMARK  5 active torsions:
REMARK  status: ('A' for Active; 'I' for Inactive)
REMARK    1  A    between atoms: C_2  and  C_1 
REMARK    2  A    between atoms: C_3  and  C_2 
REMARK    3  A    between atoms: C_8  and  C_3 
REMARK    4  A    between atoms: N_9  and  C_5 
REMARK       I    between atoms: C_12  and  N_9 
REMARK    5  A    between atoms: C_13  and  C_12 
ROOT
ATOM      1  C   UNL d   1      -0.230   1.133  -0.045  0.00  0.00     0.148 A 
ATOM      2  S   UNL d   1       1.003   0.053  -0.550  0.00  0.00    -0.031 SA
ATOM      3  C   UNL d   1      -0.003  -1.229  -0.055  0.00  0.00     0.168 A 
ATOM      4  N   UNL d   1      -1.315   0.533   0.396  0.00  0.00    -0.290 N 
ATOM      5  HN  UNL d   1      -2.153   1.023   0.709  1.00  0.00     0.187 HD
ATOM      6  N   UNL d   1      -1.180  -0.841   0.383  0.00  0.00    -0.279 N 
ATOM      7  HN  UNL d   1      -1.914  -1.485   0.680  1.00  0.00     0.189 HD
ENDROOT
BRANCH   1   8
ATOM      8  C   UNL d   1       0.011   2.608  -0.107  0.00  0.00     0.366 C 
ATOM      9  F   UNL d   1       1.276   2.895   0.344  0.00  0.00    -0.191 F 
ATOM     10  F   UNL d   1       0.018   3.015  -1.417  0.00  0.00    -0.191 F 
BRANCH   8  11
ATOM     11  C   UNL d   1      -0.969   3.467   0.665  0.00  0.00     0.409 C 
ATOM     12  F   UNL d   1      -0.565   4.775   0.538  0.00  0.00    -0.189 F 
ATOM     13  F   UNL d   1      -2.219   3.436   0.121  0.00  0.00    -0.189 F 
BRANCH  11  14
ATOM     14  C   UNL d   1      -0.998   3.089   2.136  0.00  0.00     0.461 C 
ATOM     15  F   UNL d   1       0.122   2.452   2.547  0.00  0.00    -0.165 F 
ATOM     16  F   UNL d   1      -1.134   4.186   2.925  0.00  0.00    -0.165 F 
ATOM     17  F   UNL d   1      -2.044   2.282   2.435  0.00  0.00    -0.165 F 
ENDBRANCH  11  14
ENDBRANCH   8  11
ENDBRANCH   1   8
BRANCH   3  18
ATOM     18  N   UNL d   1       0.369  -2.544  -0.128  0.00  0.00    -0.301 N 
ATOM     19  C   UNL d   1       1.609  -3.041  -0.460  0.00  0.00     0.264 C 
ATOM     20  O   UNL d   1       2.594  -2.351  -0.714  0.00  0.00    -0.267 OA
ATOM     21  H   UNL d   1      -0.354  -3.201   0.155  0.00  0.00     0.171 HD
BRANCH  19  22
ATOM     22  C   UNL d   1       1.712  -4.504  -0.484  0.00  0.00     0.072 A 
ATOM     23  S   UNL d   1       0.357  -5.527  -0.223  0.00  0.00    -0.097 SA
ATOM     24  C   UNL d   1       1.294  -6.938  -0.457  0.00  0.00     0.050 A 
ATOM     25  C   UNL d   1       2.613  -6.643  -0.714  0.00  0.00     0.009 A 
ATOM     26  C   UNL d   1       2.851  -5.241  -0.724  0.00  0.00     0.025 A 
ENDBRANCH  19  22
ENDBRANCH   3  18
TORSDOF 5
