REMARK  3 active torsions:
REMARK  status: ('A' for Active; 'I' for Inactive)
REMARK    1  A    between atoms: C_8  and  C_2 
REMARK    2  A    between atoms: C_9  and  C_3 
REMARK    3  A    between atoms: O_15  and  C_12 
ROOT
ATOM      1  N   UNL d   1       0.007  -1.082   0.181  0.00  0.00    -0.179 NA
ATOM      2  C   UNL d   1      -1.138  -0.656  -0.680  0.00  0.00     0.122 C 
ATOM      3  C   UNL d   1       1.323  -0.678  -0.399  0.00  0.00     0.122 C 
ATOM      4  O   UNL d   1      -0.108  -0.055   1.239  0.00  0.00    -0.297 OA
ATOM      5  C   UNL d   1       0.001   1.111   0.420  0.00  0.00     0.149 C 
ATOM      6  C   UNL d   1       1.329   0.855  -0.267  0.00  0.00     0.060 C 
ATOM      7  C   UNL d   1      -1.149   0.879  -0.540  0.00  0.00     0.060 C 
ENDROOT
BRANCH   2   8
ATOM      8  C   UNL d   1      -1.182  -1.224  -2.090  0.00  0.00    -0.038 A 
ATOM      9  C   UNL d   1      -0.675  -2.506  -2.364  0.00  0.00     0.011 A 
ATOM     10  C   UNL d   1      -0.749  -3.061  -3.648  0.00  0.00     0.037 A 
ATOM     11  C   UNL d   1      -1.361  -2.355  -4.680  0.00  0.00     0.068 A 
ATOM     12  C   UNL d   1      -1.910  -1.103  -4.413  0.00  0.00     0.037 A 
ATOM     13  C   UNL d   1      -1.825  -0.543  -3.134  0.00  0.00     0.011 A 
BRANCH  11  14
ATOM     14  O   UNL d   1      -1.525  -2.797  -5.963  0.00  0.00    -0.356 OA
ATOM     15  C   UNL d   1      -0.624  -3.809  -6.395  0.00  0.00     0.210 C 
ENDBRANCH  11  14
ENDBRANCH   2   8
BRANCH   3  16
ATOM     16  C   UNL d   1       2.526  -1.319   0.288  0.00  0.00    -0.038 A 
ATOM     17  C   UNL d   1       2.400  -2.212   1.366  0.00  0.00     0.009 A 
ATOM     18  C   UNL d   1       3.527  -2.781   1.962  0.00  0.00     0.001 A 
ATOM     19  C   UNL d   1       4.800  -2.473   1.491  0.00  0.00     0.000 A 
ATOM     20  C   UNL d   1       4.947  -1.601   0.417  0.00  0.00     0.001 A 
ATOM     21  C   UNL d   1       3.820  -1.031  -0.181  0.00  0.00     0.009 A 
ENDBRANCH   3  16
TORSDOF 3
