REMARK  6 active torsions:
REMARK  status: ('A' for Active; 'I' for Inactive)
REMARK    1  A    between atoms: C_2  and  C_1 
REMARK       I    between atoms: N_4  and  C_2 
REMARK    2  A    between atoms: C_3  and  C_7 
REMARK    3  A    between atoms: C_5  and  N_4 
REMARK    4  A    between atoms: O_9  and  C_8 
REMARK    5  A    between atoms: C_13  and  O_9 
REMARK    6  A    between atoms: O_25  and  C_17 
ROOT
ATOM      1  C   UNL d   1      -1.148  -4.340  -0.088  0.00  0.00     0.070 A 
ATOM      2  C   UNL d   1       0.008  -6.465  -0.447  0.00  0.00     0.050 A 
ATOM      3  C   UNL d   1      -0.218  -3.988   0.902  0.00  0.00     0.103 A 
ATOM      4  C   UNL d   1      -1.046  -5.585  -0.730  0.00  0.00     0.048 A 
ATOM      5  C   UNL d   1       0.924  -6.113   0.550  0.00  0.00     0.019 A 
ATOM      6  C   UNL d   1       0.798  -4.900   1.232  0.00  0.00     0.040 A 
ENDROOT
BRANCH   1   7
ATOM      7  N   UNL d   1      -2.240  -3.543  -0.484  0.00  0.00    -0.320 N 
ATOM      8  C   UNL d   1      -2.162  -2.205  -0.817  0.00  0.00     0.258 C 
ATOM      9  O   UNL d   1      -1.136  -1.532  -0.790  0.00  0.00    -0.267 OA
ATOM     10  H   UNL d   1      -3.018  -4.047  -0.896  0.00  0.00     0.169 HD
BRANCH   8  11
ATOM     11  C   UNL d   1      -3.433  -1.563  -1.289  0.00  0.00     0.054 A 
ATOM     12  C   UNL d   1      -4.537  -2.232  -1.853  0.00  0.00     0.051 A 
ATOM     13  C   UNL d   1      -5.703  -1.526  -2.186  0.00  0.00     0.048 A 
ATOM     14 CL   UNL d   1      -4.559  -3.922  -2.231  0.00  0.00    -0.083 Cl
ATOM     15  C   UNL d   1      -5.766  -0.150  -1.987  0.00  0.00     0.035 A 
ATOM     16  C   UNL d   1      -4.669   0.536  -1.478  0.00  0.00     0.025 A 
ATOM     17 CL   UNL d   1      -7.207   0.701  -2.376  0.00  0.00    -0.084 Cl
ATOM     18  C   UNL d   1      -3.510  -0.167  -1.134  0.00  0.00     0.020 A 
ENDBRANCH   8  11
ENDBRANCH   1   7
BRANCH   3  19
ATOM     19  O   UNL d   1      -0.414  -2.829   1.636  0.00  0.00    -0.306 OA
BRANCH  19  20
ATOM     20  C   UNL d   1       0.702  -2.155   2.092  0.00  0.00     0.109 A 
ATOM     21  C   UNL d   1       0.760  -1.694   3.414  0.00  0.00     0.102 A 
ATOM     22  C   UNL d   1       1.884  -0.976   3.844  0.00  0.00     0.039 A 
ATOM     23  C   UNL d   1       2.952  -0.736   2.979  0.00  0.00     0.003 A 
ATOM     24  C   UNL d   1       2.885  -1.172   1.659  0.00  0.00     0.003 A 
ATOM     25  C   UNL d   1       1.754  -1.857   1.211  0.00  0.00     0.040 A 
BRANCH  21  26
ATOM     26  O   UNL d   1      -0.217  -1.816   4.365  0.00  0.00    -0.353 OA
ATOM     27  C   UNL d   1      -0.817  -3.101   4.460  0.00  0.00     0.210 C 
ENDBRANCH  21  26
ENDBRANCH  19  20
ENDBRANCH   3  19
BRANCH   2  28
ATOM     28  C   UNL d   1       0.168  -7.750  -1.219  0.00  0.00     0.417 C 
ATOM     29  F   UNL d   1      -0.865  -8.005  -2.070  0.00  0.00    -0.166 F 
ATOM     30  F   UNL d   1       1.293  -7.754  -1.988  0.00  0.00    -0.166 F 
ATOM     31  F   UNL d   1       0.262  -8.840  -0.411  0.00  0.00    -0.166 F 
ENDBRANCH   2  28
TORSDOF 6
