REMARK  3 active torsions:
REMARK  status: ('A' for Active; 'I' for Inactive)
REMARK    1  A    between atoms: C_12  and  C_8 
REMARK    2  A    between atoms: C_11  and  C_13 
REMARK    3  A    between atoms: O_22  and  C_12 
ROOT
ATOM      1  N   UNL d   1      -0.720   0.344  -0.001  0.00  0.00    -0.256 N 
ATOM      2  C   UNL d   1      -0.993  -1.002  -0.004  0.00  0.00     0.160 A 
ATOM      3  C   UNL d   1      -1.657   1.375   0.002  0.00  0.00     0.255 A 
ATOM      4  N   UNL d   1       0.081  -1.749  -0.004  0.00  0.00    -0.334 N 
ATOM      5  HN  UNL d   1       0.130  -2.768  -0.006  1.00  0.00     0.168 HD
ATOM      6  C   UNL d   1      -3.086   0.994   0.008  0.00  0.00     0.100 A 
ATOM      7  S   UNL d   1      -2.573  -1.678  -0.009  0.00  0.00    -0.047 SA
ATOM      8  C   UNL d   1      -3.557  -0.261   0.005  0.00  0.00     0.088 A 
ATOM      9  C   UNL d   1       1.119  -0.871  -0.003  0.00  0.00     0.062 A 
ATOM     10  C   UNL d   1       0.672   0.448  -0.002  0.00  0.00     0.071 A 
ATOM     11  C   UNL d   1       3.414  -0.096  -0.000  0.00  0.00     0.050 A 
ATOM     12  C   UNL d   1       2.492  -1.153  -0.002  0.00  0.00     0.048 A 
ATOM     13  C   UNL d   1       1.569   1.528  -0.000  0.00  0.00     0.033 A 
ATOM     14  O   UNL d   1      -1.301   2.546   0.002  0.00  0.00    -0.268 OA
ATOM     15  C   UNL d   1       2.942   1.227   0.001  0.00  0.00     0.018 A 
ENDROOT
BRANCH   8  16
ATOM     16  C   UNL d   1      -5.031  -0.555   0.013  0.00  0.00     0.300 C 
ATOM     17  O   UNL d   1      -5.502  -1.686   0.006  0.00  0.00    -0.259 OA
BRANCH  16  18
ATOM     18  O   UNL d   1      -5.781   0.579   0.030  0.00  0.00    -0.322 OA
ATOM     19  C   UNL d   1      -7.188   0.312   0.041  0.00  0.00     0.213 C 
ENDBRANCH  16  18
ENDBRANCH   8  16
BRANCH  11  20
ATOM     20  C   UNL d   1       4.895  -0.384  -0.001  0.00  0.00     0.417 C 
ATOM     21  F   UNL d   1       5.193  -1.715   0.002  0.00  0.00    -0.166 F 
ATOM     22  F   UNL d   1       5.526   0.135  -1.089  0.00  0.00    -0.166 F 
ATOM     23  F   UNL d   1       5.528   0.138   1.086  0.00  0.00    -0.166 F 
ENDBRANCH  11  20
TORSDOF 3
