REMARK  12 active torsions:
REMARK  status: ('A' for Active; 'I' for Inactive)
REMARK    1  A    between atoms: C_2  and  S_1 
REMARK    2  A    between atoms: N_3  and  S_1 
REMARK    3  A    between atoms: C_28  and  N_3 
REMARK    4  A    between atoms: C_29  and  N_3 
REMARK    5  A    between atoms: C_4  and  C_11 
REMARK       I    between atoms: N_13  and  C_4 
REMARK    6  A    between atoms: N_9  and  N_13 
REMARK    7  A    between atoms: N_14  and  C_12 
REMARK    8  A    between atoms: C_27  and  N_14 
REMARK    9  A    between atoms: C_24  and  C_22 
REMARK   10  A    between atoms: C_23  and  C_27 
REMARK   11  A    between atoms: C_31  and  C_28 
REMARK   12  A    between atoms: C_32  and  C_29 
ROOT
ATOM      1  N   UNL d   1       1.242   9.973 -14.898  0.00  0.00    -0.197 NA
ATOM      2  C   UNL d   1       0.888   9.064 -14.266  0.00  0.00     0.060 C 
ATOM      3  C   UNL d   1       0.422   7.918 -13.474  0.00  0.00     0.143 C 
ENDROOT
BRANCH   3   4
ATOM      4  C   UNL d   1      -1.094   7.994 -13.286  0.00  0.00     0.136 C 
BRANCH   4   5
ATOM      5  N   UNL d   1      -1.639   6.774 -12.669  0.00  0.00    -0.384 N 
ATOM      6  C   UNL d   1      -2.398   5.894 -13.561  0.00  0.00     0.149 C 
BRANCH   5   7
ATOM      7  C   UNL d   1      -1.419   6.429 -11.343  0.00  0.00     0.029 A 
ATOM      8  C   UNL d   1      -1.091   7.377 -10.354  0.00  0.00     0.030 A 
ATOM      9  C   UNL d   1      -0.910   7.025  -9.001  0.00  0.00     0.015 A 
ATOM     10  C   UNL d   1      -1.053   5.697  -8.610  0.00  0.00    -0.019 A 
ATOM     11  C   UNL d   1      -1.365   4.736  -9.567  0.00  0.00     0.015 A 
ATOM     12  C   UNL d   1      -1.532   5.100 -10.906  0.00  0.00     0.030 A 
BRANCH  10  13
ATOM     13  C   UNL d   1      -0.851   5.273  -7.206  0.00  0.00     0.118 C 
ATOM     14  N   UNL d   1      -1.048   4.035  -6.891  0.00  0.00    -0.308 N 
ATOM     15  HN  UNL d   1      -1.388   3.372  -7.587  1.00  0.00     0.186 HD
BRANCH  14  16
ATOM     16  N   UNL d   1      -0.794   3.629  -5.620  0.00  0.00    -0.266 N 
ATOM     17  C   UNL d   1      -1.001   2.283  -5.326  0.00  0.00     0.270 C 
ATOM     18  O   UNL d   1      -1.518   1.484  -6.106  0.00  0.00    -0.266 OA
ATOM     19  H   UNL d   1      -0.359   4.278  -4.982  0.00  0.00     0.190 HD
BRANCH  17  20
ATOM     20  C   UNL d   1      -0.532   1.773  -3.999  0.00  0.00     0.033 A 
ATOM     21  C   UNL d   1       0.071   2.580  -3.025  0.00  0.00     0.018 A 
ATOM     22  C   UNL d   1       0.537   2.016  -1.833  0.00  0.00     0.026 A 
ATOM     23  C   UNL d   1       0.426   0.638  -1.621  0.00  0.00     0.074 A 
ATOM     24  C   UNL d   1      -0.209  -0.175  -2.557  0.00  0.00     0.026 A 
ATOM     25  C   UNL d   1      -0.683   0.396  -3.741  0.00  0.00     0.018 A 
BRANCH  23  26
ATOM     26  S   UNL d   1       1.033  -0.068  -0.103  0.00  0.00     0.243 S 
ATOM     27  O   UNL d   1       0.164  -1.178   0.216  0.00  0.00    -0.206 OA
ATOM     28  O   UNL d   1       1.222   1.019   0.836  0.00  0.00    -0.206 OA
BRANCH  26  29
ATOM     29  N   UNL d   1       2.616  -0.672  -0.510  0.00  0.00    -0.206 NA
BRANCH  29  30
ATOM     30  C   UNL d   1       3.500   0.385  -1.119  0.00  0.00     0.107 C 
BRANCH  30  31
ATOM     31  C   UNL d   1       4.890  -0.089  -1.554  0.00  0.00     0.011 C 
ATOM     32  C   UNL d   1       4.872  -1.275  -2.504  0.00  0.00     0.006 C 
ENDBRANCH  30  31
ENDBRANCH  29  30
BRANCH  29  33
ATOM     33  C   UNL d   1       3.269  -1.357   0.662  0.00  0.00     0.107 C 
BRANCH  33  34
ATOM     34  C   UNL d   1       2.643  -2.704   1.022  0.00  0.00     0.011 C 
ATOM     35  C   UNL d   1       2.558  -3.665  -0.154  0.00  0.00     0.006 C 
ENDBRANCH  33  34
ENDBRANCH  29  33
ENDBRANCH  26  29
ENDBRANCH  23  26
ENDBRANCH  17  20
ENDBRANCH  14  16
ENDBRANCH  10  13
ENDBRANCH   5   7
ENDBRANCH   4   5
ENDBRANCH   3   4
TORSDOF 12
