REMARK  1 active torsions:
REMARK  status: ('A' for Active; 'I' for Inactive)
REMARK    1  A    between atoms: N_4  and  C_1 
ROOT
ATOM      1  C   UNL d   1       1.190  -1.207  -0.029  0.00  0.00     0.186 A 
ATOM      2  N   UNL d   1       0.061   0.913  -0.049  0.00  0.00    -0.273 N 
ATOM      3  C   UNL d   1       1.278   0.264  -0.003  0.00  0.00     0.283 A 
ATOM      4  C   UNL d   1      -1.172   0.316  -0.003  0.00  0.00     0.327 A 
ATOM      5  C   UNL d   1      -0.008  -1.805  -0.006  0.00  0.00     0.134 A 
ATOM      6  N   UNL d   1      -1.159  -1.056   0.013  0.00  0.00    -0.316 N 
ATOM      7  O   UNL d   1       2.319   0.900   0.099  0.00  0.00    -0.265 OA
ATOM      8  O   UNL d   1      -2.214   0.958   0.031  0.00  0.00    -0.247 OA
ATOM      9  H   UNL d   1       0.078   1.922  -0.017  0.00  0.00     0.173 HD
ATOM     10  H   UNL d   1      -2.071  -1.505   0.044  0.00  0.00     0.170 HD
ENDROOT
BRANCH   1  11
ATOM     11  N   UNL d   1       2.372  -2.025  -0.050  0.00  0.00    -0.108 N 
ATOM     12  O   UNL d   1       2.317  -3.118   0.535  0.00  0.00    -0.532 OA
ATOM     13  O   UNL d   1       3.346  -1.620  -0.693  0.00  0.00    -0.532 OA
ENDBRANCH   1  11
TORSDOF 1
