REMARK  3 active torsions:
REMARK  status: ('A' for Active; 'I' for Inactive)
REMARK    1  A    between atoms: C_3  and  N_1 
REMARK    2  A    between atoms: S_11  and  C_5 
REMARK    3  A    between atoms: C_15  and  S_11 
ROOT
ATOM      1  N   UNL d   1      -0.038   0.840  -0.100  0.00  0.00    -0.248 N 
ATOM      2  C   UNL d   1      -1.166   0.077   0.067  0.00  0.00     0.232 C 
ATOM      3  C   UNL d   1       1.096   0.057  -0.091  0.00  0.00     0.246 C 
ATOM      4  C   UNL d   1       0.690  -1.397  -0.184  0.00  0.00     0.154 C 
ATOM      5  C   UNL d   1      -0.802  -1.375   0.079  0.00  0.00     0.129 C 
ATOM      6  O   UNL d   1      -2.326   0.446   0.200  0.00  0.00    -0.273 OA
ATOM      7  O   UNL d   1       2.254   0.411   0.083  0.00  0.00    -0.271 OA
ENDROOT
BRANCH   1   8
ATOM      8  C   UNL d   1      -0.034   2.267  -0.170  0.00  0.00     0.086 A 
ATOM      9  C   UNL d   1      -1.065   3.029   0.402  0.00  0.00     0.077 A 
ATOM     10  C   UNL d   1      -1.081   4.421   0.280  0.00  0.00     0.136 A 
ATOM     11  F   UNL d   1      -2.091   5.100   0.842  0.00  0.00    -0.205 F 
ATOM     12  C   UNL d   1      -0.078   5.087  -0.414  0.00  0.00     0.052 A 
ATOM     13  C   UNL d   1       0.957   4.358  -0.987  0.00  0.00     0.067 A 
ATOM     14 BR   UNL d   1      -0.125   6.965  -0.617  0.00  0.00    -0.048 Br
ATOM     15  C   UNL d   1       0.970   2.966  -0.866  0.00  0.00     0.145 A 
ATOM     16  F   UNL d   1       1.922   2.310  -1.543  0.00  0.00    -0.204 F 
ENDBRANCH   1   8
BRANCH   4  17
ATOM     17  S   UNL d   1       1.115  -2.042  -1.844  0.00  0.00    -0.115 SA
BRANCH  17  18
ATOM     18  C   UNL d   1       0.620  -3.749  -1.667  0.00  0.00     0.001 A 
ATOM     19  C   UNL d   1      -0.345  -4.267  -2.538  0.00  0.00     0.020 A 
ATOM     20  C   UNL d   1      -0.758  -5.598  -2.428  0.00  0.00     0.025 A 
ATOM     21  C   UNL d   1      -0.198  -6.418  -1.451  0.00  0.00     0.034 A 
ATOM     22  C   UNL d   1       0.776  -5.918  -0.589  0.00  0.00     0.025 A 
ATOM     23 CL   UNL d   1      -0.705  -8.055  -1.314  0.00  0.00    -0.084 Cl
ATOM     24  C   UNL d   1       1.188  -4.585  -0.700  0.00  0.00     0.020 A 
ENDBRANCH  17  18
ENDBRANCH   4  17
TORSDOF 3
