REMARK  4 active torsions:
REMARK  status: ('A' for Active; 'I' for Inactive)
REMARK    1  A    between atoms: C_4  and  C_1 
REMARK       I    between atoms: N_8  and  C_4 
REMARK    2  A    between atoms: C_19  and  N_8 
REMARK    3  A    between atoms: C_18  and  C_19 
REMARK    4  A    between atoms: O_23  and  C_20 
ROOT
ATOM      1  C   UNL d   1      -3.808  -0.107  -0.072  0.00  0.00     0.268 C 
ATOM      2  N   UNL d   1      -4.479  -1.307  -0.106  0.00  0.00    -0.351 N 
ATOM      3  O   UNL d   1      -4.385   0.976  -0.098  0.00  0.00    -0.266 OA
ATOM      4  H   UNL d   1      -3.958  -2.169  -0.083  0.00  0.00     0.163 HD
ENDROOT
BRANCH   1   5
ATOM      5  C   UNL d   1      -2.363  -0.195  -0.022  0.00  0.00     0.102 A 
ATOM      6  N   UNL d   1      -1.575   0.939   0.024  0.00  0.00    -0.351 N 
ATOM      7  C   UNL d   1      -0.237   0.619   0.024  0.00  0.00     0.043 A 
ATOM      8  H   UNL d   1      -1.953   1.878   0.036  0.00  0.00     0.166 HD
ATOM      9  C   UNL d   1       0.901   1.437   0.047  0.00  0.00     0.033 A 
ATOM     10  C   UNL d   1      -0.157  -0.769  -0.010  0.00  0.00    -0.004 A 
ATOM     11  C   UNL d   1       2.157   0.812   0.026  0.00  0.00     0.039 A 
ATOM     12  C   UNL d   1       2.270  -0.578  -0.015  0.00  0.00     0.069 A 
ATOM     13  C   UNL d   1       1.115  -1.372  -0.027  0.00  0.00     0.050 A 
ATOM     14  C   UNL d   1      -1.490  -1.270  -0.026  0.00  0.00     0.049 A 
BRANCH  12  15
ATOM     15  O   UNL d   1       3.436  -1.296  -0.049  0.00  0.00    -0.356 OA
ATOM     16  C   UNL d   1       4.654  -0.566  -0.062  0.00  0.00     0.210 C 
ENDBRANCH  12  15
ENDBRANCH   1   5
BRANCH   2  17
ATOM     17  C   UNL d   1      -5.911  -1.387  -0.285  0.00  0.00     0.161 C 
BRANCH  17  18
ATOM     18  C   UNL d   1      -6.589  -2.128   0.842  0.00  0.00    -0.038 A 
ATOM     19  C   UNL d   1      -6.511  -1.633   2.155  0.00  0.00     0.048 A 
ATOM     20  C   UNL d   1      -7.202  -2.297   3.147  0.00  0.00     0.105 A 
ATOM     21  O   UNL d   1      -7.249  -1.940   4.459  0.00  0.00    -0.323 OA
ATOM     22  C   UNL d   1      -7.953  -3.418   2.883  0.00  0.00     0.105 A 
ATOM     23  C   UNL d   1      -8.140  -2.945   4.983  0.00  0.00     0.352 A 
ATOM     24  O   UNL d   1      -8.564  -3.908   3.995  0.00  0.00    -0.323 OA
ATOM     25  C   UNL d   1      -8.053  -3.939   1.612  0.00  0.00     0.040 A 
ATOM     26  C   UNL d   1      -7.365  -3.284   0.583  0.00  0.00     0.012 A 
ENDBRANCH  17  18
ENDBRANCH   2  17
TORSDOF 4
