REMARK  10 active torsions:
REMARK  status: ('A' for Active; 'I' for Inactive)
REMARK    1  A    between atoms: S_3  and  C_1 
REMARK    2  A    between atoms: C_14  and  S_3 
REMARK    3  A    between atoms: N_13  and  C_26 
REMARK    4  A    between atoms: C_27  and  N_13 
REMARK    5  A    between atoms: O_15  and  C_16 
REMARK    6  A    between atoms: C_19  and  O_15 
REMARK    7  A    between atoms: C_17  and  C_27 
REMARK    8  A    between atoms: C_18  and  C_19 
REMARK    9  A    between atoms: O_25  and  C_18 
REMARK   10  A    between atoms: C_26  and  C_18 
ROOT
ATOM      1  C   UNL d   1       2.958  -4.787  -7.207  0.00  0.00     0.170 C 
ENDROOT
BRANCH   1   2
ATOM      2  C   UNL d   1       2.724  -3.860  -6.000  0.00  0.00     0.209 C 
BRANCH   2   3
ATOM      3  O   UNL d   1       2.041  -4.570  -4.962  0.00  0.00    -0.349 OA
BRANCH   3   4
ATOM      4  C   UNL d   1       1.799  -3.870  -3.810  0.00  0.00     0.069 A 
ATOM      5  C   UNL d   1       1.140  -4.587  -2.809  0.00  0.00     0.038 A 
ATOM      6  C   UNL d   1       0.819  -3.980  -1.591  0.00  0.00     0.021 A 
ATOM      7  C   UNL d   1       1.147  -2.641  -1.362  0.00  0.00     0.009 A 
ATOM      8  C   UNL d   1       1.835  -1.933  -2.350  0.00  0.00     0.021 A 
ATOM      9  C   UNL d   1       2.152  -2.541  -3.571  0.00  0.00     0.038 A 
BRANCH   7  10
ATOM     10  S   UNL d   1       0.749  -1.898   0.205  0.00  0.00    -0.016 SA
BRANCH  10  11
ATOM     11  C   UNL d   1      -0.380  -0.590  -0.300  0.00  0.00     0.448 C 
ATOM     12  F   UNL d   1      -0.553  -0.496  -1.639  0.00  0.00    -0.160 F 
ATOM     13  F   UNL d   1       0.067   0.617   0.126  0.00  0.00    -0.160 F 
ATOM     14  F   UNL d   1      -1.606  -0.776   0.247  0.00  0.00    -0.160 F 
ENDBRANCH  10  11
ENDBRANCH   7  10
ENDBRANCH   3   4
ENDBRANCH   2   3
ENDBRANCH   1   2
BRANCH   1  15
ATOM     15  O   UNL d   1       1.719  -5.234  -7.776  0.00  0.00    -0.392 OA
ATOM     16  H   UNL d   1       1.062  -4.526  -7.668  0.00  0.00     0.210 HD
ENDBRANCH   1  15
BRANCH   1  17
ATOM     17  C   UNL d   1       3.760  -4.067  -8.312  0.00  0.00     0.303 C 
BRANCH  17  18
ATOM     18  N   UNL d   1       5.063  -3.616  -7.830  0.00  0.00     0.090 N 
ATOM     19  H   UNL d   1       5.639  -4.425  -7.588  0.00  0.00     0.316 HD
BRANCH  18  20
ATOM     20  C   UNL d   1       5.774  -2.823  -8.828  0.00  0.00     0.308 C 
BRANCH  20  21
ATOM     21  C   UNL d   1       7.110  -2.380  -8.276  0.00  0.00    -0.028 A 
ATOM     22  C   UNL d   1       8.305  -2.814  -8.870  0.00  0.00     0.048 A 
ATOM     23  C   UNL d   1       9.496  -2.401  -8.308  0.00  0.00     0.105 A 
ATOM     24  O   UNL d   1      10.738  -2.733  -8.753  0.00  0.00    -0.323 OA
ATOM     25  C   UNL d   1       9.535  -1.591  -7.199  0.00  0.00     0.105 A 
ATOM     26  C   UNL d   1      11.562  -2.031  -7.800  0.00  0.00     0.352 A 
ATOM     27  O   UNL d   1      10.806  -1.310  -6.805  0.00  0.00    -0.323 OA
ATOM     28  C   UNL d   1       8.386  -1.142  -6.588  0.00  0.00     0.040 A 
ATOM     29  C   UNL d   1       7.165  -1.541  -7.137  0.00  0.00     0.012 A 
ENDBRANCH  20  21
ENDBRANCH  18  20
ENDBRANCH  17  18
ENDBRANCH   1  17
TORSDOF 10
