REMARK  8 active torsions:
REMARK  status: ('A' for Active; 'I' for Inactive)
REMARK    1  A    between atoms: N_2  and  S_1 
REMARK    2  A    between atoms: C_3  and  S_1 
REMARK    3  A    between atoms: C_6  and  N_2 
REMARK    4  A    between atoms: C_4  and  C_8 
REMARK    5  A    between atoms: C_5  and  C_9 
REMARK    6  A    between atoms: C_7  and  C_10 
REMARK    7  A    between atoms: O_22  and  C_12 
REMARK    8  A    between atoms: C_19  and  O_22 
ROOT
ATOM      1  C   UNL d   1       0.812  -0.936   2.468  0.00  0.00     0.077 A 
ATOM      2  C   UNL d   1       0.166  -2.158   4.484  0.00  0.00     0.050 A 
ATOM      3  C   UNL d   1       2.016  -1.654   2.413  0.00  0.00     0.103 A 
ATOM      4  C   UNL d   1      -0.100  -1.190   3.502  0.00  0.00     0.049 A 
ATOM      5  C   UNL d   1       1.353  -2.897   4.396  0.00  0.00     0.019 A 
ATOM      6  C   UNL d   1       2.258  -2.664   3.357  0.00  0.00     0.040 A 
ENDROOT
BRANCH   1   7
ATOM      7  N   UNL d   1       0.436   0.070   1.529  0.00  0.00    -0.278 N 
ATOM      8  H   UNL d   1      -0.122   0.852   1.868  0.00  0.00     0.179 HD
BRANCH   7   9
ATOM      9  S   UNL d   1       0.034  -0.318  -0.059  0.00  0.00     0.263 S 
ATOM     10  O   UNL d   1       1.226  -0.670  -0.798  0.00  0.00    -0.200 OA
ATOM     11  O   UNL d   1      -0.835   0.748  -0.512  0.00  0.00    -0.200 OA
BRANCH   9  12
ATOM     12  C   UNL d   1      -0.978  -1.784   0.068  0.00  0.00     0.081 A 
ATOM     13  C   UNL d   1      -2.333  -1.681   0.407  0.00  0.00     0.041 A 
ATOM     14  C   UNL d   1      -3.137  -2.833   0.438  0.00  0.00     0.050 A 
ATOM     15  C   UNL d   1      -2.563  -4.074   0.102  0.00  0.00     0.032 A 
ATOM     16  C   UNL d   1      -1.209  -4.179  -0.263  0.00  0.00     0.050 A 
ATOM     17  C   UNL d   1      -0.420  -3.021  -0.275  0.00  0.00     0.041 A 
BRANCH  14  18
ATOM     18  C   UNL d   1      -4.603  -2.770   0.813  0.00  0.00     0.417 C 
ATOM     19  F   UNL d   1      -5.033  -1.514   1.112  0.00  0.00    -0.166 F 
ATOM     20  F   UNL d   1      -5.414  -3.223  -0.181  0.00  0.00    -0.166 F 
ATOM     21  F   UNL d   1      -4.884  -3.532   1.905  0.00  0.00    -0.166 F 
ENDBRANCH  14  18
BRANCH  16  22
ATOM     22  C   UNL d   1      -0.630  -5.519  -0.657  0.00  0.00     0.417 C 
ATOM     23  F   UNL d   1       0.700  -5.476  -0.941  0.00  0.00    -0.166 F 
ATOM     24  F   UNL d   1      -0.774  -6.450   0.325  0.00  0.00    -0.166 F 
ATOM     25  F   UNL d   1      -1.235  -6.039  -1.760  0.00  0.00    -0.166 F 
ENDBRANCH  16  22
ENDBRANCH   9  12
ENDBRANCH   7   9
ENDBRANCH   1   7
BRANCH   3  26
ATOM     26  O   UNL d   1       2.931  -1.359   1.425  0.00  0.00    -0.308 OA
BRANCH  26  27
ATOM     27  C   UNL d   1       4.273  -1.354   1.750  0.00  0.00     0.077 A 
ATOM     28  C   UNL d   1       5.156  -1.877   0.806  0.00  0.00     0.045 A 
ATOM     29  C   UNL d   1       6.541  -1.905   1.054  0.00  0.00    -0.037 A 
ATOM     30  C   UNL d   1       7.459  -2.449  -0.009  0.00  0.00     0.050 C 
ATOM     31  C   UNL d   1       7.033  -1.380   2.268  0.00  0.00     0.046 A 
ATOM     32  C   UNL d   1       6.151  -0.837   3.223  0.00  0.00    -0.037 A 
ATOM     33 CL   UNL d   1       8.742  -1.397   2.568  0.00  0.00    -0.083 Cl
ATOM     34  C   UNL d   1       4.773  -0.808   2.934  0.00  0.00     0.045 A 
ATOM     35  C   UNL d   1       6.587  -0.269   4.547  0.00  0.00     0.050 C 
ENDBRANCH  26  27
ENDBRANCH   3  26
BRANCH   2  36
ATOM     36  C   UNL d   1      -0.788  -2.381   5.631  0.00  0.00     0.417 C 
ATOM     37  F   UNL d   1      -1.978  -1.736   5.471  0.00  0.00    -0.166 F 
ATOM     38  F   UNL d   1      -1.095  -3.694   5.812  0.00  0.00    -0.166 F 
ATOM     39  F   UNL d   1      -0.284  -1.942   6.814  0.00  0.00    -0.166 F 
ENDBRANCH   2  36
TORSDOF 8
