REMARK  3 active torsions:
REMARK  status: ('A' for Active; 'I' for Inactive)
REMARK    1  A    between atoms: N_3  and  C_1 
REMARK    2  A    between atoms: N_12  and  C_2 
REMARK    3  A    between atoms: C_14  and  C_11 
ROOT
ATOM      1  C   UNL d   1       2.262   1.055  -0.720  0.00  0.00     0.145 C 
ATOM      2  C   UNL d   1       2.439   0.384  -1.886  0.00  0.00     0.125 C 
ATOM      3  C   UNL d   1       1.873   0.336   0.467  0.00  0.00     0.120 C 
ATOM      4  C   UNL d   1       2.251  -1.038  -1.976  0.00  0.00     0.114 C 
ATOM      5  N   UNL d   1       1.532  -0.205   1.435  0.00  0.00    -0.190 NA
ATOM      6  N   UNL d   1       2.132  -2.187  -2.069  0.00  0.00    -0.190 NA
ENDROOT
BRANCH   1   7
ATOM      7  N   UNL d   1       2.522   2.425  -0.690  0.00  0.00    -0.355 N 
ATOM      8  C   UNL d   1       1.808   3.158   0.108  0.00  0.00     0.100 C 
ATOM      9  HN  UNL d   1       3.248   2.836  -1.276  1.00  0.00     0.166 HD
BRANCH   8  10
ATOM     10  C   UNL d   1       1.992   4.624   0.190  0.00  0.00    -0.021 A 
ATOM     11  C   UNL d   1       2.930   5.276  -0.615  0.00  0.00     0.014 A 
ATOM     12  C   UNL d   1       3.050   6.668  -0.560  0.00  0.00     0.023 A 
ATOM     13  C   UNL d   1       2.237   7.412   0.303  0.00  0.00     0.044 A 
ATOM     14  C   UNL d   1       2.340   8.843   0.336  0.00  0.00     0.099 C 
ATOM     15  C   UNL d   1       1.312   6.753   1.123  0.00  0.00     0.023 A 
ATOM     16  N   UNL d   1       2.418  10.001   0.355  0.00  0.00    -0.191 NA
ATOM     17  C   UNL d   1       1.189   5.360   1.068  0.00  0.00     0.014 A 
ENDBRANCH   8  10
ENDBRANCH   1   7
BRANCH   2  18
ATOM     18  N   UNL d   1       2.828   0.981  -3.087  0.00  0.00    -0.291 NA
ATOM     19  H   UNL d   1       3.263   1.890  -2.921  0.00  0.00     0.125 HD
ATOM     20  H   UNL d   1       3.377   0.375  -3.694  0.00  0.00     0.125 HD
ENDBRANCH   2  18
TORSDOF 3
