REMARK  4 active torsions:
REMARK  status: ('A' for Active; 'I' for Inactive)
REMARK    1  A    between atoms: C_7  and  N_1 
REMARK    2  A    between atoms: C_9  and  N_4 
REMARK    3  A    between atoms: C_10  and  C_7 
REMARK    4  A    between atoms: C_11  and  C_9 
ROOT
ATOM      1  N   UNL d   1       0.759   1.054  -0.280  0.00  0.00    -0.337 N 
ATOM      2  C   UNL d   1       1.594   0.167   0.374  0.00  0.00     0.140 C 
ATOM      3  S   UNL d   1       1.125  -1.492   0.103  0.00  0.00    -0.070 SA
ATOM      4  N   UNL d   1      -1.278  -0.199  -0.238  0.00  0.00     0.119 N 
ATOM      5  C   UNL d   1      -0.631   1.059   0.113  0.00  0.00     0.400 C 
ATOM      6  C   UNL d   1      -0.632  -1.334   0.420  0.00  0.00     0.356 C 
ATOM      7  S   UNL d   1       2.967   0.555   1.246  0.00  0.00    -0.053 SA
ENDROOT
BRANCH   1   8
ATOM      8  C   UNL d   1       1.274   2.265  -0.925  0.00  0.00     0.164 C 
BRANCH   8   9
ATOM      9  C   UNL d   1       1.031   2.277  -2.424  0.00  0.00    -0.040 A 
ATOM     10  C   UNL d   1       0.901   3.502  -3.100  0.00  0.00     0.012 A 
ATOM     11  C   UNL d   1       0.772   3.537  -4.490  0.00  0.00     0.043 A 
ATOM     12  C   UNL d   1       0.777   2.343  -5.211  0.00  0.00     0.116 A 
ATOM     13  C   UNL d   1       0.911   1.125  -4.568  0.00  0.00     0.043 A 
ATOM     14  F   UNL d   1       0.668   2.381  -6.546  0.00  0.00    -0.206 F 
ATOM     15  C   UNL d   1       1.043   1.090  -3.179  0.00  0.00     0.012 A 
ENDBRANCH   8   9
ENDBRANCH   1   8
BRANCH   4  16
ATOM     16  C   UNL d   1      -2.689  -0.103   0.205  0.00  0.00     0.314 C 
BRANCH  16  17
ATOM     17  C   UNL d   1      -3.551  -1.296  -0.148  0.00  0.00    -0.030 A 
ATOM     18  C   UNL d   1      -4.102  -2.101   0.865  0.00  0.00     0.012 A 
ATOM     19  C   UNL d   1      -4.921  -3.182   0.539  0.00  0.00     0.043 A 
ATOM     20  C   UNL d   1      -5.191  -3.459  -0.795  0.00  0.00     0.116 A 
ATOM     21  C   UNL d   1      -4.652  -2.679  -1.811  0.00  0.00     0.043 A 
ATOM     22  F   UNL d   1      -5.987  -4.491  -1.105  0.00  0.00    -0.206 F 
ATOM     23  C   UNL d   1      -3.830  -1.597  -1.490  0.00  0.00     0.012 A 
ENDBRANCH  16  17
ENDBRANCH   4  16
TORSDOF 4
