REMARK  7 active torsions:
REMARK  status: ('A' for Active; 'I' for Inactive)
REMARK    1  A    between atoms: N_2  and  S_1 
REMARK    2  A    between atoms: C_4  and  S_1 
REMARK       I    between atoms: C_3  and  N_2 
REMARK       I    between atoms: N_10  and  C_3 
REMARK    3  A    between atoms: C_7  and  C_18 
REMARK    4  A    between atoms: C_21  and  N_10 
REMARK    5  A    between atoms: S_17  and  C_22 
REMARK    6  A    between atoms: C_18  and  S_17 
REMARK    7  A    between atoms: C_22  and  C_21 
ROOT
ATOM      1  N   UNL d   1       0.327   0.541  -1.557  0.00  0.00    -0.232 N 
ATOM      2  C   UNL d   1       0.659   1.705  -2.228  0.00  0.00     0.329 C 
ATOM      3  O   UNL d   1       1.367   2.572  -1.737  0.00  0.00    -0.246 OA
ATOM      4  N   UNL d   1       0.117   1.804  -3.476  0.00  0.00    -0.342 N 
ATOM      5  H   UNL d   1      -0.320  -0.139  -1.926  0.00  0.00     0.183 HD
ATOM      6  H   UNL d   1      -0.365   1.013  -3.876  0.00  0.00     0.164 HD
ENDROOT
BRANCH   1   7
ATOM      7  S   UNL d   1       0.812   0.231   0.013  0.00  0.00     0.266 S 
ATOM      8  O   UNL d   1       2.245   0.384   0.112  0.00  0.00    -0.200 OA
ATOM      9  O   UNL d   1       0.178  -1.022   0.379  0.00  0.00    -0.200 OA
BRANCH   7  10
ATOM     10  C   UNL d   1       0.006   1.514   0.937  0.00  0.00     0.080 A 
ATOM     11  C   UNL d   1      -1.387   1.496   1.056  0.00  0.00     0.026 A 
ATOM     12  C   UNL d   1      -2.035   2.533   1.732  0.00  0.00     0.008 A 
ATOM     13  C   UNL d   1      -1.297   3.580   2.301  0.00  0.00    -0.062 A 
ATOM     14  C   UNL d   1       0.101   3.565   2.207  0.00  0.00     0.008 A 
ATOM     15  C   UNL d   1      -2.009   4.709   2.990  0.00  0.00     0.048 C 
ATOM     16  C   UNL d   1       0.756   2.533   1.529  0.00  0.00     0.026 A 
ENDBRANCH   7  10
ENDBRANCH   1   7
BRANCH   4  17
ATOM     17  C   UNL d   1       0.450   2.944  -4.319  0.00  0.00     0.134 C 
BRANCH  17  18
ATOM     18  C   UNL d   1      -0.646   3.361  -5.309  0.00  0.00     0.094 C 
BRANCH  18  19
ATOM     19  S   UNL d   1      -2.228   3.761  -4.473  0.00  0.00    -0.163 SA
BRANCH  19  20
ATOM     20  C   UNL d   1      -3.189   4.357  -5.911  0.00  0.00     0.114 C 
BRANCH  20  21
ATOM     21  C   UNL d   1      -4.572   4.856  -5.539  0.00  0.00    -0.027 A 
ATOM     22  C   UNL d   1      -5.763   4.261  -5.991  0.00  0.00     0.041 A 
ATOM     23 CL   UNL d   1      -5.769   2.858  -7.002  0.00  0.00    -0.084 Cl
ATOM     24  C   UNL d   1      -7.013   4.805  -5.658  0.00  0.00     0.024 A 
ATOM     25  C   UNL d   1      -7.097   5.956  -4.877  0.00  0.00     0.002 A 
ATOM     26  C   UNL d   1      -5.931   6.563  -4.423  0.00  0.00     0.001 A 
ATOM     27  C   UNL d   1      -4.684   6.019  -4.748  0.00  0.00     0.009 A 
ENDBRANCH  20  21
ENDBRANCH  19  20
ENDBRANCH  18  19
ENDBRANCH  17  18
ENDBRANCH   4  17
TORSDOF 7
