REMARK  3 active torsions:
REMARK  status: ('A' for Active; 'I' for Inactive)
REMARK    1  A    between atoms: S_3  and  C_5 
REMARK    2  A    between atoms: N_17  and  S_3 
REMARK    3  A    between atoms: C_7  and  C_4 
ROOT
ATOM      1  S   UNL d   1       1.295  -0.482  -0.007  0.00  0.00     0.245 S 
ATOM      2  C   UNL d   1      -0.450  -0.347  -0.025  0.00  0.00     0.102 A 
ATOM      3  C   UNL d   1      -3.237  -0.146  -0.026  0.00  0.00     0.072 A 
ATOM      4  C   UNL d   1      -2.619  -1.406   0.041  0.00  0.00     0.091 A 
ATOM      5  N   UNL d   1       1.715   0.926   0.785  0.00  0.00    -0.199 NA
ATOM      6  C   UNL d   1      -1.224  -1.506   0.018  0.00  0.00     0.052 A 
ATOM      7  C   UNL d   1      -1.007   0.929  -0.032  0.00  0.00     0.052 A 
ATOM      8  C   UNL d   1      -2.407   1.005  -0.049  0.00  0.00     0.048 A 
ATOM      9  O   UNL d   1       1.674  -1.580   0.854  0.00  0.00    -0.206 OA
ATOM     10  O   UNL d   1       1.770  -0.388  -1.369  0.00  0.00    -0.206 OA
ATOM     11  N   UNL d   1      -0.266   2.089   0.159  0.00  0.00    -0.376 N 
ATOM     12  C   UNL d   1       1.179   2.092   0.127  0.00  0.00     0.226 C 
ATOM     13  H   UNL d   1       2.713   0.948   0.977  0.00  0.00     0.141 HD
ATOM     14  H   UNL d   1      -0.688   2.936  -0.210  0.00  0.00     0.161 HD
ENDROOT
BRANCH   4  15
ATOM     15  S   UNL d   1      -3.571  -2.889   0.244  0.00  0.00     0.240 S 
ATOM     16  O   UNL d   1      -4.195  -2.837   1.542  0.00  0.00    -0.206 OA
ATOM     17  O   UNL d   1      -4.276  -3.137  -0.990  0.00  0.00    -0.206 OA
BRANCH  15  18
ATOM     18  N   UNL d   1      -2.424  -4.111   0.343  0.00  0.00    -0.225 NA
ATOM     19  H   UNL d   1      -2.450  -4.551   1.264  0.00  0.00     0.136 HD
ATOM     20  H   UNL d   1      -2.546  -4.765  -0.432  0.00  0.00     0.136 HD
ENDBRANCH  15  18
ENDBRANCH   4  15
BRANCH   3  21
ATOM     21  C   UNL d   1      -4.733   0.085  -0.050  0.00  0.00     0.419 C 
ATOM     22  F   UNL d   1      -5.518  -1.015  -0.031  0.00  0.00    -0.166 F 
ATOM     23  F   UNL d   1      -5.140   0.849   1.003  0.00  0.00    -0.166 F 
ATOM     24  F   UNL d   1      -5.105   0.780  -1.164  0.00  0.00    -0.166 F 
ENDBRANCH   3  21
TORSDOF 3
