REMARK  6 active torsions:
REMARK  status: ('A' for Active; 'I' for Inactive)
REMARK    1  A    between atoms: O_7  and  C_1 
REMARK    2  A    between atoms: O_8  and  C_2 
REMARK    3  A    between atoms: C_13  and  O_7 
REMARK    4  A    between atoms: C_14  and  O_8 
REMARK    5  A    between atoms: N_17  and  C_15 
REMARK    6  A    between atoms: N_18  and  C_16 
ROOT
ATOM      1  C   UNL d   1       0.149   1.408   0.008  0.00  0.00     0.159 A 
ATOM      2  C   UNL d   1      -0.128  -1.401   0.015  0.00  0.00     0.159 A 
ATOM      3  C   UNL d   1      -1.111   0.809  -0.015  0.00  0.00     0.194 A 
ATOM      4  C   UNL d   1       1.132  -0.802  -0.008  0.00  0.00     0.194 A 
ATOM      5  C   UNL d   1      -1.252  -0.578  -0.036  0.00  0.00     0.194 A 
ATOM      6  C   UNL d   1       1.273   0.585  -0.035  0.00  0.00     0.194 A 
ATOM      7  F   UNL d   1       2.507   1.102  -0.123  0.00  0.00    -0.200 F 
ATOM      8  F   UNL d   1       2.235  -1.568  -0.018  0.00  0.00    -0.200 F 
ATOM      9  F   UNL d   1      -2.485  -1.095  -0.125  0.00  0.00    -0.200 F 
ATOM     10  F   UNL d   1      -2.213   1.575  -0.034  0.00  0.00    -0.200 F 
ENDROOT
BRANCH   1  11
ATOM     11  O   UNL d   1       0.165   2.779  -0.044  0.00  0.00    -0.304 OA
BRANCH  11  12
ATOM     12  C   UNL d   1       1.128   3.506   0.612  0.00  0.00     0.076 A 
ATOM     13  C   UNL d   1       1.386   4.769   0.077  0.00  0.00     0.039 A 
ATOM     14  C   UNL d   1       2.323   5.614   0.678  0.00  0.00     0.026 A 
ATOM     15  C   UNL d   1       3.048   5.191   1.793  0.00  0.00     0.005 A 
ATOM     16  C   UNL d   1       2.725   3.961   2.371  0.00  0.00     0.026 A 
ATOM     17  C   UNL d   1       1.770   3.120   1.788  0.00  0.00     0.039 A 
BRANCH  15  18
ATOM     18  N   UNL d   1       3.901   6.079   2.458  0.00  0.00    -0.303 NA
ATOM     19  H   UNL d   1       4.603   5.619   3.029  0.00  0.00     0.124 HD
ATOM     20  H   UNL d   1       4.307   6.786   1.852  0.00  0.00     0.124 HD
ENDBRANCH  15  18
ENDBRANCH  11  12
ENDBRANCH   1  11
BRANCH   2  21
ATOM     21  O   UNL d   1      -0.143  -2.772  -0.032  0.00  0.00    -0.304 OA
BRANCH  21  22
ATOM     22  C   UNL d   1      -1.112  -3.495   0.624  0.00  0.00     0.076 A 
ATOM     23  C   UNL d   1      -1.375  -4.756   0.088  0.00  0.00     0.039 A 
ATOM     24  C   UNL d   1      -2.319  -5.596   0.687  0.00  0.00     0.026 A 
ATOM     25  C   UNL d   1      -3.042  -5.170   1.802  0.00  0.00     0.005 A 
ATOM     26  C   UNL d   1      -2.712  -3.942   2.381  0.00  0.00     0.026 A 
ATOM     27  C   UNL d   1      -1.752  -3.106   1.800  0.00  0.00     0.039 A 
BRANCH  25  28
ATOM     28  N   UNL d   1      -3.901  -6.053   2.465  0.00  0.00    -0.303 NA
ATOM     29  H   UNL d   1      -4.600  -5.589   3.037  0.00  0.00     0.124 HD
ATOM     30  H   UNL d   1      -4.311  -6.756   1.857  0.00  0.00     0.124 HD
ENDBRANCH  25  28
ENDBRANCH  21  22
ENDBRANCH   2  21
TORSDOF 6
