REMARK  7 active torsions:
REMARK  status: ('A' for Active; 'I' for Inactive)
REMARK    1  A    between atoms: N_9  and  C_1 
REMARK    2  A    between atoms: C_15  and  N_9 
REMARK    3  A    between atoms: O_13  and  C_16 
REMARK    4  A    between atoms: O_14  and  C_17 
REMARK    5  A    between atoms: C_18  and  O_14 
REMARK    6  A    between atoms: C_17  and  C_15 
REMARK    7  A    between atoms: C_16  and  C_18 
ROOT
ATOM      1  C   UNL d   1      -1.082  -1.528  -0.108  0.00  0.00     0.086 A 
ATOM      2  C   UNL d   1      -1.563  -0.276  -0.046  0.00  0.00     0.110 A 
ATOM      3  C   UNL d   1       0.406  -1.733  -0.084  0.00  0.00     0.206 A 
ATOM      4  C   UNL d   1      -0.696   0.935  -0.005  0.00  0.00     0.206 A 
ATOM      5  C   UNL d   1       1.292  -0.553  -0.035  0.00  0.00     0.030 A 
ATOM      6  C   UNL d   1       0.763   0.730  -0.013  0.00  0.00     0.030 A 
ATOM      7  O   UNL d   1       0.908  -2.850  -0.096  0.00  0.00    -0.285 OA
ATOM      8  O   UNL d   1      -1.148   2.073   0.035  0.00  0.00    -0.286 OA
ATOM      9 CL   UNL d   1      -3.273   0.020  -0.058  0.00  0.00    -0.078 Cl
ATOM     10  C   UNL d   1       2.680  -0.745  -0.013  0.00  0.00     0.016 A 
ATOM     11  C   UNL d   1       1.627   1.835   0.003  0.00  0.00     0.016 A 
ATOM     12  C   UNL d   1       3.538   0.354   0.007  0.00  0.00     0.001 A 
ATOM     13  C   UNL d   1       3.010   1.643   0.010  0.00  0.00     0.001 A 
ENDROOT
BRANCH   1  14
ATOM     14  N   UNL d   1      -1.831  -2.712  -0.141  0.00  0.00    -0.286 NA
ATOM     15  H   UNL d   1      -2.606  -2.692   0.523  0.00  0.00     0.128 HD
BRANCH  14  16
ATOM     16  C   UNL d   1      -2.338  -3.248  -1.412  0.00  0.00     0.118 C 
BRANCH  16  17
ATOM     17  C   UNL d   1      -2.617  -4.746  -1.260  0.00  0.00     0.182 C 
BRANCH  17  18
ATOM     18  O   UNL d   1      -3.652  -4.943  -0.287  0.00  0.00    -0.388 OA
BRANCH  18  19
ATOM     19  C   UNL d   1      -3.890  -6.335  -0.072  0.00  0.00     0.193 C 
BRANCH  19  20
ATOM     20  C   UNL d   1      -4.957  -6.508   1.002  0.00  0.00     0.190 C 
BRANCH  20  21
ATOM     21  O   UNL d   1      -5.225  -7.889   1.206  0.00  0.00    -0.399 OA
ATOM     22  H   UNL d   1      -5.899  -7.945   1.905  0.00  0.00     0.209 HD
ENDBRANCH  20  21
ENDBRANCH  19  20
ENDBRANCH  18  19
ENDBRANCH  17  18
ENDBRANCH  16  17
ENDBRANCH  14  16
ENDBRANCH   1  14
TORSDOF 7
