REMARK  2 active torsions:
REMARK  status: ('A' for Active; 'I' for Inactive)
REMARK    1  A    between atoms: C_2  and  C_1 
REMARK       I    between atoms: N_10  and  C_2 
REMARK    2  A    between atoms: O_14  and  N_10 
ROOT
ATOM      1  C   UNL d   1      -1.542   0.284   0.097  0.00  0.00     0.044 C 
ATOM      2  C   UNL d   1      -0.776   1.034   1.218  0.00  0.00     0.024 C 
ATOM      3  C   UNL d   1      -0.992   0.762  -1.269  0.00  0.00     0.024 C 
ATOM      4  C   UNL d   1      -1.259  -1.230   0.247  0.00  0.00     0.024 C 
ATOM      5  C   UNL d   1       0.251  -1.511   0.148  0.00  0.00    -0.013 C 
ATOM      6  C   UNL d   1       0.734   0.759   1.123  0.00  0.00    -0.013 C 
ATOM      7  C   UNL d   1       0.518   0.485  -1.370  0.00  0.00    -0.013 C 
ATOM      8  C   UNL d   1       0.984  -0.751   1.264  0.00  0.00     0.009 C 
ATOM      9  C   UNL d   1       0.766  -1.026  -1.218  0.00  0.00     0.009 C 
ATOM     10  C   UNL d   1       1.250   1.233  -0.245  0.00  0.00     0.009 C 
ENDROOT
BRANCH   1  11
ATOM     11  C   UNL d   1      -3.049   0.560   0.202  0.00  0.00     0.249 C 
ATOM     12  O   UNL d   1      -3.555   1.275   1.066  0.00  0.00    -0.271 OA
ATOM     13  N   UNL d   1      -3.827  -0.054  -0.747  0.00  0.00    -0.237 N 
ATOM     14  H   UNL d   1      -3.494  -0.659  -1.489  0.00  0.00     0.197 HD
BRANCH  13  15
ATOM     15  O   UNL d   1      -5.218   0.170  -0.676  0.00  0.00    -0.287 OA
ATOM     16  H   UNL d   1      -5.293   0.762   0.104  0.00  0.00     0.244 HD
ENDBRANCH  13  15
ENDBRANCH   1  11
TORSDOF 2
