REMARK  1 active torsions:
REMARK  status: ('A' for Active; 'I' for Inactive)
REMARK    1  A    between atoms: N_13  and  C_2 
ROOT
ATOM      1  C   UNL d   1       0.318   0.748   0.006  0.00  0.00     0.122 A 
ATOM      2  C   UNL d   1      -0.894   1.488  -0.077  0.00  0.00     0.134 A 
ATOM      3  C   UNL d   1       0.212  -0.628   0.139  0.00  0.00     0.138 A 
ATOM      4  N   UNL d   1       1.659   1.111  -0.015  0.00  0.00    -0.346 N 
ATOM      5  HN  UNL d   1       2.042   2.053  -0.094  1.00  0.00     0.167 HD
ATOM      6  N   UNL d   1       1.494  -1.093   0.183  0.00  0.00    -0.337 N 
ATOM      7  N   UNL d   1      -2.048   0.749  -0.001  0.00  0.00    -0.337 N 
ATOM      8  HN  UNL d   1      -2.954   1.216  -0.041  1.00  0.00     0.168 HD
ATOM      9  N   UNL d   1      -0.897  -1.373   0.204  0.00  0.00    -0.337 N 
ATOM     10  HN  UNL d   1      -0.911  -2.388   0.299  1.00  0.00     0.168 HD
ATOM     11  C   UNL d   1       2.329  -0.015   0.089  0.00  0.00     0.182 A 
ATOM     12  C   UNL d   1      -1.989  -0.593   0.127  0.00  0.00     0.183 A 
ATOM     13  H   UNL d   1       1.758  -2.062   0.266  0.00  0.00     0.168 HD
ENDROOT
BRANCH   2  14
ATOM     14  N   UNL d   1      -0.997   2.872  -0.274  0.00  0.00    -0.374 N 
ATOM     15  C   UNL d   1       0.201   3.670  -0.053  0.00  0.00     0.150 C 
ATOM     16  C   UNL d   1      -2.258   3.470   0.143  0.00  0.00     0.150 C 
ENDBRANCH   2  14
TORSDOF 1
