REMARK  3 active torsions:
REMARK  status: ('A' for Active; 'I' for Inactive)
REMARK       I    between atoms: N_2  and  C_1 
REMARK    1  A    between atoms: C_3  and  C_1 
REMARK       I    between atoms: C_4  and  N_2 
REMARK    2  A    between atoms: O_5  and  C_4 
REMARK    3  A    between atoms: C_6  and  O_5 
ROOT
ATOM      1  C   UNL d   1       0.757  -0.283   0.713  0.00  0.00     0.263 C 
ATOM      2  N   UNL d   1       0.561   1.050   0.390  0.00  0.00    -0.268 N 
ATOM      3  C   UNL d   1       1.135   2.060   1.120  0.00  0.00     0.372 C 
ATOM      4  O   UNL d   1       1.653  -0.696   1.438  0.00  0.00    -0.267 OA
ATOM      5  O   UNL d   1       0.522   3.091   1.379  0.00  0.00    -0.238 OA
ATOM      6  H   UNL d   1      -0.361   1.307   0.067  0.00  0.00     0.174 HD
ENDROOT
BRANCH   1   7
ATOM      7  C   UNL d   1      -0.177  -1.278   0.118  0.00  0.00     0.075 A 
ATOM      8  C   UNL d   1       0.336  -2.494  -0.378  0.00  0.00     0.051 A 
ATOM      9 CL   UNL d   1       2.028  -2.813  -0.569  0.00  0.00    -0.083 Cl
ATOM     10  C   UNL d   1      -0.527  -3.511  -0.808  0.00  0.00     0.025 A 
ATOM     11  C   UNL d   1      -1.905  -3.327  -0.776  0.00  0.00     0.003 A 
ATOM     12  C   UNL d   1      -2.425  -2.117  -0.324  0.00  0.00     0.025 A 
ATOM     13  C   UNL d   1      -1.571  -1.100   0.129  0.00  0.00     0.051 A 
ATOM     14 CL   UNL d   1      -2.342   0.335   0.712  0.00  0.00    -0.083 Cl
ENDBRANCH   1   7
BRANCH   3  15
ATOM     15  O   UNL d   1       2.440   1.792   1.501  0.00  0.00    -0.258 OA
BRANCH  15  16
ATOM     16  C   UNL d   1       2.865   2.363   2.704  0.00  0.00     0.119 A 
ATOM     17  C   UNL d   1       2.134   2.200   3.885  0.00  0.00     0.153 A 
ATOM     18  C   UNL d   1       2.641   2.657   5.093  0.00  0.00     0.087 A 
ATOM     19  F   UNL d   1       0.954   1.565   3.875  0.00  0.00    -0.203 F 
ATOM     20  C   UNL d   1       3.893   3.261   5.109  0.00  0.00     0.119 A 
ATOM     21  C   UNL d   1       4.639   3.414   3.940  0.00  0.00     0.045 A 
ATOM     22  F   UNL d   1       4.402   3.687   6.272  0.00  0.00    -0.206 F 
ATOM     23  C   UNL d   1       4.127   2.956   2.726  0.00  0.00     0.043 A 
ENDBRANCH  15  16
ENDBRANCH   3  15
TORSDOF 3
