REMARK  5 active torsions:
REMARK  status: ('A' for Active; 'I' for Inactive)
REMARK       I    between atoms: C_2  and  N_1 
REMARK    1  A    between atoms: C_3  and  N_1 
REMARK    2  A    between atoms: C_9  and  C_2 
REMARK    3  A    between atoms: C_4  and  C_10 
REMARK    4  A    between atoms: O_11  and  C_4 
REMARK    5  A    between atoms: C_10  and  C_9 
ROOT
ATOM      1  N   UNL d   1       1.093   0.384   0.069  0.00  0.00    -0.313 N 
ATOM      2  C   UNL d   1       0.318   1.525   0.086  0.00  0.00     0.223 C 
ATOM      3  O   UNL d   1       0.692   2.693   0.083  0.00  0.00    -0.273 OA
ATOM      4  H   UNL d   1       0.624  -0.509  -0.042  0.00  0.00     0.170 HD
ENDROOT
BRANCH   1   5
ATOM      5  C   UNL d   1       2.494   0.360   0.068  0.00  0.00     0.107 A 
ATOM      6  N   UNL d   1       3.195   1.507   0.082  0.00  0.00    -0.352 N 
ATOM      7  C   UNL d   1       4.542   1.430   0.068  0.00  0.00     0.089 A 
ATOM      8  HN  UNL d   1       2.722   2.410   0.103  1.00  0.00     0.166 HD
ATOM      9  C   UNL d   1       5.243   0.239   0.052  0.00  0.00     0.017 A 
ATOM     10  C   UNL d   1       4.514  -0.942   0.046  0.00  0.00     0.005 A 
ATOM     11  C   UNL d   1       3.120  -0.884   0.048  0.00  0.00     0.048 A 
ENDBRANCH   1   5
BRANCH   2  12
ATOM     12  C   UNL d   1      -1.169   1.228   0.029  0.00  0.00     0.113 C 
BRANCH  12  13
ATOM     13  C   UNL d   1      -1.642   1.252  -1.419  0.00  0.00     0.119 C 
BRANCH  13  14
ATOM     14  C   UNL d   1      -1.071   0.088  -2.189  0.00  0.00     0.139 C 
ATOM     15  O   UNL d   1      -0.738  -0.974  -1.677  0.00  0.00    -0.650 OA
BRANCH  14  16
ATOM     16  O   UNL d   1      -0.974   0.317  -3.515  0.00  0.00    -0.776 OA
ATOM     17  H   UNL d   1      -1.231   1.220  -3.787  0.00  0.00     0.167 HD
ENDBRANCH  14  16
ENDBRANCH  13  14
ENDBRANCH  12  13
ENDBRANCH   2  12
TORSDOF 5
