REMARK  1 active torsions:
REMARK  status: ('A' for Active; 'I' for Inactive)
REMARK    1  A    between atoms: C_11  and  C_4 
ROOT
ATOM      1  C   UNL d   1      -0.722  -0.856  -0.004  0.00  0.00     0.058 C 
ATOM      2  C   UNL d   1       0.726  -1.309   0.067  0.00  0.00     0.174 C 
ATOM      3  N   UNL d   1      -0.805   0.554  -0.034  0.00  0.00    -0.280 NA
ATOM      4  C   UNL d   1      -1.714  -1.752  -0.013  0.00  0.00     0.038 C 
ATOM      5  C   UNL d   1       1.660  -0.099   0.117  0.00  0.00     0.064 C 
ATOM      6  C   UNL d   1      -0.239   1.176   1.200  0.00  0.00     0.096 C 
ATOM      7  C   UNL d   1      -0.102   1.137  -1.215  0.00  0.00     0.096 C 
ATOM      8  O   UNL d   1       1.095  -2.474   0.084  0.00  0.00    -0.291 OA
ATOM      9  C   UNL d   1       1.388   0.729  -1.156  0.00  0.00     0.027 C 
ATOM     10  C   UNL d   1       1.236   0.734   1.345  0.00  0.00     0.027 C 
ENDROOT
BRANCH   4  11
ATOM     11  C   UNL d   1      -3.126  -1.372  -0.078  0.00  0.00    -0.034 A 
ATOM     12  C   UNL d   1      -3.754  -1.222  -1.322  0.00  0.00     0.014 A 
ATOM     13  C   UNL d   1      -5.103  -0.868  -1.387  0.00  0.00     0.043 A 
ATOM     14  C   UNL d   1      -5.815  -0.662  -0.211  0.00  0.00     0.116 A 
ATOM     15  C   UNL d   1      -5.203  -0.797   1.030  0.00  0.00     0.043 A 
ATOM     16  F   UNL d   1      -7.111  -0.329  -0.275  0.00  0.00    -0.206 F 
ATOM     17  C   UNL d   1      -3.854  -1.151   1.098  0.00  0.00     0.014 A 
ENDBRANCH   4  11
TORSDOF 1
