REMARK  8 active torsions:
REMARK  status: ('A' for Active; 'I' for Inactive)
REMARK    1  A    between atoms: C_7  and  C_1 
REMARK    2  A    between atoms: N_2  and  C_5 
REMARK    3  A    between atoms: S_6  and  C_3 
REMARK    4  A    between atoms: C_8  and  S_6 
REMARK    5  A    between atoms: O_19  and  C_7 
REMARK    6  A    between atoms: C_16  and  C_9 
REMARK    7  A    between atoms: C_12  and  O_17 
REMARK    8  A    between atoms: O_17  and  C_16 
ROOT
ATOM      1  C   UNL d   1       0.773  -4.026  -3.155  0.00  0.00     0.057 A 
ATOM      2  C   UNL d   1       1.046  -2.946  -2.288  0.00  0.00     0.022 A 
ATOM      3  C   UNL d   1       0.887  -3.828  -4.551  0.00  0.00     0.055 A 
ATOM      4  C   UNL d   1       1.238  -2.577  -5.072  0.00  0.00     0.104 A 
ATOM      5  C   UNL d   1       1.355  -1.684  -2.836  0.00  0.00     0.022 A 
ATOM      6  C   UNL d   1       1.453  -1.496  -4.217  0.00  0.00     0.037 A 
ENDROOT
BRANCH   2   7
ATOM      7  S   UNL d   1       1.090  -3.057  -0.498  0.00  0.00    -0.089 SA
BRANCH   7   8
ATOM      8  C   UNL d   1       2.852  -3.145  -0.135  0.00  0.00     0.014 A 
ATOM      9  C   UNL d   1       3.400  -2.606   1.050  0.00  0.00    -0.017 A 
ATOM     10  C   UNL d   1       4.799  -2.652   1.237  0.00  0.00     0.011 A 
ATOM     11  C   UNL d   1       5.638  -3.247   0.299  0.00  0.00     0.001 A 
ATOM     12  C   UNL d   1       5.093  -3.828  -0.836  0.00  0.00     0.001 A 
ATOM     13  C   UNL d   1       3.715  -3.785  -1.044  0.00  0.00     0.019 A 
BRANCH   9  14
ATOM     14  C   UNL d   1       2.581  -1.980   2.160  0.00  0.00     0.218 C 
BRANCH  14  15
ATOM     15  O   UNL d   1       2.835  -2.652   3.406  0.00  0.00    -0.317 OA
BRANCH  15  16
ATOM     16  C   UNL d   1       1.998  -3.683   3.699  0.00  0.00     0.255 C 
ATOM     17  O   UNL d   1       1.059  -4.053   3.009  0.00  0.00    -0.266 OA
ATOM     18  C   UNL d   1       2.367  -4.317   5.008  0.00  0.00     0.126 C 
ENDBRANCH  15  16
ENDBRANCH  14  15
ENDBRANCH   9  14
ENDBRANCH   7   8
ENDBRANCH   2   7
BRANCH   1  19
ATOM     19  C   UNL d   1       0.410  -5.420  -2.748  0.00  0.00     0.177 C 
ATOM     20  O   UNL d   1       0.379  -6.329  -3.565  0.00  0.00    -0.646 OA
BRANCH  19  21
ATOM     21  O   UNL d   1       0.084  -5.631  -1.462  0.00  0.00    -0.773 OA
ATOM     22  H   UNL d   1       0.173  -4.865  -0.859  0.00  0.00     0.167 HD
ENDBRANCH  19  21
ENDBRANCH   1  19
BRANCH   4  23
ATOM     23  N   UNL d   1       1.404  -2.406  -6.522  0.00  0.00    -0.116 N 
ATOM     24  O   UNL d   1       1.268  -3.405  -7.240  0.00  0.00    -0.532 OA
ATOM     25  O   UNL d   1       1.683  -1.273  -6.937  0.00  0.00    -0.532 OA
ENDBRANCH   4  23
TORSDOF 8
