REMARK  8 active torsions:
REMARK  status: ('A' for Active; 'I' for Inactive)
REMARK    1  A    between atoms: C_6  and  C_1 
REMARK    2  A    between atoms: O_8  and  C_2 
REMARK    3  A    between atoms: C_3  and  C_11 
REMARK    4  A    between atoms: C_4  and  C_14 
REMARK       I    between atoms: C_5  and  N_9 
REMARK       I    between atoms: N_16  and  C_5 
REMARK    5  A    between atoms: O_30  and  C_6 
REMARK    6  A    between atoms: N_9  and  C_7 
REMARK    7  A    between atoms: C_12  and  O_8 
REMARK    8  A    between atoms: C_20  and  N_16 
ROOT
ATOM      1  C   UNL d   1       2.063   3.398   0.766  0.00  0.00     0.071 C 
ATOM      2  C   UNL d   1       2.390   5.711   0.089  0.00  0.00     0.050 C 
ATOM      3  C   UNL d   1       1.963   3.023  -0.579  0.00  0.00     0.102 C 
ATOM      4  C   UNL d   1       2.273   4.740   1.101  0.00  0.00     0.048 C 
ATOM      5  C   UNL d   1       2.416   5.298  -1.252  0.00  0.00     0.019 C 
ATOM      6  C   UNL d   1       2.223   3.958  -1.583  0.00  0.00     0.040 C 
ENDROOT
BRANCH   1   7
ATOM      7  N   UNL d   1       1.799   2.465   1.782  0.00  0.00    -0.306 N 
ATOM      8  C   UNL d   1       2.728   1.784   2.534  0.00  0.00     0.325 C 
ATOM      9  N   UNL d   1       4.039   2.164   2.396  0.00  0.00    -0.309 N 
ATOM     10  O   UNL d   1       2.317   0.855   3.227  0.00  0.00    -0.247 OA
ATOM     11  H   UNL d   1       4.238   2.806   1.645  0.00  0.00     0.170 HD
ATOM     12  H   UNL d   1       1.038   1.817   1.597  0.00  0.00     0.171 HD
BRANCH   9  13
ATOM     13  C   UNL d   1       5.158   1.632   3.077  0.00  0.00     0.037 A 
ATOM     14  C   UNL d   1       5.067   0.751   4.160  0.00  0.00     0.045 A 
ATOM     15  C   UNL d   1       6.219   0.301   4.832  0.00  0.00     0.050 A 
ATOM     16  C   UNL d   1       7.478   0.738   4.394  0.00  0.00     0.016 A 
ATOM     17  C   UNL d   1       7.581   1.599   3.304  0.00  0.00     0.003 A 
ATOM     18  C   UNL d   1       6.428   2.044   2.652  0.00  0.00     0.029 A 
BRANCH  15  19
ATOM     19  C   UNL d   1       6.115  -0.609   6.032  0.00  0.00     0.417 C 
ATOM     20  F   UNL d   1       4.858  -1.073   6.271  0.00  0.00    -0.166 F 
ATOM     21  F   UNL d   1       6.904  -1.715   5.918  0.00  0.00    -0.166 F 
ATOM     22  F   UNL d   1       6.509   0.008   7.181  0.00  0.00    -0.166 F 
ENDBRANCH  15  19
ENDBRANCH   9  13
ENDBRANCH   1   7
BRANCH   3  23
ATOM     23  O   UNL d   1       1.675   1.711  -0.873  0.00  0.00    -0.307 OA
BRANCH  23  24
ATOM     24  C   UNL d   1       0.829   1.398  -1.888  0.00  0.00     0.099 A 
ATOM     25  C   UNL d   1       0.965   0.220  -2.600  0.00  0.00     0.114 A 
ATOM     26  S   UNL d   1      -0.232   0.125  -3.842  0.00  0.00    -0.093 SA
ATOM     27  C   UNL d   1      -0.927   1.620  -3.400  0.00  0.00     0.053 A 
ATOM     28  C   UNL d   1      -0.292   2.178  -2.316  0.00  0.00     0.046 A 
BRANCH  25  29
ATOM     29  C   UNL d   1       1.911  -0.874  -2.477  0.00  0.00     0.302 C 
ATOM     30  O   UNL d   1       1.865  -1.936  -3.081  0.00  0.00    -0.259 OA
BRANCH  29  31
ATOM     31  O   UNL d   1       2.896  -0.553  -1.587  0.00  0.00    -0.322 OA
ATOM     32  C   UNL d   1       3.873  -1.577  -1.395  0.00  0.00     0.213 C 
ENDBRANCH  29  31
ENDBRANCH  25  29
ENDBRANCH  23  24
ENDBRANCH   3  23
BRANCH   2  33
ATOM     33  C   UNL d   1       2.441   7.187   0.406  0.00  0.00     0.417 C 
ATOM     34  F   UNL d   1       2.136   7.477   1.699  0.00  0.00    -0.166 F 
ATOM     35  F   UNL d   1       3.667   7.727   0.172  0.00  0.00    -0.166 F 
ATOM     36  F   UNL d   1       1.565   7.906  -0.352  0.00  0.00    -0.166 F 
ENDBRANCH   2  33
TORSDOF 8
