REMARK  1 active torsions:
REMARK  status: ('A' for Active; 'I' for Inactive)
REMARK    1  A    between atoms: N_6  and  C_4 
ROOT
ATOM      1  N   UNL d   1       0.043   0.671  -0.096  0.00  0.00    -0.231 N 
ATOM      2  N   UNL d   1      -1.133   1.364  -0.145  0.00  0.00    -0.276 N 
ATOM      3  HN  UNL d   1      -1.180   2.375  -0.270  1.00  0.00     0.189 HD
ATOM      4  C   UNL d   1      -2.194   0.609  -0.016  0.00  0.00     0.118 A 
ATOM      5  C   UNL d   1       0.224  -0.691   0.027  0.00  0.00     0.142 A 
ATOM      6  N   UNL d   1       2.197   0.222  -0.066  0.00  0.00    -0.293 N 
ATOM      7  HN  UNL d   1       3.211   0.333  -0.083  1.00  0.00     0.187 HD
ATOM      8  N   UNL d   1       1.510  -0.971   0.034  0.00  0.00    -0.283 N 
ATOM      9  HN  UNL d   1       1.924  -1.901   0.101  1.00  0.00     0.188 HD
ATOM     10  C   UNL d   1       1.307   1.190  -0.137  0.00  0.00     0.225 A 
ATOM     11  C   UNL d   1      -0.927  -1.488   0.118  0.00  0.00     0.055 A 
ATOM     12  C   UNL d   1      -2.121  -0.890   0.118  0.00  0.00     0.053 A 
ENDROOT
BRANCH   4  13
ATOM     13  N   UNL d   1      -3.451   1.178  -0.038  0.00  0.00    -0.366 N 
ATOM     14  C   UNL d   1      -4.375   1.027   1.085  0.00  0.00     0.128 C 
ATOM     15  C   UNL d   1      -5.756   0.654   0.533  0.00  0.00    -0.001 C 
ATOM     16  C   UNL d   1      -6.770   0.510   1.664  0.00  0.00     0.011 C 
ATOM     17  C   UNL d   1      -6.219   1.698  -0.498  0.00  0.00     0.007 C 
ATOM     18  C   UNL d   1      -5.154   1.936  -1.574  0.00  0.00     0.020 C 
ATOM     19  C   UNL d   1      -3.790   2.259  -0.957  0.00  0.00     0.124 C 
ENDBRANCH   4  13
TORSDOF 1
