REMARK  4 active torsions:
REMARK  status: ('A' for Active; 'I' for Inactive)
REMARK    1  A    between atoms: C_8  and  C_3 
REMARK    2  A    between atoms: C_10  and  C_7 
REMARK    3  A    between atoms: O_18  and  C_9 
REMARK    4  A    between atoms: O_19  and  C_13 
ROOT
ATOM      1  N   UNL d   1       1.588  -0.061  -0.005  0.00  0.00    -0.331 N 
ATOM      2  HN  UNL d   1       2.533  -0.441  -0.047  1.00  0.00     0.168 HD
ATOM      3  C   UNL d   1       1.214   1.178   0.031  0.00  0.00     0.162 A 
ATOM      4  C   UNL d   1       0.394  -0.737   0.027  0.00  0.00     0.111 A 
ATOM      5  O   UNL d   1      -0.113   1.434   0.087  0.00  0.00    -0.256 OA
ATOM      6  C   UNL d   1      -0.743   0.227   0.093  0.00  0.00     0.316 A 
ATOM      7  C   UNL d   1       0.299  -2.071  -0.002  0.00  0.00     0.047 C 
ATOM      8  O   UNL d   1      -1.941   0.044   0.153  0.00  0.00    -0.257 OA
ENDROOT
BRANCH   7   9
ATOM      9  C   UNL d   1      -0.952  -2.827   0.019  0.00  0.00    -0.031 A 
ATOM     10  C   UNL d   1      -1.549  -3.170   1.239  0.00  0.00     0.051 A 
ATOM     11  C   UNL d   1      -2.725  -3.935   1.279  0.00  0.00     0.102 A 
ATOM     12  C   UNL d   1      -3.322  -4.324   0.066  0.00  0.00     0.101 A 
ATOM     13  C   UNL d   1      -2.720  -3.971  -1.150  0.00  0.00     0.040 A 
ATOM     14  C   UNL d   1      -1.543  -3.226  -1.178  0.00  0.00     0.014 A 
BRANCH  11  15
ATOM     15  O   UNL d   1      -3.303  -4.361   2.446  0.00  0.00    -0.353 OA
ATOM     16  C   UNL d   1      -2.678  -4.005   3.672  0.00  0.00     0.210 C 
ENDBRANCH  11  15
BRANCH  12  17
ATOM     17  O   UNL d   1      -4.442  -5.099  -0.100  0.00  0.00    -0.353 OA
ATOM     18  C   UNL d   1      -5.462  -4.971   0.881  0.00  0.00     0.210 C 
ENDBRANCH  12  17
ENDBRANCH   7   9
BRANCH   3  19
ATOM     19  C   UNL d   1       2.075   2.368   0.021  0.00  0.00     0.016 A 
ATOM     20  C   UNL d   1       1.528   3.654   0.119  0.00  0.00     0.022 A 
ATOM     21  C   UNL d   1       2.358   4.780   0.125  0.00  0.00    -0.061 A 
ATOM     22  C   UNL d   1       1.777   6.158   0.247  0.00  0.00     0.048 C 
ATOM     23  C   UNL d   1       3.744   4.607   0.024  0.00  0.00     0.007 A 
ATOM     24  C   UNL d   1       4.293   3.328  -0.078  0.00  0.00     0.002 A 
ATOM     25  C   UNL d   1       3.462   2.207  -0.078  0.00  0.00     0.016 A 
ENDBRANCH   3  19
TORSDOF 4
