REMARK  7 active torsions:
REMARK  status: ('A' for Active; 'I' for Inactive)
REMARK    1  A    between atoms: C_9  and  N_1 
REMARK    2  A    between atoms: C_13  and  C_5 
REMARK    3  A    between atoms: C_8  and  C_16 
REMARK    4  A    between atoms: C_12  and  C_9 
REMARK    5  A    between atoms: C_10  and  C_15 
REMARK    6  A    between atoms: C_11  and  C_14 
REMARK       I    between atoms: N_18  and  C_12 
REMARK       I    between atoms: C_16  and  N_19 
REMARK    7  A    between atoms: N_19  and  N_18 
ROOT
ATOM      1  N   UNL d   1      -0.123  -1.247  -0.367  0.00  0.00    -0.203 N 
ATOM      2  N   UNL d   1      -1.164  -0.395  -0.396  0.00  0.00    -0.268 N 
ATOM      3  HN  UNL d   1      -2.148  -0.559  -0.183  1.00  0.00     0.190 HD
ATOM      4  N   UNL d   1       1.068  -0.710  -0.673  0.00  0.00    -0.002 NA
ATOM      5  C   UNL d   1      -0.546   0.734  -0.785  0.00  0.00     0.144 A 
ATOM      6  N   UNL d   1       0.808   0.565  -0.941  0.00  0.00    -0.266 N 
ATOM      7  HN  UNL d   1       1.483   1.280  -1.211  1.00  0.00     0.186 HD
ENDROOT
BRANCH   1   8
ATOM      8  C   UNL d   1      -0.343  -2.660  -0.120  0.00  0.00     0.214 C 
ATOM      9  C   UNL d   1       0.907  -3.403   0.340  0.00  0.00     0.046 C 
BRANCH   8  10
ATOM     10  C   UNL d   1      -0.974  -3.288  -1.355  0.00  0.00     0.262 C 
ATOM     11  N   UNL d   1      -2.228  -2.793  -1.685  0.00  0.00    -0.265 N 
ATOM     12  H   UNL d   1      -2.560  -1.889  -1.332  0.00  0.00     0.190 HD
ATOM     13  O   UNL d   1      -0.456  -4.207  -1.991  0.00  0.00    -0.269 OA
BRANCH  11  14
ATOM     14  N   UNL d   1      -2.824  -3.240  -2.871  0.00  0.00    -0.263 N 
ATOM     15  C   UNL d   1      -3.974  -2.618  -3.310  0.00  0.00     0.271 C 
ATOM     16  O   UNL d   1      -4.481  -1.691  -2.681  0.00  0.00    -0.266 OA
ATOM     17  H   UNL d   1      -2.366  -4.012  -3.356  0.00  0.00     0.190 HD
BRANCH  15  18
ATOM     18  C   UNL d   1      -4.564  -3.050  -4.619  0.00  0.00     0.055 A 
ATOM     19  C   UNL d   1      -4.290  -4.250  -5.296  0.00  0.00     0.051 A 
ATOM     20  C   UNL d   1      -4.864  -4.503  -6.552  0.00  0.00     0.048 A 
ATOM     21 CL   UNL d   1      -3.287  -5.509  -4.665  0.00  0.00    -0.083 Cl
ATOM     22  C   UNL d   1      -5.723  -3.575  -7.132  0.00  0.00     0.035 A 
ATOM     23  C   UNL d   1      -6.034  -2.397  -6.464  0.00  0.00     0.025 A 
ATOM     24 CL   UNL d   1      -6.404  -3.887  -8.680  0.00  0.00    -0.084 Cl
ATOM     25  C   UNL d   1      -5.460  -2.139  -5.215  0.00  0.00     0.020 A 
ENDBRANCH  15  18
ENDBRANCH  11  14
ENDBRANCH   8  10
ENDBRANCH   1   8
BRANCH   5  26
ATOM     26  C   UNL d   1      -1.255   1.977  -1.053  0.00  0.00     0.012 A 
ATOM     27  C   UNL d   1      -2.644   2.033  -0.857  0.00  0.00     0.031 A 
ATOM     28  C   UNL d   1      -3.375   3.198  -1.120  0.00  0.00     0.049 A 
ATOM     29  C   UNL d   1      -2.691   4.326  -1.596  0.00  0.00     0.032 A 
ATOM     30  C   UNL d   1      -1.298   4.301  -1.796  0.00  0.00     0.049 A 
ATOM     31  C   UNL d   1      -0.588   3.117  -1.521  0.00  0.00     0.031 A 
BRANCH  28  32
ATOM     32  C   UNL d   1      -4.867   3.236  -0.892  0.00  0.00     0.417 C 
ATOM     33  F   UNL d   1      -5.370   2.079  -0.377  0.00  0.00    -0.166 F 
ATOM     34  F   UNL d   1      -5.230   4.218  -0.022  0.00  0.00    -0.166 F 
ATOM     35  F   UNL d   1      -5.561   3.471  -2.038  0.00  0.00    -0.166 F 
ENDBRANCH  28  32
BRANCH  30  36
ATOM     36  C   UNL d   1      -0.593   5.540  -2.298  0.00  0.00     0.417 C 
ATOM     37  F   UNL d   1       0.755   5.395  -2.415  0.00  0.00    -0.166 F 
ATOM     38  F   UNL d   1      -1.038   5.926  -3.526  0.00  0.00    -0.166 F 
ATOM     39  F   UNL d   1      -0.785   6.610  -1.478  0.00  0.00    -0.166 F 
ENDBRANCH  30  36
ENDBRANCH   5  26
TORSDOF 7
