REMARK  1 active torsions:
REMARK  status: ('A' for Active; 'I' for Inactive)
REMARK       I    between atoms: C_8  and  N_1 
REMARK    1  A    between atoms: C_12  and  C_8 
ROOT
ATOM      1  N   UNL d   1      -3.031  -1.074  -0.011  0.00  0.00    -0.230 N 
ATOM      2  N   UNL d   1      -1.737  -1.492  -0.034  0.00  0.00    -0.290 N 
ATOM      3  HN  UNL d   1      -1.398  -2.453  -0.063  1.00  0.00     0.187 HD
ATOM      4  C   UNL d   1      -1.004  -0.368  -0.011  0.00  0.00     0.069 A 
ATOM      5  C   UNL d   1      -1.819   0.785   0.017  0.00  0.00    -0.002 A 
ATOM      6  C   UNL d   1      -3.106   0.302   0.016  0.00  0.00     0.130 A 
ATOM      7  C   UNL d   1       0.454  -0.355  -0.008  0.00  0.00     0.012 A 
ATOM      8  C   UNL d   1      -4.120  -1.973  -0.053  0.00  0.00     0.276 C 
ATOM      9  S   UNL d   1       0.396   2.493  -0.134  0.00  0.00    -0.124 SA
ATOM     10  C   UNL d   1       1.149   0.869  -0.036  0.00  0.00     0.013 A 
ATOM     11  C   UNL d   1      -1.387   2.195   0.059  0.00  0.00     0.121 C 
ATOM     12  C   UNL d   1       1.177  -1.558   0.024  0.00  0.00     0.057 A 
ATOM     13  O   UNL d   1      -5.244  -1.468  -0.090  0.00  0.00    -0.265 OA
ATOM     14  C   UNL d   1       2.556   0.860  -0.024  0.00  0.00     0.022 A 
ATOM     15  C   UNL d   1       2.568  -1.539   0.032  0.00  0.00     0.117 A 
ATOM     16  C   UNL d   1       3.264  -0.340   0.011  0.00  0.00     0.043 A 
ATOM     17  F   UNL d   1       3.245  -2.695   0.057  0.00  0.00    -0.206 F 
ENDROOT
BRANCH   8  18
ATOM     18  C   UNL d   1      -4.030  -3.459  -0.085  0.00  0.00     0.034 A 
ATOM     19  C   UNL d   1      -2.988  -4.173   0.516  0.00  0.00     0.019 A 
ATOM     20  C   UNL d   1      -2.959  -5.570   0.441  0.00  0.00     0.025 A 
ATOM     21  C   UNL d   1      -3.976  -6.256  -0.223  0.00  0.00     0.034 A 
ATOM     22  C   UNL d   1      -5.035  -5.559  -0.798  0.00  0.00     0.025 A 
ATOM     23 CL   UNL d   1      -3.924  -7.971  -0.329  0.00  0.00    -0.084 Cl
ATOM     24  C   UNL d   1      -5.065  -4.164  -0.724  0.00  0.00     0.019 A 
ENDBRANCH   8  18
TORSDOF 1
