REMARK  4 active torsions:
REMARK  status: ('A' for Active; 'I' for Inactive)
REMARK    1  A    between atoms: N_2  and  S_1 
REMARK    2  A    between atoms: C_5  and  S_1 
REMARK    3  A    between atoms: C_4  and  C_3 
REMARK    4  A    between atoms: O_14  and  C_4 
ROOT
ATOM      1  S   UNL d   1       0.873  -0.101  -0.119  0.00  0.00     0.269 S 
ATOM      2  O   UNL d   1       0.392  -1.216  -0.913  0.00  0.00    -0.200 OA
ATOM      3  O   UNL d   1       0.278   0.236   1.161  0.00  0.00    -0.200 OA
ENDROOT
BRANCH   1   4
ATOM      4  N   UNL d   1       0.624   1.291  -1.082  0.00  0.00    -0.241 N 
ATOM      5  C   UNL d   1       0.857   2.599  -0.706  0.00  0.00     0.125 A 
ATOM      6  C   UNL d   1       0.300   3.388  -1.711  0.00  0.00     0.038 A 
ATOM      7  C   UNL d   1      -0.266   2.541  -2.692  0.00  0.00     0.021 A 
ATOM      8  C   UNL d   1      -0.054   1.247  -2.278  0.00  0.00     0.110 A 
BRANCH   5   9
ATOM      9  C   UNL d   1       1.542   3.027   0.487  0.00  0.00     0.310 C 
ATOM     10  O   UNL d   1       2.332   2.355   1.131  0.00  0.00    -0.258 OA
BRANCH   9  11
ATOM     11  O   UNL d   1       1.224   4.324   0.756  0.00  0.00    -0.321 OA
ATOM     12  C   UNL d   1       1.893   4.869   1.893  0.00  0.00     0.213 C 
ENDBRANCH   9  11
ENDBRANCH   5   9
ENDBRANCH   1   4
BRANCH   1  13
ATOM     13  C   UNL d   1       2.613  -0.350   0.083  0.00  0.00     0.080 A 
ATOM     14  C   UNL d   1       3.046  -0.980   1.259  0.00  0.00     0.027 A 
ATOM     15  C   UNL d   1       4.407  -1.194   1.473  0.00  0.00     0.025 A 
ATOM     16  C   UNL d   1       5.330  -0.781   0.513  0.00  0.00     0.034 A 
ATOM     17  C   UNL d   1       4.899  -0.173  -0.670  0.00  0.00     0.025 A 
ATOM     18 CL   UNL d   1       7.010  -1.024   0.787  0.00  0.00    -0.084 Cl
ATOM     19  C   UNL d   1       3.534   0.039  -0.895  0.00  0.00     0.027 A 
ENDBRANCH   1  13
TORSDOF 4
