REMARK  1 active torsions:
REMARK  status: ('A' for Active; 'I' for Inactive)
REMARK    1  A    between atoms: C_2  and  S_1 
ROOT
ATOM      1  C   UNL d   1       0.565   1.287  -1.214  0.00  0.00     0.059 A 
ATOM      2  C   UNL d   1      -0.151   0.910  -2.354  0.00  0.00     0.025 A 
ATOM      3  C   UNL d   1       0.905   2.625  -0.991  0.00  0.00     0.025 A 
ATOM      4  C   UNL d   1      -0.134   3.212  -3.091  0.00  0.00     0.034 A 
ATOM      5  C   UNL d   1       0.559   3.589  -1.941  0.00  0.00     0.025 A 
ATOM      6  C   UNL d   1      -0.496   1.880  -3.299  0.00  0.00     0.025 A 
ATOM      7 CL   UNL d   1      -0.548   4.402  -4.264  0.00  0.00    -0.084 Cl
ENDROOT
BRANCH   1   8
ATOM      8  S   UNL d   1       1.010   0.061  -0.004  0.00  0.00     0.171 S 
ATOM      9  O   UNL d   1       0.075  -1.041  -0.138  0.00  0.00    -0.223 OA
ATOM     10  O   UNL d   1       1.179   0.744   1.264  0.00  0.00    -0.223 OA
ATOM     11  C   UNL d   1       2.603  -0.495  -0.550  0.00  0.00     0.167 C 
ENDBRANCH   1   8
TORSDOF 1
