REMARK  3 active torsions:
REMARK  status: ('A' for Active; 'I' for Inactive)
REMARK    1  A    between atoms: C_9  and  N_1 
REMARK    2  A    between atoms: C_6  and  C_2 
REMARK    3  A    between atoms: C_13  and  C_9 
ROOT
ATOM      1  N   UNL d   1       0.766  -0.697  -0.115  0.00  0.00    -0.306 N 
ATOM      2  C   UNL d   1       0.918   0.654  -0.125  0.00  0.00     0.114 A 
ATOM      3  N   UNL d   1      -0.204   1.319  -0.205  0.00  0.00    -0.286 N 
ATOM      4  HN  UNL d   1      -0.331   2.330  -0.234  1.00  0.00     0.188 HD
ATOM      5  C   UNL d   1      -0.592  -0.900  -0.138  0.00  0.00     0.194 A 
ATOM      6  N   UNL d   1      -1.167   0.354  -0.243  0.00  0.00    -0.275 N 
ATOM      7  S   UNL d   1      -1.477  -2.296  -0.027  0.00  0.00    -0.039 SA
ATOM      8  H   UNL d   1      -2.152   0.574  -0.183  0.00  0.00     0.189 HD
ENDROOT
BRANCH   2   9
ATOM      9  C   UNL d   1       2.262   1.334   0.014  0.00  0.00     0.147 C 
ATOM     10  C   UNL d   1       2.539   1.642   1.482  0.00  0.00     0.229 C 
ATOM     11  N   UNL d   1       2.772   2.930   1.859  0.00  0.00    -0.360 N 
ATOM     12  O   UNL d   1       2.539   0.760   2.341  0.00  0.00    -0.273 OA
ATOM     13  C   UNL d   1       2.965   4.030   0.952  0.00  0.00     0.122 C 
ATOM     14  H   UNL d   1       2.993   3.047   2.841  0.00  0.00     0.162 HD
ATOM     15  C   UNL d   1       2.105   3.876  -0.286  0.00  0.00     0.021 C 
ATOM     16  C   UNL d   1       2.392   2.531  -0.942  0.00  0.00     0.023 C 
ENDBRANCH   2   9
BRANCH   1  17
ATOM     17  C   UNL d   1       1.784  -1.710   0.166  0.00  0.00     0.171 C 
BRANCH  17  18
ATOM     18  C   UNL d   1       2.635  -2.186  -0.998  0.00  0.00    -0.040 A 
ATOM     19  C   UNL d   1       2.433  -1.829  -2.337  0.00  0.00     0.009 A 
ATOM     20  C   UNL d   1       3.252  -2.357  -3.342  0.00  0.00     0.001 A 
ATOM     21  C   UNL d   1       4.278  -3.250  -3.026  0.00  0.00     0.000 A 
ATOM     22  C   UNL d   1       4.493  -3.611  -1.702  0.00  0.00     0.001 A 
ATOM     23  C   UNL d   1       3.680  -3.082  -0.699  0.00  0.00     0.009 A 
ENDBRANCH  17  18
ENDBRANCH   1  17
TORSDOF 3
