REMARK  4 active torsions:
REMARK  status: ('A' for Active; 'I' for Inactive)
REMARK    1  A    between atoms: N_5  and  C_3 
REMARK    2  A    between atoms: O_12  and  C_8 
REMARK    3  A    between atoms: C_13  and  C_11 
REMARK    4  A    between atoms: C_14  and  C_13 
ROOT
ATOM      1  C   UNL d   1       3.160  -2.418  -0.100  0.00  0.00     0.196 C 
ATOM      2  N   UNL d   1       1.736  -2.364  -0.193  0.00  0.00    -0.126 N 
ATOM      3  N   UNL d   1       4.313  -2.538  -0.048  0.00  0.00    -0.171 NA
ATOM      4  H   UNL d   1       1.171  -3.117   0.164  0.00  0.00     0.197 HD
ENDROOT
BRANCH   2   5
ATOM      5  C   UNL d   1       1.087  -1.146  -0.064  0.00  0.00     0.693 A 
ATOM      6  N   UNL d   1      -0.250  -1.201   0.007  0.00  0.00    -0.170 N 
ATOM      7  C   UNL d   1      -0.875  -0.020   0.044  0.00  0.00     0.157 A 
ATOM      8  HN  UNL d   1      -0.758  -2.086   0.032  1.00  0.00     0.186 HD
ATOM      9  C   UNL d   1      -0.271   1.205   0.045  0.00  0.00     0.082 A 
ATOM     10  C   UNL d   1       1.101   1.169  -0.001  0.00  0.00     0.030 A 
ATOM     11  N   UNL d   1       1.782   0.002  -0.055  0.00  0.00    -0.195 N 
ATOM     12  HN  UNL d   1       2.802  -0.005  -0.089  1.00  0.00     0.184 HD
BRANCH   7  13
ATOM     13  O   UNL d   1      -2.231  -0.104   0.060  0.00  0.00    -0.346 OA
ATOM     14  H   UNL d   1      -2.360  -1.068   0.013  0.00  0.00     0.219 HD
ENDBRANCH   7  13
BRANCH  10  15
ATOM     15  C   UNL d   1       1.909   2.441   0.016  0.00  0.00     0.057 C 
BRANCH  15  16
ATOM     16  C   UNL d   1       2.851   2.579  -1.183  0.00  0.00     0.002 C 
ATOM     17  C   UNL d   1       2.117   2.651  -2.515  0.00  0.00     0.005 C 
ENDBRANCH  15  16
ENDBRANCH  10  15
ENDBRANCH   2   5
TORSDOF 4
