REMARK  4 active torsions:
REMARK  status: ('A' for Active; 'I' for Inactive)
REMARK    1  A    between atoms: N_2  and  C_4 
REMARK    2  A    between atoms: C_5  and  N_2 
REMARK    3  A    between atoms: C_7  and  C_4 
REMARK    4  A    between atoms: S_9  and  C_8 
ROOT
ATOM      1  N   UNL d   1       1.675   0.950  -1.181  0.00  0.00    -0.195 NA
ATOM      2  C   UNL d   1       2.610   0.506  -0.645  0.00  0.00     0.084 C 
ATOM      3  C   UNL d   1       3.790  -0.087   0.038  0.00  0.00     0.201 C 
ENDROOT
BRANCH   3   4
ATOM      4  N   UNL d   1       4.429  -1.164  -0.742  0.00  0.00    -0.272 NA
ATOM      5  H   UNL d   1       4.551  -0.897  -1.719  0.00  0.00     0.129 HD
BRANCH   4   6
ATOM      6  C   UNL d   1       3.967  -2.483  -0.671  0.00  0.00     0.011 A 
ATOM      7  C   UNL d   1       2.684  -2.858  -0.249  0.00  0.00     0.042 A 
ATOM      8  C   UNL d   1       2.281  -4.204  -0.223  0.00  0.00     0.001 A 
ATOM      9  C   UNL d   1       3.188  -5.192  -0.615  0.00  0.00     0.018 A 
ATOM     10  C   UNL d   1       4.462  -4.841  -1.056  0.00  0.00     0.003 A 
ATOM     11  C   UNL d   1       4.838  -3.497  -1.096  0.00  0.00     0.023 A 
BRANCH   8  12
ATOM     12  S   UNL d   1       0.674  -4.740   0.355  0.00  0.00    -0.134 SA
ATOM     13  C   UNL d   1      -0.403  -3.369  -0.148  0.00  0.00     0.095 C 
ENDBRANCH   8  12
ENDBRANCH   4   6
ENDBRANCH   3   4
BRANCH   3  14
ATOM     14  C   UNL d   1       4.827   0.990   0.359  0.00  0.00    -0.027 A 
ATOM     15  C   UNL d   1       5.519   1.681  -0.652  0.00  0.00     0.010 A 
ATOM     16  C   UNL d   1       6.429   2.694  -0.332  0.00  0.00     0.001 A 
ATOM     17  C   UNL d   1       6.664   3.030   0.999  0.00  0.00     0.000 A 
ATOM     18  C   UNL d   1       5.992   2.355   2.014  0.00  0.00     0.001 A 
ATOM     19  C   UNL d   1       5.083   1.343   1.697  0.00  0.00     0.010 A 
ENDBRANCH   3  14
TORSDOF 4
