REMARK  4 active torsions:
REMARK  status: ('A' for Active; 'I' for Inactive)
REMARK    1  A    between atoms: C_2  and  C_1 
REMARK    2  A    between atoms: C_3  and  C_2 
REMARK    3  A    between atoms: N_9  and  C_4 
REMARK    4  A    between atoms: C_12  and  N_9 
ROOT
ATOM      1  C   UNL d   1       0.863  -0.044   0.128  0.00  0.00     0.106 C 
ATOM      2  C   UNL d   1       0.143   0.158  -0.993  0.00  0.00     0.115 C 
ATOM      3  C   UNL d   1       0.230  -0.268   1.376  0.00  0.00     0.104 C 
ATOM      4  N   UNL d   1      -0.308  -0.448   2.387  0.00  0.00    -0.191 NA
ENDROOT
BRANCH   1   5
ATOM      5  C   UNL d   1       2.354  -0.005   0.022  0.00  0.00     0.175 C 
ATOM      6  O   UNL d   1       2.928   0.235  -1.035  0.00  0.00    -0.291 OA
BRANCH   5   7
ATOM      7  C   UNL d   1       3.153  -0.230   1.271  0.00  0.00     0.061 A 
ATOM      8  C   UNL d   1       4.165   0.810   1.698  0.00  0.00     0.013 A 
ATOM      9  C   UNL d   1       4.637  -0.517   1.182  0.00  0.00     0.013 A 
ENDBRANCH   5   7
ENDBRANCH   1   5
BRANCH   2  10
ATOM     10  N   UNL d   1      -1.227   0.208  -1.153  0.00  0.00    -0.362 N 
ATOM     11  H   UNL d   1      -1.802   0.119  -0.319  0.00  0.00     0.165 HD
BRANCH  10  12
ATOM     12  C   UNL d   1      -1.944   0.403  -2.352  0.00  0.00     0.071 A 
ATOM     13  C   UNL d   1      -1.444   0.098  -3.632  0.00  0.00     0.145 A 
ATOM     14  C   UNL d   1      -2.157   0.392  -4.791  0.00  0.00     0.086 A 
ATOM     15  F   UNL d   1      -0.268  -0.534  -3.772  0.00  0.00    -0.204 F 
ATOM     16  C   UNL d   1      -3.387   1.020  -4.684  0.00  0.00     0.119 A 
ATOM     17  C   UNL d   1      -3.916   1.345  -3.441  0.00  0.00     0.044 A 
ATOM     18  F   UNL d   1      -4.075   1.321  -5.792  0.00  0.00    -0.206 F 
ATOM     19  C   UNL d   1      -3.198   1.036  -2.280  0.00  0.00     0.036 A 
ENDBRANCH  10  12
ENDBRANCH   2  10
TORSDOF 4
