REMARK  7 active torsions:
REMARK  status: ('A' for Active; 'I' for Inactive)
REMARK    1  A    between atoms: N_9  and  C_1 
REMARK    2  A    between atoms: N_10  and  C_1 
REMARK    3  A    between atoms: N_11  and  C_4 
REMARK    4  A    between atoms: C_5  and  C_14 
REMARK    5  A    between atoms: N_6  and  N_10 
REMARK    6  A    between atoms: C_17  and  N_9 
REMARK    7  A    between atoms: C_18  and  C_17 
ROOT
ATOM      1  N   UNL d   1       2.973   0.038   1.325  0.00  0.00    -0.309 N 
ATOM      2  HN  UNL d   1       2.481  -0.067   2.212  1.00  0.00     0.186 HD
ATOM      3  C   UNL d   1       4.268   0.052   1.266  0.00  0.00     0.120 C 
ENDROOT
BRANCH   1   4
ATOM      4  N   UNL d   1       2.298   0.170   0.148  0.00  0.00    -0.277 N 
ATOM      5  H   UNL d   1       2.791   0.241  -0.737  0.00  0.00     0.189 HD
BRANCH   4   6
ATOM      6  C   UNL d   1       0.922   0.025   0.140  0.00  0.00     0.186 C 
ATOM      7  S   UNL d   1       0.079   0.026  -1.295  0.00  0.00    -0.040 SA
BRANCH   6   8
ATOM      8  N   UNL d   1       0.402  -0.114   1.401  0.00  0.00    -0.364 N 
ATOM      9  H   UNL d   1       1.152  -0.185   2.086  0.00  0.00     0.162 HD
BRANCH   8  10
ATOM     10  C   UNL d   1      -0.874  -0.692   1.792  0.00  0.00     0.154 C 
BRANCH  10  11
ATOM     11  C   UNL d   1      -0.727  -2.193   2.069  0.00  0.00     0.139 C 
ATOM     12  O   UNL d   1       0.137  -2.400   3.211  0.00  0.00    -0.384 OA
ATOM     13  C   UNL d   1      -0.437  -3.416   4.043  0.00  0.00     0.168 C 
ATOM     14  C   UNL d   1      -1.598  -4.015   3.280  0.00  0.00     0.029 C 
ATOM     15  C   UNL d   1      -2.045  -2.864   2.415  0.00  0.00     0.035 C 
ENDBRANCH  10  11
ENDBRANCH   8  10
ENDBRANCH   6   8
ENDBRANCH   4   6
ENDBRANCH   1   4
BRANCH   3  16
ATOM     16  C   UNL d   1       5.055  -0.126   2.507  0.00  0.00     0.003 A 
ATOM     17  C   UNL d   1       6.448  -0.106   2.534  0.00  0.00     0.047 A 
ATOM     18  C   UNL d   1       7.131  -0.323   3.744  0.00  0.00     0.054 A 
ATOM     19 CL   UNL d   1       7.400   0.166   1.117  0.00  0.00    -0.083 Cl
ATOM     20  C   UNL d   1       6.460  -0.556   4.961  0.00  0.00     0.031 A 
ATOM     21  C   UNL d   1       5.061  -0.546   4.901  0.00  0.00     0.030 A 
ATOM     22  C   UNL d   1       4.366  -0.343   3.704  0.00  0.00     0.017 A 
BRANCH  20  23
ATOM     23  N   UNL d   1       7.142  -0.812   6.136  0.00  0.00    -0.390 N 
ATOM     24  C   UNL d   1       8.455  -0.240   6.414  0.00  0.00     0.149 C 
ATOM     25  C   UNL d   1       6.526  -1.523   7.254  0.00  0.00     0.149 C 
ENDBRANCH  20  23
ENDBRANCH   3  16
TORSDOF 7
