REMARK  2 active torsions:
REMARK  status: ('A' for Active; 'I' for Inactive)
REMARK    1  A    between atoms: C_4  and  N_1 
REMARK    2  A    between atoms: C_10  and  C_4 
ROOT
ATOM      1  N   UNL d   1       0.626   1.125  -0.486  0.00  0.00    -0.284 N 
ATOM      2  C   UNL d   1       1.394  -0.016  -0.287  0.00  0.00     0.227 C 
ATOM      3  C   UNL d   1      -0.757   1.190  -0.358  0.00  0.00     0.227 C 
ATOM      4  C   UNL d   1       0.658  -1.336  -0.226  0.00  0.00     0.108 C 
ATOM      5  C   UNL d   1      -1.501  -0.124  -0.330  0.00  0.00     0.108 C 
ATOM      6  O   UNL d   1       2.624  -0.002  -0.214  0.00  0.00    -0.273 OA
ATOM      7  O   UNL d   1      -1.388   2.247  -0.318  0.00  0.00    -0.273 OA
ATOM      8  C   UNL d   1      -0.738  -1.237   0.365  0.00  0.00    -0.001 C 
ATOM      9  C   UNL d   1      -0.719  -1.067   1.885  0.00  0.00     0.011 C 
ENDROOT
BRANCH   1  10
ATOM     10  C   UNL d   1       1.333   2.379  -0.731  0.00  0.00     0.173 C 
BRANCH  10  11
ATOM     11  C   UNL d   1       1.390   2.695  -2.215  0.00  0.00    -0.040 A 
ATOM     12  C   UNL d   1       0.367   3.447  -2.821  0.00  0.00     0.010 A 
ATOM     13  C   UNL d   1       0.398   3.716  -4.193  0.00  0.00     0.024 A 
ATOM     14  C   UNL d   1       1.450   3.235  -4.968  0.00  0.00     0.034 A 
ATOM     15  C   UNL d   1       2.468   2.483  -4.385  0.00  0.00     0.024 A 
ATOM     16 CL   UNL d   1       1.487   3.566  -6.656  0.00  0.00    -0.084 Cl
ATOM     17  C   UNL d   1       2.436   2.211  -3.014  0.00  0.00     0.010 A 
ENDBRANCH  10  11
ENDBRANCH   1  10
TORSDOF 2
