REMARK  3 active torsions:
REMARK  status: ('A' for Active; 'I' for Inactive)
REMARK    1  A    between atoms: C_6  and  N_1 
REMARK    2  A    between atoms: C_16  and  C_4 
REMARK    3  A    between atoms: C_11  and  C_16 
ROOT
ATOM      1  N   UNL d   1      -0.005   0.889  -0.049  0.00  0.00    -0.252 N 
ATOM      2  C   UNL d   1      -1.135   0.120   0.114  0.00  0.00     0.232 A 
ATOM      3  C   UNL d   1       1.126   0.107  -0.139  0.00  0.00     0.236 A 
ATOM      4  C   UNL d   1       0.744  -1.348  -0.077  0.00  0.00     0.091 A 
ATOM      5  C   UNL d   1      -0.764  -1.332   0.070  0.00  0.00     0.118 A 
ATOM      6  O   UNL d   1      -2.300   0.473   0.237  0.00  0.00    -0.273 OA
ATOM      7  O   UNL d   1       2.297   0.458  -0.216  0.00  0.00    -0.272 OA
ENDROOT
BRANCH   1   8
ATOM      8  C   UNL d   1       0.000   2.318  -0.116  0.00  0.00     0.045 A 
ATOM      9  C   UNL d   1      -1.070   3.083   0.377  0.00  0.00     0.032 A 
ATOM     10  C   UNL d   1      -1.064   4.483   0.305  0.00  0.00     0.026 A 
ATOM     11  C   UNL d   1       0.012   5.144  -0.272  0.00  0.00     0.034 A 
ATOM     12  C   UNL d   1       1.082   4.416  -0.775  0.00  0.00     0.026 A 
ATOM     13 CL   UNL d   1       0.019   6.860  -0.365  0.00  0.00    -0.084 Cl
ATOM     14  C   UNL d   1       1.076   3.018  -0.692  0.00  0.00     0.032 A 
ENDBRANCH   1   8
BRANCH   4  15
ATOM     15  C   UNL d   1       1.255  -2.056  -1.333  0.00  0.00     0.041 C 
BRANCH  15  16
ATOM     16  C   UNL d   1       0.910  -3.517  -1.361  0.00  0.00    -0.036 C 
ATOM     17  C   UNL d   1       0.177  -4.088  -2.326  0.00  0.00     0.007 C 
ENDBRANCH  15  16
ENDBRANCH   4  15
TORSDOF 3
