REMARK  2 active torsions:
REMARK  status: ('A' for Active; 'I' for Inactive)
REMARK    1  A    between atoms: C_6  and  C_3 
REMARK    2  A    between atoms: C_8  and  C_4 
ROOT
ATOM      1  N   UNL d   1       1.289  -0.561  -0.423  0.00  0.00    -0.348 N 
ATOM      2  HN  UNL d   1       2.112  -1.040  -0.788  1.00  0.00     0.166 HD
ATOM      3  C   UNL d   1       0.084  -1.097  -0.341  0.00  0.00     0.102 A 
ATOM      4  C   UNL d   1       1.285   0.743   0.055  0.00  0.00     0.050 A 
ATOM      5  S   UNL d   1      -1.091  -0.095   0.423  0.00  0.00    -0.080 SA
ATOM      6  C   UNL d   1       0.073   1.149   0.579  0.00  0.00     0.082 A 
ENDROOT
BRANCH   3   7
ATOM      7  C   UNL d   1      -0.275  -2.424  -0.861  0.00  0.00     0.081 A 
ATOM      8  N   UNL d   1      -1.554  -2.852  -0.684  0.00  0.00    -0.361 N 
ATOM      9  C   UNL d   1      -1.845  -4.074  -1.187  0.00  0.00     0.105 A 
ATOM     10  HN  UNL d   1      -2.252  -2.286  -0.202  1.00  0.00     0.165 HD
ATOM     11  C   UNL d   1      -0.907  -4.852  -1.842  0.00  0.00     0.104 A 
ATOM     12  N   UNL d   1       0.364  -4.440  -2.035  0.00  0.00    -0.372 N 
ATOM     13  C   UNL d   1       0.657  -3.212  -1.530  0.00  0.00     0.120 A 
ATOM     14  HN  UNL d   1       1.056  -5.009  -2.523  1.00  0.00     0.164 HD
ENDBRANCH   3   7
BRANCH   4  15
ATOM     15  C   UNL d   1       2.472   1.598  -0.001  0.00  0.00    -0.003 A 
ATOM     16  C   UNL d   1       3.399   1.553  -1.066  0.00  0.00    -0.049 A 
ATOM     17  C   UNL d   1       4.524   2.404  -1.032  0.00  0.00     0.014 A 
ATOM     18  C   UNL d   1       3.285   0.649  -2.267  0.00  0.00     0.049 C 
ATOM     19  C   UNL d   1       4.737   3.308   0.014  0.00  0.00    -0.061 A 
ATOM     20  C   UNL d   1       3.810   3.363   1.051  0.00  0.00     0.007 A 
ATOM     21  C   UNL d   1       5.947   4.194   0.009  0.00  0.00     0.048 C 
ATOM     22  C   UNL d   1       2.699   2.515   1.046  0.00  0.00     0.015 A 
ENDBRANCH   4  15
TORSDOF 2
