REMARK  8 active torsions:
REMARK  status: ('A' for Active; 'I' for Inactive)
REMARK    1  A    between atoms: C_8  and  N_1 
REMARK    2  A    between atoms: C_19  and  C_8 
REMARK    3  A    between atoms: O_23  and  C_12 
REMARK    4  A    between atoms: S_20  and  C_13 
REMARK    5  A    between atoms: O_24  and  C_14 
REMARK    6  A    between atoms: C_18  and  C_19 
REMARK    7  A    between atoms: C_27  and  S_20 
REMARK    8  A    between atoms: C_30  and  C_27 
ROOT
ATOM      1  N   UNL d   1       2.261  -0.085   0.098  0.00  0.00    -0.280 N 
ATOM      2  C   UNL d   1       1.620   1.146  -0.013  0.00  0.00     0.261 C 
ATOM      3  C   UNL d   1       1.609  -1.310  -0.014  0.00  0.00     0.261 C 
ATOM      4  C   UNL d   1       0.139   1.145  -0.007  0.00  0.00     0.044 A 
ATOM      5  C   UNL d   1      -0.568  -0.063   0.022  0.00  0.00     0.007 A 
ATOM      6  C   UNL d   1       0.121  -1.282   0.009  0.00  0.00     0.044 A 
ATOM      7  C   UNL d   1      -1.995  -0.046   0.040  0.00  0.00    -0.007 A 
ATOM      8  C   UNL d   1      -0.531   2.370  -0.022  0.00  0.00     0.019 A 
ATOM      9  O   UNL d   1       2.186  -2.385  -0.139  0.00  0.00    -0.267 OA
ATOM     10  O   UNL d   1       2.217   2.217  -0.107  0.00  0.00    -0.267 OA
ATOM     11  C   UNL d   1      -2.667   1.213   0.037  0.00  0.00     0.011 A 
ATOM     12  C   UNL d   1      -1.921   2.400  -0.006  0.00  0.00     0.020 A 
ATOM     13  C   UNL d   1      -0.566  -2.500   0.029  0.00  0.00     0.018 A 
ATOM     14  C   UNL d   1      -2.654  -1.299   0.036  0.00  0.00     0.014 A 
ATOM     15  C   UNL d   1      -1.954  -2.507   0.045  0.00  0.00     0.002 A 
ENDROOT
BRANCH   1  16
ATOM     16  C   UNL d   1       3.726  -0.072   0.196  0.00  0.00     0.140 C 
BRANCH  16  17
ATOM     17  C   UNL d   1       4.196   0.509   1.539  0.00  0.00     0.059 C 
BRANCH  17  18
ATOM     18  C   UNL d   1       5.697   0.614   1.658  0.00  0.00    -0.054 A 
ATOM     19  C   UNL d   1       6.368   1.730   1.130  0.00  0.00     0.046 A 
ATOM     20  C   UNL d   1       7.758   1.881   1.263  0.00  0.00     0.102 A 
ATOM     21  C   UNL d   1       8.480   0.893   1.956  0.00  0.00     0.101 A 
ATOM     22  C   UNL d   1       7.814  -0.238   2.447  0.00  0.00     0.040 A 
ATOM     23  C   UNL d   1       6.434  -0.379   2.303  0.00  0.00     0.010 A 
BRANCH  20  24
ATOM     24  O   UNL d   1       8.457   2.932   0.732  0.00  0.00    -0.353 OA
ATOM     25  C   UNL d   1       7.731   3.925   0.020  0.00  0.00     0.210 C 
ENDBRANCH  20  24
BRANCH  21  26
ATOM     26  O   UNL d   1       9.833   0.866   2.182  0.00  0.00    -0.353 OA
ATOM     27  C   UNL d   1      10.462   2.122   2.411  0.00  0.00     0.210 C 
ENDBRANCH  21  26
ENDBRANCH  17  18
ENDBRANCH  16  17
ENDBRANCH   1  16
BRANCH  11  28
ATOM     28  S   UNL d   1      -4.446   1.458  -0.061  0.00  0.00    -0.129 SA
BRANCH  28  29
ATOM     29  C   UNL d   1      -5.068   0.760   1.508  0.00  0.00     0.079 C 
BRANCH  29  30
ATOM     30  C   UNL d   1      -4.478   1.373   2.773  0.00  0.00     0.006 C 
ATOM     31  C   UNL d   1      -5.114   0.730   4.001  0.00  0.00     0.006 C 
ENDBRANCH  29  30
ENDBRANCH  28  29
ENDBRANCH  11  28
TORSDOF 8
