REMARK  6 active torsions:
REMARK  status: ('A' for Active; 'I' for Inactive)
REMARK    1  A    between atoms: N_2  and  C_1 
REMARK    2  A    between atoms: C_3  and  N_2 
REMARK    3  A    between atoms: N_6  and  C_15 
REMARK    4  A    between atoms: C_19  and  N_9 
REMARK    5  A    between atoms: C_15  and  C_16 
REMARK    6  A    between atoms: C_16  and  C_19 
ROOT
ATOM      1  C   UNL d   1       1.810  -0.486  -2.199  0.00  0.00     0.172 C 
ATOM      2  S   UNL d   1       1.890  -1.290  -3.661  0.00  0.00    -0.041 SA
ATOM      3  N   UNL d   1       2.654   0.572  -2.015  0.00  0.00    -0.367 N 
ATOM      4  H   UNL d   1       3.190   0.784  -2.848  0.00  0.00     0.161 HD
ENDROOT
BRANCH   1   5
ATOM      5  N   UNL d   1       0.929  -0.706  -1.176  0.00  0.00    -0.331 N 
ATOM      6  H   UNL d   1       0.478   0.138  -0.840  0.00  0.00     0.168 HD
BRANCH   5   7
ATOM      7  C   UNL d   1       0.289  -1.911  -0.826  0.00  0.00     0.073 A 
ATOM      8  C   UNL d   1      -0.981  -1.850  -0.241  0.00  0.00     0.145 A 
ATOM      9  C   UNL d   1      -1.635  -2.998   0.188  0.00  0.00     0.086 A 
ATOM     10  F   UNL d   1      -1.592  -0.662  -0.103  0.00  0.00    -0.204 F 
ATOM     11  C   UNL d   1      -0.990  -4.219   0.056  0.00  0.00     0.119 A 
ATOM     12  C   UNL d   1       0.282  -4.308  -0.500  0.00  0.00     0.044 A 
ATOM     13  F   UNL d   1      -1.596  -5.333   0.489  0.00  0.00    -0.206 F 
ATOM     14  C   UNL d   1       0.924  -3.150  -0.948  0.00  0.00     0.036 A 
ENDBRANCH   5   7
ENDBRANCH   1   5
BRANCH   3  15
ATOM     15  C   UNL d   1       3.191   1.033  -0.737  0.00  0.00     0.123 C 
BRANCH  15  16
ATOM     16  C   UNL d   1       4.695   0.746  -0.618  0.00  0.00     0.050 C 
BRANCH  16  17
ATOM     17  C   UNL d   1       5.502   1.564  -1.638  0.00  0.00     0.274 C 
BRANCH  17  18
ATOM     18  N   UNL d   1       6.964   1.428  -1.543  0.00  0.00     0.092 N 
ATOM     19  C   UNL d   1       7.623   2.303  -2.549  0.00  0.00     0.298 C 
ATOM     20  C   UNL d   1       7.493   1.796  -3.999  0.00  0.00     0.198 C 
ATOM     21  O   UNL d   1       7.983   0.458  -4.135  0.00  0.00    -0.388 OA
ATOM     22  C   UNL d   1       7.318  -0.430  -3.228  0.00  0.00     0.198 C 
ATOM     23  C   UNL d   1       7.458   0.051  -1.773  0.00  0.00     0.298 C 
ENDBRANCH  17  18
ENDBRANCH  16  17
ENDBRANCH  15  16
ENDBRANCH   3  15
TORSDOF 6
