REMARK  10 active torsions:
REMARK  status: ('A' for Active; 'I' for Inactive)
REMARK    1  A    between atoms: C_4  and  C_1 
REMARK    2  A    between atoms: O_11  and  C_1 
REMARK    3  A    between atoms: C_2  and  C_3 
REMARK    4  A    between atoms: O_10  and  C_2 
REMARK    5  A    between atoms: C_3  and  C_13 
REMARK    6  A    between atoms: C_12  and  C_4 
REMARK    7  A    between atoms: C_7  and  S_9 
REMARK    8  A    between atoms: S_8  and  C_7 
REMARK    9  A    between atoms: C_13  and  S_8 
REMARK   10  A    between atoms: S_9  and  C_12 
ROOT
ATOM      1  C   UNL d   1       1.298   3.806   4.043  0.00  0.00     0.147 C 
ENDROOT
BRANCH   1   2
ATOM      2  S   UNL d   1       0.208   2.816   2.985  0.00  0.00    -0.158 SA
BRANCH   2   3
ATOM      3  C   UNL d   1      -0.744   4.134   2.154  0.00  0.00     0.085 C 
BRANCH   3   4
ATOM      4  C   UNL d   1      -1.810   3.481   1.283  0.00  0.00     0.120 C 
BRANCH   4   5
ATOM      5  C   UNL d   1      -2.642   4.520   0.579  0.00  0.00     0.140 C 
ATOM      6  O   UNL d   1      -2.484   5.728   0.670  0.00  0.00    -0.650 OA
BRANCH   5   7
ATOM      7  O   UNL d   1      -3.610   3.969  -0.190  0.00  0.00    -0.776 OA
ATOM      8  H   UNL d   1      -3.623   2.993  -0.169  0.00  0.00     0.167 HD
ENDBRANCH   5   7
ENDBRANCH   4   5
ENDBRANCH   3   4
ENDBRANCH   2   3
ENDBRANCH   1   2
BRANCH   1   9
ATOM      9  S   UNL d   1       0.441   4.878   5.228  0.00  0.00    -0.158 SA
BRANCH   9  10
ATOM     10  C   UNL d   1      -0.502   3.636   6.178  0.00  0.00     0.085 C 
BRANCH  10  11
ATOM     11  C   UNL d   1      -1.381   4.360   7.190  0.00  0.00     0.120 C 
BRANCH  11  12
ATOM     12  C   UNL d   1      -2.209   3.378   7.977  0.00  0.00     0.140 C 
ATOM     13  O   UNL d   1      -2.176   2.166   7.846  0.00  0.00    -0.650 OA
BRANCH  12  14
ATOM     14  O   UNL d   1      -3.021   3.988   8.870  0.00  0.00    -0.776 OA
ATOM     15  H   UNL d   1      -2.950   4.962   8.868  0.00  0.00     0.167 HD
ENDBRANCH  12  14
ENDBRANCH  11  12
ENDBRANCH  10  11
ENDBRANCH   9  10
ENDBRANCH   1   9
TORSDOF 10
