REMARK  3 active torsions:
REMARK  status: ('A' for Active; 'I' for Inactive)
REMARK    1  A    between atoms: S_8  and  C_1 
REMARK    2  A    between atoms: C_5  and  C_9 
REMARK    3  A    between atoms: C_9  and  S_8 
ROOT
ATOM      1  C   UNL d   1      -1.406  -1.103   0.037  0.00  0.00     0.151 A 
ATOM      2  N   UNL d   1      -1.963   0.098   0.440  0.00  0.00    -0.301 N 
ATOM      3  N   UNL d   1      -0.118  -0.996  -0.218  0.00  0.00    -0.344 N 
ATOM      4  HN  UNL d   1       0.514  -1.734  -0.526  1.00  0.00     0.167 HD
ATOM      5  C   UNL d   1      -0.916   1.018   0.438  0.00  0.00     0.056 A 
ATOM      6  C   UNL d   1       0.192   0.319   0.020  0.00  0.00     0.120 A 
ATOM      7  C   UNL d   1      -3.265   0.451   0.808  0.00  0.00     0.099 A 
ATOM      8  C   UNL d   1      -1.192   2.355   0.833  0.00  0.00     0.031 A 
ATOM      9  C   UNL d   1      -3.529   1.718   1.180  0.00  0.00     0.018 A 
ATOM     10  C   UNL d   1      -2.447   2.691   1.191  0.00  0.00     0.004 A 
ENDROOT
BRANCH   1  11
ATOM     11  S   UNL d   1      -2.317  -2.578  -0.102  0.00  0.00    -0.089 SA
BRANCH  11  12
ATOM     12  C   UNL d   1      -0.961  -3.792  -0.020  0.00  0.00     0.124 C 
BRANCH  12  13
ATOM     13  C   UNL d   1      -1.455  -5.224  -0.024  0.00  0.00    -0.005 A 
ATOM     14  C   UNL d   1      -1.483  -5.993  -1.205  0.00  0.00     0.042 A 
ATOM     15 CL   UNL d   1      -1.006  -5.350  -2.739  0.00  0.00    -0.084 Cl
ATOM     16  C   UNL d   1      -1.897  -7.332  -1.190  0.00  0.00     0.024 A 
ATOM     17  C   UNL d   1      -2.307  -7.931  -0.004  0.00  0.00     0.003 A 
ATOM     18  C   UNL d   1      -2.312  -7.187   1.170  0.00  0.00     0.024 A 
ATOM     19  C   UNL d   1      -1.892  -5.849   1.163  0.00  0.00     0.042 A 
ATOM     20 CL   UNL d   1      -1.932  -5.018   2.681  0.00  0.00    -0.084 Cl
ENDBRANCH  12  13
ENDBRANCH  11  12
ENDBRANCH   1  11
TORSDOF 3
