REMARK  2 active torsions:
REMARK  status: ('A' for Active; 'I' for Inactive)
REMARK    1  A    between atoms: C_10  and  C_1 
REMARK    2  A    between atoms: N_13  and  C_6 
ROOT
ATOM      1  C   UNL d   1      -1.196   5.391  -0.053  0.00  0.00     0.107 A 
ATOM      2  C   UNL d   1      -1.670   4.518   0.942  0.00  0.00     0.146 A 
ATOM      3  C   UNL d   1      -0.421   4.775  -1.055  0.00  0.00     0.146 A 
ATOM      4  C   UNL d   1      -0.609   2.567  -0.060  0.00  0.00     0.016 A 
ATOM      5  C   UNL d   1      -1.387   3.145   0.945  0.00  0.00     0.060 A 
ATOM      6  C   UNL d   1      -0.129   3.406  -1.071  0.00  0.00     0.060 A 
ATOM      7  F   UNL d   1      -2.453   4.973   1.935  0.00  0.00    -0.204 F 
ATOM      8  F   UNL d   1       0.128   5.511  -2.038  0.00  0.00    -0.204 F 
ENDROOT
BRANCH   4   9
ATOM      9  C   UNL d   1      -0.316   1.138  -0.018  0.00  0.00     0.141 A 
ATOM     10  N   UNL d   1      -0.730   0.264   0.883  0.00  0.00    -0.270 N 
ATOM     11  N   UNL d   1      -0.202  -0.952   0.527  0.00  0.00    -0.007 NA
ATOM     12  HN  UNL d   1      -1.326   0.456   1.688  1.00  0.00     0.185 HD
ATOM     13  N   UNL d   1       0.525  -0.848  -0.573  0.00  0.00    -0.007 NA
ATOM     14  N   UNL d   1       0.458   0.445  -0.911  0.00  0.00    -0.270 N 
ATOM     15  H   UNL d   1       0.951   0.765  -1.733  0.00  0.00     0.185 HD
ENDBRANCH   4   9
BRANCH   1  16
ATOM     16  N   UNL d   1      -1.430   6.764  -0.043  0.00  0.00    -0.385 N 
ATOM     17  C   UNL d   1      -1.643   7.493  -1.289  0.00  0.00     0.149 C 
ATOM     18  C   UNL d   1      -1.806   7.463   1.180  0.00  0.00     0.149 C 
ENDBRANCH   1  16
TORSDOF 2
