REMARK  5 active torsions:
REMARK  status: ('A' for Active; 'I' for Inactive)
REMARK    1  A    between atoms: C_4  and  C_2 
REMARK    2  A    between atoms: C_10  and  C_3 
REMARK       I    between atoms: N_7  and  C_4 
REMARK    3  A    between atoms: C_15  and  N_7 
REMARK    4  A    between atoms: C_8  and  O_12 
REMARK    5  A    between atoms: O_12  and  C_17 
ROOT
ATOM      1  C   UNL d   1      -2.614   2.300   0.126  0.00  0.00     0.035 A 
ATOM      2  C   UNL d   1      -4.995   0.809   0.203  0.00  0.00     0.076 A 
ATOM      3  C   UNL d   1      -2.630   1.005   0.656  0.00  0.00     0.032 A 
ATOM      4  C   UNL d   1      -3.828   2.873  -0.277  0.00  0.00     0.032 A 
ATOM      5  C   UNL d   1      -3.815   0.262   0.695  0.00  0.00     0.039 A 
ATOM      6  C   UNL d   1      -5.017   2.138  -0.223  0.00  0.00     0.039 A 
ENDROOT
BRANCH   1   7
ATOM      7  N   UNL d   1      -1.439   3.058  -0.070  0.00  0.00    -0.323 N 
ATOM      8  C   UNL d   1      -0.131   2.645   0.127  0.00  0.00     0.263 C 
ATOM      9  O   UNL d   1       0.184   1.565   0.621  0.00  0.00    -0.267 OA
ATOM     10  H   UNL d   1      -1.550   3.974  -0.487  0.00  0.00     0.169 HD
BRANCH   8  11
ATOM     11  C   UNL d   1       0.901   3.579  -0.325  0.00  0.00     0.073 A 
ATOM     12  S   UNL d   1       0.568   5.081  -1.067  0.00  0.00    -0.088 SA
ATOM     13  C   UNL d   1       2.238   5.428  -1.338  0.00  0.00    -0.009 A 
ATOM     14  C   UNL d   1       3.025   4.422  -0.804  0.00  0.00     0.017 A 
ATOM     15  C   UNL d   1       2.264   3.365  -0.235  0.00  0.00     0.025 A 
BRANCH  13  16
ATOM     16  C   UNL d   1       2.685   6.701  -2.074  0.00  0.00    -0.018 C 
ATOM     17  C   UNL d   1       2.406   7.944  -1.209  0.00  0.00     0.020 C 
ATOM     18  C   UNL d   1       4.203   6.661  -2.369  0.00  0.00     0.020 C 
ATOM     19  C   UNL d   1       1.960   6.837  -3.427  0.00  0.00     0.020 C 
ENDBRANCH  13  16
ENDBRANCH   8  11
ENDBRANCH   1   7
BRANCH   2  20
ATOM     20  O   UNL d   1      -6.099  -0.012   0.190  0.00  0.00    -0.309 OA
BRANCH  20  21
ATOM     21  C   UNL d   1      -6.912  -0.002  -0.926  0.00  0.00     0.098 A 
ATOM     22  C   UNL d   1      -8.280  -0.248  -0.744  0.00  0.00     0.069 A 
ATOM     23  C   UNL d   1      -9.157  -0.205  -1.830  0.00  0.00     0.050 A 
ATOM     24 CL   UNL d   1      -8.929  -0.601   0.817  0.00  0.00    -0.081 Cl
ATOM     25  C   UNL d   1      -8.663   0.072  -3.103  0.00  0.00     0.035 A 
ATOM     26  C   UNL d   1      -7.298   0.262  -3.307  0.00  0.00     0.026 A 
ATOM     27 CL   UNL d   1      -9.746   0.181  -4.435  0.00  0.00    -0.084 Cl
ATOM     28  C   UNL d   1      -6.420   0.201  -2.224  0.00  0.00     0.041 A 
ENDBRANCH  20  21
ENDBRANCH   2  20
TORSDOF 5
