REMARK  6 active torsions:
REMARK  status: ('A' for Active; 'I' for Inactive)
REMARK       I    between atoms: N_2  and  C_1 
REMARK    1  A    between atoms: C_4  and  C_1 
REMARK    2  A    between atoms: C_3  and  N_2 
REMARK    3  A    between atoms: O_13  and  C_6 
REMARK    4  A    between atoms: C_17  and  O_13 
REMARK    5  A    between atoms: O_14  and  C_18 
REMARK    6  A    between atoms: C_18  and  C_17 
ROOT
ATOM      1  C   UNL d   1       0.993  -2.044  -1.264  0.00  0.00     0.068 A 
ATOM      2  C   UNL d   1       1.975  -2.733  -0.529  0.00  0.00     0.095 A 
ATOM      3  C   UNL d   1       0.688  -2.473  -2.569  0.00  0.00     0.032 A 
ATOM      4  C   UNL d   1       2.656  -3.804  -1.140  0.00  0.00     0.039 A 
ATOM      5  C   UNL d   1       1.345  -3.561  -3.144  0.00  0.00     0.002 A 
ATOM      6  C   UNL d   1       2.334  -4.222  -2.433  0.00  0.00     0.003 A 
ENDROOT
BRANCH   1   7
ATOM      7  N   UNL d   1       0.265  -0.941  -0.756  0.00  0.00    -0.321 N 
ATOM      8  C   UNL d   1       0.084   0.234  -1.462  0.00  0.00     0.256 C 
ATOM      9  O   UNL d   1       0.518   0.477  -2.582  0.00  0.00    -0.267 OA
ATOM     10  H   UNL d   1       0.103  -0.896   0.232  0.00  0.00     0.169 HD
BRANCH   8  11
ATOM     11  C   UNL d   1      -0.642   1.310  -0.729  0.00  0.00     0.032 A 
ATOM     12  C   UNL d   1      -0.276   2.643  -0.965  0.00  0.00     0.018 A 
ATOM     13  C   UNL d   1      -0.968   3.683  -0.339  0.00  0.00     0.025 A 
ATOM     14  C   UNL d   1      -2.029   3.390   0.517  0.00  0.00     0.034 A 
ATOM     15  C   UNL d   1      -2.394   2.066   0.764  0.00  0.00     0.025 A 
ATOM     16 CL   UNL d   1      -2.907   4.670   1.258  0.00  0.00    -0.084 Cl
ATOM     17  C   UNL d   1      -1.701   1.022   0.142  0.00  0.00     0.018 A 
ENDBRANCH   8  11
ENDBRANCH   1   7
BRANCH   2  18
ATOM     18  O   UNL d   1       2.509  -2.431   0.701  0.00  0.00    -0.347 OA
BRANCH  18  19
ATOM     19  C   UNL d   1       1.659  -1.870   1.686  0.00  0.00     0.201 C 
BRANCH  19  20
ATOM     20  C   UNL d   1       2.333  -1.893   3.052  0.00  0.00     0.193 C 
BRANCH  20  21
ATOM     21  O   UNL d   1       1.389  -1.387   3.999  0.00  0.00    -0.394 OA
ATOM     22  C   UNL d   1       1.965  -1.218   5.286  0.00  0.00     0.201 C 
ENDBRANCH  20  21
ENDBRANCH  19  20
ENDBRANCH  18  19
ENDBRANCH   2  18
TORSDOF 6
