REMARK  6 active torsions:
REMARK  status: ('A' for Active; 'I' for Inactive)
REMARK    1  A    between atoms: C_6  and  C_1 
REMARK    2  A    between atoms: C_5  and  O_8 
REMARK    3  A    between atoms: C_9  and  C_5 
REMARK    4  A    between atoms: O_8  and  C_14 
REMARK    5  A    between atoms: C_10  and  C_11 
REMARK    6  A    between atoms: C_14  and  C_12 
ROOT
ATOM      1  C   UNL d   1       2.153   2.692  -0.722  0.00  0.00     0.023 A 
ATOM      2  C   UNL d   1       3.189   1.786  -1.002  0.00  0.00    -0.019 A 
ATOM      3  C   UNL d   1       2.264   3.585   0.360  0.00  0.00     0.016 A 
ATOM      4  C   UNL d   1       4.329   1.805  -0.172  0.00  0.00     0.010 A 
ATOM      5  C   UNL d   1       3.404   3.590   1.162  0.00  0.00     0.001 A 
ATOM      6  C   UNL d   1       4.437   2.699   0.895  0.00  0.00     0.001 A 
ENDROOT
BRANCH   2   7
ATOM      7  C   UNL d   1       3.171   0.816  -2.166  0.00  0.00     0.218 C 
BRANCH   7   8
ATOM      8  O   UNL d   1       2.131  -0.178  -2.200  0.00  0.00    -0.313 OA
BRANCH   8   9
ATOM      9  C   UNL d   1       2.258  -1.161  -1.273  0.00  0.00     0.293 C 
ATOM     10  O   UNL d   1       2.801  -1.049  -0.186  0.00  0.00    -0.259 OA
BRANCH   9  11
ATOM     11  C   UNL d   1       1.839  -2.479  -1.820  0.00  0.00     0.039 A 
ATOM     12  C   UNL d   1       1.087  -2.651  -2.985  0.00  0.00     0.018 A 
ATOM     13  C   UNL d   1       0.801  -3.948  -3.453  0.00  0.00     0.009 A 
ATOM     14  C   UNL d   1       1.259  -5.101  -2.777  0.00  0.00    -0.051 A 
ATOM     15  C   UNL d   1       2.026  -4.897  -1.621  0.00  0.00     0.009 A 
ATOM     16  C   UNL d   1       2.304  -3.613  -1.146  0.00  0.00     0.018 A 
BRANCH  14  17
ATOM     17  C   UNL d   1       0.893  -6.514  -3.272  0.00  0.00    -0.024 C 
ATOM     18  C   UNL d   1       1.501  -7.649  -2.411  0.00  0.00     0.019 C 
ATOM     19  C   UNL d   1      -0.639  -6.685  -3.228  0.00  0.00     0.019 C 
ATOM     20  C   UNL d   1       1.385  -6.736  -4.718  0.00  0.00     0.019 C 
ENDBRANCH  14  17
ENDBRANCH   9  11
ENDBRANCH   8   9
ENDBRANCH   7   8
ENDBRANCH   2   7
BRANCH   1  21
ATOM     21  C   UNL d   1       0.959   2.781  -1.572  0.00  0.00     0.149 A 
ATOM     22  N   UNL d   1       0.923   2.668  -2.858  0.00  0.00    -0.360 N 
ATOM     23  C   UNL d   1      -0.508   2.776  -3.189  0.00  0.00     0.046 A 
ATOM     24  HN  UNL d   1       1.706   2.535  -3.498  1.00  0.00     0.162 HD
ATOM     25  C   UNL d   1      -0.689   3.885  -4.224  0.00  0.00     0.040 C 
ATOM     26  C   UNL d   1      -0.966   1.431  -3.751  0.00  0.00     0.040 C 
ATOM     27  C   UNL d   1      -1.201   3.108  -1.869  0.00  0.00     0.207 A 
ATOM     28  O   UNL d   1      -0.182   3.007  -0.882  0.00  0.00    -0.333 OA
ENDBRANCH   1  21
TORSDOF 6
