REMARK  5 active torsions:
REMARK  status: ('A' for Active; 'I' for Inactive)
REMARK    1  A    between atoms: C_2  and  C_1 
REMARK    2  A    between atoms: C_24  and  N_3 
REMARK    3  A    between atoms: S_4  and  C_13 
REMARK    4  A    between atoms: C_12  and  S_4 
REMARK    5  A    between atoms: C_13  and  C_10 
ROOT
ATOM      1  C   UNL d   1      -0.593  -2.690   0.119  0.00  0.00     0.201 A 
ATOM      2  N   UNL d   1      -0.062  -3.413   1.083  0.00  0.00    -0.321 N 
ATOM      3  HN  UNL d   1       0.526  -3.101   1.857  1.00  0.00     0.169 HD
ATOM      4  C   UNL d   1      -0.486  -4.684   0.799  0.00  0.00     0.118 A 
ATOM      5  N   UNL d   1      -1.228  -4.782  -0.309  0.00  0.00    -0.246 N 
ATOM      6  HN  UNL d   1      -1.628  -5.621  -0.731  1.00  0.00     0.196 HD
ATOM      7  O   UNL d   1      -1.324  -3.462  -0.749  0.00  0.00    -0.216 OA
ENDROOT
BRANCH   1   8
ATOM      8  C   UNL d   1      -0.375  -1.290  -0.041  0.00  0.00     0.123 A 
ATOM      9  N   UNL d   1      -1.206  -0.431  -0.719  0.00  0.00    -0.287 N 
ATOM     10  N   UNL d   1      -0.724   0.829  -0.803  0.00  0.00    -0.301 N 
ATOM     11  C   UNL d   1       0.423   0.796  -0.112  0.00  0.00     0.042 A 
ATOM     12  HN  UNL d   1      -1.141   1.627  -1.284  1.00  0.00     0.187 HD
ATOM     13  C   UNL d   1       0.664  -0.497   0.397  0.00  0.00     0.067 A 
ATOM     14  C   UNL d   1       1.240   2.030  -0.000  0.00  0.00     0.071 C 
ATOM     15 BR   UNL d   1       2.164  -0.992   1.412  0.00  0.00    -0.046 Br
BRANCH   9  16
ATOM     16  C   UNL d   1      -2.527  -0.685  -1.270  0.00  0.00     0.145 C 
ATOM     17  C   UNL d   1      -2.491  -1.016  -2.751  0.00  0.00     0.028 C 
ENDBRANCH   9  16
ENDBRANCH   1   8
BRANCH   4  18
ATOM     18  C   UNL d   1      -0.034  -5.855   1.566  0.00  0.00     0.224 C 
BRANCH  18  19
ATOM     19  S   UNL d   1      -1.218  -6.401   2.765  0.00  0.00     0.182 S 
ATOM     20  O   UNL d   1      -0.738  -7.634   3.357  0.00  0.00    -0.222 OA
ATOM     21  O   UNL d   1      -1.673  -5.297   3.585  0.00  0.00    -0.222 OA
BRANCH  19  22
ATOM     22  C   UNL d   1      -2.616  -6.893   1.864  0.00  0.00     0.066 A 
ATOM     23  C   UNL d   1      -2.777  -8.190   1.287  0.00  0.00     0.031 A 
ATOM     24  C   UNL d   1      -3.981  -8.310   0.627  0.00  0.00     0.051 A 
ATOM     25  S   UNL d   1      -4.903  -6.869   0.698  0.00  0.00    -0.112 SA
ATOM     26  C   UNL d   1      -3.704  -6.080   1.630  0.00  0.00     0.072 A 
ENDBRANCH  19  22
ENDBRANCH  18  19
ENDBRANCH   4  18
TORSDOF 5
