REMARK  5 active torsions:
REMARK  status: ('A' for Active; 'I' for Inactive)
REMARK    1  A    between atoms: S_11  and  C_3 
REMARK    2  A    between atoms: C_14  and  C_6 
REMARK    3  A    between atoms: O_16  and  C_8 
REMARK       I    between atoms: N_9  and  C_10 
REMARK    4  A    between atoms: C_10  and  C_12 
REMARK    5  A    between atoms: C_12  and  S_11 
ROOT
ATOM      1  N   UNL d   1       1.599  -0.611  -1.121  0.00  0.00    -0.318 N 
ATOM      2  HN  UNL d   1       2.452  -0.964  -1.556  1.00  0.00     0.170 HD
ATOM      3  C   UNL d   1       1.039  -1.210  -0.067  0.00  0.00     0.147 A 
ATOM      4  N   UNL d   1      -0.080  -0.790   0.548  0.00  0.00    -0.336 N 
ATOM      5  HN  UNL d   1      -0.464  -1.296   1.346  1.00  0.00     0.168 HD
ATOM      6  C   UNL d   1      -0.680   0.325   0.073  0.00  0.00     0.048 A 
ATOM      7  C   UNL d   1      -0.170   0.998  -1.021  0.00  0.00     0.086 A 
ATOM      8  C   UNL d   1       0.975   0.478  -1.569  0.00  0.00     0.143 A 
ENDROOT
BRANCH   3   9
ATOM      9  S   UNL d   1       1.752  -2.732   0.503  0.00  0.00    -0.085 SA
BRANCH   9  10
ATOM     10  C   UNL d   1       3.462  -2.499  -0.079  0.00  0.00     0.185 C 
BRANCH  10  11
ATOM     11  C   UNL d   1       4.286  -3.727   0.275  0.00  0.00     0.229 C 
ATOM     12  N   UNL d   1       4.381  -4.763  -0.643  0.00  0.00    -0.347 N 
ATOM     13  C   UNL d   1       5.183  -5.946  -0.319  0.00  0.00     0.152 C 
ATOM     14  C   UNL d   1       3.714  -4.851  -1.946  0.00  0.00     0.152 C 
ATOM     15  C   UNL d   1       4.339  -7.215  -0.470  0.00  0.00     0.187 C 
ATOM     16  O   UNL d   1       3.785  -7.302  -1.795  0.00  0.00    -0.388 OA
ATOM     17  C   UNL d   1       2.940  -6.172  -2.066  0.00  0.00     0.187 C 
ATOM     18  O   UNL d   1       4.856  -3.784   1.370  0.00  0.00    -0.273 OA
ENDBRANCH  10  11
ENDBRANCH   9  10
ENDBRANCH   3   9
BRANCH   8  19
ATOM     19  O   UNL d   1       1.559   1.050  -2.662  0.00  0.00    -0.346 OA
ATOM     20  H   UNL d   1       1.013   1.795  -2.954  0.00  0.00     0.219 HD
ENDBRANCH   8  19
BRANCH   6  21
ATOM     21  C   UNL d   1      -1.925   0.748   0.764  0.00  0.00    -0.009 A 
ATOM     22  C   UNL d   1      -2.701  -0.180   1.486  0.00  0.00     0.013 A 
ATOM     23  C   UNL d   1      -3.898   0.190   2.109  0.00  0.00     0.001 A 
ATOM     24  C   UNL d   1      -4.350   1.503   2.030  0.00  0.00     0.000 A 
ATOM     25  C   UNL d   1      -3.597   2.448   1.342  0.00  0.00     0.001 A 
ATOM     26  C   UNL d   1      -2.398   2.076   0.723  0.00  0.00     0.013 A 
ENDBRANCH   6  21
TORSDOF 5
