REMARK  7 active torsions:
REMARK  status: ('A' for Active; 'I' for Inactive)
REMARK    1  A    between atoms: C_21  and  C_2 
REMARK       I    between atoms: C_7  and  N_10 
REMARK       I    between atoms: N_13  and  C_7 
REMARK    2  A    between atoms: C_8  and  C_18 
REMARK       I    between atoms: N_12  and  C_8 
REMARK    3  A    between atoms: N_10  and  N_12 
REMARK    4  A    between atoms: C_22  and  N_13 
REMARK    5  A    between atoms: O_19  and  C_17 
REMARK    6  A    between atoms: C_18  and  O_19 
REMARK    7  A    between atoms: C_23  and  C_21 
ROOT
ATOM      1  O   UNL d   1       3.705   1.933   0.062  0.00  0.00    -0.342 OA
ENDROOT
BRANCH   1   2
ATOM      2  C   UNL d   1       3.444   3.332   0.060  0.00  0.00     0.280 C 
BRANCH   2   3
ATOM      3  C   UNL d   1       4.706   4.188   0.152  0.00  0.00     0.260 C 
ATOM      4  N   UNL d   1       5.901   3.500   0.134  0.00  0.00    -0.264 N 
ATOM      5  H   UNL d   1       5.956   2.522  -0.153  0.00  0.00     0.190 HD
ATOM      6  O   UNL d   1       4.649   5.415   0.256  0.00  0.00    -0.269 OA
BRANCH   4   7
ATOM      7  N   UNL d   1       7.084   4.248   0.103  0.00  0.00    -0.249 N 
ATOM      8  C   UNL d   1       8.257   3.656  -0.317  0.00  0.00     0.335 C 
ATOM      9  N   UNL d   1       9.321   4.518  -0.207  0.00  0.00    -0.338 N 
ATOM     10  O   UNL d   1       8.316   2.507  -0.736  0.00  0.00    -0.246 OA
ATOM     11  H   UNL d   1       9.087   5.494  -0.105  0.00  0.00     0.164 HD
ATOM     12  H   UNL d   1       7.091   5.087   0.673  0.00  0.00     0.192 HD
BRANCH   9  13
ATOM     13  C   UNL d   1      10.686   4.218  -0.623  0.00  0.00     0.078 C 
ATOM     14  C   UNL d   1      11.283   3.028   0.124  0.00  0.00     0.032 C 
ATOM     15  C   UNL d   1      10.812   4.046  -2.134  0.00  0.00     0.032 C 
ENDBRANCH   9  13
ENDBRANCH   4   7
ENDBRANCH   2   3
ENDBRANCH   1   2
BRANCH   1  16
ATOM     16  C   UNL d   1       2.612   1.108   0.047  0.00  0.00     0.072 A 
ATOM     17  C   UNL d   1       1.279   1.507  -0.013  0.00  0.00     0.075 A 
ATOM     18  C   UNL d   1       0.270   0.536  -0.027  0.00  0.00     0.092 A 
ATOM     19  O   UNL d   1      -1.052   1.026  -0.076  0.00  0.00    -0.275 OA
ATOM     20  C   UNL d   1       0.538  -0.834   0.009  0.00  0.00     0.004 A 
ATOM     21  C   UNL d   1      -2.136   0.164  -0.083  0.00  0.00     0.288 A 
ATOM     22  O   UNL d   1      -3.293   0.564  -0.097  0.00  0.00    -0.260 OA
ATOM     23  C   UNL d   1      -1.835  -1.275  -0.088  0.00  0.00     0.090 A 
ATOM     24  C   UNL d   1      -0.591  -1.778  -0.038  0.00  0.00    -0.039 A 
ATOM     25  C   UNL d   1       1.881  -1.218   0.080  0.00  0.00     0.017 A 
ATOM     26  C   UNL d   1       2.903  -0.257   0.097  0.00  0.00     0.038 A 
BRANCH  24  27
ATOM     27  C   UNL d   1      -0.366  -3.271  -0.083  0.00  0.00     0.039 C 
BRANCH  27  28
ATOM     28  C   UNL d   1      -0.244  -3.884   1.315  0.00  0.00     0.000 C 
ATOM     29  C   UNL d   1       0.027  -5.379   1.241  0.00  0.00     0.005 C 
ENDBRANCH  27  28
ENDBRANCH  24  27
ENDBRANCH   1  16
TORSDOF 7
