REMARK  4 active torsions:
REMARK  status: ('A' for Active; 'I' for Inactive)
REMARK       I    between atoms: N_2  and  C_1 
REMARK    1  A    between atoms: C_4  and  C_1 
REMARK       I    between atoms: C_3  and  N_2 
REMARK    2  A    between atoms: O_7  and  C_3 
REMARK    3  A    between atoms: C_9  and  O_7 
REMARK    4  A    between atoms: C_14  and  C_9 
ROOT
ATOM      1  C   UNL d   1       2.229  -4.436  -0.104  0.00  0.00    -0.079 C 
ATOM      2  C   UNL d   1       1.646  -5.201   0.619  0.00  0.00     0.015 C 
ATOM      3  C   UNL d   1       2.905  -3.421  -0.952  0.00  0.00     0.130 C 
ATOM      4  C   UNL d   1       4.341  -3.267  -0.427  0.00  0.00     0.061 C 
ENDROOT
BRANCH   3   5
ATOM      5  O   UNL d   1       2.265  -2.118  -0.774  0.00  0.00    -0.280 OA
BRANCH   5   6
ATOM      6  C   UNL d   1       0.949  -2.021  -1.078  0.00  0.00     0.369 C 
ATOM      7  N   UNL d   1       0.360  -0.799  -0.858  0.00  0.00    -0.269 N 
ATOM      8  C   UNL d   1       0.837   0.424  -0.409  0.00  0.00     0.261 C 
ATOM      9  H   UNL d   1      -0.633  -0.874  -1.034  0.00  0.00     0.174 HD
ATOM     10  O   UNL d   1       2.010   0.736  -0.256  0.00  0.00    -0.267 OA
ATOM     11  O   UNL d   1       0.243  -2.920  -1.524  0.00  0.00    -0.238 OA
BRANCH   8  12
ATOM     12  C   UNL d   1      -0.244   1.440  -0.269  0.00  0.00     0.054 A 
ATOM     13  C   UNL d   1      -1.441   1.189   0.419  0.00  0.00     0.049 A 
ATOM     14 CL   UNL d   1      -1.696  -0.236   1.364  0.00  0.00    -0.083 Cl
ATOM     15  C   UNL d   1      -2.490   2.112   0.359  0.00  0.00     0.025 A 
ATOM     16  C   UNL d   1      -2.343   3.293  -0.367  0.00  0.00     0.002 A 
ATOM     17  C   UNL d   1      -1.138   3.569  -1.012  0.00  0.00     0.001 A 
ATOM     18  C   UNL d   1      -0.087   2.649  -0.960  0.00  0.00     0.019 A 
ENDBRANCH   8  12
ENDBRANCH   5   6
ENDBRANCH   3   5
BRANCH   3  19
ATOM     19  C   UNL d   1       2.906  -3.797  -2.457  0.00  0.00     0.047 C 
ATOM     20  C   UNL d   1       3.807  -4.956  -2.864  0.00  0.00     0.009 C 
ENDBRANCH   3  19
TORSDOF 4
