REMARK  5 active torsions:
REMARK  status: ('A' for Active; 'I' for Inactive)
REMARK       I    between atoms: N_3  and  C_1 
REMARK       I    between atoms: N_6  and  C_1 
REMARK    1  A    between atoms: C_2  and  N_4 
REMARK    2  A    between atoms: C_10  and  N_6 
REMARK    3  A    between atoms: C_27  and  C_21 
REMARK    4  A    between atoms: C_28  and  C_27 
REMARK    5  A    between atoms: C_29  and  C_28 
ROOT
ATOM      1  C   UNL d   1       0.919   0.002   0.029  0.00  0.00     0.323 C 
ATOM      2  N   UNL d   1       0.329   0.826   0.977  0.00  0.00    -0.331 N 
ATOM      3  N   UNL d   1      -0.288   2.373   3.311  0.00  0.00    -0.377 N 
ATOM      4  N   UNL d   1       0.545  -1.324   0.098  0.00  0.00    -0.308 N 
ATOM      5  O   UNL d   1       1.764   0.442  -0.753  0.00  0.00    -0.247 OA
ATOM      6  C   UNL d   1       0.737   2.235   1.057  0.00  0.00     0.147 C 
ATOM      7  C   UNL d   1      -0.868   0.518   1.765  0.00  0.00     0.147 C 
ATOM      8  C   UNL d   1       0.919   2.690   2.514  0.00  0.00     0.143 C 
ATOM      9  C   UNL d   1      -0.713   0.967   3.227  0.00  0.00     0.143 C 
ATOM     10  H   UNL d   1       0.334  -1.627   1.031  0.00  0.00     0.170 HD
ENDROOT
BRANCH   4  11
ATOM     11  C   UNL d   1       1.103  -2.304  -0.756  0.00  0.00     0.042 A 
ATOM     12  C   UNL d   1       1.569  -3.528  -0.246  0.00  0.00    -0.035 A 
ATOM     13  C   UNL d   1       2.257  -4.401  -1.114  0.00  0.00     0.016 A 
ATOM     14  C   UNL d   1       1.484  -3.942   1.198  0.00  0.00     0.050 C 
ATOM     15  C   UNL d   1       2.423  -4.109  -2.474  0.00  0.00    -0.058 A 
ATOM     16  C   UNL d   1       1.841  -2.946  -2.983  0.00  0.00     0.009 A 
ATOM     17  C   UNL d   1       1.206  -2.045  -2.129  0.00  0.00     0.031 A 
BRANCH  15  18
ATOM     18  C   UNL d   1       3.224  -5.028  -3.365  0.00  0.00     0.038 C 
BRANCH  18  19
ATOM     19  C   UNL d   1       4.407  -4.308  -4.025  0.00  0.00     0.004 C 
BRANCH  19  20
ATOM     20  C   UNL d   1       5.239  -5.254  -4.889  0.00  0.00    -0.004 C 
ATOM     21  C   UNL d   1       6.383  -4.509  -5.561  0.00  0.00     0.005 C 
ENDBRANCH  19  20
ENDBRANCH  18  19
ENDBRANCH  15  18
ENDBRANCH   4  11
BRANCH   3  22
ATOM     22  C   UNL d   1      -0.904   3.322   4.125  0.00  0.00     0.044 A 
ATOM     23  C   UNL d   1      -1.530   3.042   5.387  0.00  0.00     0.017 A 
ATOM     24  C   UNL d   1      -2.182   4.114   6.050  0.00  0.00     0.044 A 
ATOM     25  C   UNL d   1      -1.532   1.789   6.062  0.00  0.00     0.016 A 
ATOM     26  C   UNL d   1      -2.837   3.888   7.254  0.00  0.00     0.030 A 
ATOM     27  N   UNL d   1      -2.203   5.370   5.591  0.00  0.00    -0.359 N 
ATOM     28  C   UNL d   1      -2.885   2.630   7.852  0.00  0.00     0.002 A 
ATOM     29  C   UNL d   1      -2.227   1.574   7.254  0.00  0.00     0.001 A 
ATOM     30  C   UNL d   1      -1.586   5.636   4.427  0.00  0.00     0.007 A 
ATOM     31  HN  UNL d   1      -2.676   6.108   6.112  1.00  0.00     0.166 HD
ATOM     32  C   UNL d   1      -0.959   4.653   3.675  0.00  0.00     0.054 A 
ATOM     33  C   UNL d   1      -1.602   7.059   3.953  0.00  0.00     0.068 C 
ENDBRANCH   3  22
TORSDOF 5
