REMARK  7 active torsions:
REMARK  status: ('A' for Active; 'I' for Inactive)
REMARK    1  A    between atoms: C_7  and  C_1 
REMARK    2  A    between atoms: C_3  and  C_2 
REMARK    3  A    between atoms: N_13  and  C_6 
REMARK    4  A    between atoms: O_22  and  C_7 
REMARK       I    between atoms: C_10  and  N_12 
REMARK    5  A    between atoms: C_14  and  C_10 
REMARK    6  A    between atoms: N_12  and  N_13 
REMARK    7  A    between atoms: C_27  and  O_22 
ROOT
ATOM      1  C   UNL d   1      -0.038  -1.446   0.012  0.00  0.00     0.086 A 
ATOM      2  C   UNL d   1       1.161  -0.765   0.050  0.00  0.00     0.136 A 
ATOM      3  N   UNL d   1       1.186   0.604   0.189  0.00  0.00    -0.327 N 
ATOM      4  HN  UNL d   1       2.076   1.099   0.244  1.00  0.00     0.168 HD
ATOM      5  C   UNL d   1       0.033   1.281   0.250  0.00  0.00     0.176 A 
ATOM      6  N   UNL d   1      -1.167   0.689   0.159  0.00  0.00    -0.340 N 
ATOM      7  HN  UNL d   1      -2.033   1.229   0.177  1.00  0.00     0.167 HD
ATOM      8  C   UNL d   1      -1.174  -0.658   0.043  0.00  0.00     0.110 A 
ENDROOT
BRANCH   5   9
ATOM      9  N   UNL d   1       0.116   2.663   0.456  0.00  0.00    -0.172 NA
ATOM     10  H   UNL d   1       1.053   2.980   0.196  0.00  0.00     0.156 HD
BRANCH   9  11
ATOM     11  N   UNL d   1      -0.908   3.398  -0.170  0.00  0.00    -0.280 N 
ATOM     12  C   UNL d   1      -0.588   4.677  -0.585  0.00  0.00     0.266 C 
ATOM     13  O   UNL d   1       0.559   5.123  -0.553  0.00  0.00    -0.266 OA
ATOM     14  H   UNL d   1      -1.854   3.078   0.018  0.00  0.00     0.184 HD
BRANCH  12  15
ATOM     15  C   UNL d   1      -1.708   5.524  -1.070  0.00  0.00     0.033 A 
ATOM     16  C   UNL d   1      -1.598   6.915  -0.933  0.00  0.00     0.018 A 
ATOM     17  C   UNL d   1      -2.607   7.753  -1.416  0.00  0.00     0.025 A 
ATOM     18  C   UNL d   1      -3.720   7.200  -2.047  0.00  0.00     0.034 A 
ATOM     19  C   UNL d   1      -3.837   5.817  -2.191  0.00  0.00     0.025 A 
ATOM     20 CL   UNL d   1      -4.951   8.229  -2.667  0.00  0.00    -0.084 Cl
ATOM     21  C   UNL d   1      -2.831   4.975  -1.703  0.00  0.00     0.018 A 
ENDBRANCH  12  15
ENDBRANCH   9  11
ENDBRANCH   5   9
BRANCH   2  22
ATOM     22  C   UNL d   1       2.515  -1.428  -0.097  0.00  0.00     0.433 C 
ATOM     23  F   UNL d   1       2.500  -2.728  -0.497  0.00  0.00    -0.165 F 
ATOM     24  F   UNL d   1       3.290  -0.800  -1.032  0.00  0.00    -0.165 F 
ATOM     25  F   UNL d   1       3.240  -1.398   1.058  0.00  0.00    -0.165 F 
ENDBRANCH   2  22
BRANCH   1  26
ATOM     26  C   UNL d   1      -0.246  -2.894  -0.089  0.00  0.00     0.296 C 
ATOM     27  O   UNL d   1      -1.141  -3.382  -0.763  0.00  0.00    -0.259 OA
BRANCH  26  28
ATOM     28  O   UNL d   1       0.593  -3.555   0.739  0.00  0.00    -0.318 OA
BRANCH  28  29
ATOM     29  C   UNL d   1       0.449  -4.988   0.755  0.00  0.00     0.174 C 
ATOM     30  C   UNL d   1       1.013  -5.625  -0.505  0.00  0.00     0.034 C 
ENDBRANCH  28  29
ENDBRANCH  26  28
ENDBRANCH   1  26
TORSDOF 7
