REMARK  4 active torsions:
REMARK  status: ('A' for Active; 'I' for Inactive)
REMARK    1  A    between atoms: C_2  and  N_1 
REMARK    2  A    between atoms: C_6  and  C_8 
REMARK    3  A    between atoms: N_10  and  C_7 
REMARK    4  A    between atoms: C_8  and  C_9 
REMARK       I    between atoms: C_9  and  N_10 
ROOT
ATOM      1  C   UNL d   1       0.303  -0.949   1.766  0.00  0.00     0.223 C 
ATOM      2  N   UNL d   1      -0.959  -1.166   1.226  0.00  0.00    -0.325 N 
ATOM      3  O   UNL d   1       0.492  -0.772   2.971  0.00  0.00    -0.273 OA
ATOM      4  H   UNL d   1      -1.131  -0.764   0.307  0.00  0.00     0.169 HD
ENDROOT
BRANCH   1   5
ATOM      5  C   UNL d   1       1.496  -1.039   0.834  0.00  0.00     0.128 C 
BRANCH   5   6
ATOM      6  C   UNL d   1       1.642  -0.041  -0.309  0.00  0.00     0.153 C 
ATOM      7  C   UNL d   1       1.615   1.397   0.167  0.00  0.00     0.236 C 
ATOM      8  N   UNL d   1       0.586   2.228  -0.139  0.00  0.00    -0.325 N 
ATOM      9  O   UNL d   1       2.515   1.831   0.892  0.00  0.00    -0.272 OA
ATOM     10  C   UNL d   1      -0.477   1.988  -1.011  0.00  0.00     0.051 A 
ATOM     11  H   UNL d   1       0.656   3.140   0.299  0.00  0.00     0.169 HD
ATOM     12  C   UNL d   1      -0.570   0.827  -1.780  0.00  0.00     0.028 A 
ATOM     13  C   UNL d   1      -1.472   2.968  -1.101  0.00  0.00     0.031 A 
ATOM     14  S   UNL d   1       0.620  -0.479  -1.736  0.00  0.00    -0.113 SA
ATOM     15  C   UNL d   1      -1.664   0.663  -2.642  0.00  0.00     0.021 A 
ATOM     16  C   UNL d   1      -2.666   1.630  -2.713  0.00  0.00     0.002 A 
ATOM     17  C   UNL d   1      -2.572   2.782  -1.940  0.00  0.00     0.002 A 
ENDBRANCH   5   6
ENDBRANCH   1   5
BRANCH   2  18
ATOM     18  C   UNL d   1      -2.066  -1.290   2.122  0.00  0.00     0.068 A 
ATOM     19  C   UNL d   1      -3.167  -0.430   2.129  0.00  0.00     0.130 A 
ATOM     20  C   UNL d   1      -4.105  -0.434   3.174  0.00  0.00     0.045 A 
ATOM     21  C   UNL d   1      -3.992  -1.379   4.205  0.00  0.00    -0.059 A 
ATOM     22  C   UNL d   1      -2.983  -2.349   4.114  0.00  0.00     0.009 A 
ATOM     23  C   UNL d   1      -4.942  -1.363   5.356  0.00  0.00     0.048 C 
ATOM     24  C   UNL d   1      -2.018  -2.289   3.102  0.00  0.00     0.032 A 
BRANCH  19  25
ATOM     25  N   UNL d   1      -3.372   0.501   1.056  0.00  0.00    -0.113 N 
ATOM     26  O   UNL d   1      -3.356   0.037  -0.091  0.00  0.00    -0.532 OA
ATOM     27  O   UNL d   1      -3.593   1.686   1.346  0.00  0.00    -0.532 OA
ENDBRANCH  19  25
ENDBRANCH   2  18
TORSDOF 4
