REMARK  3 active torsions:
REMARK  status: ('A' for Active; 'I' for Inactive)
REMARK    1  A    between atoms: C_2  and  C_1 
REMARK    2  A    between atoms: O_12  and  C_1 
REMARK    3  A    between atoms: C_5  and  C_3 
ROOT
ATOM      1  C   UNL d   1       0.459  -0.768   0.664  0.00  0.00     0.084 C 
ATOM      2  C   UNL d   1      -1.542  -2.111  -1.169  0.00  0.00     0.018 C 
ATOM      3  C   UNL d   1       0.658  -2.209   0.184  0.00  0.00     0.016 C 
ATOM      4  C   UNL d   1      -1.003  -0.326   0.592  0.00  0.00     0.016 C 
ATOM      5  C   UNL d   1      -0.062  -2.541  -1.129  0.00  0.00     0.010 C 
ATOM      6  C   UNL d   1      -1.650  -0.627  -0.759  0.00  0.00     0.010 C 
ENDROOT
BRANCH   2   7
ATOM      7  C   UNL d   1      -2.538  -3.009  -0.433  0.00  0.00    -0.054 A 
ATOM      8  C   UNL d   1      -3.917  -2.753  -0.572  0.00  0.00     0.009 A 
ATOM      9  C   UNL d   1      -4.875  -3.557   0.053  0.00  0.00     0.024 A 
ATOM     10  C   UNL d   1      -4.470  -4.640   0.824  0.00  0.00     0.034 A 
ATOM     11  C   UNL d   1      -3.118  -4.929   0.962  0.00  0.00     0.024 A 
ATOM     12 CL   UNL d   1      -5.642  -5.635   1.595  0.00  0.00    -0.084 Cl
ATOM     13  C   UNL d   1      -2.163  -4.126   0.329  0.00  0.00     0.009 A 
ENDBRANCH   2   7
BRANCH   1  14
ATOM     14  C   UNL d   1       1.362   0.205  -0.081  0.00  0.00     0.143 C 
ATOM     15  O   UNL d   1       1.770   0.054  -1.221  0.00  0.00    -0.650 OA
BRANCH  14  16
ATOM     16  O   UNL d   1       1.675   1.301   0.650  0.00  0.00    -0.776 OA
ATOM     17  H   UNL d   1       1.289   1.309   1.546  0.00  0.00     0.167 HD
ENDBRANCH  14  16
ENDBRANCH   1  14
TORSDOF 3
