REMARK  8 active torsions:
REMARK  status: ('A' for Active; 'I' for Inactive)
REMARK    1  A    between atoms: O_4  and  C_1 
REMARK    2  A    between atoms: C_5  and  O_4 
REMARK       I    between atoms: N_11  and  C_5 
REMARK    3  A    between atoms: S_12  and  C_6 
REMARK    4  A    between atoms: C_25  and  C_10 
REMARK    5  A    between atoms: C_16  and  S_12 
REMARK    6  A    between atoms: C_13  and  C_16 
REMARK    7  A    between atoms: C_15  and  C_13 
REMARK    8  A    between atoms: C_28  and  C_25 
ROOT
ATOM      1  C   UNL d   1      -0.364  -1.163   0.140  0.00  0.00     0.163 C 
ATOM      2  N   UNL d   1       0.947  -1.277   0.425  0.00  0.00    -0.317 N 
ATOM      3  HN  UNL d   1       1.355  -2.157   0.742  1.00  0.00     0.170 HD
ATOM      4  C   UNL d   1       1.683  -0.170   0.268  0.00  0.00     0.146 C 
ATOM      5  C   UNL d   1      -0.918  -0.032  -0.430  0.00  0.00     0.012 C 
ATOM      6  N   UNL d   1       1.169   1.044   0.025  0.00  0.00    -0.340 N 
ATOM      7  HN  UNL d   1       1.747   1.883   0.063  1.00  0.00     0.168 HD
ATOM      8  C   UNL d   1      -0.149   1.109  -0.273  0.00  0.00     0.021 C 
ATOM      9  C   UNL d   1      -2.200  -0.046  -1.198  0.00  0.00     0.055 C 
ENDROOT
BRANCH   4  10
ATOM     10  S   UNL d   1       3.449  -0.383   0.157  0.00  0.00    -0.086 SA
BRANCH  10  11
ATOM     11  C   UNL d   1       4.019   1.337   0.303  0.00  0.00     0.166 C 
BRANCH  11  12
ATOM     12  C   UNL d   1       5.500   1.436  -0.030  0.00  0.00     0.169 C 
ATOM     13  O   UNL d   1       6.372   1.006   0.725  0.00  0.00    -0.291 OA
BRANCH  12  14
ATOM     14  C   UNL d   1       5.932   2.139  -1.281  0.00  0.00     0.011 A 
ATOM     15  C   UNL d   1       7.179   2.778  -1.291  0.00  0.00     0.017 A 
ATOM     16  C   UNL d   1       7.632   3.444  -2.435  0.00  0.00     0.025 A 
ATOM     17  C   UNL d   1       6.840   3.462  -3.579  0.00  0.00     0.034 A 
ATOM     18  C   UNL d   1       5.602   2.822  -3.589  0.00  0.00     0.025 A 
ATOM     19 CL   UNL d   1       7.394   4.270  -4.994  0.00  0.00    -0.084 Cl
ATOM     20  C   UNL d   1       5.145   2.157  -2.439  0.00  0.00     0.017 A 
ENDBRANCH  12  14
ENDBRANCH  11  12
ENDBRANCH  10  11
ENDBRANCH   4  10
BRANCH   1  21
ATOM     21  O   UNL d   1      -1.108  -2.343   0.365  0.00  0.00    -0.243 OA
BRANCH  21  22
ATOM     22  C   UNL d   1      -2.329  -2.248   1.042  0.00  0.00     0.368 C 
ATOM     23  N   UNL d   1      -2.924  -3.487   1.254  0.00  0.00    -0.336 N 
ATOM     24  C   UNL d   1      -2.176  -4.727   1.224  0.00  0.00     0.154 C 
ATOM     25  C   UNL d   1      -4.330  -3.570   1.611  0.00  0.00     0.154 C 
ATOM     26  O   UNL d   1      -2.860  -1.193   1.379  0.00  0.00    -0.238 OA
ENDBRANCH  21  22
ENDBRANCH   1  21
BRANCH   8  27
ATOM     27  C   UNL d   1      -0.723   2.502  -0.393  0.00  0.00     0.057 C 
BRANCH  27  28
ATOM     28  C   UNL d   1      -1.893   2.806   0.559  0.00  0.00     0.002 C 
ATOM     29  C   UNL d   1      -1.568   2.620   2.036  0.00  0.00     0.005 C 
ENDBRANCH  27  28
ENDBRANCH   8  27
TORSDOF 8
