REMARK  6 active torsions:
REMARK  status: ('A' for Active; 'I' for Inactive)
REMARK    1  A    between atoms: C_4  and  C_1 
REMARK    2  A    between atoms: C_2  and  C_5 
REMARK       I    between atoms: N_3  and  C_2 
REMARK    3  A    between atoms: C_16  and  N_3 
REMARK    4  A    between atoms: C_6  and  C_16 
REMARK    5  A    between atoms: O_17  and  C_6 
REMARK    6  A    between atoms: C_18  and  O_17 
ROOT
ATOM      1  C   UNL d   1       0.661   1.122   0.740  0.00  0.00     0.048 A 
ATOM      2  C   UNL d   1       0.139   3.651   1.895  0.00  0.00     0.032 A 
ATOM      3  C   UNL d   1       0.122   1.217   2.030  0.00  0.00     0.017 A 
ATOM      4  C   UNL d   1       0.920   2.305   0.031  0.00  0.00     0.017 A 
ATOM      5  C   UNL d   1       0.664   3.559   0.601  0.00  0.00     0.018 A 
ATOM      6  C   UNL d   1      -0.134   2.468   2.599  0.00  0.00     0.018 A 
ENDROOT
BRANCH   2   7
ATOM      7  C   UNL d   1      -0.149   4.946   2.587  0.00  0.00     0.252 C 
ATOM      8  N   UNL d   1       0.141   6.114   1.923  0.00  0.00    -0.348 N 
ATOM      9  H   UNL d   1       0.518   6.132   0.986  0.00  0.00     0.163 HD
ATOM     10  O   UNL d   1      -0.630   4.947   3.718  0.00  0.00    -0.268 OA
BRANCH   8  11
ATOM     11  C   UNL d   1      -0.147   7.408   2.528  0.00  0.00     0.233 C 
BRANCH  11  12
ATOM     12  C   UNL d   1       0.076   8.575   1.574  0.00  0.00     0.276 C 
ATOM     13  O   UNL d   1      -0.147   9.745   1.857  0.00  0.00    -0.263 OA
BRANCH  12  14
ATOM     14  O   UNL d   1       0.499   8.129   0.352  0.00  0.00    -0.321 OA
BRANCH  14  15
ATOM     15  C   UNL d   1       0.399   9.077  -0.720  0.00  0.00     0.174 C 
ATOM     16  C   UNL d   1      -0.985   8.947  -1.329  0.00  0.00     0.034 C 
ENDBRANCH  14  15
ENDBRANCH  12  14
ENDBRANCH  11  12
ENDBRANCH   8  11
ENDBRANCH   2   7
BRANCH   1  17
ATOM     17  C   UNL d   1       0.958  -0.218   0.111  0.00  0.00     0.417 C 
ATOM     18  F   UNL d   1       0.743  -1.274   0.945  0.00  0.00    -0.166 F 
ATOM     19  F   UNL d   1       2.253  -0.322  -0.297  0.00  0.00    -0.166 F 
ATOM     20  F   UNL d   1       0.198  -0.452  -0.994  0.00  0.00    -0.166 F 
ENDBRANCH   1  17
TORSDOF 6
