REMARK  0 active torsions:
REMARK  status: ('A' for Active; 'I' for Inactive)
ROOT
ATOM      1  N   UNL d   1       0.008   1.641   0.106  0.00  0.00    -0.358 N 
ATOM      2  C   UNL d   1      -0.698  -0.472   0.090  0.00  0.00    -0.023 A 
ATOM      3  C   UNL d   1      -1.102   0.847   0.098  0.00  0.00     0.017 A 
ATOM      4  C   UNL d   1       0.724  -0.478   0.059  0.00  0.00     0.000 A 
ATOM      5  C   UNL d   1       1.141   0.858   0.060  0.00  0.00     0.043 A 
ATOM      6  C   UNL d   1       1.699  -1.494   0.005  0.00  0.00     0.038 A 
ATOM      7  C   UNL d   1       2.491   1.227   0.010  0.00  0.00     0.032 A 
ATOM      8  C   UNL d   1       3.048  -1.134  -0.049  0.00  0.00     0.035 A 
ATOM      9  C   UNL d   1       3.441   0.202  -0.048  0.00  0.00     0.026 A 
ATOM     10  C   UNL d   1      -1.660  -1.612   0.038  0.00  0.00     0.041 C 
ATOM     11 CL   UNL d   1       4.247  -2.370  -0.128  0.00  0.00    -0.084 Cl
ATOM     12  C   UNL d   1      -2.509   1.326   0.081  0.00  0.00     0.057 C 
ATOM     13  C   UNL d   1      -3.121  -1.143   0.202  0.00  0.00     0.005 C 
ATOM     14  C   UNL d   1      -3.404   0.207  -0.484  0.00  0.00     0.006 C 
ATOM     15  H   UNL d   1       0.008   2.653   0.110  0.00  0.00     0.166 HD
ENDROOT
TORSDOF 0
