REMARK  9 active torsions:
REMARK  status: ('A' for Active; 'I' for Inactive)
REMARK    1  A    between atoms: N_7  and  C_1 
REMARK    2  A    between atoms: N_5  and  C_4 
REMARK    3  A    between atoms: N_8  and  C_6 
REMARK    4  A    between atoms: C_23  and  N_10 
REMARK    5  A    between atoms: C_24  and  N_11 
REMARK    6  A    between atoms: C_28  and  C_23 
REMARK    7  A    between atoms: C_27  and  C_24 
REMARK    8  A    between atoms: O_25  and  C_28 
REMARK    9  A    between atoms: O_26  and  C_27 
ROOT
ATOM      1  C   UNL d   1      -0.579   1.204   0.047  0.00  0.00     0.138 A 
ATOM      2  N   UNL d   1      -1.201  -0.014   0.029  0.00  0.00    -0.327 N 
ATOM      3  HN  UNL d   1      -2.219  -0.051   0.079  1.00  0.00     0.169 HD
ATOM      4  C   UNL d   1       0.814   1.223  -0.018  0.00  0.00     0.146 A 
ATOM      5  C   UNL d   1      -0.501  -1.176  -0.055  0.00  0.00     0.104 A 
ATOM      6  C   UNL d   1       1.556   0.047  -0.125  0.00  0.00     0.043 A 
ATOM      7  C   UNL d   1       0.884  -1.162  -0.148  0.00  0.00     0.051 A 
ENDROOT
BRANCH   1   8
ATOM      8  N   UNL d   1      -1.419   2.288   0.199  0.00  0.00    -0.362 N 
ATOM      9  C   UNL d   1      -1.050   3.571   0.807  0.00  0.00     0.154 C 
ATOM     10  C   UNL d   1      -2.267   4.204   1.529  0.00  0.00     0.292 C 
ATOM     11  N   UNL d   1      -3.503   4.325   0.718  0.00  0.00     0.093 N 
ATOM     12  C   UNL d   1      -3.797   2.993   0.135  0.00  0.00     0.292 C 
ATOM     13  C   UNL d   1      -2.633   2.324  -0.634  0.00  0.00     0.154 C 
BRANCH  11  14
ATOM     14  C   UNL d   1      -3.365   5.393  -0.288  0.00  0.00     0.298 C 
BRANCH  14  15
ATOM     15  C   UNL d   1      -4.666   5.725  -1.034  0.00  0.00     0.194 C 
BRANCH  15  16
ATOM     16  O   UNL d   1      -4.440   6.819  -1.920  0.00  0.00    -0.399 OA
ATOM     17  H   UNL d   1      -5.288   7.003  -2.361  0.00  0.00     0.209 HD
ENDBRANCH  15  16
ENDBRANCH  14  15
ENDBRANCH  11  14
ENDBRANCH   1   8
BRANCH   4  18
ATOM     18  N   UNL d   1       1.568   2.444  -0.022  0.00  0.00    -0.112 N 
ATOM     19  O   UNL d   1       1.495   3.159  -1.031  0.00  0.00    -0.532 OA
ATOM     20  O   UNL d   1       2.285   2.665   0.963  0.00  0.00    -0.532 OA
ENDBRANCH   4  18
BRANCH   5  21
ATOM     21  N   UNL d   1      -1.153  -2.383   0.078  0.00  0.00    -0.364 N 
ATOM     22  C   UNL d   1      -2.436  -2.436   0.776  0.00  0.00     0.154 C 
ATOM     23  C   UNL d   1      -2.493  -3.771   1.565  0.00  0.00     0.292 C 
ATOM     24  N   UNL d   1      -2.278  -5.001   0.759  0.00  0.00     0.093 N 
ATOM     25  C   UNL d   1      -1.016  -4.841  -0.014  0.00  0.00     0.292 C 
ATOM     26  C   UNL d   1      -0.882  -3.516  -0.811  0.00  0.00     0.154 C 
BRANCH  24  27
ATOM     27  C   UNL d   1      -3.401  -5.305  -0.147  0.00  0.00     0.298 C 
BRANCH  27  28
ATOM     28  C   UNL d   1      -4.734  -5.585   0.561  0.00  0.00     0.194 C 
BRANCH  28  29
ATOM     29  O   UNL d   1      -5.726  -5.909  -0.410  0.00  0.00    -0.399 OA
ATOM     30  H   UNL d   1      -6.559  -6.039   0.075  0.00  0.00     0.209 HD
ENDBRANCH  28  29
ENDBRANCH  27  28
ENDBRANCH  24  27
ENDBRANCH   5  21
TORSDOF 9
