REMARK  3 active torsions:
REMARK  status: ('A' for Active; 'I' for Inactive)
REMARK    1  A    between atoms: C_2  and  C_1 
REMARK       I    between atoms: N_9  and  C_2 
REMARK    2  A    between atoms: C_11  and  N_9 
REMARK    3  A    between atoms: N_14  and  C_13 
ROOT
ATOM      1  C   UNL d   1      -0.356  -2.563  -0.179  0.00  0.00     0.266 C 
ATOM      2  N   UNL d   1       0.652  -3.476   0.110  0.00  0.00    -0.322 N 
ATOM      3  O   UNL d   1      -0.387  -1.427   0.282  0.00  0.00    -0.267 OA
ATOM      4  H   UNL d   1       0.594  -4.379  -0.343  0.00  0.00     0.169 HD
ENDROOT
BRANCH   2   5
ATOM      5  C   UNL d   1       1.770  -3.275   0.954  0.00  0.00     0.036 A 
ATOM      6  C   UNL d   1       1.999  -2.099   1.679  0.00  0.00     0.052 A 
ATOM      7  C   UNL d   1       3.151  -1.927   2.455  0.00  0.00     0.008 A 
ATOM      8  C   UNL d   1       4.024  -3.002   2.604  0.00  0.00     0.023 A 
ATOM      9  C   UNL d   1       3.808  -4.188   1.902  0.00  0.00     0.004 A 
ATOM     10  C   UNL d   1       2.692  -4.320   1.071  0.00  0.00     0.029 A 
BRANCH   7  11
ATOM     11  N   UNL d   1       3.295  -0.780   3.247  0.00  0.00    -0.303 NA
ATOM     12  H   UNL d   1       2.808   0.031   2.871  0.00  0.00     0.124 HD
ATOM     13  H   UNL d   1       4.256  -0.568   3.492  0.00  0.00     0.124 HD
ENDBRANCH   7  11
ENDBRANCH   2   5
BRANCH   1  14
ATOM     14  C   UNL d   1      -1.393  -3.015  -1.088  0.00  0.00     0.114 A 
ATOM     15  C   UNL d   1      -2.519  -2.338  -1.552  0.00  0.00     0.046 A 
ATOM     16  N   UNL d   1      -3.311  -3.073  -2.433  0.00  0.00    -0.298 N 
ATOM     17  C   UNL d   1      -2.981  -0.961  -1.230  0.00  0.00     0.071 C 
ATOM     18  N   UNL d   1      -2.826  -4.283  -2.644  0.00  0.00    -0.269 N 
ATOM     19  HN  UNL d   1      -4.164  -2.718  -2.864  1.00  0.00     0.187 HD
ATOM     20  S   UNL d   1      -1.421  -4.572  -1.798  0.00  0.00     0.009 SA
ATOM     21  HN  UNL d   1      -3.266  -4.967  -3.260  1.00  0.00     0.195 HD
ENDBRANCH   1  14
TORSDOF 3
