REMARK  10 active torsions:
REMARK  status: ('A' for Active; 'I' for Inactive)
REMARK    1  A    between atoms: N_2  and  C_1 
REMARK    2  A    between atoms: C_4  and  C_1 
REMARK    3  A    between atoms: C_5  and  C_1 
REMARK    4  A    between atoms: N_7  and  C_1 
REMARK       I    between atoms: C_3  and  N_2 
REMARK    5  A    between atoms: C_6  and  C_3 
REMARK    6  A    between atoms: C_17  and  N_7 
REMARK    7  A    between atoms: O_18  and  C_9 
REMARK    8  A    between atoms: C_21  and  C_17 
REMARK    9  A    between atoms: C_22  and  O_18 
REMARK   10  A    between atoms: C_19  and  C_21 
ROOT
ATOM      1  C   UNL d   1       0.971  -0.757   0.364  0.00  0.00     0.425 C 
ENDROOT
BRANCH   1   2
ATOM      2  N   UNL d   1       0.710   0.708   0.142  0.00  0.00    -0.307 N 
ATOM      3  C   UNL d   1      -0.585   1.210   0.136  0.00  0.00     0.256 C 
ATOM      4  O   UNL d   1      -1.530   0.483   0.414  0.00  0.00    -0.267 OA
ATOM      5  H   UNL d   1       1.482   1.236  -0.246  0.00  0.00     0.166 HD
BRANCH   3   6
ATOM      6  C   UNL d   1      -0.843   2.627  -0.292  0.00  0.00     0.065 A 
ATOM      7  C   UNL d   1      -2.029   3.288   0.110  0.00  0.00     0.084 A 
ATOM      8  C   UNL d   1      -2.341   4.529  -0.459  0.00  0.00     0.038 A 
ATOM      9  C   UNL d   1      -1.466   5.142  -1.355  0.00  0.00     0.003 A 
ATOM     10  C   UNL d   1      -0.268   4.523  -1.693  0.00  0.00     0.001 A 
ATOM     11  C   UNL d   1       0.042   3.263  -1.174  0.00  0.00     0.020 A 
BRANCH   7  12
ATOM     12  O   UNL d   1      -2.812   2.682   1.057  0.00  0.00    -0.350 OA
BRANCH  12  13
ATOM     13  C   UNL d   1      -3.930   3.365   1.624  0.00  0.00     0.171 C 
ATOM     14  C   UNL d   1      -3.492   4.364   2.683  0.00  0.00     0.034 C 
ENDBRANCH  12  13
ENDBRANCH   7  12
ENDBRANCH   3   6
ENDBRANCH   1   2
BRANCH   1  15
ATOM     15  C   UNL d   1       0.287  -1.648  -0.745  0.00  0.00     0.452 C 
ATOM     16  F   UNL d   1      -0.965  -1.302  -1.094  0.00  0.00    -0.166 F 
ATOM     17  F   UNL d   1       1.015  -1.559  -1.902  0.00  0.00    -0.166 F 
ATOM     18  F   UNL d   1       0.254  -2.962  -0.434  0.00  0.00    -0.166 F 
ENDBRANCH   1  15
BRANCH   1  19
ATOM     19  C   UNL d   1       0.455  -1.268   1.775  0.00  0.00     0.452 C 
ATOM     20  F   UNL d   1      -0.652  -0.688   2.266  0.00  0.00    -0.166 F 
ATOM     21  F   UNL d   1       0.271  -2.606   1.831  0.00  0.00    -0.166 F 
ATOM     22  F   UNL d   1       1.425  -0.998   2.708  0.00  0.00    -0.166 F 
ENDBRANCH   1  19
BRANCH   1  23
ATOM     23  N   UNL d   1       2.498  -0.707   0.274  0.00  0.00     0.132 N 
ATOM     24  H   UNL d   1       2.766  -0.068   1.030  0.00  0.00     0.320 HD
BRANCH  23  25
ATOM     25  C   UNL d   1       3.211  -1.973   0.578  0.00  0.00     0.278 C 
BRANCH  25  26
ATOM     26  C   UNL d   1       3.317  -3.023  -0.541  0.00  0.00     0.068 C 
BRANCH  26  27
ATOM     27  C   UNL d   1       4.249  -4.159  -0.159  0.00  0.00    -0.057 A 
ATOM     28  C   UNL d   1       3.800  -5.210   0.654  0.00  0.00     0.007 A 
ATOM     29  C   UNL d   1       4.662  -6.253   1.008  0.00  0.00     0.001 A 
ATOM     30  C   UNL d   1       5.980  -6.254   0.555  0.00  0.00     0.000 A 
ATOM     31  C   UNL d   1       6.435  -5.212  -0.251  0.00  0.00     0.001 A 
ATOM     32  C   UNL d   1       5.575  -4.169  -0.605  0.00  0.00     0.007 A 
ENDBRANCH  26  27
ENDBRANCH  25  26
ENDBRANCH  23  25
ENDBRANCH   1  23
TORSDOF 10
