REMARK  3 active torsions:
REMARK  status: ('A' for Active; 'I' for Inactive)
REMARK    1  A    between atoms: C_15  and  N_9 
REMARK    2  A    between atoms: C_19  and  C_15 
REMARK    3  A    between atoms: C_17  and  C_19 
ROOT
ATOM      1  C   UNL d   1       0.075  -0.749   0.088  0.00  0.00     0.101 A 
ATOM      2  C   UNL d   1       0.059   0.594   0.110  0.00  0.00     0.077 A 
ATOM      3  N   UNL d   1       1.284  -1.409  -0.031  0.00  0.00    -0.293 N 
ATOM      4  N   UNL d   1       2.477   0.632   0.015  0.00  0.00    -0.270 N 
ATOM      5  C   UNL d   1       2.515  -0.749  -0.073  0.00  0.00     0.332 A 
ATOM      6  C   UNL d   1       1.314   1.363   0.096  0.00  0.00     0.262 A 
ATOM      7  N   UNL d   1      -1.142  -1.421   0.177  0.00  0.00    -0.252 NA
ATOM      8  C   UNL d   1      -1.211   1.398   0.112  0.00  0.00     0.321 C 
ATOM      9  N   UNL d   1      -2.400   0.639  -0.327  0.00  0.00     0.106 N 
ATOM     10  C   UNL d   1      -2.371  -0.657   0.339  0.00  0.00     0.368 C 
ATOM     11  O   UNL d   1       3.576  -1.368  -0.174  0.00  0.00    -0.246 OA
ATOM     12  O   UNL d   1       1.284   2.591   0.164  0.00  0.00    -0.267 OA
ATOM     13  C   UNL d   1       1.355  -2.862  -0.076  0.00  0.00     0.162 C 
ATOM     14  C   UNL d   1       3.720   1.379   0.024  0.00  0.00     0.164 C 
ATOM     15  H   UNL d   1      -1.226  -2.118  -0.557  0.00  0.00     0.130 HD
ENDROOT
BRANCH   9  16
ATOM     16  C   UNL d   1      -3.652   1.366  -0.067  0.00  0.00     0.279 C 
BRANCH  16  17
ATOM     17  C   UNL d   1      -3.748   2.672  -0.877  0.00  0.00     0.068 C 
BRANCH  17  18
ATOM     18  C   UNL d   1      -5.047   3.404  -0.644  0.00  0.00    -0.056 A 
ATOM     19  C   UNL d   1      -5.164   4.313   0.417  0.00  0.00     0.009 A 
ATOM     20  C   UNL d   1      -6.358   5.005   0.625  0.00  0.00     0.024 A 
ATOM     21  C   UNL d   1      -7.441   4.786  -0.224  0.00  0.00     0.034 A 
ATOM     22  C   UNL d   1      -7.339   3.881  -1.278  0.00  0.00     0.024 A 
ATOM     23 CL   UNL d   1      -8.912   5.641   0.030  0.00  0.00    -0.084 Cl
ATOM     24  C   UNL d   1      -6.145   3.188  -1.487  0.00  0.00     0.009 A 
ENDBRANCH  17  18
ENDBRANCH  16  17
ENDBRANCH   9  16
TORSDOF 3
