REMARK  3 active torsions:
REMARK  status: ('A' for Active; 'I' for Inactive)
REMARK    1  A    between atoms: C_7  and  C_1 
REMARK    2  A    between atoms: C_8  and  C_7 
REMARK    3  A    between atoms: O_19  and  C_14 
ROOT
ATOM      1  C   UNL d   1      -2.329   0.548  -0.081  0.00  0.00     0.029 A 
ATOM      2  C   UNL d   1      -2.142  -0.928  -0.196  0.00  0.00     0.295 A 
ATOM      3  C   UNL d   1      -1.274   1.391   0.003  0.00  0.00    -0.036 A 
ATOM      4  O   UNL d   1      -0.850  -1.414  -0.105  0.00  0.00    -0.274 OA
ATOM      5  C   UNL d   1       0.254  -0.552  -0.035  0.00  0.00     0.092 A 
ATOM      6  C   UNL d   1       0.092   0.831  -0.001  0.00  0.00     0.005 A 
ATOM      7  C   UNL d   1       1.510  -1.166  -0.019  0.00  0.00     0.074 A 
ATOM      8  C   UNL d   1       1.256   1.614   0.036  0.00  0.00     0.017 A 
ATOM      9  O   UNL d   1      -3.089  -1.693  -0.347  0.00  0.00    -0.259 OA
ATOM     10  C   UNL d   1       2.640  -0.365   0.021  0.00  0.00     0.068 A 
ATOM     11  C   UNL d   1       2.523   1.019   0.044  0.00  0.00     0.037 A 
ATOM     12  C   UNL d   1      -1.407   2.892   0.058  0.00  0.00     0.050 C 
ENDROOT
BRANCH   1  13
ATOM     13  C   UNL d   1      -3.780   0.977  -0.068  0.00  0.00     0.089 C 
BRANCH  13  14
ATOM     14  C   UNL d   1      -4.376   1.477  -1.372  0.00  0.00     0.007 A 
ATOM     15  C   UNL d   1      -3.712   1.383  -2.604  0.00  0.00     0.124 A 
ATOM     16  F   UNL d   1      -2.504   0.810  -2.699  0.00  0.00    -0.205 F 
ATOM     17  C   UNL d   1      -4.261   1.886  -3.783  0.00  0.00     0.043 A 
ATOM     18  C   UNL d   1      -5.516   2.483  -3.766  0.00  0.00     0.005 A 
ATOM     19  C   UNL d   1      -6.218   2.562  -2.567  0.00  0.00     0.024 A 
ATOM     20  C   UNL d   1      -5.658   2.061  -1.385  0.00  0.00     0.043 A 
ATOM     21 CL   UNL d   1      -6.614   2.194   0.053  0.00  0.00    -0.084 Cl
ENDBRANCH  13  14
ENDBRANCH   1  13
BRANCH  10  22
ATOM     22  O   UNL d   1       3.894  -0.897   0.034  0.00  0.00    -0.361 OA
ATOM     23  H   UNL d   1       3.822  -1.867   0.004  0.00  0.00     0.217 HD
ENDBRANCH  10  22
TORSDOF 3
