REMARK  3 active torsions:
REMARK  status: ('A' for Active; 'I' for Inactive)
REMARK    1  A    between atoms: C_2  and  C_1 
REMARK    2  A    between atoms: C_12  and  N_3 
REMARK    3  A    between atoms: O_23  and  C_18 
ROOT
ATOM      1  C   UNL d   1      -0.304  -1.977  -0.462  0.00  0.00     0.151 C 
ATOM      2  N   UNL d   1       0.799  -1.256  -0.019  0.00  0.00    -0.224 N 
ATOM      3  N   UNL d   1       0.352  -0.082   0.483  0.00  0.00     0.001 NA
ATOM      4  N   UNL d   1      -0.921  -0.005   0.117  0.00  0.00    -0.007 NA
ATOM      5  N   UNL d   1      -1.334  -1.158  -0.503  0.00  0.00    -0.269 N 
ATOM      6  HN  UNL d   1      -2.251  -1.343  -0.912  1.00  0.00     0.185 HD
ENDROOT
BRANCH   1   7
ATOM      7  C   UNL d   1      -0.319  -3.418  -0.833  0.00  0.00     0.038 C 
ATOM      8  C   UNL d   1       0.482  -4.457  -0.277  0.00  0.00     0.009 C 
ATOM      9  C   UNL d   1       0.473  -5.489  -1.210  0.00  0.00     0.043 C 
ATOM     10  C   UNL d   1       1.296  -4.583   0.868  0.00  0.00     0.057 C 
ATOM     11  C   UNL d   1       1.367  -6.570  -1.144  0.00  0.00     0.033 C 
ATOM     12  N   UNL d   1      -0.520  -5.201  -2.123  0.00  0.00    -0.364 N 
ATOM     13  C   UNL d   1       2.237  -6.621  -0.049  0.00  0.00     0.044 C 
ATOM     14  C   UNL d   1       2.168  -5.666   0.953  0.00  0.00     0.117 C 
ATOM     15  F   UNL d   1       2.985  -5.762   2.012  0.00  0.00    -0.206 F 
ATOM     16  C   UNL d   1      -1.034  -3.950  -1.881  0.00  0.00     0.104 C 
ATOM     17  H   UNL d   1      -0.788  -5.801  -2.895  0.00  0.00     0.165 HD
ENDBRANCH   1   7
BRANCH   2  18
ATOM     18  C   UNL d   1       2.183  -1.553  -0.130  0.00  0.00     0.056 A 
ATOM     19  C   UNL d   1       2.655  -2.379  -1.162  0.00  0.00     0.034 A 
ATOM     20  C   UNL d   1       3.982  -2.812  -1.176  0.00  0.00     0.039 A 
ATOM     21  C   UNL d   1       4.857  -2.399  -0.176  0.00  0.00     0.068 A 
ATOM     22  C   UNL d   1       4.416  -1.484   0.786  0.00  0.00     0.039 A 
ATOM     23  C   UNL d   1       3.085  -1.052   0.812  0.00  0.00     0.034 A 
BRANCH  21  24
ATOM     24  O   UNL d   1       6.161  -2.800  -0.068  0.00  0.00    -0.356 OA
ATOM     25  C   UNL d   1       6.445  -4.095  -0.596  0.00  0.00     0.210 C 
ENDBRANCH  21  24
ENDBRANCH   2  18
TORSDOF 3
