REMARK  8 active torsions:
REMARK  status: ('A' for Active; 'I' for Inactive)
REMARK    1  A    between atoms: N_19  and  C_2 
REMARK    2  A    between atoms: C_5  and  C_3 
REMARK    3  A    between atoms: C_13  and  C_14 
REMARK    4  A    between atoms: C_30  and  N_19 
REMARK    5  A    between atoms: C_24  and  C_29 
REMARK    6  A    between atoms: S_25  and  C_31 
REMARK    7  A    between atoms: C_29  and  S_25 
REMARK    8  A    between atoms: C_31  and  C_30 
ROOT
ATOM      1  C   UNL d   1      -1.682  -0.361  -1.048  0.00  0.00     0.074 C 
ATOM      2  C   UNL d   1      -1.088  -1.448  -0.524  0.00  0.00     0.009 C 
ATOM      3  C   UNL d   1       1.053  -0.066  -0.182  0.00  0.00     0.031 C 
ATOM      4  C   UNL d   1      -0.906   0.822  -1.482  0.00  0.00     0.151 C 
ATOM      5  C   UNL d   1       0.420  -1.471  -0.302  0.00  0.00     0.066 C 
ATOM      6  C   UNL d   1       0.598   0.772  -1.385  0.00  0.00     0.092 C 
ATOM      7  O   UNL d   1      -1.495   1.772  -1.994  0.00  0.00    -0.293 OA
ENDROOT
BRANCH   2   8
ATOM      8  N   UNL d   1      -1.771  -2.595  -0.147  0.00  0.00    -0.392 N 
ATOM      9  H   UNL d   1      -1.262  -3.186   0.516  0.00  0.00     0.159 HD
BRANCH   8  10
ATOM     10  C   UNL d   1      -3.222  -2.717   0.007  0.00  0.00     0.130 C 
BRANCH  10  11
ATOM     11  C   UNL d   1      -3.627  -4.184   0.180  0.00  0.00     0.093 C 
BRANCH  11  12
ATOM     12  S   UNL d   1      -2.941  -4.852   1.731  0.00  0.00    -0.163 SA
BRANCH  12  13
ATOM     13  C   UNL d   1      -3.534  -6.565   1.580  0.00  0.00     0.112 C 
BRANCH  13  14
ATOM     14  C   UNL d   1      -3.074  -7.378   2.759  0.00  0.00    -0.049 A 
ATOM     15  C   UNL d   1      -3.843  -7.451   3.925  0.00  0.00     0.008 A 
ATOM     16  C   UNL d   1      -3.380  -8.162   5.037  0.00  0.00     0.008 A 
ATOM     17  C   UNL d   1      -2.134  -8.818   5.025  0.00  0.00    -0.051 A 
ATOM     18  C   UNL d   1      -1.372  -8.727   3.849  0.00  0.00     0.008 A 
ATOM     19  C   UNL d   1      -1.832  -8.019   2.735  0.00  0.00     0.008 A 
BRANCH  17  20
ATOM     20  C   UNL d   1      -1.651  -9.590   6.264  0.00  0.00    -0.024 C 
ATOM     21  C   UNL d   1      -0.272 -10.262   6.074  0.00  0.00     0.019 C 
ATOM     22  C   UNL d   1      -1.532  -8.633   7.469  0.00  0.00     0.019 C 
ATOM     23  C   UNL d   1      -2.660 -10.708   6.605  0.00  0.00     0.019 C 
ENDBRANCH  17  20
ENDBRANCH  13  14
ENDBRANCH  12  13
ENDBRANCH  11  12
ENDBRANCH  10  11
ENDBRANCH   8  10
ENDBRANCH   2   8
BRANCH   3  24
ATOM     24  C   UNL d   1       0.849   0.657   1.154  0.00  0.00    -0.050 A 
ATOM     25  C   UNL d   1       1.474   1.906   1.358  0.00  0.00     0.047 A 
ATOM     26  C   UNL d   1       1.298   2.552   2.566  0.00  0.00     0.105 A 
ATOM     27  O   UNL d   1       1.822   3.762   2.904  0.00  0.00    -0.323 OA
ATOM     28  C   UNL d   1       0.550   2.005   3.577  0.00  0.00     0.105 A 
ATOM     29  C   UNL d   1       1.281   3.926   4.232  0.00  0.00     0.352 A 
ATOM     30  O   UNL d   1       0.506   2.796   4.682  0.00  0.00    -0.323 OA
ATOM     31  C   UNL d   1      -0.063   0.784   3.436  0.00  0.00     0.040 A 
ATOM     32  C   UNL d   1       0.088   0.112   2.216  0.00  0.00     0.010 A 
ENDBRANCH   3  24
TORSDOF 8
