REMARK  5 active torsions:
REMARK  status: ('A' for Active; 'I' for Inactive)
REMARK    1  A    between atoms: N_10  and  C_1 
REMARK    2  A    between atoms: C_2  and  C_7 
REMARK    3  A    between atoms: C_14  and  N_3 
REMARK       I    between atoms: C_7  and  N_10 
REMARK    4  A    between atoms: C_16  and  C_9 
REMARK    5  A    between atoms: C_15  and  C_12 
ROOT
ATOM      1  C   UNL d   1      -0.403  -1.084   0.228  0.00  0.00     0.132 C 
ATOM      2  N   UNL d   1       0.926  -0.701   0.398  0.00  0.00    -0.240 N 
ATOM      3  N   UNL d   1       1.016   0.649   0.599  0.00  0.00    -0.291 N 
ATOM      4  HN  UNL d   1       1.853   1.183   0.835  1.00  0.00     0.187 HD
ATOM      5  C   UNL d   1      -1.152   0.063   0.312  0.00  0.00     0.082 C 
ATOM      6  C   UNL d   1      -0.228   1.125   0.422  0.00  0.00     0.062 C 
ENDROOT
BRANCH   1   7
ATOM      7  N   UNL d   1      -0.835  -2.369   0.001  0.00  0.00    -0.307 N 
ATOM      8  C   UNL d   1      -1.845  -2.762  -0.848  0.00  0.00     0.259 C 
ATOM      9  O   UNL d   1      -2.315  -3.889  -0.698  0.00  0.00    -0.267 OA
ATOM     10  H   UNL d   1      -0.416  -3.130   0.525  0.00  0.00     0.170 HD
BRANCH   8  11
ATOM     11  C   UNL d   1      -2.300  -1.922  -1.962  0.00  0.00     0.064 A 
ATOM     12  C   UNL d   1      -3.589  -2.057  -2.584  0.00  0.00     0.057 A 
ATOM     13  C   UNL d   1      -3.641  -1.175  -3.640  0.00  0.00     0.087 A 
ATOM     14  O   UNL d   1      -2.466  -0.498  -3.703  0.00  0.00    -0.314 OA
ATOM     15  C   UNL d   1      -1.635  -0.981  -2.741  0.00  0.00     0.065 A 
ATOM     16  C   UNL d   1      -0.275  -0.405  -2.843  0.00  0.00     0.077 C 
BRANCH  13  17
ATOM     17  C   UNL d   1      -4.604  -0.854  -4.685  0.00  0.00    -0.002 A 
ATOM     18  C   UNL d   1      -5.783  -1.599  -4.831  0.00  0.00     0.016 A 
ATOM     19  C   UNL d   1      -6.689  -1.306  -5.855  0.00  0.00     0.024 A 
ATOM     20  C   UNL d   1      -6.423  -0.266  -6.743  0.00  0.00     0.034 A 
ATOM     21  C   UNL d   1      -5.260   0.484  -6.619  0.00  0.00     0.024 A 
ATOM     22 CL   UNL d   1      -7.535   0.088  -8.006  0.00  0.00    -0.084 Cl
ATOM     23  C   UNL d   1      -4.356   0.191  -5.593  0.00  0.00     0.016 A 
ENDBRANCH  13  17
ENDBRANCH   8  11
ENDBRANCH   1   7
BRANCH   2  24
ATOM     24  C   UNL d   1       2.116  -1.484   0.208  0.00  0.00     0.058 A 
ATOM     25  C   UNL d   1       2.088  -2.738  -0.432  0.00  0.00     0.034 A 
ATOM     26  C   UNL d   1       3.261  -3.479  -0.614  0.00  0.00     0.044 A 
ATOM     27  C   UNL d   1       4.468  -2.966  -0.174  0.00  0.00     0.116 A 
ATOM     28  C   UNL d   1       4.528  -1.716   0.431  0.00  0.00     0.044 A 
ATOM     29  F   UNL d   1       5.591  -3.673  -0.353  0.00  0.00    -0.206 F 
ATOM     30  C   UNL d   1       3.355  -0.969   0.618  0.00  0.00     0.034 A 
ENDBRANCH   2  24
BRANCH   6  31
ATOM     31  C   UNL d   1      -0.540   2.554   0.284  0.00  0.00    -0.008 A 
ATOM     32  C   UNL d   1       0.385   3.545   0.636  0.00  0.00     0.015 A 
ATOM     33  C   UNL d   1       0.085   4.900   0.440  0.00  0.00     0.024 A 
ATOM     34  C   UNL d   1      -1.139   5.273  -0.113  0.00  0.00     0.034 A 
ATOM     35  C   UNL d   1      -2.068   4.305  -0.475  0.00  0.00     0.024 A 
ATOM     36 CL   UNL d   1      -1.502   6.935  -0.366  0.00  0.00    -0.084 Cl
ATOM     37  C   UNL d   1      -1.768   2.955  -0.279  0.00  0.00     0.015 A 
ENDBRANCH   6  31
TORSDOF 5
