REMARK  3 active torsions:
REMARK  status: ('A' for Active; 'I' for Inactive)
REMARK    1  A    between atoms: C_4  and  C_1 
REMARK    2  A    between atoms: C_11  and  C_6 
REMARK    3  A    between atoms: O_17  and  C_12 
ROOT
ATOM      1  C   UNL d   1      -3.727  -0.030   0.005  0.00  0.00     0.089 C 
ATOM      2  C   UNL d   1      -4.433   1.126  -0.005  0.00  0.00     0.038 C 
ATOM      3  C   UNL d   1      -2.247  -0.014  -0.004  0.00  0.00     0.103 C 
ATOM      4  N   UNL d   1      -1.090  -0.003  -0.009  0.00  0.00    -0.191 NA
ENDROOT
BRANCH   1   5
ATOM      5  C   UNL d   1      -4.516  -1.244   0.013  0.00  0.00     0.127 A 
ATOM      6  N   UNL d   1      -5.833  -1.423   0.009  0.00  0.00    -0.339 N 
ATOM      7  C   UNL d   1      -6.046  -2.783  -0.005  0.00  0.00     0.060 A 
ATOM      8  HN  UNL d   1      -6.546  -0.694   0.016  1.00  0.00     0.167 HD
ATOM      9  C   UNL d   1      -7.246  -3.510  -0.024  0.00  0.00     0.032 A 
ATOM     10  C   UNL d   1      -4.837  -3.465  -0.003  0.00  0.00     0.060 A 
ATOM     11  C   UNL d   1      -7.183  -4.908  -0.041  0.00  0.00     0.002 A 
ATOM     12  C   UNL d   1      -5.951  -5.568  -0.035  0.00  0.00     0.002 A 
ATOM     13  C   UNL d   1      -4.744  -4.859  -0.016  0.00  0.00     0.032 A 
ATOM     14  N   UNL d   1      -3.887  -2.474   0.012  0.00  0.00    -0.339 N 
ATOM     15  H   UNL d   1      -2.889  -2.628   0.015  0.00  0.00     0.167 HD
ENDBRANCH   1   5
BRANCH   2  16
ATOM     16  C   UNL d   1      -3.825   2.463  -0.044  0.00  0.00    -0.035 A 
ATOM     17  C   UNL d   1      -3.521   3.060  -1.274  0.00  0.00     0.014 A 
ATOM     18  C   UNL d   1      -2.969   4.343  -1.316  0.00  0.00     0.037 A 
ATOM     19  C   UNL d   1      -2.721   5.027  -0.132  0.00  0.00     0.065 A 
ATOM     20  C   UNL d   1      -2.992   4.438   1.099  0.00  0.00     0.037 A 
ATOM     21  C   UNL d   1      -3.542   3.151   1.142  0.00  0.00     0.014 A 
BRANCH  19  22
ATOM     22  O   UNL d   1      -2.216   6.290  -0.223  0.00  0.00    -0.361 OA
ATOM     23  H   UNL d   1      -2.159   6.668   0.670  0.00  0.00     0.217 HD
ENDBRANCH  19  22
ENDBRANCH   2  16
TORSDOF 3
