REMARK  10 active torsions:
REMARK  status: ('A' for Active; 'I' for Inactive)
REMARK    1  A    between atoms: C_1  and  O_9 
REMARK    2  A    between atoms: C_2  and  C_1 
REMARK    3  A    between atoms: C_3  and  C_1 
REMARK    4  A    between atoms: C_2  and  O_8 
REMARK    5  A    between atoms: C_2  and  C_4 
REMARK    6  A    between atoms: C_3  and  O_10 
REMARK    7  A    between atoms: C_3  and  C_7 
REMARK    8  A    between atoms: C_7  and  O_11 
REMARK    9  A    between atoms: C_13  and  C_7 
REMARK   10  A    between atoms: O_12  and  C_13 
ROOT
ATOM      1  C   UNL d   1      -0.884   2.773  -2.202  0.00  0.00     0.181 C 
ENDROOT
BRANCH   1   2
ATOM      2  O   UNL d   1       0.550   2.680  -2.172  0.00  0.00    -0.390 OA
ATOM      3  H   UNL d   1       0.793   2.308  -1.294  0.00  0.00     0.210 HD
ENDBRANCH   1   2
BRANCH   1   4
ATOM      4  C   UNL d   1      -1.332   4.161  -1.692  0.00  0.00     0.192 C 
BRANCH   4   5
ATOM      5  O   UNL d   1      -0.795   4.372  -0.375  0.00  0.00    -0.390 OA
ATOM      6  H   UNL d   1       0.150   4.583  -0.494  0.00  0.00     0.210 HD
ENDBRANCH   4   5
BRANCH   4   7
ATOM      7  C   UNL d   1      -0.891   5.313  -2.652  0.00  0.00     0.312 C 
ATOM      8  N   UNL d   1      -1.230   6.657  -2.144  0.00  0.00     0.101 N 
ATOM      9  C   UNL d   1      -2.668   6.870  -2.382  0.00  0.00     0.281 C 
ATOM     10  H   UNL d   1      -0.720   7.319  -2.738  0.00  0.00     0.317 HD
ATOM     11  C   UNL d   1      -3.108   6.256  -3.712  0.00  0.00     0.106 C 
ATOM     12  S   UNL d   1      -1.724   5.240  -4.264  0.00  0.00    -0.130 SA
ENDBRANCH   4   7
ENDBRANCH   1   4
BRANCH   1  13
ATOM     13  C   UNL d   1      -1.543   1.590  -1.441  0.00  0.00     0.180 C 
BRANCH  13  14
ATOM     14  O   UNL d   1      -1.276   0.403  -2.210  0.00  0.00    -0.390 OA
ATOM     15  H   UNL d   1      -0.305   0.363  -2.311  0.00  0.00     0.210 HD
ENDBRANCH  13  14
BRANCH  13  16
ATOM     16  C   UNL d   1      -1.052   1.383   0.011  0.00  0.00     0.173 C 
BRANCH  16  17
ATOM     17  O   UNL d   1       0.375   1.173  -0.001  0.00  0.00    -0.391 OA
ATOM     18  H   UNL d   1       0.469   0.194   0.022  0.00  0.00     0.210 HD
ENDBRANCH  16  17
BRANCH  16  19
ATOM     19  C   UNL d   1      -1.709   0.184   0.711  0.00  0.00     0.198 C 
BRANCH  19  20
ATOM     20  O   UNL d   1      -1.077  -1.028   0.288  0.00  0.00    -0.398 OA
ATOM     21  H   UNL d   1      -1.734  -1.739   0.387  0.00  0.00     0.209 HD
ENDBRANCH  19  20
ENDBRANCH  16  19
ENDBRANCH  13  16
ENDBRANCH   1  13
TORSDOF 10
