REMARK  5 active torsions:
REMARK  status: ('A' for Active; 'I' for Inactive)
REMARK    1  A    between atoms: C_16  and  C_7 
REMARK    2  A    between atoms: C_9  and  N_8 
REMARK    3  A    between atoms: O_19  and  C_10 
REMARK    4  A    between atoms: O_20  and  C_11 
REMARK    5  A    between atoms: C_15  and  C_16 
ROOT
ATOM      1  C   UNL d   1      -0.132  -1.104   0.174  0.00  0.00     0.245 A 
ATOM      2  O   UNL d   1      -1.003  -0.044   0.175  0.00  0.00    -0.263 OA
ATOM      3  N   UNL d   1       1.126  -0.715   0.186  0.00  0.00    -0.263 N 
ATOM      4  HN  UNL d   1       1.947  -1.319   0.235  1.00  0.00     0.190 HD
ATOM      5  N   UNL d   1       1.123   0.663   0.118  0.00  0.00    -0.280 N 
ATOM      6  HN  UNL d   1       1.936   1.278   0.084  1.00  0.00     0.189 HD
ATOM      7  C   UNL d   1      -0.139   1.020   0.108  0.00  0.00     0.146 A 
ATOM      8  N   UNL d   1      -0.696  -2.318   0.122  0.00  0.00    -0.320 N 
ATOM      9  H   UNL d   1      -1.697  -2.363   0.251  0.00  0.00     0.169 HD
ENDROOT
BRANCH   7  10
ATOM     10  C   UNL d   1      -0.727   2.378  -0.006  0.00  0.00     0.124 C 
BRANCH  10  11
ATOM     11  C   UNL d   1      -0.948   3.035   1.337  0.00  0.00    -0.048 A 
ATOM     12  C   UNL d   1      -2.233   3.441   1.730  0.00  0.00     0.047 A 
ATOM     13  C   UNL d   1      -2.453   4.084   2.959  0.00  0.00     0.102 A 
ATOM     14  C   UNL d   1      -1.361   4.292   3.820  0.00  0.00     0.101 A 
ATOM     15  C   UNL d   1      -0.078   3.896   3.422  0.00  0.00     0.040 A 
ATOM     16  C   UNL d   1       0.131   3.276   2.193  0.00  0.00     0.010 A 
BRANCH  13  17
ATOM     17  O   UNL d   1      -3.678   4.554   3.351  0.00  0.00    -0.353 OA
ATOM     18  C   UNL d   1      -4.774   4.403   2.458  0.00  0.00     0.210 C 
ENDBRANCH  13  17
BRANCH  14  19
ATOM     19  O   UNL d   1      -1.370   4.917   5.041  0.00  0.00    -0.353 OA
ATOM     20  C   UNL d   1      -2.547   4.775   5.824  0.00  0.00     0.210 C 
ENDBRANCH  14  19
ENDBRANCH  10  11
ENDBRANCH   7  10
BRANCH   8  21
ATOM     21  C   UNL d   1      -0.157  -3.489  -0.456  0.00  0.00     0.047 A 
ATOM     22  C   UNL d   1      -0.488  -4.733   0.153  0.00  0.00    -0.035 A 
ATOM     23  C   UNL d   1      -0.006  -5.940  -0.388  0.00  0.00     0.009 A 
ATOM     24  C   UNL d   1      -1.332  -4.854   1.397  0.00  0.00     0.050 C 
ATOM     25  C   UNL d   1       0.810  -5.941  -1.508  0.00  0.00     0.001 A 
ATOM     26  C   UNL d   1       1.150  -4.735  -2.104  0.00  0.00     0.009 A 
ATOM     27  C   UNL d   1       0.672  -3.505  -1.606  0.00  0.00    -0.035 A 
ATOM     28  C   UNL d   1       1.079  -2.306  -2.428  0.00  0.00     0.050 C 
ENDBRANCH   8  21
TORSDOF 5
