REMARK  4 active torsions:
REMARK  status: ('A' for Active; 'I' for Inactive)
REMARK    1  A    between atoms: C_6  and  C_1 
REMARK    2  A    between atoms: C_9  and  N_2 
REMARK    3  A    between atoms: C_8  and  C_4 
REMARK       I    between atoms: N_7  and  C_6 
REMARK    4  A    between atoms: C_13  and  N_7 
ROOT
ATOM      1  C   UNL d   1      -0.218   1.087   0.052  0.00  0.00     0.057 C 
ATOM      2  N   UNL d   1       0.888  -0.890   0.309  0.00  0.00    -0.314 N 
ATOM      3  C   UNL d   1       1.022   0.507   0.355  0.00  0.00     0.029 C 
ATOM      4  C   UNL d   1      -0.477  -1.189   0.183  0.00  0.00     0.051 C 
ATOM      5  C   UNL d   1      -1.141   0.010  -0.016  0.00  0.00     0.050 C 
ATOM      6  C   UNL d   1       2.338   1.200   0.548  0.00  0.00     0.070 C 
ENDROOT
BRANCH   1   7
ATOM      7  C   UNL d   1      -0.466   2.532  -0.189  0.00  0.00     0.258 C 
ATOM      8  N   UNL d   1      -1.779   2.868  -0.467  0.00  0.00    -0.323 N 
ATOM      9  H   UNL d   1      -2.480   2.162  -0.316  0.00  0.00     0.169 HD
ATOM     10  O   UNL d   1       0.455   3.346  -0.160  0.00  0.00    -0.267 OA
BRANCH   8  11
ATOM     11  C   UNL d   1      -2.243   4.116  -0.950  0.00  0.00     0.035 A 
ATOM     12  C   UNL d   1      -1.403   5.170  -1.329  0.00  0.00     0.031 A 
ATOM     13  C   UNL d   1      -1.927   6.355  -1.859  0.00  0.00     0.026 A 
ATOM     14  C   UNL d   1      -3.302   6.497  -2.010  0.00  0.00     0.034 A 
ATOM     15  C   UNL d   1      -4.155   5.466  -1.628  0.00  0.00     0.026 A 
ATOM     16 CL   UNL d   1      -3.943   7.942  -2.684  0.00  0.00    -0.084 Cl
ATOM     17  C   UNL d   1      -3.628   4.280  -1.101  0.00  0.00     0.031 A 
ENDBRANCH   8  11
ENDBRANCH   1   7
BRANCH   2  18
ATOM     18  C   UNL d   1       1.956  -1.855   0.309  0.00  0.00     0.039 A 
ATOM     19  C   UNL d   1       3.050  -1.739   1.174  0.00  0.00     0.030 A 
ATOM     20  C   UNL d   1       4.054  -2.714   1.184  0.00  0.00     0.002 A 
ATOM     21  C   UNL d   1       3.964  -3.825   0.350  0.00  0.00     0.000 A 
ATOM     22  C   UNL d   1       2.880  -3.954  -0.513  0.00  0.00     0.002 A 
ATOM     23  C   UNL d   1       1.890  -2.968  -0.546  0.00  0.00     0.030 A 
ENDBRANCH   2  18
BRANCH   4  24
ATOM     24  C   UNL d   1      -1.094  -2.530   0.264  0.00  0.00    -0.009 A 
ATOM     25  C   UNL d   1      -2.105  -2.892  -0.640  0.00  0.00     0.015 A 
ATOM     26  C   UNL d   1      -2.675  -4.169  -0.605  0.00  0.00     0.024 A 
ATOM     27  C   UNL d   1      -2.233  -5.099   0.332  0.00  0.00     0.034 A 
ATOM     28  C   UNL d   1      -1.248  -4.753   1.252  0.00  0.00     0.024 A 
ATOM     29 CL   UNL d   1      -2.904  -6.682   0.350  0.00  0.00    -0.084 Cl
ATOM     30  C   UNL d   1      -0.697  -3.467   1.231  0.00  0.00     0.015 A 
ENDBRANCH   4  24
TORSDOF 4
