REMARK  3 active torsions:
REMARK  status: ('A' for Active; 'I' for Inactive)
REMARK    1  A    between atoms: N_2  and  C_3 
REMARK    2  A    between atoms: C_11  and  N_4 
REMARK    3  A    between atoms: C_14  and  C_11 
ROOT
ATOM      1  N   UNL d   1       1.587  -2.756  -0.350  0.00  0.00    -0.377 N 
ATOM      2  N   UNL d   1       1.781  -5.656   0.383  0.00  0.00     0.095 N 
ATOM      3  C   UNL d   1       2.276  -3.192   0.878  0.00  0.00     0.153 C 
ATOM      4  C   UNL d   1       0.609  -3.750  -0.868  0.00  0.00     0.153 C 
ATOM      5  C   UNL d   1       1.176  -5.191  -0.880  0.00  0.00     0.292 C 
ATOM      6  C   UNL d   1       2.773  -4.652   0.803  0.00  0.00     0.292 C 
ENDROOT
BRANCH   1   7
ATOM      7  C   UNL d   1       1.197  -1.383  -0.428  0.00  0.00     0.043 A 
ATOM      8  C   UNL d   1       1.477  -0.336   0.524  0.00  0.00     0.018 A 
ATOM      9  C   UNL d   1       1.036   0.975   0.273  0.00  0.00     0.044 A 
ATOM     10  C   UNL d   1       2.149  -0.250   1.793  0.00  0.00     0.033 A 
ATOM     11  N   UNL d   1       1.437   1.778   1.318  0.00  0.00    -0.365 N 
ATOM     12  C   UNL d   1       0.322   1.350  -0.865  0.00  0.00     0.030 A 
ATOM     13  C   UNL d   1       2.120   1.050   2.242  0.00  0.00     0.089 A 
ATOM     14  H   UNL d   1       1.256   2.771   1.375  0.00  0.00     0.165 HD
ATOM     15  C   UNL d   1       0.074   0.368  -1.806  0.00  0.00     0.005 A 
ATOM     16  C   UNL d   1       0.514  -0.940  -1.598  0.00  0.00     0.030 A 
ENDBRANCH   1   7
BRANCH   2  17
ATOM     17  C   UNL d   1       0.776  -5.925   1.421  0.00  0.00     0.311 C 
BRANCH  17  18
ATOM     18  C   UNL d   1       0.110  -7.279   1.245  0.00  0.00    -0.030 A 
ATOM     19  C   UNL d   1       0.890  -8.433   1.077  0.00  0.00     0.009 A 
ATOM     20  C   UNL d   1       0.295  -9.691   0.981  0.00  0.00     0.007 A 
ATOM     21  C   UNL d   1      -1.095  -9.827   1.055  0.00  0.00    -0.062 A 
ATOM     22  C   UNL d   1      -1.877  -8.680   1.230  0.00  0.00     0.007 A 
ATOM     23  C   UNL d   1      -1.720 -11.189   1.005  0.00  0.00     0.048 C 
ATOM     24  C   UNL d   1      -1.281  -7.417   1.324  0.00  0.00     0.009 A 
ENDBRANCH  17  18
ENDBRANCH   2  17
TORSDOF 3
