REMARK  3 active torsions:
REMARK  status: ('A' for Active; 'I' for Inactive)
REMARK    1  A    between atoms: C_3  and  C_1 
REMARK       I    between atoms: N_7  and  C_3 
REMARK    2  A    between atoms: C_8  and  C_5 
REMARK    3  A    between atoms: C_12  and  N_7 
ROOT
ATOM      1  C   UNL d   1      -0.190  -1.230   0.228  0.00  0.00     0.064 A 
ATOM      2  C   UNL d   1      -1.488  -0.647   0.388  0.00  0.00     0.057 A 
ATOM      3  C   UNL d   1       0.659  -0.149   0.031  0.00  0.00     0.065 A 
ATOM      4  C   UNL d   1      -1.353   0.721   0.256  0.00  0.00     0.087 A 
ATOM      5  O   UNL d   1      -0.042   1.019   0.040  0.00  0.00    -0.314 OA
ATOM      6  C   UNL d   1       2.117   0.009  -0.178  0.00  0.00     0.077 C 
ENDROOT
BRANCH   1   7
ATOM      7  C   UNL d   1       0.228  -2.633   0.257  0.00  0.00     0.258 C 
ATOM      8  N   UNL d   1      -0.814  -3.539   0.383  0.00  0.00    -0.323 N 
ATOM      9  H   UNL d   1      -1.751  -3.170   0.366  0.00  0.00     0.169 HD
ATOM     10  O   UNL d   1       1.409  -2.939   0.144  0.00  0.00    -0.267 OA
BRANCH   8  11
ATOM     11  C   UNL d   1      -0.714  -4.948   0.398  0.00  0.00     0.035 A 
ATOM     12  C   UNL d   1       0.493  -5.642   0.499  0.00  0.00     0.029 A 
ATOM     13  C   UNL d   1       0.518  -7.039   0.453  0.00  0.00     0.002 A 
ATOM     14  C   UNL d   1      -0.667  -7.755   0.311  0.00  0.00     0.000 A 
ATOM     15  C   UNL d   1      -1.880  -7.076   0.239  0.00  0.00     0.002 A 
ATOM     16  C   UNL d   1      -1.905  -5.679   0.291  0.00  0.00     0.029 A 
ENDBRANCH   8  11
ENDBRANCH   1   7
BRANCH   4  17
ATOM     17  C   UNL d   1      -2.278   1.851   0.311  0.00  0.00    -0.002 A 
ATOM     18  C   UNL d   1      -3.635   1.646   0.604  0.00  0.00     0.016 A 
ATOM     19  C   UNL d   1      -4.528   2.721   0.673  0.00  0.00     0.024 A 
ATOM     20  C   UNL d   1      -4.071   4.016   0.445  0.00  0.00     0.034 A 
ATOM     21  C   UNL d   1      -2.731   4.244   0.138  0.00  0.00     0.024 A 
ATOM     22 CL   UNL d   1      -5.165   5.338   0.543  0.00  0.00    -0.084 Cl
ATOM     23  C   UNL d   1      -1.842   3.165   0.072  0.00  0.00     0.016 A 
ENDBRANCH   4  17
TORSDOF 3
