REMARK  6 active torsions:
REMARK  status: ('A' for Active; 'I' for Inactive)
REMARK    1  A    between atoms: C_6  and  C_1 
REMARK    2  A    between atoms: C_5  and  C_2 
REMARK    3  A    between atoms: N_4  and  C_3 
REMARK    4  A    between atoms: C_7  and  C_13 
REMARK    5  A    between atoms: C_8  and  C_12 
REMARK    6  A    between atoms: C_14  and  C_11 
ROOT
ATOM      1  C   UNL d   1       1.441  -0.358   0.101  0.00  0.00     0.082 A 
ATOM      2  C   UNL d   1      -0.845  -1.244   0.014  0.00  0.00     0.082 A 
ATOM      3  C   UNL d   1       0.546  -1.429  -0.034  0.00  0.00     0.133 A 
ATOM      4  C   UNL d   1       0.902   0.937   0.259  0.00  0.00     0.031 A 
ATOM      5  C   UNL d   1      -1.334   0.075   0.139  0.00  0.00     0.031 A 
ATOM      6  C   UNL d   1      -0.482   1.186   0.271  0.00  0.00    -0.024 A 
ENDROOT
BRANCH   6   7
ATOM      7  C   UNL d   1      -1.010   2.557   0.464  0.00  0.00    -0.024 A 
ATOM      8  C   UNL d   1      -2.166   2.791   1.230  0.00  0.00     0.028 A 
ATOM      9  C   UNL d   1      -2.648   4.090   1.476  0.00  0.00     0.049 A 
ATOM     10  C   UNL d   1      -1.952   5.185   0.950  0.00  0.00     0.032 A 
ATOM     11  C   UNL d   1      -0.797   4.994   0.182  0.00  0.00     0.049 A 
ATOM     12  C   UNL d   1      -0.352   3.681  -0.067  0.00  0.00     0.028 A 
BRANCH   9  13
ATOM     13  C   UNL d   1      -3.890   4.274   2.317  0.00  0.00     0.417 C 
ATOM     14  F   UNL d   1      -4.209   5.577   2.540  0.00  0.00    -0.166 F 
ATOM     15  F   UNL d   1      -4.988   3.708   1.745  0.00  0.00    -0.166 F 
ATOM     16  F   UNL d   1      -3.770   3.699   3.546  0.00  0.00    -0.166 F 
ENDBRANCH   9  13
BRANCH  11  17
ATOM     17  C   UNL d   1      -0.005   6.165  -0.355  0.00  0.00     0.417 C 
ATOM     18  F   UNL d   1      -0.534   7.375  -0.029  0.00  0.00    -0.166 F 
ATOM     19  F   UNL d   1       1.273   6.175   0.113  0.00  0.00    -0.166 F 
ATOM     20  F   UNL d   1       0.093   6.148  -1.712  0.00  0.00    -0.166 F 
ENDBRANCH  11  17
ENDBRANCH   6   7
BRANCH   2  21
ATOM     21  C   UNL d   1      -1.856  -2.366  -0.022  0.00  0.00     0.419 C 
ATOM     22  F   UNL d   1      -1.338  -3.618  -0.030  0.00  0.00    -0.166 F 
ATOM     23  F   UNL d   1      -2.679  -2.319   1.063  0.00  0.00    -0.166 F 
ATOM     24  F   UNL d   1      -2.670  -2.284  -1.107  0.00  0.00    -0.166 F 
ENDBRANCH   2  21
BRANCH   1  25
ATOM     25  C   UNL d   1       2.947  -0.485   0.094  0.00  0.00     0.419 C 
ATOM     26  F   UNL d   1       3.429  -1.745   0.004  0.00  0.00    -0.166 F 
ATOM     27  F   UNL d   1       3.498   0.201  -0.944  0.00  0.00    -0.166 F 
ATOM     28  F   UNL d   1       3.497   0.048   1.220  0.00  0.00    -0.166 F 
ENDBRANCH   1  25
BRANCH   3  29
ATOM     29  N   UNL d   1       1.068  -2.762  -0.259  0.00  0.00    -0.114 N 
ATOM     30  O   UNL d   1       1.417  -3.393   0.746  0.00  0.00    -0.532 OA
ATOM     31  O   UNL d   1       1.107  -3.144  -1.432  0.00  0.00    -0.532 OA
ENDBRANCH   3  29
TORSDOF 6
