REMARK  9 active torsions:
REMARK  status: ('A' for Active; 'I' for Inactive)
REMARK    1  A    between atoms: C_9  and  C_1 
REMARK    2  A    between atoms: C_10  and  C_1 
REMARK    3  A    between atoms: C_2  and  N_11 
REMARK    4  A    between atoms: N_11  and  C_6 
REMARK    5  A    between atoms: O_18  and  C_9 
REMARK    6  A    between atoms: O_17  and  C_10 
REMARK    7  A    between atoms: O_20  and  C_16 
REMARK    8  A    between atoms: C_22  and  O_17 
REMARK    9  A    between atoms: C_21  and  O_18 
ROOT
ATOM      1  N   UNL d   1       0.964   2.229  -0.791  0.00  0.00    -0.345 N 
ATOM      2  H   UNL d   1       1.921   2.146  -1.144  0.00  0.00     0.167 HD
ENDROOT
BRANCH   1   3
ATOM      3  C   UNL d   1       0.264   3.342  -1.108  0.00  0.00     0.149 A 
ATOM      4  N   UNL d   1      -0.873   3.698  -0.557  0.00  0.00    -0.335 N 
ATOM      5  C   UNL d   1      -1.294   4.911  -1.067  0.00  0.00     0.051 A 
ATOM      6  HN  UNL d   1      -1.375   3.156   0.147  1.00  0.00     0.168 HD
ATOM      7  C   UNL d   1      -2.430   5.631  -0.651  0.00  0.00     0.034 A 
ATOM      8  C   UNL d   1      -0.502   5.441  -2.083  0.00  0.00     0.037 A 
ATOM      9  C   UNL d   1      -2.756   6.844  -1.271  0.00  0.00     0.039 A 
ATOM     10  C   UNL d   1      -1.976   7.339  -2.314  0.00  0.00     0.069 A 
ATOM     11  C   UNL d   1      -0.837   6.639  -2.734  0.00  0.00     0.058 A 
ATOM     12  S   UNL d   1       0.856   4.413  -2.318  0.00  0.00    -0.052 SA
BRANCH  10  13
ATOM     13  O   UNL d   1      -2.209   8.497  -3.006  0.00  0.00    -0.356 OA
ATOM     14  C   UNL d   1      -3.335   9.271  -2.607  0.00  0.00     0.210 C 
ENDBRANCH  10  13
ENDBRANCH   1   3
BRANCH   1  15
ATOM     15  C   UNL d   1       0.465   1.079  -0.209  0.00  0.00     0.114 C 
ATOM     16  C   UNL d   1       1.123  -0.050   0.127  0.00  0.00     0.129 C 
BRANCH  16  17
ATOM     17  C   UNL d   1       0.379  -1.281   0.489  0.00  0.00     0.300 C 
ATOM     18  O   UNL d   1       0.844  -2.410   0.387  0.00  0.00    -0.259 OA
BRANCH  17  19
ATOM     19  O   UNL d   1      -0.916  -1.011   0.795  0.00  0.00    -0.318 OA
BRANCH  19  20
ATOM     20  C   UNL d   1      -1.817  -2.122   0.667  0.00  0.00     0.174 C 
ATOM     21  C   UNL d   1      -2.280  -2.197  -0.778  0.00  0.00     0.034 C 
ENDBRANCH  19  20
ENDBRANCH  17  19
ENDBRANCH  16  17
BRANCH  16  22
ATOM     22  C   UNL d   1       2.588  -0.087  -0.072  0.00  0.00     0.300 C 
ATOM     23  O   UNL d   1       3.192   0.663  -0.830  0.00  0.00    -0.259 OA
BRANCH  22  24
ATOM     24  O   UNL d   1       3.149  -1.063   0.680  0.00  0.00    -0.318 OA
BRANCH  24  25
ATOM     25  C   UNL d   1       4.454  -1.484   0.266  0.00  0.00     0.174 C 
ATOM     26  C   UNL d   1       4.297  -2.507  -0.846  0.00  0.00     0.034 C 
ENDBRANCH  24  25
ENDBRANCH  22  24
ENDBRANCH  16  22
ENDBRANCH   1  15
TORSDOF 9
