REMARK  3 active torsions:
REMARK  status: ('A' for Active; 'I' for Inactive)
REMARK       I    between atoms: N_2  and  C_1 
REMARK       I    between atoms: N_8  and  C_1 
REMARK    1  A    between atoms: C_4  and  C_11 
REMARK    2  A    between atoms: C_6  and  N_5 
REMARK    3  A    between atoms: C_22  and  N_8 
ROOT
ATOM      1  C   UNL d   1       0.852  -0.118  -0.194  0.00  0.00     0.323 C 
ATOM      2  N   UNL d   1       0.332   0.824  -1.059  0.00  0.00    -0.331 N 
ATOM      3  N   UNL d   1      -0.387   2.850  -2.946  0.00  0.00    -0.377 N 
ATOM      4  N   UNL d   1       0.467  -0.029   1.120  0.00  0.00    -0.309 N 
ATOM      5  O   UNL d   1       1.657  -0.948  -0.623  0.00  0.00    -0.247 OA
ATOM      6  C   UNL d   1       0.788   0.757  -2.461  0.00  0.00     0.147 C 
ATOM      7  C   UNL d   1      -0.883   1.633  -0.860  0.00  0.00     0.147 C 
ATOM      8  C   UNL d   1       0.898   2.153  -3.100  0.00  0.00     0.143 C 
ATOM      9  C   UNL d   1      -0.777   3.017  -1.534  0.00  0.00     0.143 C 
ATOM     10  H   UNL d   1      -0.193   0.686   1.370  0.00  0.00     0.170 HD
ENDROOT
BRANCH   4  11
ATOM     11  C   UNL d   1       1.024  -0.743   2.207  0.00  0.00     0.036 A 
ATOM     12  C   UNL d   1       2.053  -1.676   2.066  0.00  0.00     0.030 A 
ATOM     13  C   UNL d   1       2.660  -2.252   3.181  0.00  0.00     0.018 A 
ATOM     14  C   UNL d   1       2.242  -1.918   4.471  0.00  0.00     0.048 A 
ATOM     15  C   UNL d   1       1.161  -1.036   4.619  0.00  0.00     0.018 A 
ATOM     16  C   UNL d   1       0.560  -0.451   3.495  0.00  0.00     0.030 A 
BRANCH  14  17
ATOM     17  C   UNL d   1       2.967  -2.470   5.673  0.00  0.00     0.417 C 
ATOM     18  F   UNL d   1       4.021  -3.272   5.351  0.00  0.00    -0.166 F 
ATOM     19  F   UNL d   1       3.481  -1.485   6.461  0.00  0.00    -0.166 F 
ATOM     20  F   UNL d   1       2.161  -3.214   6.478  0.00  0.00    -0.166 F 
ENDBRANCH  14  17
ENDBRANCH   4  11
BRANCH   3  21
ATOM     21  C   UNL d   1      -1.122   3.402  -3.986  0.00  0.00     0.044 A 
ATOM     22  C   UNL d   1      -1.280   2.809  -5.284  0.00  0.00     0.017 A 
ATOM     23  C   UNL d   1      -2.058   3.513  -6.243  0.00  0.00     0.046 A 
ATOM     24  C   UNL d   1      -0.764   1.550  -5.695  0.00  0.00     0.018 A 
ATOM     25  C   UNL d   1      -2.227   2.999  -7.521  0.00  0.00     0.054 A 
ATOM     26  N   UNL d   1      -2.676   4.671  -5.987  0.00  0.00    -0.365 N 
ATOM     27  C   UNL d   1      -1.652   1.793  -7.903  0.00  0.00     0.036 A 
ATOM     28  C   UNL d   1      -0.919   1.059  -6.991  0.00  0.00     0.025 A 
ATOM     29 CL   UNL d   1      -1.872   1.197  -9.501  0.00  0.00    -0.084 Cl
ATOM     30  C   UNL d   1      -2.535   5.199  -4.763  0.00  0.00     0.090 A 
ATOM     31  HN  UNL d   1      -3.236   5.137  -6.700  1.00  0.00     0.165 HD
ATOM     32  C   UNL d   1      -1.779   4.622  -3.764  0.00  0.00     0.047 A 
ENDBRANCH   3  21
TORSDOF 3
