REMARK  4 active torsions:
REMARK  status: ('A' for Active; 'I' for Inactive)
REMARK    1  A    between atoms: C_3  and  N_1 
REMARK    2  A    between atoms: C_2  and  C_4 
REMARK    3  A    between atoms: N_10  and  C_2 
REMARK    4  A    between atoms: O_11  and  N_8 
ROOT
ATOM      1  C   UNL d   1       3.324  -2.725  -3.462  0.00  0.00     0.103 A 
ATOM      2  C   UNL d   1       1.392  -1.825  -4.612  0.00  0.00     0.006 A 
ATOM      3  C   UNL d   1       2.156  -1.947  -3.445  0.00  0.00     0.050 A 
ATOM      4  C   UNL d   1       3.725  -3.397  -4.624  0.00  0.00     0.036 A 
ATOM      5  C   UNL d   1       1.797  -2.502  -5.773  0.00  0.00     0.015 A 
ATOM      6  C   UNL d   1       2.953  -3.287  -5.778  0.00  0.00     0.003 A 
ENDROOT
BRANCH   2   7
ATOM      7  C   UNL d   1       0.148  -0.983  -4.641  0.00  0.00     0.108 C 
ATOM      8  N   UNL d   1      -0.526  -0.912  -5.755  0.00  0.00    -0.258 N 
ATOM      9  HN  UNL d   1      -0.280  -1.408  -6.612  1.00  0.00     0.195 HD
BRANCH   8  10
ATOM     10  O   UNL d   1      -1.637  -0.060  -5.621  0.00  0.00    -0.289 OA
ATOM     11  H   UNL d   1      -2.069  -0.156  -6.490  0.00  0.00     0.244 HD
ENDBRANCH   8  10
BRANCH   7  12
ATOM     12  N   UNL d   1      -0.252  -0.302  -3.516  0.00  0.00    -0.287 NA
ATOM     13  H   UNL d   1       0.472   0.156  -2.978  0.00  0.00     0.125 HD
ATOM     14  H   UNL d   1      -0.997   0.346  -3.765  0.00  0.00     0.125 HD
ENDBRANCH   7  12
ENDBRANCH   2   7
BRANCH   1  15
ATOM     15  N   UNL d   1       4.144  -2.824  -2.248  0.00  0.00    -0.116 N 
ATOM     16  O   UNL d   1       3.776  -2.185  -1.252  0.00  0.00    -0.532 OA
ATOM     17  O   UNL d   1       5.161  -3.531  -2.294  0.00  0.00    -0.532 OA
ENDBRANCH   1  15
TORSDOF 4
