REMARK  4 active torsions:
REMARK  status: ('A' for Active; 'I' for Inactive)
REMARK    1  A    between atoms: C_7  and  C_1 
REMARK    2  A    between atoms: O_13  and  C_7 
REMARK    3  A    between atoms: C_12  and  N_8 
REMARK    4  A    between atoms: C_18  and  O_13 
ROOT
ATOM      1  C   UNL d   1       1.315   0.822   0.090  0.00  0.00     0.117 A 
ATOM      2  N   UNL d   1       1.475  -0.557   0.097  0.00  0.00    -0.331 N 
ATOM      3  HN  UNL d   1       2.380  -1.027   0.115  1.00  0.00     0.168 HD
ATOM      4  C   UNL d   1       0.323  -1.181   0.079  0.00  0.00     0.149 A 
ATOM      5  S   UNL d   1      -1.043  -0.126   0.173  0.00  0.00    -0.063 SA
ATOM      6  C   UNL d   1      -0.003   1.234   0.119  0.00  0.00     0.089 A 
ATOM      7  N   UNL d   1       0.132  -2.518  -0.051  0.00  0.00    -0.337 N 
ATOM      8  H   UNL d   1      -0.831  -2.823  -0.104  0.00  0.00     0.168 HD
ENDROOT
BRANCH   7   9
ATOM      9  C   UNL d   1       1.057  -3.431  -0.605  0.00  0.00     0.036 A 
ATOM     10  C   UNL d   1       2.440  -3.233  -0.599  0.00  0.00     0.046 A 
ATOM     11  C   UNL d   1       3.260  -4.147  -1.242  0.00  0.00     0.090 A 
ATOM     12  N   UNL d   1       2.807  -5.246  -1.876  0.00  0.00    -0.375 N 
ATOM     13  C   UNL d   1       1.474  -5.440  -1.854  0.00  0.00     0.090 A 
ATOM     14  HN  UNL d   1       3.438  -5.894  -2.347  1.00  0.00     0.164 HD
ATOM     15  C   UNL d   1       0.576  -4.582  -1.236  0.00  0.00     0.046 A 
ENDBRANCH   7   9
BRANCH   1  16
ATOM     16  C   UNL d   1       2.458   1.724  -0.029  0.00  0.00     0.310 C 
ATOM     17  O   UNL d   1       2.349   2.936  -0.156  0.00  0.00    -0.258 OA
BRANCH  16  18
ATOM     18  O   UNL d   1       3.639   1.039  -0.084  0.00  0.00    -0.317 OA
BRANCH  18  19
ATOM     19  C   UNL d   1       4.742   1.744  -0.662  0.00  0.00     0.175 C 
ATOM     20  C   UNL d   1       4.697   1.538  -2.166  0.00  0.00     0.034 C 
ENDBRANCH  18  19
ENDBRANCH  16  18
ENDBRANCH   1  16
TORSDOF 4
