REMARK  5 active torsions:
REMARK  status: ('A' for Active; 'I' for Inactive)
REMARK    1  A    between atoms: C_8  and  C_1 
REMARK    2  A    between atoms: N_7  and  C_2 
REMARK    3  A    between atoms: C_11  and  C_3 
REMARK       I    between atoms: C_9  and  N_7 
REMARK       I    between atoms: N_10  and  C_9 
REMARK    4  A    between atoms: C_12  and  N_10 
REMARK    5  A    between atoms: O_30  and  C_25 
ROOT
ATOM      1  C   UNL d   1       1.677   0.682   0.397  0.00  0.00     0.147 C 
ATOM      2  C   UNL d   1       0.446  -1.171   0.535  0.00  0.00     0.139 C 
ATOM      3  C   UNL d   1       1.738  -0.747   0.238  0.00  0.00     0.053 C 
ATOM      4  N   UNL d   1       0.517   1.049   0.973  0.00  0.00    -0.292 N 
ATOM      5  HN  UNL d   1       0.237   1.986   1.263  1.00  0.00     0.187 HD
ATOM      6  N   UNL d   1      -0.192  -0.084   1.085  0.00  0.00    -0.280 N 
ATOM      7  C   UNL d   1      -1.547   0.025   1.577  0.00  0.00     0.179 C 
ENDROOT
BRANCH   2   8
ATOM      8  N   UNL d   1      -0.088  -2.377   0.119  0.00  0.00    -0.292 N 
ATOM      9  C   UNL d   1      -1.105  -3.190   0.663  0.00  0.00     0.326 C 
ATOM     10  N   UNL d   1      -1.176  -3.205   2.024  0.00  0.00    -0.306 N 
ATOM     11  O   UNL d   1      -1.756  -3.787  -0.170  0.00  0.00    -0.247 OA
ATOM     12  H   UNL d   1      -0.601  -2.560   2.545  0.00  0.00     0.171 HD
ATOM     13  H   UNL d   1       0.079  -2.615  -0.849  0.00  0.00     0.172 HD
BRANCH  10  14
ATOM     14  C   UNL d   1      -2.059  -4.031   2.763  0.00  0.00     0.075 A 
ATOM     15  C   UNL d   1      -2.596  -5.239   2.283  0.00  0.00     0.146 A 
ATOM     16  C   UNL d   1      -3.531  -5.961   3.016  0.00  0.00     0.086 A 
ATOM     17  F   UNL d   1      -2.153  -5.788   1.144  0.00  0.00    -0.204 F 
ATOM     18  C   UNL d   1      -3.924  -5.487   4.253  0.00  0.00     0.119 A 
ATOM     19  C   UNL d   1      -3.363  -4.330   4.782  0.00  0.00     0.044 A 
ATOM     20  F   UNL d   1      -4.846  -6.155   4.957  0.00  0.00    -0.206 F 
ATOM     21  C   UNL d   1      -2.414  -3.609   4.049  0.00  0.00     0.036 A 
ENDBRANCH  10  14
ENDBRANCH   2   8
BRANCH   3  22
ATOM     22  C   UNL d   1       2.888  -1.592  -0.105  0.00  0.00    -0.020 A 
ATOM     23  C   UNL d   1       2.806  -2.766  -0.867  0.00  0.00     0.015 A 
ATOM     24  C   UNL d   1       3.941  -3.552  -1.127  0.00  0.00     0.037 A 
ATOM     25  C   UNL d   1       5.190  -3.168  -0.650  0.00  0.00     0.068 A 
ATOM     26  C   UNL d   1       5.287  -2.010   0.115  0.00  0.00     0.037 A 
ATOM     27  C   UNL d   1       4.152  -1.246   0.402  0.00  0.00     0.015 A 
BRANCH  25  28
ATOM     28  O   UNL d   1       6.370  -3.822  -0.855  0.00  0.00    -0.356 OA
ATOM     29  C   UNL d   1       6.328  -5.006  -1.642  0.00  0.00     0.210 C 
ENDBRANCH  25  28
ENDBRANCH   3  22
BRANCH   1  30
ATOM     30  C   UNL d   1       2.704   1.717  -0.018  0.00  0.00     0.434 C 
ATOM     31  F   UNL d   1       3.610   1.227  -0.905  0.00  0.00    -0.165 F 
ATOM     32  F   UNL d   1       2.131   2.790  -0.626  0.00  0.00    -0.165 F 
ATOM     33  F   UNL d   1       3.409   2.183   1.044  0.00  0.00    -0.165 F 
ENDBRANCH   1  30
TORSDOF 5
