REMARK  2 active torsions:
REMARK  status: ('A' for Active; 'I' for Inactive)
REMARK    1  A    between atoms: N_3  and  C_1 
REMARK    2  A    between atoms: C_6  and  C_2 
ROOT
ATOM      1  C   UNL d   1       2.363  -0.861  -0.033  0.00  0.00     0.115 A 
ATOM      2  C   UNL d   1       2.471   0.637   0.012  0.00  0.00     0.220 A 
ATOM      3  C   UNL d   1       1.217  -1.552  -0.048  0.00  0.00     0.049 A 
ATOM      4  O   UNL d   1       1.196   1.339  -0.049  0.00  0.00    -0.334 OA
ATOM      5  C   UNL d   1      -0.016  -0.781  -0.023  0.00  0.00     0.001 A 
ATOM      6  C   UNL d   1       0.035   0.619  -0.031  0.00  0.00     0.080 A 
ATOM      7  C   UNL d   1      -1.254  -1.430  -0.008  0.00  0.00     0.038 A 
ATOM      8  C   UNL d   1      -1.148   1.359  -0.024  0.00  0.00     0.039 A 
ATOM      9  C   UNL d   1      -2.432  -0.682   0.000  0.00  0.00     0.035 A 
ATOM     10  C   UNL d   1      -2.385   0.709  -0.008  0.00  0.00     0.026 A 
ATOM     11 CL   UNL d   1      -3.952  -1.489   0.018  0.00  0.00    -0.084 Cl
ENDROOT
BRANCH   2  12
ATOM     12  C   UNL d   1       3.176   1.174   1.254  0.00  0.00    -0.001 A 
ATOM     13  C   UNL d   1       4.350   1.947   1.186  0.00  0.00     0.043 A 
ATOM     14 CL   UNL d   1       5.036   2.471  -0.312  0.00  0.00    -0.084 Cl
ATOM     15  C   UNL d   1       5.015   2.338   2.354  0.00  0.00     0.024 A 
ATOM     16  C   UNL d   1       4.504   1.994   3.605  0.00  0.00     0.002 A 
ATOM     17  C   UNL d   1       3.319   1.272   3.693  0.00  0.00     0.001 A 
ATOM     18  C   UNL d   1       2.661   0.866   2.530  0.00  0.00     0.012 A 
ENDBRANCH   2  12
BRANCH   1  19
ATOM     19  N   UNL d   1       3.609  -1.607  -0.128  0.00  0.00    -0.117 N 
ATOM     20  O   UNL d   1       3.546  -2.844  -0.149  0.00  0.00    -0.532 OA
ATOM     21  O   UNL d   1       4.662  -0.966  -0.195  0.00  0.00    -0.532 OA
ENDBRANCH   1  19
TORSDOF 2
