REMARK  7 active torsions:
REMARK  status: ('A' for Active; 'I' for Inactive)
REMARK    1  A    between atoms: N_3  and  C_7 
REMARK    2  A    between atoms: S_8  and  C_4 
REMARK    3  A    between atoms: N_21  and  C_5 
REMARK    4  A    between atoms: C_11  and  C_6 
REMARK    5  A    between atoms: C_15  and  S_8 
REMARK    6  A    between atoms: O_23  and  C_11 
REMARK    7  A    between atoms: C_24  and  O_23 
ROOT
ATOM      1  N   UNL d   1       0.340  -1.103  -0.034  0.00  0.00    -0.327 N 
ATOM      2  HN  UNL d   1       0.886  -1.963  -0.065  1.00  0.00     0.169 HD
ATOM      3  C   UNL d   1      -1.007  -1.126  -0.049  0.00  0.00     0.151 A 
ATOM      4  C   UNL d   1       0.936   0.103   0.023  0.00  0.00     0.097 A 
ATOM      5  C   UNL d   1       0.212   1.282   0.059  0.00  0.00     0.092 A 
ATOM      6  N   UNL d   1      -1.791  -0.036  -0.047  0.00  0.00    -0.345 N 
ATOM      7  HN  UNL d   1      -2.808  -0.104  -0.083  1.00  0.00     0.167 HD
ATOM      8  C   UNL d   1      -1.159   1.154   0.006  0.00  0.00     0.111 A 
ENDROOT
BRANCH   3   9
ATOM      9  S   UNL d   1      -1.790  -2.704   0.119  0.00  0.00    -0.036 SA
BRANCH   9  10
ATOM     10  C   UNL d   1      -1.964  -3.180  -1.578  0.00  0.00     0.077 A 
ATOM     11  N   UNL d   1      -3.231  -3.415  -2.002  0.00  0.00    -0.358 N 
ATOM     12  C   UNL d   1      -3.407  -3.867  -3.268  0.00  0.00     0.124 A 
ATOM     13  HN  UNL d   1      -4.028  -3.257  -1.385  1.00  0.00     0.166 HD
ATOM     14  C   UNL d   1      -2.356  -4.104  -4.136  0.00  0.00     0.118 A 
ATOM     15  C   UNL d   1      -1.052  -3.867  -3.697  0.00  0.00     0.040 A 
ATOM     16  C   UNL d   1      -0.856  -3.401  -2.394  0.00  0.00     0.040 A 
BRANCH  14  17
ATOM     17  N   UNL d   1      -2.621  -4.603  -5.478  0.00  0.00    -0.114 N 
ATOM     18  O   UNL d   1      -3.802  -4.794  -5.800  0.00  0.00    -0.532 OA
ATOM     19  O   UNL d   1      -1.648  -4.806  -6.216  0.00  0.00    -0.532 OA
ENDBRANCH  14  17
ENDBRANCH   9  10
ENDBRANCH   3   9
BRANCH   4  20
ATOM     20  N   UNL d   1       2.317   0.066   0.193  0.00  0.00    -0.288 NA
ATOM     21  H   UNL d   1       2.677  -0.871   0.049  0.00  0.00     0.125 HD
ATOM     22  H   UNL d   1       2.814   0.794  -0.320  0.00  0.00     0.125 HD
ENDBRANCH   4  20
BRANCH   5  23
ATOM     23  C   UNL d   1       0.874   2.589   0.180  0.00  0.00     0.298 C 
ATOM     24  O   UNL d   1       1.997   2.825  -0.229  0.00  0.00    -0.259 OA
BRANCH  23  25
ATOM     25  O   UNL d   1       0.084   3.414   0.913  0.00  0.00    -0.318 OA
BRANCH  25  26
ATOM     26  C   UNL d   1       0.753   4.537   1.505  0.00  0.00     0.174 C 
ATOM     27  C   UNL d   1       1.293   4.104   2.857  0.00  0.00     0.034 C 
ENDBRANCH  25  26
ENDBRANCH  23  25
ENDBRANCH   5  23
TORSDOF 7
