REMARK  4 active torsions:
REMARK  status: ('A' for Active; 'I' for Inactive)
REMARK    1  A    between atoms: C_11  and  C_3 
REMARK    2  A    between atoms: C_12  and  C_4 
REMARK    3  A    between atoms: C_13  and  C_10 
REMARK    4  A    between atoms: O_23  and  C_20 
ROOT
ATOM      1  C   UNL d   1       0.320  -0.721   0.036  0.00  0.00     0.144 A 
ATOM      2  N   UNL d   1       0.338   0.658   0.015  0.00  0.00    -0.202 N 
ATOM      3  C   UNL d   1       2.400   0.084  -0.047  0.00  0.00     0.147 A 
ATOM      4  C   UNL d   1       1.640  -1.140   0.010  0.00  0.00     0.053 A 
ATOM      5  N   UNL d   1       1.591   1.161  -0.012  0.00  0.00    -0.284 N 
ATOM      6  HN  UNL d   1       1.865   2.143  -0.006  1.00  0.00     0.187 HD
ATOM      7  N   UNL d   1      -0.894  -1.335   0.073  0.00  0.00    -0.343 N 
ATOM      8  C   UNL d   1      -0.804   1.472   0.013  0.00  0.00     0.270 A 
ATOM      9  C   UNL d   1      -2.081   0.724   0.011  0.00  0.00     0.102 A 
ATOM     10  C   UNL d   1      -2.100  -0.626   0.038  0.00  0.00     0.024 A 
ATOM     11  O   UNL d   1      -0.737   2.695   0.002  0.00  0.00    -0.266 OA
ATOM     12  H   UNL d   1      -0.966  -2.349   0.151  0.00  0.00     0.167 HD
ENDROOT
BRANCH   4  13
ATOM     13  C   UNL d   1       2.084  -2.530  -0.006  0.00  0.00    -0.020 A 
ATOM     14  C   UNL d   1       3.213  -2.920   0.726  0.00  0.00     0.015 A 
ATOM     15  C   UNL d   1       3.742  -4.212   0.610  0.00  0.00     0.037 A 
ATOM     16  C   UNL d   1       3.116  -5.152  -0.203  0.00  0.00     0.068 A 
ATOM     17  C   UNL d   1       1.941  -4.802  -0.867  0.00  0.00     0.037 A 
ATOM     18  C   UNL d   1       1.441  -3.496  -0.791  0.00  0.00     0.015 A 
BRANCH  16  19
ATOM     19  O   UNL d   1       3.540  -6.441  -0.372  0.00  0.00    -0.356 OA
ATOM     20  C   UNL d   1       4.955  -6.614  -0.404  0.00  0.00     0.210 C 
ENDBRANCH  16  19
ENDBRANCH   4  13
BRANCH   3  21
ATOM     21  C   UNL d   1       3.895   0.284  -0.142  0.00  0.00     0.434 C 
ATOM     22  F   UNL d   1       4.585  -0.856  -0.405  0.00  0.00    -0.165 F 
ATOM     23  F   UNL d   1       4.238   1.155  -1.130  0.00  0.00    -0.165 F 
ATOM     24  F   UNL d   1       4.413   0.779   1.017  0.00  0.00    -0.165 F 
ENDBRANCH   3  21
BRANCH  10  25
ATOM     25  C   UNL d   1      -3.419  -1.438   0.017  0.00  0.00    -0.009 C 
ATOM     26  C   UNL d   1      -4.692  -0.555   0.003  0.00  0.00     0.021 C 
ATOM     27  C   UNL d   1      -3.464  -2.317  -1.250  0.00  0.00     0.021 C 
ATOM     28  C   UNL d   1      -3.506  -2.338   1.265  0.00  0.00     0.021 C 
ENDBRANCH  10  25
TORSDOF 4
