REMARK  4 active torsions:
REMARK  status: ('A' for Active; 'I' for Inactive)
REMARK    1  A    between atoms: C_2  and  N_1 
REMARK    2  A    between atoms: C_5  and  C_8 
REMARK    3  A    between atoms: N_11  and  N_9 
REMARK    4  A    between atoms: C_15  and  C_19 
ROOT
ATOM      1  N   UNL d   1      -0.339   1.121   0.003  0.00  0.00    -0.259 N 
ATOM      2  C   UNL d   1       0.969   0.696  -0.010  0.00  0.00     0.169 A 
ATOM      3  C   UNL d   1      -1.317   0.146  -0.088  0.00  0.00     0.240 A 
ATOM      4  S   UNL d   1       1.052  -1.052  -0.083  0.00  0.00    -0.083 SA
ATOM      5  N   UNL d   1       1.982   1.504   0.070  0.00  0.00    -0.280 N 
ATOM      6  HN  UNL d   1       1.877   2.515   0.164  1.00  0.00     0.189 HD
ATOM      7  C   UNL d   1      -0.733  -1.241  -0.103  0.00  0.00     0.186 A 
ATOM      8  O   UNL d   1      -2.524   0.338  -0.215  0.00  0.00    -0.272 OA
ENDROOT
BRANCH   1   9
ATOM      9  C   UNL d   1      -0.684   2.499  -0.018  0.00  0.00     0.067 A 
ATOM     10  C   UNL d   1      -0.192   3.308  -1.059  0.00  0.00     0.048 A 
ATOM     11  C   UNL d   1      -0.530   4.669  -1.145  0.00  0.00     0.050 A 
ATOM     12  C   UNL d   1      -1.353   5.224  -0.155  0.00  0.00     0.018 A 
ATOM     13  C   UNL d   1      -1.834   4.435   0.892  0.00  0.00     0.027 A 
ATOM     14  C   UNL d   1      -1.509   3.077   0.961  0.00  0.00     0.061 A 
ATOM     15 CL   UNL d   1      -2.042   2.202   2.356  0.00  0.00    -0.082 Cl
BRANCH  11  16
ATOM     16  C   UNL d   1      -0.032   5.528  -2.284  0.00  0.00     0.417 C 
ATOM     17  F   UNL d   1       0.738   4.853  -3.181  0.00  0.00    -0.166 F 
ATOM     18  F   UNL d   1      -1.052   6.072  -3.003  0.00  0.00    -0.166 F 
ATOM     19  F   UNL d   1       0.722   6.576  -1.853  0.00  0.00    -0.166 F 
ENDBRANCH  11  16
ENDBRANCH   1   9
BRANCH   5  20
ATOM     20  N   UNL d   1       3.220   0.877   0.016  0.00  0.00    -0.309 N 
ATOM     21  C   UNL d   1       4.138   1.552   0.636  0.00  0.00     0.120 C 
ATOM     22  HN  UNL d   1       3.388  -0.011  -0.456  1.00  0.00     0.186 HD
BRANCH  21  23
ATOM     23  C   UNL d   1       5.530   1.058   0.691  0.00  0.00     0.002 A 
ATOM     24  C   UNL d   1       6.537   1.748   1.376  0.00  0.00     0.045 A 
ATOM     25 CL   UNL d   1       6.251   3.214   2.244  0.00  0.00    -0.083 Cl
ATOM     26  C   UNL d   1       7.844   1.246   1.379  0.00  0.00     0.024 A 
ATOM     27  C   UNL d   1       8.148   0.060   0.709  0.00  0.00     0.002 A 
ATOM     28  C   UNL d   1       7.145  -0.636   0.034  0.00  0.00     0.001 A 
ATOM     29  C   UNL d   1       5.843  -0.139   0.026  0.00  0.00     0.014 A 
ENDBRANCH  21  23
ENDBRANCH   5  20
TORSDOF 4
