REMARK  4 active torsions:
REMARK  status: ('A' for Active; 'I' for Inactive)
REMARK    1  A    between atoms: N_7  and  C_1 
REMARK    2  A    between atoms: C_14  and  C_2 
REMARK    3  A    between atoms: C_11  and  N_4 
REMARK       I    between atoms: C_8  and  N_7 
REMARK       I    between atoms: N_10  and  C_8 
REMARK    4  A    between atoms: N_9  and  C_12 
ROOT
ATOM      1  C   UNL d   1       0.032  -1.391  -0.060  0.00  0.00     0.152 C 
ATOM      2  C   UNL d   1       1.249  -0.758   0.122  0.00  0.00     0.110 C 
ATOM      3  N   UNL d   1      -0.420   0.741  -0.023  0.00  0.00    -0.013 NA
ATOM      4  N   UNL d   1       0.924   0.591   0.003  0.00  0.00    -0.235 N 
ATOM      5  N   UNL d   1      -0.961  -0.466  -0.174  0.00  0.00    -0.267 N 
ATOM      6  HN  UNL d   1      -1.947  -0.663  -0.346  1.00  0.00     0.186 HD
ENDROOT
BRANCH   1   7
ATOM      7  N   UNL d   1      -0.109  -2.760  -0.103  0.00  0.00    -0.292 N 
ATOM      8  C   UNL d   1      -1.257  -3.454  -0.369  0.00  0.00     0.324 C 
ATOM      9  N   UNL d   1      -1.051  -4.821  -0.569  0.00  0.00    -0.330 N 
ATOM     10  O   UNL d   1      -2.372  -2.952  -0.448  0.00  0.00    -0.247 OA
ATOM     11  C   UNL d   1      -2.211  -5.702  -0.726  0.00  0.00     0.153 C 
ATOM     12  C   UNL d   1       0.228  -5.493  -0.847  0.00  0.00     0.153 C 
ATOM     13  C   UNL d   1      -2.175  -6.407  -2.086  0.00  0.00     0.187 C 
ATOM     14  O   UNL d   1      -0.940  -7.126  -2.254  0.00  0.00    -0.388 OA
ATOM     15  C   UNL d   1       0.176  -6.229  -2.193  0.00  0.00     0.187 C 
ATOM     16  H   UNL d   1       0.686  -3.281   0.226  0.00  0.00     0.172 HD
ENDBRANCH   1   7
BRANCH   2  17
ATOM     17  C   UNL d   1       2.581  -1.302   0.402  0.00  0.00    -0.004 A 
ATOM     18  C   UNL d   1       3.108  -2.329  -0.391  0.00  0.00     0.014 A 
ATOM     19  C   UNL d   1       4.382  -2.837  -0.137  0.00  0.00     0.001 A 
ATOM     20  C   UNL d   1       5.152  -2.306   0.896  0.00  0.00     0.000 A 
ATOM     21  C   UNL d   1       4.643  -1.281   1.688  0.00  0.00     0.001 A 
ATOM     22  C   UNL d   1       3.355  -0.796   1.457  0.00  0.00     0.014 A 
ENDBRANCH   2  17
BRANCH   4  23
ATOM     23  C   UNL d   1       1.806   1.699  -0.067  0.00  0.00     0.055 A 
ATOM     24  C   UNL d   1       3.040   1.560  -0.723  0.00  0.00     0.034 A 
ATOM     25  C   UNL d   1       4.004   2.562  -0.634  0.00  0.00     0.038 A 
ATOM     26  C   UNL d   1       3.725   3.713   0.108  0.00  0.00     0.103 A 
ATOM     27  C   UNL d   1       2.461   3.898   0.694  0.00  0.00     0.038 A 
ATOM     28  C   UNL d   1       1.487   2.896   0.585  0.00  0.00     0.034 A 
BRANCH  26  29
ATOM     29  N   UNL d   1       4.785   4.708   0.310  0.00  0.00    -0.116 N 
ATOM     30  O   UNL d   1       4.519   5.705   0.994  0.00  0.00    -0.532 OA
ATOM     31  O   UNL d   1       5.894   4.477  -0.195  0.00  0.00    -0.532 OA
ENDBRANCH  26  29
ENDBRANCH   4  23
TORSDOF 4
