REMARK  6 active torsions:
REMARK  status: ('A' for Active; 'I' for Inactive)
REMARK    1  A    between atoms: S_15  and  C_3 
REMARK    2  A    between atoms: C_4  and  C_12 
REMARK    3  A    between atoms: C_18  and  C_8 
REMARK    4  A    between atoms: O_20  and  C_11 
REMARK    5  A    between atoms: C_12  and  C_16 
REMARK    6  A    between atoms: C_16  and  S_15 
ROOT
ATOM      1  N   UNL d   1      -0.369  -1.115   0.217  0.00  0.00    -0.318 N 
ATOM      2  HN  UNL d   1      -0.917  -1.974   0.272  1.00  0.00     0.170 HD
ATOM      3  C   UNL d   1       0.962  -1.116   0.321  0.00  0.00     0.147 A 
ATOM      4  N   UNL d   1       1.734  -0.020   0.263  0.00  0.00    -0.336 N 
ATOM      5  HN  UNL d   1       2.748  -0.084   0.357  1.00  0.00     0.168 HD
ATOM      6  C   UNL d   1       1.124   1.172   0.075  0.00  0.00     0.048 A 
ATOM      7  C   UNL d   1      -0.251   1.260  -0.040  0.00  0.00     0.086 A 
ATOM      8  C   UNL d   1      -0.939   0.076   0.037  0.00  0.00     0.143 A 
ENDROOT
BRANCH   3   9
ATOM      9  S   UNL d   1       1.784  -2.658   0.632  0.00  0.00    -0.086 SA
BRANCH   9  10
ATOM     10  C   UNL d   1       0.335  -3.754   0.724  0.00  0.00     0.166 C 
BRANCH  10  11
ATOM     11  C   UNL d   1       0.776  -5.167   1.060  0.00  0.00     0.175 C 
ATOM     12  O   UNL d   1       0.972  -5.969   0.143  0.00  0.00    -0.291 OA
BRANCH  11  13
ATOM     13  C   UNL d   1       0.942  -5.509   2.474  0.00  0.00     0.053 A 
ATOM     14  S   UNL d   1       1.419  -7.112   2.891  0.00  0.00    -0.074 SA
ATOM     15  C   UNL d   1       1.398  -6.755   4.541  0.00  0.00     0.075 A 
ATOM     16 CL   UNL d   1       1.806  -7.969   5.684  0.00  0.00    -0.076 Cl
ATOM     17  C   UNL d   1       1.037  -5.463   4.815  0.00  0.00     0.033 A 
ATOM     18  C   UNL d   1       0.773  -4.736   3.613  0.00  0.00     0.025 A 
ENDBRANCH  11  13
ENDBRANCH  10  11
ENDBRANCH   9  10
ENDBRANCH   3   9
BRANCH   8  19
ATOM     19  O   UNL d   1      -2.300   0.040  -0.044  0.00  0.00    -0.346 OA
ATOM     20  H   UNL d   1      -2.631   0.941  -0.172  0.00  0.00     0.219 HD
ENDBRANCH   8  19
BRANCH   6  21
ATOM     21  C   UNL d   1       2.010   2.362   0.049  0.00  0.00    -0.009 A 
ATOM     22  C   UNL d   1       3.270   2.335   0.677  0.00  0.00     0.013 A 
ATOM     23  C   UNL d   1       4.104   3.458   0.699  0.00  0.00     0.001 A 
ATOM     24  C   UNL d   1       3.699   4.639   0.086  0.00  0.00     0.000 A 
ATOM     25  C   UNL d   1       2.469   4.692  -0.559  0.00  0.00     0.001 A 
ATOM     26  C   UNL d   1       1.639   3.566  -0.583  0.00  0.00     0.013 A 
ENDBRANCH   6  21
TORSDOF 6
