REMARK  3 active torsions:
REMARK  status: ('A' for Active; 'I' for Inactive)
REMARK    1  A    between atoms: C_7  and  C_1 
REMARK    2  A    between atoms: O_10  and  C_7 
REMARK    3  A    between atoms: C_13  and  O_10 
ROOT
ATOM      1  C   UNL d   1      -1.823  -1.601  -0.128  0.00  0.00     0.154 A 
ATOM      2  C   UNL d   1      -2.325  -0.360  -0.112  0.00  0.00     0.099 A 
ATOM      3  O   UNL d   1      -0.470  -1.906  -0.125  0.00  0.00    -0.303 OA
ATOM      4  C   UNL d   1      -1.397   0.783  -0.077  0.00  0.00     0.187 A 
ATOM      5  C   UNL d   1       0.039   0.465  -0.058  0.00  0.00     0.048 A 
ATOM      6  C   UNL d   1       0.427  -0.872  -0.079  0.00  0.00     0.090 A 
ATOM      7  O   UNL d   1      -1.815   1.931  -0.047  0.00  0.00    -0.287 OA
ATOM      8  C   UNL d   1       0.998   1.480  -0.013  0.00  0.00     0.018 A 
ATOM      9  C   UNL d   1       1.781  -1.206  -0.051  0.00  0.00     0.038 A 
ATOM     10  C   UNL d   1       2.353   1.145   0.009  0.00  0.00     0.001 A 
ATOM     11  C   UNL d   1       2.743  -0.196  -0.008  0.00  0.00     0.003 A 
ENDROOT
BRANCH   1  12
ATOM     12  C   UNL d   1      -2.791  -2.730  -0.063  0.00  0.00     0.317 C 
ATOM     13  O   UNL d   1      -4.004  -2.606  -0.000  0.00  0.00    -0.257 OA
BRANCH  12  14
ATOM     14  O   UNL d   1      -2.097  -3.896   0.031  0.00  0.00    -0.316 OA
BRANCH  14  15
ATOM     15  C   UNL d   1      -2.837  -5.022   0.516  0.00  0.00     0.175 C 
ATOM     16  C   UNL d   1      -2.751  -5.023   2.032  0.00  0.00     0.034 C 
ENDBRANCH  14  15
ENDBRANCH  12  14
ENDBRANCH   1  12
TORSDOF 3
