REMARK  4 active torsions:
REMARK  status: ('A' for Active; 'I' for Inactive)
REMARK    1  A    between atoms: N_7  and  C_1 
REMARK    2  A    between atoms: N_9  and  C_2 
REMARK    3  A    between atoms: N_10  and  N_9 
REMARK    4  A    between atoms: C_19  and  C_15 
ROOT
ATOM      1  N   UNL d   1      -0.003 -11.258  -0.316  0.00  0.00    -0.191 NA
ATOM      2  C   UNL d   1       0.329 -10.146  -0.326  0.00  0.00     0.099 C 
ATOM      3  C   UNL d   1       0.737  -8.770  -0.328  0.00  0.00     0.044 A 
ATOM      4  C   UNL d   1       1.550  -6.086  -0.310  0.00  0.00    -0.019 A 
ATOM      5  C   UNL d   1       1.917  -8.382  -0.980  0.00  0.00     0.023 A 
ATOM      6  C   UNL d   1      -0.039  -7.805   0.325  0.00  0.00     0.023 A 
ATOM      7  C   UNL d   1       2.329  -7.042  -0.967  0.00  0.00     0.014 A 
ATOM      8  C   UNL d   1       0.364  -6.467   0.328  0.00  0.00     0.014 A 
ENDROOT
BRANCH   4   9
ATOM      9  C   UNL d   1       1.962  -4.665  -0.314  0.00  0.00     0.118 C 
ATOM     10  N   UNL d   1       1.085  -3.743  -0.075  0.00  0.00    -0.309 N 
ATOM     11  HN  UNL d   1       0.115  -3.973   0.140  1.00  0.00     0.186 HD
BRANCH  10  12
ATOM     12  N   UNL d   1       1.518  -2.454  -0.124  0.00  0.00    -0.283 N 
ATOM     13  H   UNL d   1       2.415  -2.267   0.346  0.00  0.00     0.188 HD
BRANCH  12  14
ATOM     14  C   UNL d   1       0.597  -1.443  -0.083  0.00  0.00     0.172 A 
ATOM     15  C   UNL d   1       0.598  -0.213   0.558  0.00  0.00     0.173 A 
ATOM     16  C   UNL d   1      -0.658   0.377   0.266  0.00  0.00     0.059 A 
ATOM     17  N   UNL d   1      -1.386  -0.404  -0.540  0.00  0.00    -0.299 N 
ATOM     18  C   UNL d   1      -1.233   1.667   0.728  0.00  0.00     0.072 C 
ATOM     19  N   UNL d   1      -0.610  -1.491  -0.749  0.00  0.00    -0.278 N 
ATOM     20  HN  UNL d   1      -2.317  -0.221  -0.914  1.00  0.00     0.187 HD
ATOM     21  C   UNL d   1      -1.116  -2.491  -1.659  0.00  0.00     0.179 C 
BRANCH  15  22
ATOM     22  N   UNL d   1       1.644   0.316   1.383  0.00  0.00    -0.110 N 
ATOM     23  O   UNL d   1       2.674  -0.367   1.496  0.00  0.00    -0.532 OA
ATOM     24  O   UNL d   1       1.450   1.415   1.914  0.00  0.00    -0.532 OA
ENDBRANCH  15  22
ENDBRANCH  12  14
ENDBRANCH  10  12
ENDBRANCH   4   9
TORSDOF 4
