REMARK  5 active torsions:
REMARK  status: ('A' for Active; 'I' for Inactive)
REMARK    1  A    between atoms: C_17  and  C_3 
REMARK    2  A    between atoms: N_6  and  C_12 
REMARK    3  A    between atoms: C_21  and  C_8 
REMARK    4  A    between atoms: N_18  and  N_13 
REMARK    5  A    between atoms: C_22  and  N_18 
ROOT
ATOM      1  C   UNL d   1       1.962   5.904  -0.945  0.00  0.00    -0.018 C 
ATOM      2  C   UNL d   1       1.062   5.747   0.200  0.00  0.00    -0.008 C 
ATOM      3  C   UNL d   1       0.153   4.825  -0.194  0.00  0.00    -0.007 C 
ATOM      4  C   UNL d   1       3.244   6.301  -0.894  0.00  0.00     0.020 C 
ATOM      5  C   UNL d   1       1.306   5.334  -2.112  0.00  0.00    -0.050 C 
ATOM      6  C   UNL d   1       0.300   4.585  -1.631  0.00  0.00     0.021 C 
ATOM      7  C   UNL d   1       4.025   6.602   0.307  0.00  0.00    -0.054 C 
ATOM      8  C   UNL d   1       1.014   6.646   1.339  0.00  0.00    -0.050 C 
ATOM      9  C   UNL d   1       3.493   7.008   1.478  0.00  0.00     0.008 C 
ATOM     10  C   UNL d   1       2.112   7.244   1.835  0.00  0.00     0.008 C 
ATOM     11  C   UNL d   1       1.663   5.612  -3.523  0.00  0.00     0.049 C 
ATOM     12  C   UNL d   1      -0.352   7.132   1.760  0.00  0.00     0.049 C 
ENDROOT
BRANCH   3  13
ATOM     13  C   UNL d   1      -0.802   4.084   0.661  0.00  0.00     0.119 C 
ATOM     14  N   UNL d   1      -2.039   3.748   0.455  0.00  0.00    -0.311 N 
ATOM     15  HN  UNL d   1      -2.506   3.046   1.029  1.00  0.00     0.186 HD
BRANCH  14  16
ATOM     16  N   UNL d   1      -2.681   4.376  -0.560  0.00  0.00    -0.301 N 
ATOM     17  H   UNL d   1      -2.431   5.349  -0.764  0.00  0.00     0.187 HD
BRANCH  16  18
ATOM     18  C   UNL d   1      -3.091   3.676  -1.705  0.00  0.00     0.048 A 
ATOM     19  C   UNL d   1      -3.076   2.274  -1.821  0.00  0.00     0.033 A 
ATOM     20  C   UNL d   1      -3.465   1.643  -3.014  0.00  0.00     0.038 A 
ATOM     21  C   UNL d   1      -3.902   2.424  -4.097  0.00  0.00     0.103 A 
ATOM     22  C   UNL d   1      -3.978   3.812  -3.981  0.00  0.00     0.038 A 
ATOM     23  C   UNL d   1      -3.588   4.426  -2.788  0.00  0.00     0.033 A 
BRANCH  21  24
ATOM     24  N   UNL d   1      -4.272   1.786  -5.367  0.00  0.00    -0.116 N 
ATOM     25  O   UNL d   1      -4.262   0.552  -5.413  0.00  0.00    -0.532 OA
ATOM     26  O   UNL d   1      -4.566   2.528  -6.319  0.00  0.00    -0.532 OA
ENDBRANCH  21  24
ENDBRANCH  16  18
ENDBRANCH  14  16
ENDBRANCH   3  13
BRANCH   7  27
ATOM     27  C   UNL d   1       5.558   6.447   0.244  0.00  0.00     0.010 C 
ATOM     28  C   UNL d   1       6.013   5.131   0.894  0.00  0.00     0.015 C 
ATOM     29  C   UNL d   1       6.207   6.578  -1.140  0.00  0.00     0.015 C 
ENDBRANCH   7  27
TORSDOF 5
