REMARK  4 active torsions:
REMARK  status: ('A' for Active; 'I' for Inactive)
REMARK    1  A    between atoms: C_7  and  C_3 
REMARK    2  A    between atoms: C_8  and  C_4 
REMARK    3  A    between atoms: C_19  and  C_14 
REMARK    4  A    between atoms: C_22  and  C_19 
ROOT
ATOM      1  N   UNL d   1       0.723  -0.390   0.304  0.00  0.00    -0.348 N 
ATOM      2  HN  UNL d   1       1.622  -0.590   0.744  1.00  0.00     0.166 HD
ATOM      3  C   UNL d   1       0.242   0.820   0.110  0.00  0.00     0.085 A 
ATOM      4  C   UNL d   1      -0.159  -1.361  -0.170  0.00  0.00     0.056 A 
ATOM      5  S   UNL d   1      -1.335   0.860  -0.572  0.00  0.00    -0.074 SA
ATOM      6  C   UNL d   1      -1.363  -0.858  -0.648  0.00  0.00     0.008 A 
ATOM      7  C   UNL d   1      -2.596  -1.509  -1.175  0.00  0.00     0.059 C 
ENDROOT
BRANCH   4   8
ATOM      8  C   UNL d   1       0.207  -2.776  -0.094  0.00  0.00    -0.008 A 
ATOM      9  C   UNL d   1       1.023  -3.226   0.954  0.00  0.00     0.014 A 
ATOM     10  C   UNL d   1       1.372  -4.579   1.067  0.00  0.00     0.008 A 
ATOM     11  C   UNL d   1       0.910  -5.514   0.134  0.00  0.00    -0.058 A 
ATOM     12  C   UNL d   1       0.109  -5.066  -0.921  0.00  0.00     0.008 A 
ATOM     13  C   UNL d   1      -0.212  -3.710  -1.048  0.00  0.00     0.014 A 
BRANCH  11  14
ATOM     14  C   UNL d   1       1.254  -6.980   0.279  0.00  0.00     0.042 C 
BRANCH  14  15
ATOM     15  C   UNL d   1       1.906  -7.618  -0.966  0.00  0.00    -0.019 C 
ATOM     16  C   UNL d   1       3.256  -6.979  -1.298  0.00  0.00     0.010 C 
ATOM     17  C   UNL d   1       2.084  -9.123  -0.749  0.00  0.00     0.010 C 
ENDBRANCH  14  15
ENDBRANCH  11  14
ENDBRANCH   4   8
BRANCH   3  18
ATOM     18  C   UNL d   1       0.933   2.072   0.474  0.00  0.00    -0.002 A 
ATOM     19  C   UNL d   1       0.754   3.265  -0.247  0.00  0.00     0.016 A 
ATOM     20  C   UNL d   1       1.412   4.439   0.128  0.00  0.00     0.024 A 
ATOM     21  C   UNL d   1       2.261   4.434   1.231  0.00  0.00     0.034 A 
ATOM     22  C   UNL d   1       2.462   3.262   1.955  0.00  0.00     0.024 A 
ATOM     23 CL   UNL d   1       3.065   5.881   1.698  0.00  0.00    -0.084 Cl
ATOM     24  C   UNL d   1       1.804   2.086   1.575  0.00  0.00     0.016 A 
ENDBRANCH   3  18
TORSDOF 4
