REMARK  2 active torsions:
REMARK  status: ('A' for Active; 'I' for Inactive)
REMARK       I    between atoms: N_4  and  C_1 
REMARK    1  A    between atoms: C_5  and  C_1 
REMARK       I    between atoms: C_2  and  N_3 
REMARK    2  A    between atoms: C_6  and  C_2 
ROOT
ATOM      1  C   UNL d   1       0.889   0.105  -0.111  0.00  0.00     0.253 C 
ATOM      2  C   UNL d   1      -1.162   1.548   4.864  0.00  0.00     0.253 C 
ATOM      3  N   UNL d   1      -0.418   0.930   3.857  0.00  0.00    -0.345 N 
ATOM      4  N   UNL d   1       0.279   0.495   1.084  0.00  0.00    -0.345 N 
ATOM      5  C   UNL d   1      -0.874  -0.161   1.693  0.00  0.00     0.146 C 
ATOM      6  C   UNL d   1       0.768   1.601   3.291  0.00  0.00     0.146 C 
ATOM      7  C   UNL d   1       0.685   1.744   1.753  0.00  0.00     0.146 C 
ATOM      8  C   UNL d   1      -0.734  -0.328   3.195  0.00  0.00     0.146 C 
ATOM      9  O   UNL d   1       1.904   0.656  -0.547  0.00  0.00    -0.267 OA
ATOM     10  O   UNL d   1      -0.897   2.679   5.270  0.00  0.00    -0.267 OA
ENDROOT
BRANCH   2  11
ATOM     11  C   UNL d   1      -2.363   0.873   5.457  0.00  0.00     0.032 A 
ATOM     12  C   UNL d   1      -3.474   1.673   5.778  0.00  0.00     0.027 A 
ATOM     13  C   UNL d   1      -4.612   1.058   6.277  0.00  0.00    -0.022 A 
ATOM     14  C   UNL d   1      -5.906   1.644   6.693  0.00  0.00     0.068 C 
ATOM     15  C   UNL d   1      -4.676  -0.320   6.407  0.00  0.00     0.075 A 
ATOM     16  C   UNL d   1      -6.527   0.413   7.361  0.00  0.00     0.180 C 
ATOM     17  O   UNL d   1      -5.889  -0.778   6.847  0.00  0.00    -0.350 OA
ATOM     18  C   UNL d   1      -3.599  -1.129   6.129  0.00  0.00     0.038 A 
ATOM     19  C   UNL d   1      -2.413  -0.514   5.719  0.00  0.00     0.020 A 
ENDBRANCH   2  11
BRANCH   1  20
ATOM     20  C   UNL d   1       0.347  -1.058  -0.879  0.00  0.00     0.032 C 
ATOM     21  C   UNL d   1      -1.033  -1.254  -1.044  0.00  0.00     0.027 C 
ATOM     22  C   UNL d   1      -1.472  -2.468  -1.537  0.00  0.00    -0.022 C 
ATOM     23  C   UNL d   1      -2.851  -2.989  -1.645  0.00  0.00     0.068 C 
ATOM     24  C   UNL d   1      -0.577  -3.403  -2.022  0.00  0.00     0.075 C 
ATOM     25  C   UNL d   1      -2.537  -4.442  -2.006  0.00  0.00     0.180 C 
ATOM     26  O   UNL d   1      -1.178  -4.538  -2.496  0.00  0.00    -0.350 OA
ATOM     27  C   UNL d   1       0.784  -3.176  -2.015  0.00  0.00     0.038 C 
ATOM     28  C   UNL d   1       1.252  -2.001  -1.412  0.00  0.00     0.020 C 
ENDBRANCH   1  20
TORSDOF 2
