REMARK  8 active torsions:
REMARK  status: ('A' for Active; 'I' for Inactive)
REMARK    1  A    between atoms: C_3  and  C_1 
REMARK       I    between atoms: C_2  and  N_15 
REMARK    2  A    between atoms: O_6  and  C_2 
REMARK    3  A    between atoms: N_16  and  C_4 
REMARK    4  A    between atoms: C_14  and  O_6 
REMARK    5  A    between atoms: N_17  and  C_7 
REMARK    6  A    between atoms: N_15  and  C_18 
REMARK    7  A    between atoms: C_22  and  N_17 
REMARK    8  A    between atoms: C_18  and  C_22 
ROOT
ATOM      1  C   UNL d   1      -3.875  -4.952  -1.317  0.00  0.00     0.049 C 
ATOM      2  C   UNL d   1      -2.135  -6.659  -1.472  0.00  0.00     0.028 C 
ATOM      3  C   UNL d   1      -3.391  -6.155  -1.848  0.00  0.00     0.041 C 
ATOM      4  C   UNL d   1      -1.399  -6.034  -0.431  0.00  0.00     0.029 C 
ATOM      5  C   UNL d   1      -3.095  -4.278  -0.369  0.00  0.00     0.018 C 
ATOM      6  C   UNL d   1      -1.873  -4.812   0.060  0.00  0.00     0.026 C 
ENDROOT
BRANCH   4   7
ATOM      7  N   UNL d   1      -0.160  -6.580  -0.043  0.00  0.00    -0.290 NA
ATOM      8  H   UNL d   1      -0.111  -7.553  -0.343  0.00  0.00     0.127 HD
BRANCH   7   9
ATOM      9  C   UNL d   1       0.295  -6.465   1.355  0.00  0.00     0.112 C 
BRANCH   9  10
ATOM     10  C   UNL d   1      -0.283  -7.586   2.244  0.00  0.00     0.139 C 
BRANCH  10  11
ATOM     11  N   UNL d   1       0.061  -8.918   1.765  0.00  0.00    -0.336 N 
ATOM     12  C   UNL d   1       1.077  -9.731   2.153  0.00  0.00     0.361 C 
ATOM     13  O   UNL d   1       1.304 -10.769   1.553  0.00  0.00    -0.238 OA
ATOM     14  H   UNL d   1      -0.470  -9.288   0.985  0.00  0.00     0.164 HD
BRANCH  12  15
ATOM     15  O   UNL d   1       1.784  -9.274   3.216  0.00  0.00    -0.294 OA
BRANCH  15  16
ATOM     16  C   UNL d   1       2.942 -10.035   3.700  0.00  0.00     0.061 C 
ATOM     17  C   UNL d   1       4.005 -10.161   2.598  0.00  0.00     0.046 C 
ATOM     18  C   UNL d   1       3.524  -9.223   4.871  0.00  0.00     0.046 C 
ATOM     19  C   UNL d   1       2.534 -11.415   4.238  0.00  0.00     0.046 C 
ENDBRANCH  15  16
ENDBRANCH  12  15
ENDBRANCH  10  11
ENDBRANCH   9  10
ENDBRANCH   7   9
ENDBRANCH   4   7
BRANCH   2  20
ATOM     20  N   UNL d   1      -1.704  -7.898  -2.007  0.00  0.00    -0.301 NA
ATOM     21  H   UNL d   1      -2.173  -8.125  -2.880  0.00  0.00     0.124 HD
ATOM     22  H   UNL d   1      -0.696  -7.891  -2.149  0.00  0.00     0.124 HD
ENDBRANCH   2  20
BRANCH   1  23
ATOM     23  C   UNL d   1      -5.197  -4.372  -1.757  0.00  0.00     0.417 C 
ATOM     24  F   UNL d   1      -5.823  -5.105  -2.720  0.00  0.00    -0.166 F 
ATOM     25  F   UNL d   1      -5.072  -3.116  -2.271  0.00  0.00    -0.166 F 
ATOM     26  F   UNL d   1      -6.087  -4.267  -0.731  0.00  0.00    -0.166 F 
ENDBRANCH   1  23
TORSDOF 8
