REMARK  2 active torsions:
REMARK  status: ('A' for Active; 'I' for Inactive)
REMARK    1  A    between atoms: C_4  and  C_1 
REMARK    2  A    between atoms: N_11  and  C_6 
ROOT
ATOM      1  C   UNL d   1      -3.310  -1.228  -0.061  0.00  0.00     0.093 C 
ATOM      2  C   UNL d   1      -3.344  -2.581  -0.069  0.00  0.00     0.110 C 
ATOM      3  C   UNL d   1      -2.078  -0.513  -0.041  0.00  0.00     0.103 C 
ATOM      4  N   UNL d   1      -1.096   0.111  -0.025  0.00  0.00    -0.191 NA
ENDROOT
BRANCH   1   5
ATOM      5  C   UNL d   1      -4.546  -0.474  -0.069  0.00  0.00     0.097 A 
ATOM      6  N   UNL d   1      -5.785  -0.948  -0.090  0.00  0.00    -0.348 N 
ATOM      7  C   UNL d   1      -6.726   0.080  -0.079  0.00  0.00     0.050 A 
ATOM      8  HN  UNL d   1      -6.020  -1.940  -0.112  1.00  0.00     0.166 HD
ATOM      9  C   UNL d   1      -8.131  -0.063  -0.090  0.00  0.00     0.031 A 
ATOM     10  C   UNL d   1      -6.198   1.367  -0.052  0.00  0.00     0.033 A 
ATOM     11  C   UNL d   1      -8.949   1.076  -0.070  0.00  0.00     0.002 A 
ATOM     12  C   UNL d   1      -8.391   2.350  -0.042  0.00  0.00     0.002 A 
ATOM     13  C   UNL d   1      -7.005   2.516  -0.034  0.00  0.00     0.021 A 
ATOM     14  S   UNL d   1      -4.494   1.271  -0.047  0.00  0.00    -0.069 SA
ENDBRANCH   1   5
BRANCH   2  15
ATOM     15  N   UNL d   1      -2.369  -3.591  -0.060  0.00  0.00    -0.397 N 
ATOM     16  C   UNL d   1      -0.914  -3.416  -0.030  0.00  0.00     0.148 C 
ATOM     17  C   UNL d   1      -2.744  -5.014  -0.069  0.00  0.00     0.148 C 
ENDBRANCH   2  15
TORSDOF 2
