REMARK  5 active torsions:
REMARK  status: ('A' for Active; 'I' for Inactive)
REMARK    1  A    between atoms: C_2  and  S_1 
REMARK    2  A    between atoms: N_3  and  S_1 
REMARK    3  A    between atoms: C_14  and  N_7 
REMARK    4  A    between atoms: C_18  and  C_14 
REMARK    5  A    between atoms: C_19  and  C_18 
ROOT
ATOM      1  N   UNL d   1       0.392   1.455  -0.461  0.00  0.00    -0.205 NA
ATOM      2  N   UNL d   1       0.763   4.522  -1.311  0.00  0.00     0.089 N 
ATOM      3  C   UNL d   1       1.349   2.461   0.129  0.00  0.00     0.138 C 
ATOM      4  C   UNL d   1       0.879   3.920   0.027  0.00  0.00     0.287 C 
ATOM      5  C   UNL d   1      -0.609   2.678  -2.476  0.00  0.00     0.046 C 
ATOM      6  C   UNL d   1       0.297   1.567  -1.955  0.00  0.00     0.109 C 
ATOM      7  C   UNL d   1      -0.476   4.103  -1.949  0.00  0.00     0.273 C 
ENDROOT
BRANCH   1   8
ATOM      8  S   UNL d   1       0.893  -0.175  -0.033  0.00  0.00     0.245 S 
ATOM      9  O   UNL d   1       0.000  -1.084  -0.731  0.00  0.00    -0.206 OA
ATOM     10  O   UNL d   1       2.321  -0.278  -0.269  0.00  0.00    -0.206 OA
BRANCH   8  11
ATOM     11  C   UNL d   1       0.504  -0.337   1.693  0.00  0.00     0.102 A 
ATOM     12  C   UNL d   1       1.462  -0.120   2.691  0.00  0.00     0.065 A 
ATOM     13  N   UNL d   1       2.699   0.377   2.451  0.00  0.00    -0.364 N 
ATOM     14  C   UNL d   1       1.077  -0.435   4.017  0.00  0.00    -0.008 A 
ATOM     15  C   UNL d   1       3.567   0.534   3.477  0.00  0.00     0.088 A 
ATOM     16  HN  UNL d   1       2.975   0.632   1.503  1.00  0.00     0.165 HD
ATOM     17  C   UNL d   1       3.267   0.232   4.788  0.00  0.00     0.018 A 
ATOM     18  C   UNL d   1       1.999  -0.255   5.057  0.00  0.00     0.015 A 
ATOM     19  C   UNL d   1      -0.205  -0.931   4.309  0.00  0.00     0.014 A 
ATOM     20  C   UNL d   1      -1.135  -1.128   3.300  0.00  0.00     0.003 A 
ATOM     21  C   UNL d   1      -0.780  -0.835   1.989  0.00  0.00     0.027 A 
ENDBRANCH   8  11
ENDBRANCH   1   8
BRANCH   2  22
ATOM     22  C   UNL d   1       1.994   4.419  -2.110  0.00  0.00     0.277 C 
BRANCH  22  23
ATOM     23  C   UNL d   1       1.941   5.108  -3.483  0.00  0.00     0.068 C 
BRANCH  23  24
ATOM     24  C   UNL d   1       3.203   4.859  -4.277  0.00  0.00    -0.057 A 
ATOM     25  C   UNL d   1       3.316   3.718  -5.087  0.00  0.00     0.007 A 
ATOM     26  C   UNL d   1       4.478   3.484  -5.823  0.00  0.00     0.001 A 
ATOM     27  C   UNL d   1       5.541   4.382  -5.752  0.00  0.00     0.000 A 
ATOM     28  C   UNL d   1       5.445   5.510  -4.937  0.00  0.00     0.001 A 
ATOM     29  C   UNL d   1       4.283   5.746  -4.200  0.00  0.00     0.007 A 
ENDBRANCH  23  24
ENDBRANCH  22  23
ENDBRANCH   2  22
TORSDOF 5
