REMARK  3 active torsions:
REMARK  status: ('A' for Active; 'I' for Inactive)
REMARK    1  A    between atoms: C_2  and  C_1 
REMARK    2  A    between atoms: C_13  and  C_7 
REMARK    3  A    between atoms: C_12  and  C_17 
ROOT
ATOM      1  C   UNL d   1       3.938   0.158   0.130  0.00  0.00     0.057 A 
ATOM      2  N   UNL d   1       4.734  -0.478  -0.806  0.00  0.00    -0.348 N 
ATOM      3  HN  UNL d   1       4.377  -1.008  -1.602  1.00  0.00     0.166 HD
ATOM      4  C   UNL d   1       6.014  -0.309  -0.535  0.00  0.00     0.084 A 
ATOM      5  S   UNL d   1       6.330   0.679   0.838  0.00  0.00    -0.081 SA
ATOM      6  C   UNL d   1       4.648   0.845   1.097  0.00  0.00     0.082 A 
ENDROOT
BRANCH   1   7
ATOM      7  C   UNL d   1       2.427   0.106   0.087  0.00  0.00     0.039 A 
ATOM      8  S   UNL d   1       1.477   1.002   1.198  0.00  0.00    -0.087 SA
ATOM      9  C   UNL d   1      -0.001   0.475   0.525  0.00  0.00     0.016 A 
ATOM     10  C   UNL d   1      -1.294   0.843   0.948  0.00  0.00     0.021 A 
ATOM     11  C   UNL d   1       0.212  -0.402  -0.537  0.00  0.00    -0.010 A 
ATOM     12  C   UNL d   1      -2.400   0.309   0.284  0.00  0.00     0.025 A 
ATOM     13  C   UNL d   1      -2.218  -0.571  -0.770  0.00  0.00     0.035 A 
ATOM     14  C   UNL d   1      -0.935  -0.933  -1.188  0.00  0.00     0.037 A 
ATOM     15 CL   UNL d   1      -3.590  -1.227  -1.577  0.00  0.00    -0.084 Cl
ATOM     16  C   UNL d   1       1.633  -0.621  -0.794  0.00  0.00    -0.031 A 
ATOM     17  C   UNL d   1       2.083  -1.541  -1.891  0.00  0.00     0.050 C 
ENDBRANCH   1   7
BRANCH   4  18
ATOM     18  C   UNL d   1       7.110  -0.886  -1.331  0.00  0.00    -0.002 A 
ATOM     19  C   UNL d   1       6.912  -1.122  -2.700  0.00  0.00     0.015 A 
ATOM     20  C   UNL d   1       7.900  -1.736  -3.478  0.00  0.00     0.010 A 
ATOM     21  C   UNL d   1       9.114  -2.144  -2.907  0.00  0.00    -0.035 A 
ATOM     22  C   UNL d   1       9.325  -1.879  -1.544  0.00  0.00     0.010 A 
ATOM     23  C   UNL d   1       8.337  -1.263  -0.768  0.00  0.00     0.015 A 
BRANCH  21  24
ATOM     24  C   UNL d   1      10.128  -2.897  -3.746  0.00  0.00     0.141 C 
ATOM     25  S   UNL d   1      10.382  -4.596  -3.122  0.00  0.00    -0.148 SA
ATOM     26  C   UNL d   1      12.177  -4.633  -3.326  0.00  0.00     0.085 C 
ATOM     27  C   UNL d   1      12.714  -3.257  -2.989  0.00  0.00     0.085 C 
ATOM     28  S   UNL d   1      11.725  -2.030  -3.879  0.00  0.00    -0.148 SA
ENDBRANCH  21  24
ENDBRANCH   4  18
TORSDOF 3
