REMARK  4 active torsions:
REMARK  status: ('A' for Active; 'I' for Inactive)
REMARK    1  A    between atoms: C_4  and  C_1 
REMARK       I    between atoms: N_6  and  C_1 
REMARK    2  A    between atoms: N_2  and  C_10 
REMARK    3  A    between atoms: N_8  and  C_3 
REMARK    4  A    between atoms: C_5  and  N_9 
ROOT
ATOM      1  C   UNL d   1       1.056   0.012  -0.123  0.00  0.00     0.257 C 
ATOM      2  N   UNL d   1       0.666  -0.307   1.188  0.00  0.00    -0.345 N 
ATOM      3  N   UNL d   1      -0.346  -0.479   3.877  0.00  0.00    -0.376 N 
ATOM      4  O   UNL d   1       1.894   0.882  -0.362  0.00  0.00    -0.267 OA
ATOM      5  C   UNL d   1       1.169   0.596   2.240  0.00  0.00     0.146 C 
ATOM      6  C   UNL d   1      -0.552  -1.064   1.515  0.00  0.00     0.146 C 
ATOM      7  C   UNL d   1       1.022   0.058   3.681  0.00  0.00     0.143 C 
ATOM      8  C   UNL d   1      -0.614  -1.592   2.956  0.00  0.00     0.143 C 
ENDROOT
BRANCH   3   9
ATOM      9  C   UNL d   1      -0.943  -0.421   5.132  0.00  0.00     0.058 A 
ATOM     10  C   UNL d   1      -1.152   0.790   5.849  0.00  0.00     0.067 A 
ATOM     11  C   UNL d   1      -1.741   0.789   7.132  0.00  0.00     0.068 A 
ATOM     12  C   UNL d   1      -2.186  -0.408   7.695  0.00  0.00     0.105 A 
ATOM     13  C   UNL d   1      -2.009  -1.610   7.015  0.00  0.00     0.038 A 
ATOM     14  C   UNL d   1      -1.385  -1.606   5.761  0.00  0.00     0.034 A 
BRANCH  10  15
ATOM     15  N   UNL d   1      -0.875   2.071   5.290  0.00  0.00    -0.331 N 
ATOM     16  C   UNL d   1      -0.397   3.171   5.980  0.00  0.00     0.097 A 
ATOM     17  C   UNL d   1      -0.172   4.196   5.087  0.00  0.00     0.019 A 
ATOM     18  C   UNL d   1      -0.595   3.748   3.819  0.00  0.00     0.019 A 
ATOM     19  C   UNL d   1      -1.068   2.465   3.982  0.00  0.00     0.097 A 
ENDBRANCH  10  15
BRANCH  12  20
ATOM     20  N   UNL d   1      -2.883  -0.391   8.987  0.00  0.00    -0.116 N 
ATOM     21  O   UNL d   1      -3.018   0.701   9.557  0.00  0.00    -0.532 OA
ATOM     22  O   UNL d   1      -3.303  -1.471   9.428  0.00  0.00    -0.532 OA
ENDBRANCH  12  20
ENDBRANCH   3   9
BRANCH   1  23
ATOM     23  C   UNL d   1       0.479  -0.705  -1.283  0.00  0.00     0.070 A 
ATOM     24  C   UNL d   1       1.353  -1.250  -2.224  0.00  0.00     0.132 A 
ATOM     25  F   UNL d   1       2.681  -1.155  -2.079  0.00  0.00    -0.205 F 
ATOM     26  C   UNL d   1       0.862  -1.936  -3.336  0.00  0.00     0.043 A 
ATOM     27  C   UNL d   1      -0.511  -2.087  -3.510  0.00  0.00     0.003 A 
ATOM     28  C   UNL d   1      -1.394  -1.513  -2.595  0.00  0.00     0.001 A 
ATOM     29  C   UNL d   1      -0.901  -0.793  -1.503  0.00  0.00     0.020 A 
ENDBRANCH   1  23
TORSDOF 4
