REMARK  2 active torsions:
REMARK  status: ('A' for Active; 'I' for Inactive)
REMARK    1  A    between atoms: C_5  and  N_1 
REMARK    2  A    between atoms: O_18  and  C_12 
ROOT
ATOM      1  N   UNL d   1      -1.854   0.141  -0.179  0.00  0.00    -0.240 N 
ATOM      2  C   UNL d   1      -1.182  -1.061  -0.157  0.00  0.00     0.268 A 
ATOM      3  C   UNL d   1      -0.983   1.202  -0.305  0.00  0.00     0.283 A 
ATOM      4  C   UNL d   1       0.237  -0.740  -0.183  0.00  0.00     0.065 A 
ATOM      5  C   UNL d   1       0.363   0.621  -0.266  0.00  0.00     0.117 A 
ATOM      6  N   UNL d   1       1.521   1.302  -0.251  0.00  0.00    -0.361 N 
ATOM      7  HN  UNL d   1       1.567   2.320  -0.303  1.00  0.00     0.165 HD
ATOM      8  O   UNL d   1      -1.583  -2.207  -0.162  0.00  0.00    -0.267 OA
ATOM      9  O   UNL d   1      -1.226   2.396  -0.382  0.00  0.00    -0.265 OA
ATOM     10  C   UNL d   1       1.357  -1.538  -0.108  0.00  0.00     0.021 A 
ATOM     11  C   UNL d   1       2.624   0.517  -0.161  0.00  0.00     0.088 A 
ATOM     12  C   UNL d   1       2.591  -0.882  -0.095  0.00  0.00     0.018 A 
ENDROOT
BRANCH   1  13
ATOM     13  C   UNL d   1      -3.258   0.278  -0.099  0.00  0.00     0.081 A 
ATOM     14  C   UNL d   1      -3.905   1.134  -1.008  0.00  0.00     0.057 A 
ATOM     15  C   UNL d   1      -5.296   1.235  -1.018  0.00  0.00     0.036 A 
ATOM     16 CL   UNL d   1      -6.072   2.224  -2.194  0.00  0.00    -0.084 Cl
ATOM     17  C   UNL d   1      -6.063   0.521  -0.104  0.00  0.00     0.026 A 
ATOM     18  C   UNL d   1      -5.432  -0.304   0.826  0.00  0.00     0.041 A 
ATOM     19  C   UNL d   1      -4.036  -0.421   0.843  0.00  0.00     0.095 A 
BRANCH  19  20
ATOM     20  O   UNL d   1      -3.546  -1.242   1.825  0.00  0.00    -0.354 OA
ATOM     21  C   UNL d   1      -2.598  -0.632   2.698  0.00  0.00     0.210 C 
ENDBRANCH  19  20
ENDBRANCH   1  13
TORSDOF 2
