REMARK  2 active torsions:
REMARK  status: ('A' for Active; 'I' for Inactive)
REMARK       I    between atoms: N_3  and  C_1 
REMARK    1  A    between atoms: C_4  and  C_1 
REMARK    2  A    between atoms: C_2  and  N_3 
ROOT
ATOM      1  C   UNL d   1       1.118  -0.124  -0.072  0.00  0.00     0.259 C 
ATOM      2  N   UNL d   1       0.511   0.675  -1.023  0.00  0.00    -0.319 N 
ATOM      3  O   UNL d   1       2.279  -0.520  -0.126  0.00  0.00    -0.267 OA
ATOM      4  H   UNL d   1      -0.315   1.193  -0.733  0.00  0.00     0.169 HD
ENDROOT
BRANCH   2   5
ATOM      5  C   UNL d   1       1.119   1.113  -2.225  0.00  0.00     0.091 A 
ATOM      6  C   UNL d   1       2.039   0.338  -2.947  0.00  0.00     0.147 A 
ATOM      7  C   UNL d   1       2.648   0.824  -4.101  0.00  0.00     0.087 A 
ATOM      8  F   UNL d   1       2.292  -0.934  -2.612  0.00  0.00    -0.204 F 
ATOM      9  C   UNL d   1       2.324   2.095  -4.552  0.00  0.00     0.120 A 
ATOM     10  C   UNL d   1       1.385   2.873  -3.890  0.00  0.00     0.064 A 
ATOM     11  F   UNL d   1       2.914   2.573  -5.656  0.00  0.00    -0.206 F 
ATOM     12  C   UNL d   1       0.770   2.375  -2.739  0.00  0.00     0.043 A 
ATOM     13 BR   UNL d   1      -0.498   3.490  -1.863  0.00  0.00    -0.049 Br
ENDBRANCH   2   5
BRANCH   1  14
ATOM     14  C   UNL d   1       0.318  -0.446   1.145  0.00  0.00     0.070 A 
ATOM     15  C   UNL d   1      -0.939   0.103   1.403  0.00  0.00     0.132 A 
ATOM     16  F   UNL d   1      -1.502   0.974   0.550  0.00  0.00    -0.205 F 
ATOM     17  C   UNL d   1      -1.644  -0.221   2.561  0.00  0.00     0.043 A 
ATOM     18  C   UNL d   1      -1.093  -1.107   3.484  0.00  0.00     0.003 A 
ATOM     19  C   UNL d   1       0.163  -1.664   3.246  0.00  0.00     0.001 A 
ATOM     20  C   UNL d   1       0.867  -1.335   2.084  0.00  0.00     0.020 A 
ENDBRANCH   1  14
TORSDOF 2
