REMARK  1 active torsions:
REMARK  status: ('A' for Active; 'I' for Inactive)
REMARK    1  A    between atoms: C_4  and  N_1 
ROOT
ATOM      1  N   UNL d   1      -1.205   0.034  -0.297  0.00  0.00    -0.245 N 
ATOM      2  C   UNL d   1      -0.406   1.139  -0.231  0.00  0.00     0.255 A 
ATOM      3  C   UNL d   1      -0.441  -1.089  -0.119  0.00  0.00     0.261 A 
ATOM      4  C   UNL d   1       0.965  -0.650  -0.054  0.00  0.00     0.012 A 
ATOM      5  C   UNL d   1       0.977   0.682  -0.080  0.00  0.00     0.087 A 
ATOM      6  O   UNL d   1      -0.684   2.328  -0.261  0.00  0.00    -0.268 OA
ATOM      7  O   UNL d   1      -0.764  -2.265  -0.077  0.00  0.00    -0.267 OA
ATOM      8  C   UNL d   1       2.121  -1.576  -0.043  0.00  0.00     0.054 C 
ENDROOT
BRANCH   1   9
ATOM      9  C   UNL d   1      -2.596   0.044  -0.591  0.00  0.00     0.049 A 
ATOM     10  C   UNL d   1      -3.159   1.109  -1.313  0.00  0.00     0.054 A 
ATOM     11  C   UNL d   1      -4.502   1.085  -1.696  0.00  0.00     0.037 A 
ATOM     12 CL   UNL d   1      -5.134   2.367  -2.656  0.00  0.00    -0.084 Cl
ATOM     13  C   UNL d   1      -5.323   0.024  -1.339  0.00  0.00     0.048 A 
ATOM     14  C   UNL d   1      -4.786  -1.021  -0.597  0.00  0.00     0.037 A 
ATOM     15  C   UNL d   1      -3.434  -1.024  -0.235  0.00  0.00     0.054 A 
ATOM     16 CL   UNL d   1      -5.799  -2.330  -0.125  0.00  0.00    -0.084 Cl
ENDBRANCH   1   9
TORSDOF 1
