REMARK  0 active torsions:
REMARK  status: ('A' for Active; 'I' for Inactive)
ROOT
ATOM      1  C   UNL d   1      -0.573   0.719  -0.081  0.00  0.00    -0.033 C 
ATOM      2  C   UNL d   1      -0.548  -0.839   0.090  0.00  0.00     0.002 C 
ATOM      3  C   UNL d   1       0.852   1.235   0.345  0.00  0.00     0.030 C 
ATOM      4  C   UNL d   1       2.052   0.412  -0.191  0.00  0.00     0.061 C 
ATOM      5  C   UNL d   1      -1.937  -1.587   0.186  0.00  0.00    -0.043 C 
ATOM      6  C   UNL d   1       0.474  -1.508  -0.861  0.00  0.00     0.009 C 
ATOM      7  O   UNL d   1       2.954   1.362  -0.799  0.00  0.00    -0.380 OA
ATOM      8  C   UNL d   1       1.680  -0.640  -1.236  0.00  0.00     0.038 C 
ATOM      9  C   UNL d   1      -1.618   1.329   0.889  0.00  0.00     0.010 C 
ATOM     10  C   UNL d   1      -0.942   1.172  -1.515  0.00  0.00     0.016 C 
ATOM     11  C   UNL d   1       2.684   2.645  -0.229  0.00  0.00     0.169 C 
ATOM     12  C   UNL d   1       1.190   2.678  -0.016  0.00  0.00     0.034 C 
ATOM     13  C   UNL d   1       2.834  -0.259   0.953  0.00  0.00     0.046 C 
ATOM     14  C   UNL d   1      -2.932  -0.791   1.068  0.00  0.00     0.009 C 
ATOM     15  C   UNL d   1      -2.995   0.695   0.744  0.00  0.00     0.002 C 
ATOM     16  C   UNL d   1      -1.717  -2.958   0.880  0.00  0.00     0.015 C 
ATOM     17  C   UNL d   1      -2.610  -1.901  -1.167  0.00  0.00     0.015 C 
ENDROOT
TORSDOF 0
