REMARK  2 active torsions:
REMARK  status: ('A' for Active; 'I' for Inactive)
REMARK    1  A    between atoms: N_19  and  C_9 
REMARK    2  A    between atoms: C_20  and  C_15 
ROOT
ATOM      1  C   UNL d   1      -1.294  -0.798   0.029  0.00  0.00     0.068 A 
ATOM      2  C   UNL d   1      -1.286   0.587   0.030  0.00  0.00     0.163 A 
ATOM      3  C   UNL d   1      -0.030  -1.524   0.040  0.00  0.00     0.199 A 
ATOM      4  N   UNL d   1      -2.431   1.319   0.005  0.00  0.00    -0.326 N 
ATOM      5  HN  UNL d   1      -2.401   2.338   0.014  1.00  0.00     0.169 HD
ATOM      6  C   UNL d   1       1.197  -0.724   0.038  0.00  0.00     0.049 A 
ATOM      7  O   UNL d   1      -0.121   1.329   0.040  0.00  0.00    -0.292 OA
ATOM      8  C   UNL d   1      -3.688  -0.738  -0.040  0.00  0.00     0.083 A 
ATOM      9  C   UNL d   1      -3.614   0.658  -0.033  0.00  0.00     0.100 A 
ATOM     10  C   UNL d   1      -2.509  -1.474   0.003  0.00  0.00     0.046 A 
ATOM     11  C   UNL d   1       1.082   0.659   0.032  0.00  0.00     0.092 A 
ATOM     12  C   UNL d   1       2.448  -1.355   0.027  0.00  0.00     0.026 A 
ATOM     13  C   UNL d   1      -4.943  -1.420  -0.074  0.00  0.00     0.102 C 
ATOM     14  N   UNL d   1      -5.958  -1.980  -0.065  0.00  0.00    -0.191 NA
ATOM     15  C   UNL d   1       3.624  -0.593   0.003  0.00  0.00    -0.054 A 
ATOM     16  O   UNL d   1      -0.007  -2.749   0.043  0.00  0.00    -0.286 OA
ATOM     17  C   UNL d   1       2.247   1.429   0.017  0.00  0.00     0.039 A 
ATOM     18  C   UNL d   1       3.507   0.807   0.004  0.00  0.00     0.010 A 
ENDROOT
BRANCH   9  19
ATOM     19  N   UNL d   1      -4.744   1.456  -0.188  0.00  0.00    -0.287 NA
ATOM     20  H   UNL d   1      -5.557   1.178   0.350  0.00  0.00     0.125 HD
ATOM     21  H   UNL d   1      -4.496   2.433  -0.065  0.00  0.00     0.125 HD
ENDBRANCH   9  19
BRANCH  15  22
ATOM     22  C   UNL d   1       4.967  -1.307  -0.040  0.00  0.00     0.010 C 
ATOM     23  C   UNL d   1       5.758  -0.961  -1.304  0.00  0.00     0.015 C 
ATOM     24  C   UNL d   1       5.813  -1.045   1.207  0.00  0.00     0.015 C 
ENDBRANCH  15  22
TORSDOF 2
