REMARK  2 active torsions:
REMARK  status: ('A' for Active; 'I' for Inactive)
REMARK       I    between atoms: N_2  and  C_1 
REMARK       I    between atoms: N_4  and  C_1 
REMARK       I    between atoms: C_5  and  N_2 
REMARK    1  A    between atoms: C_3  and  N_4 
REMARK    2  A    between atoms: C_11  and  C_5 
ROOT
ATOM      1  N   UNL d   1       5.532  -2.834   0.802  0.00  0.00    -0.197 NA
ATOM      2  C   UNL d   1       4.997  -1.808   0.716  0.00  0.00     0.068 C 
ATOM      3  C   UNL d   1       4.326  -0.512   0.659  0.00  0.00     0.227 C 
ENDROOT
BRANCH   3   4
ATOM      4  C   UNL d   1       2.838  -0.717   0.487  0.00  0.00     0.238 C 
ATOM      5  N   UNL d   1       2.159  -0.885   1.682  0.00  0.00    -0.279 N 
ATOM      6  C   UNL d   1       0.811  -0.897   1.922  0.00  0.00     0.323 C 
ATOM      7  H   UNL d   1       2.667  -0.805   2.554  0.00  0.00     0.173 HD
ATOM      8  N   UNL d   1      -0.009  -0.985   0.840  0.00  0.00    -0.334 N 
ATOM      9  O   UNL d   1       0.435  -0.791   3.087  0.00  0.00    -0.247 OA
ATOM     10  H   UNL d   1       0.436  -1.242  -0.039  0.00  0.00     0.165 HD
ATOM     11  O   UNL d   1       2.309  -0.777  -0.621  0.00  0.00    -0.272 OA
BRANCH   8  12
ATOM     12  C   UNL d   1      -1.476  -0.993   0.912  0.00  0.00     0.035 C 
ATOM     13  C   UNL d   1      -2.010   0.299   1.584  0.00  0.00     0.035 C 
ATOM     14  C   UNL d   1      -3.545   0.291   1.644  0.00  0.00    -0.012 C 
ATOM     15  C   UNL d   1      -4.101   0.223   0.215  0.00  0.00     0.009 C 
ATOM     16  C   UNL d   1      -4.011  -0.940   2.440  0.00  0.00     0.009 C 
ATOM     17  C   UNL d   1      -3.614  -1.061  -0.475  0.00  0.00    -0.012 C 
ATOM     18  C   UNL d   1      -2.073  -1.061  -0.522  0.00  0.00     0.035 C 
ATOM     19  C   UNL d   1      -4.097  -2.281   0.327  0.00  0.00     0.009 C 
ATOM     20  C   UNL d   1      -3.529  -2.229   1.753  0.00  0.00    -0.012 C 
ATOM     21  C   UNL d   1      -1.992  -2.228   1.691  0.00  0.00     0.035 C 
ENDBRANCH   8  12
ENDBRANCH   3   4
TORSDOF 2
