REMARK  2 active torsions:
REMARK  status: ('A' for Active; 'I' for Inactive)
REMARK    1  A    between atoms: C_2  and  C_1 
REMARK       I    between atoms: N_3  and  C_1 
REMARK    2  A    between atoms: C_4  and  N_3 
ROOT
ATOM      1  C   UNL d   1       1.072  -0.055  -0.085  0.00  0.00     0.261 C 
ATOM      2  N   UNL d   1       0.326   0.805  -0.874  0.00  0.00    -0.321 N 
ATOM      3  O   UNL d   1       2.275  -0.246  -0.190  0.00  0.00    -0.267 OA
ATOM      4  H   UNL d   1      -0.646   0.960  -0.631  0.00  0.00     0.169 HD
ENDROOT
BRANCH   1   5
ATOM      5  C   UNL d   1       0.355  -0.838   0.949  0.00  0.00     0.092 A 
ATOM      6  C   UNL d   1      -0.857  -1.450   0.620  0.00  0.00     0.133 A 
ATOM      7  F   UNL d   1      -1.462  -1.193  -0.550  0.00  0.00    -0.205 F 
ATOM      8  C   UNL d   1      -1.462  -2.369   1.477  0.00  0.00     0.043 A 
ATOM      9  C   UNL d   1      -0.853  -2.695   2.686  0.00  0.00     0.005 A 
ATOM     10  C   UNL d   1       0.341  -2.072   3.045  0.00  0.00     0.025 A 
ATOM     11  C   UNL d   1       0.943  -1.140   2.188  0.00  0.00     0.052 A 
ATOM     12 CL   UNL d   1       2.380  -0.373   2.771  0.00  0.00    -0.083 Cl
ENDBRANCH   1   5
BRANCH   2  13
ATOM     13  C   UNL d   1       0.784   1.468  -2.047  0.00  0.00     0.058 A 
ATOM     14  C   UNL d   1       2.026   1.202  -2.632  0.00  0.00     0.055 A 
ATOM     15  C   UNL d   1       2.409   1.829  -3.819  0.00  0.00     0.036 A 
ATOM     16 CL   UNL d   1       3.935   1.460  -4.526  0.00  0.00    -0.084 Cl
ATOM     17  C   UNL d   1       1.564   2.739  -4.445  0.00  0.00     0.026 A 
ATOM     18  C   UNL d   1       0.327   3.031  -3.872  0.00  0.00     0.028 A 
ATOM     19  C   UNL d   1      -0.060   2.401  -2.683  0.00  0.00     0.060 A 
ATOM     20 CL   UNL d   1      -1.603   2.812  -2.012  0.00  0.00    -0.082 Cl
ENDBRANCH   2  13
TORSDOF 2
