REMARK  1 active torsions:
REMARK  status: ('A' for Active; 'I' for Inactive)
REMARK    1  A    between atoms: C_6  and  N_1 
ROOT
ATOM      1  N   UNL d   1      -2.042   4.694  -0.760  0.00  0.00    -0.359 N 
ATOM      2  C   UNL d   1      -1.578   2.777   0.279  0.00  0.00    -0.005 A 
ATOM      3  C   UNL d   1      -2.995   4.544   0.217  0.00  0.00     0.006 A 
ATOM      4  C   UNL d   1      -2.722   3.366   0.880  0.00  0.00     0.038 A 
ATOM      5  C   UNL d   1       0.253   1.308  -0.300  0.00  0.00     0.103 A 
ATOM      6  C   UNL d   1      -1.166   3.630  -0.745  0.00  0.00     0.042 A 
ATOM      7  C   UNL d   1      -0.858   1.590   0.512  0.00  0.00     0.049 A 
ATOM      8  C   UNL d   1      -0.055   3.365  -1.556  0.00  0.00     0.033 A 
ATOM      9  C   UNL d   1       0.653   2.182  -1.318  0.00  0.00     0.038 A 
ATOM     10  C   UNL d   1      -4.074   5.542   0.419  0.00  0.00     0.068 C 
ATOM     11  H   UNL d   1      -1.989   5.469  -1.407  0.00  0.00     0.166 HD
ENDROOT
BRANCH   5  12
ATOM     12  N   UNL d   1       1.003   0.065  -0.079  0.00  0.00    -0.116 N 
ATOM     13  O   UNL d   1       0.615  -0.693   0.823  0.00  0.00    -0.532 OA
ATOM     14  O   UNL d   1       1.981  -0.158  -0.808  0.00  0.00    -0.532 OA
ENDBRANCH   5  12
TORSDOF 1
