REMARK  3 active torsions:
REMARK  status: ('A' for Active; 'I' for Inactive)
REMARK    1  A    between atoms: C_12  and  N_1 
REMARK    2  A    between atoms: C_16  and  N_8 
REMARK    3  A    between atoms: N_10  and  C_19 
ROOT
ATOM      1  N   UNL d   1      -3.597  -3.361  -9.503  0.00  0.00    -0.355 N 
ATOM      2  C   UNL d   1      -3.203  -2.320  -8.694  0.00  0.00     0.046 A 
ATOM      3  C   UNL d   1      -3.594  -1.142  -9.329  0.00  0.00     0.003 A 
ATOM      4  C   UNL d   1      -4.215  -2.896 -10.642  0.00  0.00     0.043 A 
ATOM      5  C   UNL d   1      -4.227  -1.505 -10.560  0.00  0.00     0.003 A 
ATOM      6  C   UNL d   1      -2.527  -2.328  -7.463  0.00  0.00     0.061 A 
ATOM      7  C   UNL d   1      -3.307   0.085  -8.703  0.00  0.00     0.017 A 
ATOM      8  C   UNL d   1      -2.235  -1.099  -6.847  0.00  0.00     0.050 A 
ATOM      9  C   UNL d   1      -2.628   0.090  -7.477  0.00  0.00     0.032 A 
ATOM     10  C   UNL d   1      -4.803  -0.771 -11.618  0.00  0.00     0.014 A 
ATOM     11  C   UNL d   1      -4.756  -3.595 -11.728  0.00  0.00     0.030 A 
ATOM     12  C   UNL d   1      -5.346  -1.452 -12.713  0.00  0.00     0.001 A 
ATOM     13  C   UNL d   1      -5.322  -2.844 -12.764  0.00  0.00     0.002 A 
ATOM     14  H   UNL d   1      -3.444  -4.337  -9.297  0.00  0.00     0.166 HD
ENDROOT
BRANCH   8  15
ATOM     15  N   UNL d   1      -1.482  -1.114  -5.650  0.00  0.00    -0.300 N 
ATOM     16  N   UNL d   1      -1.836  -0.213  -4.859  0.00  0.00    -0.300 N 
ATOM     17  HN  UNL d   1      -2.635   0.400  -5.021  1.00  0.00     0.187 HD
ATOM     18  HN  UNL d   1      -0.737  -1.783  -5.455  1.00  0.00     0.187 HD
BRANCH  16  19
ATOM     19  C   UNL d   1      -1.012  -0.137  -3.717  0.00  0.00     0.048 A 
ATOM     20  C   UNL d   1      -0.788   1.129  -3.155  0.00  0.00     0.033 A 
ATOM     21  C   UNL d   1      -0.006   1.286  -2.004  0.00  0.00     0.038 A 
ATOM     22  C   UNL d   1       0.559   0.158  -1.399  0.00  0.00     0.103 A 
ATOM     23  C   UNL d   1       0.345  -1.116  -1.939  0.00  0.00     0.038 A 
ATOM     24  C   UNL d   1      -0.441  -1.256  -3.090  0.00  0.00     0.033 A 
BRANCH  22  25
ATOM     25  N   UNL d   1       1.375   0.310  -0.187  0.00  0.00    -0.116 N 
ATOM     26  O   UNL d   1       1.848  -0.716   0.321  0.00  0.00    -0.532 OA
ATOM     27  O   UNL d   1       1.539   1.456   0.257  0.00  0.00    -0.532 OA
ENDBRANCH  22  25
ENDBRANCH  16  19
ENDBRANCH   8  15
TORSDOF 3
