REMARK  4 active torsions:
REMARK  status: ('A' for Active; 'I' for Inactive)
REMARK    1  A    between atoms: C_2  and  S_1 
REMARK    2  A    between atoms: C_6  and  S_1 
REMARK    3  A    between atoms: N_9  and  C_3 
REMARK    4  A    between atoms: C_15  and  N_9 
ROOT
ATOM      1  C   UNL d   1       0.540   1.424  -1.041  0.00  0.00     0.159 C 
ATOM      2  C   UNL d   1      -0.388   1.142  -1.973  0.00  0.00     0.123 C 
ATOM      3  C   UNL d   1       1.250   0.435  -0.329  0.00  0.00     0.113 C 
ATOM      4  N   UNL d   1       1.827  -0.396   0.238  0.00  0.00    -0.191 NA
ENDROOT
BRANCH   1   5
ATOM      5  S   UNL d   1       0.788   3.087  -0.612  0.00  0.00     0.218 S 
ATOM      6  O   UNL d   1       0.040   3.377   0.598  0.00  0.00    -0.216 OA
ATOM      7  O   UNL d   1       0.607   3.927  -1.785  0.00  0.00    -0.216 OA
BRANCH   5   8
ATOM      8  C   UNL d   1       2.520   3.212  -0.186  0.00  0.00     0.065 A 
ATOM      9  C   UNL d   1       3.454   3.521  -1.182  0.00  0.00     0.025 A 
ATOM     10  C   UNL d   1       4.802   3.662  -0.841  0.00  0.00     0.025 A 
ATOM     11  C   UNL d   1       5.205   3.505   0.486  0.00  0.00     0.034 A 
ATOM     12  C   UNL d   1       4.269   3.223   1.482  0.00  0.00     0.025 A 
ATOM     13 CL   UNL d   1       6.867   3.670   0.898  0.00  0.00    -0.084 Cl
ATOM     14  C   UNL d   1       2.918   3.085   1.150  0.00  0.00     0.025 A 
ENDBRANCH   5   8
ENDBRANCH   1   5
BRANCH   2  15
ATOM     15  N   UNL d   1      -0.825  -0.085  -2.430  0.00  0.00    -0.363 N 
ATOM     16  H   UNL d   1      -0.448  -0.918  -1.981  0.00  0.00     0.165 HD
BRANCH  15  17
ATOM     17  C   UNL d   1      -1.808  -0.337  -3.407  0.00  0.00     0.047 A 
ATOM     18  C   UNL d   1      -2.506  -1.549  -3.412  0.00  0.00     0.117 A 
ATOM     19  N   UNL d   1      -3.516  -1.869  -4.260  0.00  0.00    -0.373 N 
ATOM     20  C   UNL d   1      -3.866  -0.928  -5.158  0.00  0.00     0.088 A 
ATOM     21  HN  UNL d   1      -3.985  -2.774  -4.219  1.00  0.00     0.164 HD
ATOM     22  C   UNL d   1      -3.248   0.307  -5.248  0.00  0.00     0.019 A 
ATOM     23  C   UNL d   1      -2.214   0.602  -4.357  0.00  0.00     0.032 A 
ENDBRANCH  15  17
ENDBRANCH   2  15
TORSDOF 4
