REMARK  6 active torsions:
REMARK  status: ('A' for Active; 'I' for Inactive)
REMARK    1  A    between atoms: N_7  and  C_1 
REMARK       I    between atoms: C_8  and  N_7 
REMARK    2  A    between atoms: C_12  and  C_8 
REMARK    3  A    between atoms: C_9  and  C_14 
REMARK    4  A    between atoms: O_17  and  C_9 
REMARK    5  A    between atoms: C_10  and  C_12 
REMARK    6  A    between atoms: C_14  and  C_10 
ROOT
ATOM      1  N   UNL d   1      -1.134   3.047   0.068  0.00  0.00    -0.311 N 
ATOM      2  C   UNL d   1      -2.361   3.675  -0.070  0.00  0.00     0.224 C 
ATOM      3  O   UNL d   1      -3.436   3.143  -0.329  0.00  0.00    -0.273 OA
ATOM      4  H   UNL d   1      -0.304   3.593   0.263  0.00  0.00     0.170 HD
ENDROOT
BRANCH   1   5
ATOM      5  C   UNL d   1      -0.970   1.673  -0.040  0.00  0.00     0.135 A 
ATOM      6  N   UNL d   1      -1.993   0.829  -0.185  0.00  0.00    -0.282 N 
ATOM      7  N   UNL d   1      -1.445  -0.384  -0.243  0.00  0.00    -0.294 N 
ATOM      8  HN  UNL d   1      -2.984   1.063  -0.239  1.00  0.00     0.189 HD
ATOM      9  C   UNL d   1      -2.306  -1.528  -0.423  0.00  0.00     0.178 C 
ATOM     10  C   UNL d   1      -0.082  -0.389  -0.131  0.00  0.00     0.064 A 
ATOM     11  C   UNL d   1       0.271   0.956  -0.001  0.00  0.00     0.038 A 
ATOM     12  C   UNL d   1       0.852  -1.433  -0.135  0.00  0.00     0.032 A 
ATOM     13  C   UNL d   1       1.639   1.277   0.117  0.00  0.00     0.017 A 
ATOM     14  C   UNL d   1       2.590   0.243   0.109  0.00  0.00     0.001 A 
ATOM     15  C   UNL d   1       2.199  -1.091  -0.011  0.00  0.00     0.002 A 
ENDBRANCH   1   5
BRANCH   2  16
ATOM     16  C   UNL d   1      -2.319   5.188   0.111  0.00  0.00     0.112 C 
BRANCH  16  17
ATOM     17  C   UNL d   1      -3.095   5.711   1.354  0.00  0.00    -0.030 C 
ATOM     18  C   UNL d   1      -3.042   7.254   1.341  0.00  0.00     0.016 C 
ATOM     19  C   UNL d   1      -4.590   5.321   1.290  0.00  0.00     0.016 C 
BRANCH  17  20
ATOM     20  C   UNL d   1      -2.525   5.163   2.684  0.00  0.00     0.119 C 
BRANCH  20  21
ATOM     21  C   UNL d   1      -1.087   5.542   2.947  0.00  0.00     0.140 C 
ATOM     22  O   UNL d   1      -0.150   5.178   2.245  0.00  0.00    -0.650 OA
BRANCH  21  23
ATOM     23  O   UNL d   1      -0.913   6.330   4.029  0.00  0.00    -0.776 OA
ATOM     24  H   UNL d   1      -1.732   6.540   4.518  0.00  0.00     0.167 HD
ENDBRANCH  21  23
ENDBRANCH  20  21
ENDBRANCH  17  20
ENDBRANCH  16  17
ENDBRANCH   2  16
TORSDOF 6
