REMARK  3 active torsions:
REMARK  status: ('A' for Active; 'I' for Inactive)
REMARK    1  A    between atoms: C_8  and  C_7 
REMARK    2  A    between atoms: O_11  and  C_10 
REMARK    3  A    between atoms: C_15  and  O_11 
ROOT
ATOM      1  C   UNL d   1       1.496  -3.064   0.039  0.00  0.00    -0.000 A 
ATOM      2  C   UNL d   1       0.965  -3.677  -1.105  0.00  0.00     0.079 A 
ATOM      3  C   UNL d   1       2.013  -3.879   1.070  0.00  0.00     0.014 A 
ATOM      4  C   UNL d   1       0.988  -5.078  -1.201  0.00  0.00     0.037 A 
ATOM      5  C   UNL d   1       2.013  -5.267   0.969  0.00  0.00     0.001 A 
ATOM      6  C   UNL d   1       1.498  -5.871  -0.170  0.00  0.00     0.003 A 
ENDROOT
BRANCH   1   7
ATOM      7  C   UNL d   1       1.594  -1.626   0.302  0.00  0.00     0.050 C 
ATOM      8  C   UNL d   1       2.675  -0.870   0.072  0.00  0.00     0.111 A 
ATOM      9  N   UNL d   1       2.839   0.374   0.630  0.00  0.00    -0.335 N 
ATOM     10  C   UNL d   1       3.924  -1.283  -0.633  0.00  0.00     0.316 A 
ATOM     11  C   UNL d   1       4.085   0.622   0.398  0.00  0.00     0.124 A 
ATOM     12  HN  UNL d   1       2.150   0.956   1.107  1.00  0.00     0.168 HD
ATOM     13  C   UNL d   1       4.853   1.785   0.904  0.00  0.00     0.098 C 
ATOM     14  O   UNL d   1       4.786  -0.270  -0.333  0.00  0.00    -0.261 OA
ATOM     15  O   UNL d   1       4.163  -2.257  -1.317  0.00  0.00    -0.257 OA
ENDBRANCH   1   7
BRANCH   2  16
ATOM     16  O   UNL d   1       0.439  -3.086  -2.220  0.00  0.00    -0.351 OA
BRANCH  16  17
ATOM     17  C   UNL d   1      -0.204  -1.825  -2.079  0.00  0.00     0.171 C 
ATOM     18  C   UNL d   1      -1.220  -1.697  -3.202  0.00  0.00     0.034 C 
ENDBRANCH  16  17
ENDBRANCH   2  16
TORSDOF 3
