REMARK  1 active torsions:
REMARK  status: ('A' for Active; 'I' for Inactive)
REMARK    1  A    between atoms: C_4  and  N_2 
ROOT
ATOM      1  C   UNL d   1       3.046   1.305   0.023  0.00  0.00     0.037 A 
ATOM      2  C   UNL d   1       3.911   1.767  -0.976  0.00  0.00     0.053 A 
ATOM      3  C   UNL d   1       2.924   2.048   1.202  0.00  0.00     0.053 A 
ATOM      4  C   UNL d   1       3.679   3.206   1.389  0.00  0.00     0.037 A 
ATOM      5  C   UNL d   1       4.679   2.912  -0.770  0.00  0.00     0.037 A 
ATOM      6  C   UNL d   1       4.569   3.638   0.410  0.00  0.00     0.048 A 
ATOM      7 CL   UNL d   1       3.501   4.117   2.837  0.00  0.00    -0.084 Cl
ATOM      8 CL   UNL d   1       5.774   3.430  -1.993  0.00  0.00    -0.084 Cl
ENDROOT
BRANCH   1   9
ATOM      9  N   UNL d   1       2.217   0.185  -0.141  0.00  0.00    -0.337 N 
ATOM     10  C   UNL d   1       2.659  -0.919  -0.630  0.00  0.00     0.140 C 
ATOM     11  N   UNL d   1       3.911  -1.304  -1.023  0.00  0.00    -0.370 N 
ATOM     12  S   UNL d   1       1.513  -2.241  -0.856  0.00  0.00    -0.093 SA
ATOM     13  C   UNL d   1       4.067  -2.717  -1.311  0.00  0.00     0.132 C 
ATOM     14  H   UNL d   1       4.683  -0.834  -0.567  0.00  0.00     0.161 HD
ATOM     15  C   UNL d   1       2.716  -3.208  -1.815  0.00  0.00     0.102 C 
ATOM     16  HN  UNL d   1       1.238   0.249   0.135  1.00  0.00     0.168 HD
ENDBRANCH   1   9
TORSDOF 1
