REMARK  6 active torsions:
REMARK  status: ('A' for Active; 'I' for Inactive)
REMARK    1  A    between atoms: C_4  and  C_1 
REMARK    2  A    between atoms: N_2  and  C_6 
REMARK    3  A    between atoms: C_9  and  N_3 
REMARK    4  A    between atoms: C_5  and  C_9 
REMARK    5  A    between atoms: C_12  and  C_5 
REMARK    6  A    between atoms: C_10  and  C_13 
ROOT
ATOM      1  N   UNL d   1      -0.668  -3.441  -4.173  0.00  0.00    -0.364 N 
ATOM      2  N   UNL d   1      -0.054  -5.736  -5.924  0.00  0.00     0.103 N 
ATOM      3  C   UNL d   1      -1.289  -4.751  -3.930  0.00  0.00     0.154 C 
ATOM      4  C   UNL d   1       0.726  -4.472  -5.976  0.00  0.00     0.293 C 
ATOM      5  C   UNL d   1      -0.029  -3.219  -5.480  0.00  0.00     0.154 C 
ATOM      6  C   UNL d   1      -0.459  -5.914  -4.508  0.00  0.00     0.293 C 
ENDROOT
BRANCH   2   7
ATOM      7  C   UNL d   1      -1.203  -5.718  -6.872  0.00  0.00     0.293 C 
ATOM      8  C   UNL d   1      -2.085  -6.972  -6.830  0.00  0.00     0.051 C 
BRANCH   7   9
ATOM      9  C   UNL d   1      -0.732  -5.497  -8.328  0.00  0.00     0.192 C 
ATOM     10  O   UNL d   1      -1.072  -4.490  -8.954  0.00  0.00    -0.290 OA
BRANCH   9  11
ATOM     11  C   UNL d   1       0.107  -6.514  -9.020  0.00  0.00     0.012 A 
ATOM     12  C   UNL d   1      -0.061  -6.699 -10.396  0.00  0.00     0.016 A 
ATOM     13  C   UNL d   1       0.668  -7.690 -11.070  0.00  0.00     0.013 A 
ATOM     14  C   UNL d   1       1.601  -8.502 -10.397  0.00  0.00    -0.023 A 
ATOM     15  C   UNL d   1       1.802  -8.242  -9.034  0.00  0.00     0.013 A 
ATOM     16  C   UNL d   1       1.058  -7.280  -8.350  0.00  0.00     0.016 A 
BRANCH  14  17
ATOM     17  C   UNL d   1       2.328  -9.600 -11.076  0.00  0.00     0.013 A 
ATOM     18  C   UNL d   1       2.649 -10.801 -10.411  0.00  0.00     0.127 A 
ATOM     19  F   UNL d   1       2.286 -10.993  -9.131  0.00  0.00    -0.205 F 
ATOM     20  C   UNL d   1       3.330 -11.842 -11.036  0.00  0.00     0.043 A 
ATOM     21  C   UNL d   1       3.702 -11.720 -12.369  0.00  0.00     0.003 A 
ATOM     22  C   UNL d   1       3.398 -10.552 -13.063  0.00  0.00     0.001 A 
ATOM     23  C   UNL d   1       2.725  -9.503 -12.422  0.00  0.00     0.015 A 
ENDBRANCH  14  17
ENDBRANCH   9  11
ENDBRANCH   7   9
ENDBRANCH   2   7
BRANCH   1  24
ATOM     24  C   UNL d   1      -0.187  -2.732  -3.085  0.00  0.00     0.103 A 
ATOM     25  C   UNL d   1      -0.052  -1.345  -3.168  0.00  0.00     0.049 A 
ATOM     26  C   UNL d   1       0.370  -0.614  -2.060  0.00  0.00     0.021 A 
ATOM     27  C   UNL d   1       0.656  -1.278  -0.871  0.00  0.00     0.063 A 
ATOM     28  C   UNL d   1       0.506  -2.653  -0.865  0.00  0.00     0.106 A 
ATOM     29  N   UNL d   1       0.088  -3.378  -1.933  0.00  0.00    -0.352 N 
ATOM     30  HN  UNL d   1      -0.016  -4.391  -1.866  1.00  0.00     0.166 HD
BRANCH  27  31
ATOM     31  C   UNL d   1       1.089  -0.537   0.353  0.00  0.00     0.418 C 
ATOM     32  F   UNL d   1       1.320  -1.341   1.428  0.00  0.00    -0.166 F 
ATOM     33  F   UNL d   1       0.163   0.374   0.763  0.00  0.00    -0.166 F 
ATOM     34  F   UNL d   1       2.239   0.165   0.158  0.00  0.00    -0.166 F 
ENDBRANCH  27  31
ENDBRANCH   1  24
TORSDOF 6
