REMARK  6 active torsions:
REMARK  status: ('A' for Active; 'I' for Inactive)
REMARK    1  A    between atoms: O_6  and  C_1 
REMARK    2  A    between atoms: N_4  and  C_2 
REMARK    3  A    between atoms: N_5  and  C_3 
REMARK    4  A    between atoms: C_9  and  O_6 
REMARK    5  A    between atoms: C_7  and  C_8 
REMARK    6  A    between atoms: C_12  and  C_9 
ROOT
ATOM      1  C   UNL d   1       1.156  -0.229  -0.015  0.00  0.00     0.145 A 
ATOM      2  C   UNL d   1       0.092  -1.136   0.050  0.00  0.00     0.140 A 
ATOM      3  C   UNL d   1       0.875   1.143   0.097  0.00  0.00     0.140 A 
ATOM      4  C   UNL d   1      -1.522   0.680   0.222  0.00  0.00     0.052 A 
ATOM      5  C   UNL d   1      -1.237  -0.693   0.183  0.00  0.00     0.055 A 
ATOM      6  C   UNL d   1      -0.455   1.594   0.210  0.00  0.00     0.055 A 
ENDROOT
BRANCH   1   7
ATOM      7  O   UNL d   1       2.444  -0.606  -0.449  0.00  0.00    -0.270 OA
BRANCH   7   8
ATOM      8  C   UNL d   1       3.228  -1.556   0.193  0.00  0.00     0.298 C 
ATOM      9  O   UNL d   1       2.936  -2.155   1.208  0.00  0.00    -0.259 OA
BRANCH   8  10
ATOM     10  C   UNL d   1       4.429  -1.774  -0.664  0.00  0.00     0.041 A 
ATOM     11  C   UNL d   1       4.853  -0.792  -1.574  0.00  0.00     0.043 A 
ATOM     12  C   UNL d   1       5.924  -1.036  -2.436  0.00  0.00     0.056 A 
ATOM     13 CL   UNL d   1       6.346   0.213  -3.552  0.00  0.00    -0.083 Cl
ATOM     14  C   UNL d   1       6.595  -2.260  -2.383  0.00  0.00     0.055 A 
ATOM     15  C   UNL d   1       6.195  -3.231  -1.457  0.00  0.00     0.026 A 
ATOM     16 CL   UNL d   1       7.912  -2.635  -3.435  0.00  0.00    -0.083 Cl
ATOM     17  C   UNL d   1       5.115  -2.991  -0.597  0.00  0.00     0.019 A 
ENDBRANCH   8  10
ENDBRANCH   7   8
ENDBRANCH   1   7
BRANCH   2  18
ATOM     18  N   UNL d   1       0.287  -2.558  -0.183  0.00  0.00    -0.113 N 
ATOM     19  O   UNL d   1       0.899  -2.882  -1.209  0.00  0.00    -0.532 OA
ATOM     20  O   UNL d   1      -0.241  -3.336   0.622  0.00  0.00    -0.532 OA
ENDBRANCH   2  18
BRANCH   3  21
ATOM     21  N   UNL d   1       1.943   2.150   0.037  0.00  0.00    -0.113 N 
ATOM     22  O   UNL d   1       3.094   1.803   0.333  0.00  0.00    -0.532 OA
ATOM     23  O   UNL d   1       1.618   3.299  -0.289  0.00  0.00    -0.532 OA
ENDBRANCH   3  21
BRANCH   4  24
ATOM     24  C   UNL d   1      -2.949   1.185   0.153  0.00  0.00     0.417 C 
ATOM     25  F   UNL d   1      -3.873   0.215   0.375  0.00  0.00    -0.166 F 
ATOM     26  F   UNL d   1      -3.200   2.171   1.052  0.00  0.00    -0.166 F 
ATOM     27  F   UNL d   1      -3.232   1.704  -1.072  0.00  0.00    -0.166 F 
ENDBRANCH   4  24
TORSDOF 6
