REMARK  3 active torsions:
REMARK  status: ('A' for Active; 'I' for Inactive)
REMARK    1  A    between atoms: C_3  and  C_1 
REMARK    2  A    between atoms: C_10  and  CA_7 
REMARK    3  A    between atoms: OXT_17  and  C_10 
ROOT
ATOM      1  C   UNL d   1       1.697   1.606  -0.027  0.00  0.00     0.138 A 
ATOM      2  N   UNL d   1       2.175   0.317  -0.100  0.00  0.00    -0.307 N 
ATOM      3  N   UNL d   1       0.437   1.892  -0.082  0.00  0.00    -0.340 N 
ATOM      4  HN  UNL d   1       0.119   2.861  -0.109  1.00  0.00     0.167 HD
ATOM      5  C   UNL d   1       1.363  -0.787  -0.152  0.00  0.00     0.259 A 
ATOM      6  C   UNL d   1      -0.085  -0.509  -0.122  0.00  0.00     0.059 A 
ATOM      7  C   UNL d   1      -0.481   0.831  -0.104  0.00  0.00     0.049 A 
ATOM      8  O   UNL d   1       1.810  -1.926  -0.213  0.00  0.00    -0.267 OA
ATOM      9  C   UNL d   1      -1.024  -1.544  -0.098  0.00  0.00     0.019 A 
ATOM     10  C   UNL d   1      -1.845   1.127  -0.064  0.00  0.00     0.030 A 
ATOM     11  C   UNL d   1      -2.383  -1.233  -0.053  0.00  0.00     0.001 A 
ATOM     12  C   UNL d   1      -2.793   0.102  -0.038  0.00  0.00     0.002 A 
ATOM     13  H   UNL d   1       3.173   0.153  -0.135  0.00  0.00     0.170 HD
ENDROOT
BRANCH   1  14
ATOM     14  C   UNL d   1       2.723   2.666   0.072  0.00  0.00     0.110 A 
ATOM     15  CA  UNL d   1       2.501   3.862   0.740  0.00  0.00     0.137 A 
ATOM     16  N   UNL d   1       3.370   4.924   0.651  0.00  0.00    -0.357 N 
ATOM     17  C   UNL d   1       4.492   4.688  -0.071  0.00  0.00     0.105 A 
ATOM     18  HN  UNL d   1       3.184   5.823   1.095  1.00  0.00     0.165 HD
ATOM     19  C   UNL d   1       4.740   3.470  -0.690  0.00  0.00     0.105 A 
ATOM     20  N   UNL d   1       3.868   2.435  -0.640  0.00  0.00    -0.360 N 
ATOM     21  HN  UNL d   1       4.053   1.544  -1.102  1.00  0.00     0.165 HD
BRANCH  15  22
ATOM     22  C   UNL d   1       1.391   4.060   1.710  0.00  0.00     0.196 C 
ATOM     23  O   UNL d   1       0.867   3.192   2.381  0.00  0.00    -0.645 OA
BRANCH  22  24
ATOM     24  OXT UNL d   1       1.113   5.384   1.844  0.00  0.00    -0.772 OA
ATOM     25  HXT UNL d   1       1.764   5.919   1.336  0.00  0.00     0.167 HD
ENDBRANCH  22  24
ENDBRANCH  15  22
ENDBRANCH   1  14
TORSDOF 3
