REMARK  3 active torsions:
REMARK  status: ('A' for Active; 'I' for Inactive)
REMARK    1  A    between atoms: N_12  and  C_5 
REMARK    2  A    between atoms: C_19  and  N_12 
REMARK    3  A    between atoms: C_14  and  C_19 
ROOT
ATOM      1  C   UNL d   1       0.218   0.787   0.396  0.00  0.00     0.116 A 
ATOM      2  C   UNL d   1       0.138  -0.595   0.396  0.00  0.00     0.137 A 
ATOM      3  N   UNL d   1       1.452   1.201   0.863  0.00  0.00    -0.347 N 
ATOM      4  HN  UNL d   1       1.784   2.159   0.978  1.00  0.00     0.167 HD
ATOM      5  C   UNL d   1      -0.916   1.493  -0.049  0.00  0.00     0.112 A 
ATOM      6  N   UNL d   1       1.349  -1.022   0.855  0.00  0.00    -0.337 N 
ATOM      7  N   UNL d   1      -0.899  -1.357   0.024  0.00  0.00    -0.337 N 
ATOM      8  HN  UNL d   1      -0.907  -2.377   0.041  1.00  0.00     0.168 HD
ATOM      9  N   UNL d   1      -2.002   0.764  -0.427  0.00  0.00    -0.341 N 
ATOM     10  HN  UNL d   1      -2.853   1.228  -0.743  1.00  0.00     0.167 HD
ATOM     11  C   UNL d   1       2.104   0.087   1.125  0.00  0.00     0.182 A 
ATOM     12  C   UNL d   1      -1.931  -0.586  -0.376  0.00  0.00     0.183 A 
ATOM     13  H   UNL d   1       1.623  -1.986   0.968  0.00  0.00     0.168 HD
ENDROOT
BRANCH   5  14
ATOM     14  N   UNL d   1      -0.923   2.888  -0.127  0.00  0.00    -0.271 NA
ATOM     15  H   UNL d   1      -0.159   3.269   0.427  0.00  0.00     0.129 HD
BRANCH  14  16
ATOM     16  C   UNL d   1      -2.210   3.516   0.128  0.00  0.00     0.159 C 
BRANCH  16  17
ATOM     17  C   UNL d   1      -2.150   5.007   0.062  0.00  0.00     0.065 A 
ATOM     18  O   UNL d   1      -2.529   5.696   1.178  0.00  0.00    -0.326 OA
ATOM     19  C   UNL d   1      -2.392   7.017   0.893  0.00  0.00     0.142 A 
ATOM     20  C   UNL d   1      -1.928   7.189  -0.389  0.00  0.00     0.027 A 
ATOM     21  C   UNL d   1      -1.770   5.891  -0.928  0.00  0.00     0.036 A 
ENDBRANCH  16  17
ENDBRANCH  14  16
ENDBRANCH   5  14
TORSDOF 3
