REMARK  5 active torsions:
REMARK  status: ('A' for Active; 'I' for Inactive)
REMARK    1  A    between atoms: C_4  and  C_1 
REMARK    2  A    between atoms: C_5  and  C_1 
REMARK    3  A    between atoms: C_3  and  C_2 
REMARK       I    between atoms: N_6  and  C_4 
REMARK    4  A    between atoms: N_7  and  C_5 
REMARK    5  A    between atoms: C_12  and  N_6 
ROOT
ATOM      1  C   UNL d   1       1.004   0.062  -0.078  0.00  0.00     0.095 C 
ATOM      2  C   UNL d   1       0.331   0.926   0.709  0.00  0.00     0.043 C 
ENDROOT
BRANCH   1   3
ATOM      3  C   UNL d   1       0.229  -0.836  -0.993  0.00  0.00     0.265 C 
ATOM      4  N   UNL d   1       0.977  -1.765  -1.694  0.00  0.00    -0.322 N 
ATOM      5  H   UNL d   1       1.958  -1.877  -1.461  0.00  0.00     0.169 HD
ATOM      6  O   UNL d   1      -0.992  -0.714  -1.064  0.00  0.00    -0.267 OA
BRANCH   4   7
ATOM      7  C   UNL d   1       0.515  -2.603  -2.738  0.00  0.00     0.036 A 
ATOM      8  C   UNL d   1      -0.762  -2.517  -3.303  0.00  0.00     0.056 A 
ATOM      9  C   UNL d   1      -1.120  -3.344  -4.372  0.00  0.00     0.074 A 
ATOM     10 CL   UNL d   1      -2.689  -3.197  -5.069  0.00  0.00    -0.081 Cl
ATOM     11  C   UNL d   1      -0.208  -4.265  -4.876  0.00  0.00     0.138 A 
ATOM     12  C   UNL d   1       1.060  -4.372  -4.319  0.00  0.00     0.046 A 
ATOM     13  F   UNL d   1      -0.529  -5.059  -5.907  0.00  0.00    -0.204 F 
ATOM     14  C   UNL d   1       1.423  -3.541  -3.255  0.00  0.00     0.032 A 
ENDBRANCH   4   7
ENDBRANCH   1   3
BRANCH   1  15
ATOM     15  C   UNL d   1       2.524   0.062  -0.078  0.00  0.00    -0.031 C 
BRANCH  15  16
ATOM     16  N   UNL d   1       3.785   0.062  -0.078  0.00  0.00    -0.365 N 
ATOM     17  HN2 UNL d   1       2.765   0.062  -0.078  1.00  0.00     0.165 HD
ATOM     18  HN1 UNL d   1       4.805   0.062  -0.078  1.00  0.00     0.165 HD
ENDBRANCH  15  16
ENDBRANCH   1  15
BRANCH   2  19
ATOM     19  C   UNL d   1       1.000   1.878   1.611  0.00  0.00     0.026 A 
ATOM     20  C   UNL d   1       1.410   3.121   1.113  0.00  0.00     0.128 A 
ATOM     21  F   UNL d   1       1.142   3.454  -0.158  0.00  0.00    -0.205 F 
ATOM     22  C   UNL d   1       2.124   4.022   1.899  0.00  0.00     0.043 A 
ATOM     23  C   UNL d   1       2.442   3.690   3.213  0.00  0.00     0.005 A 
ATOM     24  C   UNL d   1       2.035   2.461   3.735  0.00  0.00     0.025 A 
ATOM     25  C   UNL d   1       1.318   1.559   2.941  0.00  0.00     0.047 A 
ATOM     26 CL   UNL d   1       0.869   0.043   3.639  0.00  0.00    -0.083 Cl
ENDBRANCH   2  19
TORSDOF 5
