REMARK  3 active torsions:
REMARK  status: ('A' for Active; 'I' for Inactive)
REMARK       I    between atoms: N_5  and  C_1 
REMARK       I    between atoms: N_7  and  C_1 
REMARK    1  A    between atoms: C_4  and  C_10 
REMARK    2  A    between atoms: C_11  and  N_7 
REMARK    3  A    between atoms: C_9  and  N_8 
ROOT
ATOM      1  C   UNL d   1       0.955  -0.025   0.029  0.00  0.00     0.323 C 
ATOM      2  N   UNL d   1       0.421  -1.114   0.709  0.00  0.00    -0.331 N 
ATOM      3  N   UNL d   1       0.587   0.078  -1.293  0.00  0.00    -0.308 N 
ATOM      4  N   UNL d   1      -0.505  -3.299   2.300  0.00  0.00    -0.377 N 
ATOM      5  O   UNL d   1       1.740   0.735   0.594  0.00  0.00    -0.247 OA
ATOM      6  C   UNL d   1       0.837  -1.268   2.116  0.00  0.00     0.147 C 
ATOM      7  C   UNL d   1      -0.831  -1.821   0.367  0.00  0.00     0.147 C 
ATOM      8  C   UNL d   1       0.837  -2.739   2.566  0.00  0.00     0.143 C 
ATOM      9  C   UNL d   1      -0.835  -3.284   0.866  0.00  0.00     0.143 C 
ATOM     10  H   UNL d   1       0.166  -0.745  -1.681  0.00  0.00     0.170 HD
ENDROOT
BRANCH   4  11
ATOM     11  C   UNL d   1      -0.931  -4.356   3.111  0.00  0.00     0.043 A 
ATOM     12  C   UNL d   1      -1.210  -4.144   4.503  0.00  0.00     0.017 A 
ATOM     13  C   UNL d   1      -1.671  -5.207   5.311  0.00  0.00     0.045 A 
ATOM     14  C   UNL d   1      -1.097  -2.894   5.144  0.00  0.00     0.018 A 
ATOM     15  N   UNL d   1      -1.941  -5.074   6.624  0.00  0.00    -0.352 N 
ATOM     16  C   UNL d   1      -1.877  -6.444   4.728  0.00  0.00     0.030 A 
ATOM     17  C   UNL d   1      -1.787  -3.857   7.219  0.00  0.00     0.117 A 
ATOM     18  HN  UNL d   1      -2.258  -5.876   7.168  1.00  0.00     0.166 HD
ATOM     19  C   UNL d   1      -1.366  -2.747   6.501  0.00  0.00     0.035 A 
ATOM     20  C   UNL d   1      -1.629  -6.671   3.379  0.00  0.00     0.005 A 
ATOM     21  C   UNL d   1      -1.151  -5.635   2.582  0.00  0.00     0.030 A 
BRANCH  17  22
ATOM     22  C   UNL d   1      -2.083  -3.695   8.700  0.00  0.00     0.432 C 
ATOM     23  F   UNL d   1      -2.617  -4.796   9.298  0.00  0.00    -0.165 F 
ATOM     24  F   UNL d   1      -0.969  -3.381   9.424  0.00  0.00    -0.165 F 
ATOM     25  F   UNL d   1      -2.968  -2.679   8.945  0.00  0.00    -0.165 F 
ENDBRANCH  17  22
ENDBRANCH   4  11
BRANCH   3  26
ATOM     26  C   UNL d   1       1.066   1.022  -2.239  0.00  0.00     0.045 A 
ATOM     27  C   UNL d   1       1.811   2.144  -1.854  0.00  0.00     0.072 A 
ATOM     28  C   UNL d   1       2.392   2.972  -2.807  0.00  0.00     0.118 A 
ATOM     29  F   UNL d   1       3.127   4.020  -2.412  0.00  0.00    -0.206 F 
ATOM     30  C   UNL d   1       2.239   2.722  -4.160  0.00  0.00     0.043 A 
ATOM     31  C   UNL d   1       1.447   1.651  -4.563  0.00  0.00     0.012 A 
ATOM     32  C   UNL d   1       0.825   0.811  -3.617  0.00  0.00    -0.035 A 
ATOM     33  C   UNL d   1      -0.031  -0.302  -4.164  0.00  0.00     0.050 C 
ENDBRANCH   3  26
TORSDOF 3
