REMARK  7 active torsions:
REMARK  status: ('A' for Active; 'I' for Inactive)
REMARK    1  A    between atoms: C_2  and  CA_1 
REMARK    2  A    between atoms: N_3  and  CA_1 
REMARK    3  A    between atoms: CB_4  and  CA_1 
REMARK    4  A    between atoms: OXT_6  and  C_2 
REMARK       I    between atoms: C_15  and  N_3 
REMARK    5  A    between atoms: CG_7  and  CB_4 
REMARK    6  A    between atoms: CA_18  and  C_15 
REMARK    7  A    between atoms: N_17  and  CA_18 
ROOT
ATOM      1  CA  PHE d   2       0.972  -0.094  -0.217  0.00  0.00     0.186 C 
ENDROOT
BRANCH   1   2
ATOM      2  C   PHE d   2       0.574  -0.048  -1.694  0.00  0.00     0.163 C 
ATOM      3  O   PHE d   2       1.302  -0.352  -2.627  0.00  0.00    -0.648 OA
BRANCH   2   4
ATOM      4  OXT PHE d   2      -0.719   0.336  -1.878  0.00  0.00    -0.775 OA
ATOM      5  HXT PHE d   2      -1.217   0.390  -1.025  0.00  0.00     0.167 HD
ENDBRANCH   2   4
ENDBRANCH   1   2
BRANCH   1   6
ATOM      6  N   PHE d   2       0.397  -1.287   0.390  0.00  0.00    -0.345 N 
ATOM      7  C   GLY d   1      -0.908  -1.347   0.794  0.00  0.00     0.246 C 
ATOM      8  O   GLY d   1      -1.690  -0.421   0.576  0.00  0.00    -0.272 OA
ATOM      9  H   PHE d   2       0.927  -2.157   0.448  0.00  0.00     0.163 HD
BRANCH   7  10
ATOM     10  CA  GLY d   1      -1.307  -2.665   1.467  0.00  0.00     0.368 C 
BRANCH  10  11
ATOM     11  N   GLY d   1      -0.112  -3.425   1.887  0.00  0.00     0.087 N 
ATOM     12  H1  GLY d   1      -0.422  -4.275   2.360  0.00  0.00     0.313 HD
ATOM     13  H2  GLY d   1       0.378  -2.881   2.603  0.00  0.00     0.313 HD
ENDBRANCH  10  11
ENDBRANCH   7  10
ENDBRANCH   1   6
BRANCH   1  14
ATOM     14  CB  PHE d   2       2.494  -0.030  -0.051  0.00  0.00     0.074 C 
BRANCH  14  15
ATOM     15  CG  PHE d   2       2.926  -0.062   1.401  0.00  0.00    -0.056 A 
ATOM     16  CD1 PHE d   2       3.751  -1.092   1.870  0.00  0.00     0.007 A 
ATOM     17  CE1 PHE d   2       4.119  -1.149   3.214  0.00  0.00     0.001 A 
ATOM     18  CZ  PHE d   2       3.668  -0.178   4.104  0.00  0.00     0.000 A 
ATOM     19  CE2 PHE d   2       2.858   0.860   3.649  0.00  0.00     0.001 A 
ATOM     20  CD2 PHE d   2       2.496   0.924   2.303  0.00  0.00     0.007 A 
ENDBRANCH  14  15
ENDBRANCH   1  14
TORSDOF 7
