REMARK  17 active torsions:
REMARK  status: ('A' for Active; 'I' for Inactive)
REMARK    1  A    between atoms: O_4  and  C_1 
REMARK       I    between atoms: N_7  and  C_1 
REMARK    2  A    between atoms: C_2  and  O_15 
REMARK       I    between atoms: N_8  and  C_2 
REMARK    3  A    between atoms: C_9  and  N_3 
REMARK    4  A    between atoms: C_14  and  O_4 
REMARK    5  A    between atoms: C_17  and  N_7 
REMARK    6  A    between atoms: C_18  and  N_8 
REMARK    7  A    between atoms: C_16  and  C_9 
REMARK    8  A    between atoms: O_15  and  C_19 
REMARK    9  A    between atoms: C_22  and  C_17 
REMARK   10  A    between atoms: C_23  and  C_18 
REMARK   11  A    between atoms: C_19  and  C_24 
REMARK   12  A    between atoms: C_28  and  C_22 
REMARK   13  A    between atoms: C_27  and  C_23 
REMARK   14  A    between atoms: C_24  and  C_29 
REMARK   15  A    between atoms: C_25  and  C_26 
REMARK   16  A    between atoms: C_26  and  C_27 
REMARK   17  A    between atoms: C_29  and  C_28 
ROOT
ATOM      1  C   UNL d   1       2.068  -1.668  -0.321  0.00  0.00     0.360 C 
ATOM      2  O   UNL d   1       1.252  -2.496   0.075  0.00  0.00    -0.239 OA
ATOM      3  N   UNL d   1       2.758  -0.887   0.620  0.00  0.00    -0.337 N 
ATOM      4  H   UNL d   1       2.333  -1.100   1.517  0.00  0.00     0.164 HD
ENDROOT
BRANCH   3   5
ATOM      5  C   UNL d   1       3.553   0.374   0.696  0.00  0.00     0.125 C 
BRANCH   5   6
ATOM      6  C   UNL d   1       5.069   0.398   0.441  0.00  0.00     0.020 C 
BRANCH   6   7
ATOM      7  C   UNL d   1       5.635   1.779   0.897  0.00  0.00     0.002 C 
BRANCH   7   8
ATOM      8  C   UNL d   1       7.088   1.933   0.486  0.00  0.00     0.002 C 
BRANCH   8   9
ATOM      9  C   UNL d   1       7.701   3.271   0.879  0.00  0.00     0.027 C 
BRANCH   9  10
ATOM     10  C   UNL d   1       9.140   3.285   0.409  0.00  0.00     0.180 C 
BRANCH  10  11
ATOM     11  O   UNL d   1       9.716   4.520   0.801  0.00  0.00    -0.304 OA
BRANCH  11  12
ATOM     12  C   UNL d   1      10.232   4.536   2.049  0.00  0.00     0.360 C 
ATOM     13  O   UNL d   1      10.279   3.610   2.798  0.00  0.00    -0.239 OA
ATOM     14  N   UNL d   1      10.972   5.671   2.189  0.00  0.00    -0.337 N 
ATOM     15  H   UNL d   1      11.845   5.590   2.700  0.00  0.00     0.164 HD
BRANCH  14  16
ATOM     16  C   UNL d   1      10.294   6.952   2.148  0.00  0.00     0.125 C 
BRANCH  16  17
ATOM     17  C   UNL d   1       9.662   7.368   3.479  0.00  0.00     0.020 C 
BRANCH  17  18
ATOM     18  C   UNL d   1      10.689   7.536   4.601  0.00  0.00     0.002 C 
BRANCH  18  19
ATOM     19  C   UNL d   1      10.027   7.997   5.903  0.00  0.00    -0.000 C 
BRANCH  19  20
ATOM     20  C   UNL d   1      11.053   8.153   7.025  0.00  0.00    -0.005 C 
ATOM     21  C   UNL d   1      10.387   8.611   8.313  0.00  0.00     0.005 C 
ENDBRANCH  19  20
ENDBRANCH  18  19
ENDBRANCH  17  18
ENDBRANCH  16  17
ENDBRANCH  14  16
ENDBRANCH  11  12
ENDBRANCH  10  11
ENDBRANCH   9  10
ENDBRANCH   8   9
ENDBRANCH   7   8
ENDBRANCH   6   7
ENDBRANCH   5   6
ENDBRANCH   3   5
BRANCH   1  22
ATOM     22  O   UNL d   1       2.360  -1.544  -1.642  0.00  0.00    -0.299 OA
BRANCH  22  23
ATOM     23  C   UNL d   1       1.857  -2.323  -2.859  0.00  0.00     0.137 C 
ATOM     24  C   UNL d   1       1.896  -3.869  -3.108  0.00  0.00     0.063 C 
ATOM     25  C   UNL d   1       3.246  -4.562  -2.821  0.00  0.00     0.275 C 
ATOM     26  N   UNL d   1       4.395  -3.900  -3.493  0.00  0.00     0.092 N 
ATOM     27  C   UNL d   1       4.259  -2.437  -3.262  0.00  0.00     0.275 C 
ATOM     28  C   UNL d   1       2.931  -1.886  -3.855  0.00  0.00     0.063 C 
BRANCH  26  29
ATOM     29  C   UNL d   1       5.706  -4.354  -2.922  0.00  0.00     0.311 C 
BRANCH  29  30
ATOM     30  C   UNL d   1       6.163  -5.794  -3.159  0.00  0.00    -0.030 A 
ATOM     31  C   UNL d   1       5.773  -6.557  -4.265  0.00  0.00     0.009 A 
ATOM     32  C   UNL d   1       6.207  -7.877  -4.427  0.00  0.00     0.001 A 
ATOM     33  C   UNL d   1       7.123  -8.445  -3.533  0.00  0.00     0.000 A 
ATOM     34  C   UNL d   1       7.589  -7.670  -2.473  0.00  0.00     0.001 A 
ATOM     35  C   UNL d   1       7.109  -6.375  -2.278  0.00  0.00     0.009 A 
ENDBRANCH  29  30
ENDBRANCH  26  29
ENDBRANCH  22  23
ENDBRANCH   1  22
TORSDOF 17
