REMARK  2 active torsions:
REMARK  status: ('A' for Active; 'I' for Inactive)
REMARK    1  A    between atoms: C_4  and  C_2 
REMARK    2  A    between atoms: O_19  and  C_8 
ROOT
ATOM      1  N   UNL d   1      -0.876  -0.535   0.066  0.00  0.00    -0.322 N 
ATOM      2  C   UNL d   1      -1.112   1.935  -0.135  0.00  0.00     0.168 C 
ATOM      3  C   UNL d   1      -1.701   0.566  -0.014  0.00  0.00     0.044 A 
ATOM      4  N   UNL d   1       0.354   1.996  -0.134  0.00  0.00    -0.374 N 
ATOM      5  C   UNL d   1       1.101   0.836   0.109  0.00  0.00     0.057 A 
ATOM      6  C   UNL d   1       0.532  -0.446   0.110  0.00  0.00     0.065 A 
ATOM      7  C   UNL d   1      -1.669  -1.661   0.117  0.00  0.00     0.097 A 
ATOM      8  C   UNL d   1      -3.013   0.133   0.053  0.00  0.00     0.029 A 
ATOM      9  C   UNL d   1       1.338  -1.589   0.159  0.00  0.00     0.033 A 
ATOM     10  C   UNL d   1      -2.991  -1.275   0.121  0.00  0.00     0.020 A 
ATOM     11  C   UNL d   1       2.499   0.944   0.124  0.00  0.00     0.038 A 
ATOM     12  C   UNL d   1       2.728  -1.458   0.170  0.00  0.00     0.009 A 
ATOM     13  C   UNL d   1       3.319  -0.193   0.146  0.00  0.00    -0.060 A 
ATOM     14  C   UNL d   1       4.811  -0.037   0.093  0.00  0.00     0.048 C 
ATOM     15  H   UNL d   1       0.722   2.818   0.341  0.00  0.00     0.160 HD
ENDROOT
BRANCH   2  16
ATOM     16  C   UNL d   1      -1.636   2.650  -1.385  0.00  0.00     0.007 A 
ATOM     17  C   UNL d   1      -1.022   2.568  -2.652  0.00  0.00     0.096 A 
ATOM     18  C   UNL d   1      -1.618   3.144  -3.784  0.00  0.00     0.069 A 
ATOM     19 CL   UNL d   1      -0.878   3.044  -5.342  0.00  0.00    -0.081 Cl
ATOM     20  C   UNL d   1      -2.832   3.818  -3.674  0.00  0.00     0.050 A 
ATOM     21  C   UNL d   1      -3.442   3.920  -2.430  0.00  0.00     0.036 A 
ATOM     22  C   UNL d   1      -2.857   3.350  -1.297  0.00  0.00     0.036 A 
ATOM     23 CL   UNL d   1      -4.948   4.739  -2.286  0.00  0.00    -0.084 Cl
BRANCH  17  24
ATOM     24  O   UNL d   1       0.178   1.932  -2.823  0.00  0.00    -0.358 OA
ATOM     25  H   UNL d   1       0.560   1.786  -1.932  0.00  0.00     0.217 HD
ENDBRANCH  17  24
ENDBRANCH   2  16
TORSDOF 2
