REMARK  5 active torsions:
REMARK  status: ('A' for Active; 'I' for Inactive)
REMARK       I    between atoms: N_2  and  C_1 
REMARK       I    between atoms: N_6  and  C_1 
REMARK    1  A    between atoms: C_5  and  N_4 
REMARK    2  A    between atoms: C_8  and  N_6 
REMARK    3  A    between atoms: C_29  and  C_25 
REMARK    4  A    between atoms: C_30  and  C_29 
REMARK    5  A    between atoms: C_31  and  C_30 
ROOT
ATOM      1  C   UNL d   1       0.998   0.121  -0.105  0.00  0.00     0.323 C 
ATOM      2  N   UNL d   1       0.454   1.043   0.780  0.00  0.00    -0.331 N 
ATOM      3  N   UNL d   1      -0.525   3.143   2.439  0.00  0.00    -0.377 N 
ATOM      4  N   UNL d   1       0.181  -0.955  -0.388  0.00  0.00    -0.308 N 
ATOM      5  O   UNL d   1       2.150   0.246  -0.523  0.00  0.00    -0.247 OA
ATOM      6  C   UNL d   1       1.320   2.179   1.146  0.00  0.00     0.147 C 
ATOM      7  C   UNL d   1      -0.993   1.302   0.901  0.00  0.00     0.147 C 
ATOM      8  C   UNL d   1       0.915   2.831   2.482  0.00  0.00     0.143 C 
ATOM      9  C   UNL d   1      -1.359   1.946   2.252  0.00  0.00     0.143 C 
ATOM     10  H   UNL d   1      -0.431  -1.174   0.378  0.00  0.00     0.170 HD
ENDROOT
BRANCH   4  11
ATOM     11  C   UNL d   1       0.665  -2.062  -1.128  0.00  0.00     0.042 A 
ATOM     12  C   UNL d   1       0.504  -3.372  -0.648  0.00  0.00    -0.035 A 
ATOM     13  C   UNL d   1       1.167  -4.417  -1.320  0.00  0.00     0.016 A 
ATOM     14  C   UNL d   1      -0.234  -3.738   0.610  0.00  0.00     0.050 C 
ATOM     15  C   UNL d   1       1.915  -4.191  -2.483  0.00  0.00    -0.058 A 
ATOM     16  C   UNL d   1       1.948  -2.901  -3.017  0.00  0.00     0.009 A 
ATOM     17  C   UNL d   1       1.344  -1.845  -2.335  0.00  0.00     0.031 A 
BRANCH  15  18
ATOM     18  C   UNL d   1       2.686  -5.320  -3.121  0.00  0.00     0.038 C 
BRANCH  18  19
ATOM     19  C   UNL d   1       4.191  -5.053  -3.273  0.00  0.00     0.004 C 
BRANCH  19  20
ATOM     20  C   UNL d   1       4.908  -4.811  -1.941  0.00  0.00    -0.004 C 
ATOM     21  C   UNL d   1       6.396  -4.572  -2.153  0.00  0.00     0.005 C 
ENDBRANCH  19  20
ENDBRANCH  18  19
ENDBRANCH  15  18
ENDBRANCH   4  11
BRANCH   3  22
ATOM     22  C   UNL d   1      -1.047   4.352   2.876  0.00  0.00     0.044 A 
ATOM     23  C   UNL d   1      -0.529   5.624   2.466  0.00  0.00     0.017 A 
ATOM     24  C   UNL d   1      -1.127   6.792   3.002  0.00  0.00     0.046 A 
ATOM     25  C   UNL d   1       0.514   5.810   1.524  0.00  0.00     0.018 A 
ATOM     26  C   UNL d   1      -0.627   8.040   2.661  0.00  0.00     0.054 A 
ATOM     27  N   UNL d   1      -2.184   6.764   3.825  0.00  0.00    -0.365 N 
ATOM     28  C   UNL d   1       0.446   8.183   1.789  0.00  0.00     0.036 A 
ATOM     29  C   UNL d   1       1.016   7.066   1.205  0.00  0.00     0.025 A 
ATOM     30 CL   UNL d   1       1.050   9.747   1.410  0.00  0.00    -0.084 Cl
ATOM     31  C   UNL d   1      -2.686   5.564   4.158  0.00  0.00     0.090 A 
ATOM     32  HN  UNL d   1      -2.593   7.626   4.185  1.00  0.00     0.165 HD
ATOM     33  C   UNL d   1      -2.158   4.363   3.729  0.00  0.00     0.047 A 
ENDBRANCH   3  22
TORSDOF 5
