REMARK  3 active torsions:
REMARK  status: ('A' for Active; 'I' for Inactive)
REMARK    1  A    between atoms: N_4  and  C_1 
REMARK       I    between atoms: C_6  and  N_4 
REMARK    2  A    between atoms: C_12  and  C_5 
REMARK    3  A    between atoms: C_9  and  C_6 
ROOT
ATOM      1  C   UNL d   1       0.337  -1.162  -0.133  0.00  0.00     0.151 A 
ATOM      2  N   UNL d   1       1.469  -0.524  -0.246  0.00  0.00    -0.335 N 
ATOM      3  HN  UNL d   1       2.376  -0.964  -0.405  1.00  0.00     0.168 HD
ATOM      4  C   UNL d   1       1.258   0.839  -0.118  0.00  0.00     0.051 A 
ATOM      5  S   UNL d   1      -1.052  -0.203   0.116  0.00  0.00    -0.063 SA
ATOM      6  C   UNL d   1      -0.065   1.205   0.053  0.00  0.00     0.083 A 
ENDROOT
BRANCH   1   7
ATOM      7  N   UNL d   1       0.102  -2.508  -0.140  0.00  0.00    -0.303 N 
ATOM      8  C   UNL d   1       1.078  -3.415  -0.489  0.00  0.00     0.257 C 
ATOM      9  O   UNL d   1       2.188  -3.182  -0.945  0.00  0.00    -0.267 OA
ATOM     10  H   UNL d   1      -0.843  -2.798   0.056  0.00  0.00     0.171 HD
BRANCH   8  11
ATOM     11  C   UNL d   1       0.672  -4.839  -0.341  0.00  0.00     0.034 A 
ATOM     12  C   UNL d   1      -0.084  -5.268   0.757  0.00  0.00     0.044 A 
ATOM     13  C   UNL d   1      -0.452  -6.612   0.854  0.00  0.00     0.073 A 
ATOM     14 CL   UNL d   1      -1.391  -7.130   2.201  0.00  0.00    -0.081 Cl
ATOM     15  C   UNL d   1      -0.061  -7.518  -0.131  0.00  0.00     0.138 A 
ATOM     16  C   UNL d   1       0.712  -7.101  -1.211  0.00  0.00     0.045 A 
ATOM     17  F   UNL d   1      -0.419  -8.808  -0.056  0.00  0.00    -0.204 F 
ATOM     18  C   UNL d   1       1.087  -5.760  -1.313  0.00  0.00     0.020 A 
ENDBRANCH   8  11
ENDBRANCH   1   7
BRANCH   4  19
ATOM     19  C   UNL d   1       2.388   1.758  -0.082  0.00  0.00    -0.009 A 
ATOM     20  C   UNL d   1       2.288   3.097  -0.487  0.00  0.00     0.015 A 
ATOM     21  C   UNL d   1       3.396   3.947  -0.391  0.00  0.00     0.024 A 
ATOM     22  C   UNL d   1       4.604   3.464   0.110  0.00  0.00     0.034 A 
ATOM     23  C   UNL d   1       4.723   2.135   0.501  0.00  0.00     0.024 A 
ATOM     24 CL   UNL d   1       5.958   4.519   0.248  0.00  0.00    -0.084 Cl
ATOM     25  C   UNL d   1       3.621   1.286   0.395  0.00  0.00     0.015 A 
ENDBRANCH   4  19
TORSDOF 3
