REMARK  1 active torsions:
REMARK  status: ('A' for Active; 'I' for Inactive)
REMARK    1  A    between atoms: C_8  and  N_1 
ROOT
ATOM      1  N   UNL d   1       0.904  -0.704  -0.006  0.00  0.00    -0.210 N 
ATOM      2  C   UNL d   1       0.603   0.545   0.520  0.00  0.00     0.215 A 
ATOM      3  N   UNL d   1      -0.249  -1.231  -0.546  0.00  0.00    -0.219 N 
ATOM      4  HN  UNL d   1      -0.317  -2.132  -1.021  1.00  0.00     0.210 HD
ATOM      5  N   UNL d   1      -1.213  -0.426  -0.364  0.00  0.00    -0.225 N 
ATOM      6  HN  UNL d   1      -2.176  -0.574  -0.667  1.00  0.00     0.210 HD
ATOM      7  N   UNL d   1      -0.751   0.662   0.298  0.00  0.00    -0.259 N 
ATOM      8  S   UNL d   1       1.520   1.752   1.185  0.00  0.00    -0.037 SA
ATOM      9  H   UNL d   1      -1.341   1.462   0.486  0.00  0.00     0.191 HD
ENDROOT
BRANCH   1  10
ATOM     10  C   UNL d   1       2.083  -1.481  -0.022  0.00  0.00     0.099 A 
ATOM     11  C   UNL d   1       2.277  -2.472  -0.997  0.00  0.00     0.145 A 
ATOM     12  F   UNL d   1       1.379  -2.665  -1.976  0.00  0.00    -0.204 F 
ATOM     13  C   UNL d   1       3.431  -3.257  -1.026  0.00  0.00     0.045 A 
ATOM     14  C   UNL d   1       4.413  -3.080  -0.057  0.00  0.00     0.003 A 
ATOM     15  C   UNL d   1       4.238  -2.117   0.931  0.00  0.00     0.002 A 
ATOM     16  C   UNL d   1       3.085  -1.319   0.945  0.00  0.00     0.035 A 
ENDBRANCH   1  10
TORSDOF 1
