REMARK  5 active torsions:
REMARK  status: ('A' for Active; 'I' for Inactive)
REMARK    1  A    between atoms: O_3  and  C_1 
REMARK       I    between atoms: N_7  and  C_1 
REMARK    2  A    between atoms: C_2  and  O_3 
REMARK    3  A    between atoms: C_6  and  C_2 
REMARK    4  A    between atoms: C_5  and  C_13 
REMARK    5  A    between atoms: C_13  and  N_7 
ROOT
ATOM      1  C   UNL d   1       0.707  -0.156  -0.238  0.00  0.00     0.362 C 
ATOM      2  N   UNL d   1       2.014  -0.102  -0.609  0.00  0.00    -0.332 N 
ATOM      3  O   UNL d   1      -0.012  -1.074  -0.603  0.00  0.00    -0.238 OA
ATOM      4  H   UNL d   1       2.334  -0.924  -1.105  0.00  0.00     0.165 HD
ENDROOT
BRANCH   1   5
ATOM      5  O   UNL d   1       0.302   0.911   0.491  0.00  0.00    -0.286 OA
BRANCH   5   6
ATOM      6  C   UNL d   1      -1.107   1.005   0.799  0.00  0.00     0.125 C 
ATOM      7  C   UNL d   1      -1.483  -0.023   1.878  0.00  0.00     0.055 C 
ATOM      8  C   UNL d   1      -1.322   2.409   1.390  0.00  0.00     0.055 C 
BRANCH   6   9
ATOM      9  C   UNL d   1      -2.048   0.917  -0.431  0.00  0.00     0.157 C 
ATOM     10  O   UNL d   1      -3.186   0.449  -0.358  0.00  0.00    -0.295 OA
ATOM     11  C   UNL d   1      -1.553   1.502  -1.735  0.00  0.00     0.094 C 
ENDBRANCH   6   9
ENDBRANCH   5   6
ENDBRANCH   1   5
BRANCH   2  12
ATOM     12  C   UNL d   1       2.995   0.846  -0.142  0.00  0.00     0.171 C 
BRANCH  12  13
ATOM     13  C   UNL d   1       4.077   0.961  -1.171  0.00  0.00     0.000 A 
ATOM     14  S   UNL d   1       5.718   0.753  -0.723  0.00  0.00    -0.105 SA
ATOM     15  C   UNL d   1       6.262   1.040  -2.318  0.00  0.00     0.050 A 
ATOM     16  C   UNL d   1       5.220   1.288  -3.182  0.00  0.00     0.008 A 
ATOM     17  C   UNL d   1       3.958   1.247  -2.521  0.00  0.00     0.017 A 
ENDBRANCH  12  13
ENDBRANCH   2  12
TORSDOF 5
