REMARK  7 active torsions:
REMARK  status: ('A' for Active; 'I' for Inactive)
REMARK    1  A    between atoms: N_6  and  C_1 
REMARK    2  A    between atoms: S_2  and  N_6 
REMARK    3  A    between atoms: C_9  and  S_2 
REMARK    4  A    between atoms: C_18  and  N_3 
REMARK    5  A    between atoms: C_14  and  C_8 
REMARK    6  A    between atoms: C_10  and  C_12 
REMARK    7  A    between atoms: C_11  and  C_13 
ROOT
ATOM      1  N   UNL d   1      -1.113  -2.420  -0.276  0.00  0.00    -0.165 NA
ATOM      2  H   UNL d   1      -0.569  -3.174  -0.696  0.00  0.00     0.147 HD
ENDROOT
BRANCH   1   3
ATOM      3  S   UNL d   1      -1.523  -3.053   1.269  0.00  0.00     0.247 S 
ATOM      4  O   UNL d   1      -2.026  -4.391   1.029  0.00  0.00    -0.205 OA
ATOM      5  O   UNL d   1      -0.406  -2.830   2.160  0.00  0.00    -0.205 OA
BRANCH   3   6
ATOM      6  C   UNL d   1      -2.895  -2.052   1.802  0.00  0.00     0.076 A 
ATOM      7  C   UNL d   1      -4.178  -2.298   1.302  0.00  0.00     0.041 A 
ATOM      8  C   UNL d   1      -5.270  -1.555   1.778  0.00  0.00     0.050 A 
ATOM      9  C   UNL d   1      -5.050  -0.576   2.767  0.00  0.00     0.032 A 
ATOM     10  C   UNL d   1      -3.766  -0.338   3.289  0.00  0.00     0.050 A 
ATOM     11  C   UNL d   1      -2.687  -1.083   2.793  0.00  0.00     0.041 A 
BRANCH   8  12
ATOM     12  C   UNL d   1      -6.671  -1.793   1.264  0.00  0.00     0.417 C 
ATOM     13  F   UNL d   1      -6.758  -2.816   0.370  0.00  0.00    -0.166 F 
ATOM     14  F   UNL d   1      -7.548  -2.090   2.263  0.00  0.00    -0.166 F 
ATOM     15  F   UNL d   1      -7.180  -0.699   0.632  0.00  0.00    -0.166 F 
ENDBRANCH   8  12
BRANCH  10  16
ATOM     16  C   UNL d   1      -3.574   0.686   4.386  0.00  0.00     0.417 C 
ATOM     17  F   UNL d   1      -2.288   0.782   4.821  0.00  0.00    -0.166 F 
ATOM     18  F   UNL d   1      -3.936   1.938   3.995  0.00  0.00    -0.166 F 
ATOM     19  F   UNL d   1      -4.323   0.405   5.487  0.00  0.00    -0.166 F 
ENDBRANCH  10  16
ENDBRANCH   3   6
ENDBRANCH   1   3
BRANCH   1  20
ATOM     20  C   UNL d   1      -0.475  -1.131  -0.197  0.00  0.00     0.119 C 
ATOM     21  N   UNL d   1       0.845  -0.763   0.049  0.00  0.00    -0.244 N 
ATOM     22  N   UNL d   1       0.924   0.570   0.328  0.00  0.00    -0.291 N 
ATOM     23  C   UNL d   1      -0.281   1.059   0.016  0.00  0.00     0.069 C 
ATOM     24  HN  UNL d   1       1.727   1.081   0.695  1.00  0.00     0.187 HD
ATOM     25  C   UNL d   1      -1.192   0.035  -0.306  0.00  0.00     0.077 C 
BRANCH  21  26
ATOM     26  C   UNL d   1       2.033  -1.544  -0.005  0.00  0.00     0.058 A 
ATOM     27  C   UNL d   1       2.118  -2.681  -0.821  0.00  0.00     0.034 A 
ATOM     28  C   UNL d   1       3.321  -3.390  -0.906  0.00  0.00     0.044 A 
ATOM     29  C   UNL d   1       4.426  -2.970  -0.175  0.00  0.00     0.116 A 
ATOM     30  C   UNL d   1       4.359  -1.845   0.635  0.00  0.00     0.044 A 
ATOM     31  F   UNL d   1       5.577  -3.648  -0.273  0.00  0.00    -0.206 F 
ATOM     32  C   UNL d   1       3.167  -1.121   0.712  0.00  0.00     0.034 A 
ENDBRANCH  21  26
BRANCH  23  33
ATOM     33  C   UNL d   1      -0.596   2.526   0.041  0.00  0.00     0.033 A 
ATOM     34  S   UNL d   1      -2.118   3.181  -0.387  0.00  0.00    -0.100 SA
ATOM     35  C   UNL d   1      -1.586   4.779  -0.099  0.00  0.00     0.050 A 
ATOM     36  C   UNL d   1      -0.275   4.817   0.322  0.00  0.00     0.008 A 
ATOM     37  C   UNL d   1       0.300   3.513   0.398  0.00  0.00     0.021 A 
ENDBRANCH  23  33
ENDBRANCH   1  20
TORSDOF 7
