REMARK  9 active torsions:
REMARK  status: ('A' for Active; 'I' for Inactive)
REMARK    1  A    between atoms: C_3  and  N_1 
REMARK    2  A    between atoms: C_15  and  C_2 
REMARK    3  A    between atoms: C_23  and  C_4 
REMARK    4  A    between atoms: C_12  and  C_9 
REMARK    5  A    between atoms: C_16  and  C_10 
REMARK    6  A    between atoms: O_24  and  C_15 
REMARK    7  A    between atoms: O_25  and  C_16 
REMARK    8  A    between atoms: C_28  and  C_23 
REMARK    9  A    between atoms: C_26  and  O_24 
ROOT
ATOM      1  C   UNL d   1       1.974  -1.650  -0.097  0.00  0.00     0.704 A 
ATOM      2  N   UNL d   1       3.241  -1.215   0.027  0.00  0.00    -0.184 N 
ATOM      3  HN  UNL d   1       3.428  -0.225   0.184  1.00  0.00     0.184 HD
ATOM      4  C   UNL d   1       4.278  -2.105  -0.056  0.00  0.00     0.150 A 
ATOM      5  C   UNL d   1       4.045  -3.450  -0.287  0.00  0.00     0.087 A 
ATOM      6  N   UNL d   1       1.675  -2.949  -0.274  0.00  0.00    -0.199 N 
ATOM      7  HN  UNL d   1       0.708  -3.270  -0.330  1.00  0.00     0.183 HD
ATOM      8  C   UNL d   1       2.711  -3.811  -0.374  0.00  0.00     0.126 A 
ENDROOT
BRANCH   1   9
ATOM      9  N   UNL d   1       0.903  -0.679  -0.077  0.00  0.00    -0.090 N 
ATOM     10  C   UNL d   1       0.987   0.715  -0.003  0.00  0.00     0.070 A 
ATOM     11  C   UNL d   1      -0.321   1.188  -0.029  0.00  0.00     0.081 A 
ATOM     12  C   UNL d   1      -1.113   0.031  -0.121  0.00  0.00     0.128 A 
ATOM     13  N   UNL d   1      -0.398  -1.089  -0.158  0.00  0.00    -0.290 N 
ATOM     14  HN  UNL d   1      -0.745  -2.045  -0.231  1.00  0.00     0.187 HD
BRANCH  10  15
ATOM     15  C   UNL d   1       2.264   1.503   0.070  0.00  0.00     0.060 C 
BRANCH  15  16
ATOM     16  C   UNL d   1       2.800   1.819  -1.328  0.00  0.00     0.002 C 
ATOM     17  C   UNL d   1       4.029   2.712  -1.270  0.00  0.00     0.005 C 
ENDBRANCH  15  16
ENDBRANCH  10  15
BRANCH  11  18
ATOM     18  C   UNL d   1      -0.759   2.570   0.063  0.00  0.00     0.296 C 
ATOM     19  O   UNL d   1       0.002   3.524   0.120  0.00  0.00    -0.259 OA
BRANCH  18  20
ATOM     20  O   UNL d   1      -2.116   2.661   0.177  0.00  0.00    -0.318 OA
BRANCH  20  21
ATOM     21  C   UNL d   1      -2.589   3.893   0.737  0.00  0.00     0.174 C 
ATOM     22  C   UNL d   1      -2.638   3.725   2.245  0.00  0.00     0.034 C 
ENDBRANCH  20  21
ENDBRANCH  18  20
ENDBRANCH  11  18
ENDBRANCH   1   9
BRANCH   4  23
ATOM     23  C   UNL d   1       5.663  -1.508   0.107  0.00  0.00     0.434 C 
ATOM     24  F   UNL d   1       5.629  -0.165   0.370  0.00  0.00    -0.165 F 
ATOM     25  F   UNL d   1       6.367  -2.044   1.143  0.00  0.00    -0.165 F 
ATOM     26  F   UNL d   1       6.436  -1.621  -1.009  0.00  0.00    -0.165 F 
ENDBRANCH   4  23
BRANCH   5  27
ATOM     27  C   UNL d   1       5.035  -4.530  -0.479  0.00  0.00     0.296 C 
ATOM     28  O   UNL d   1       4.714  -5.682  -0.710  0.00  0.00    -0.259 OA
BRANCH  27  29
ATOM     29  O   UNL d   1       6.297  -4.071  -0.398  0.00  0.00    -0.322 OA
ATOM     30  C   UNL d   1       7.310  -5.053  -0.637  0.00  0.00     0.213 C 
ENDBRANCH  27  29
ENDBRANCH   5  27
TORSDOF 9
