REMARK  5 active torsions:
REMARK  status: ('A' for Active; 'I' for Inactive)
REMARK    1  A    between atoms: C_5  and  C_1 
REMARK    2  A    between atoms: C_8  and  C_2 
REMARK       I    between atoms: N_13  and  C_8 
REMARK    3  A    between atoms: C_16  and  N_13 
REMARK    4  A    between atoms: C_22  and  C_16 
REMARK    5  A    between atoms: C_18  and  C_22 
ROOT
ATOM      1  C   UNL d   1      -1.182  -0.798   0.500  0.00  0.00     0.085 A 
ATOM      2  C   UNL d   1       0.027  -1.322  -0.088  0.00  0.00     0.092 A 
ATOM      3  N   UNL d   1      -1.135   0.544   0.514  0.00  0.00    -0.259 N 
ATOM      4  HN  UNL d   1      -1.840   1.172   0.902  1.00  0.00     0.195 HD
ATOM      5  O   UNL d   1       0.036   0.910  -0.090  0.00  0.00    -0.241 OA
ATOM      6  C   UNL d   1       0.744  -0.193  -0.438  0.00  0.00     0.090 A 
ATOM      7  C   UNL d   1       2.029   0.105  -1.100  0.00  0.00     0.080 C 
ENDROOT
BRANCH   2   8
ATOM      8  C   UNL d   1       0.385  -2.711  -0.303  0.00  0.00     0.256 C 
ATOM      9  O   UNL d   1      -0.459  -3.571  -0.536  0.00  0.00    -0.267 OA
ATOM     10  N   UNL d   1       1.725  -3.030  -0.154  0.00  0.00    -0.356 N 
ATOM     11  H   UNL d   1       2.332  -2.346   0.276  0.00  0.00     0.162 HD
BRANCH  10  12
ATOM     12  C   UNL d   1       2.133  -4.428  -0.163  0.00  0.00     0.127 C 
BRANCH  12  13
ATOM     13  C   UNL d   1       3.650  -4.609  -0.089  0.00  0.00     0.058 C 
BRANCH  13  14
ATOM     14  C   UNL d   1       4.059  -6.061  -0.135  0.00  0.00    -0.054 A 
ATOM     15  C   UNL d   1       4.316  -6.694  -1.353  0.00  0.00     0.024 A 
ATOM     16  C   UNL d   1       4.683  -8.031  -1.348  0.00  0.00     0.088 A 
ATOM     17  N   UNL d   1       4.804  -8.773  -0.227  0.00  0.00    -0.375 N 
ATOM     18  C   UNL d   1       4.543  -8.148   0.940  0.00  0.00     0.088 A 
ATOM     19  HN  UNL d   1       5.080  -9.754  -0.260  1.00  0.00     0.164 HD
ATOM     20  C   UNL d   1       4.170  -6.816   1.038  0.00  0.00     0.024 A 
ENDBRANCH  13  14
ENDBRANCH  12  13
ENDBRANCH  10  12
ENDBRANCH   2   8
BRANCH   1  21
ATOM     21  C   UNL d   1      -2.306  -1.502   1.139  0.00  0.00     0.015 A 
ATOM     22  C   UNL d   1      -3.647  -1.078   1.040  0.00  0.00     0.046 A 
ATOM     23 CL   UNL d   1      -4.166   0.239   0.040  0.00  0.00    -0.083 Cl
ATOM     24  C   UNL d   1      -4.661  -1.747   1.745  0.00  0.00     0.025 A 
ATOM     25  C   UNL d   1      -4.364  -2.855   2.534  0.00  0.00     0.002 A 
ATOM     26  C   UNL d   1      -3.051  -3.299   2.628  0.00  0.00     0.001 A 
ATOM     27  C   UNL d   1      -2.033  -2.621   1.950  0.00  0.00     0.015 A 
ENDBRANCH   1  21
TORSDOF 5
