REMARK  9 active torsions:
REMARK  status: ('A' for Active; 'I' for Inactive)
REMARK    1  A    between atoms: N_6  and  C_1 
REMARK    2  A    between atoms: S_2  and  N_6 
REMARK    3  A    between atoms: C_8  and  S_2 
REMARK    4  A    between atoms: C_19  and  N_3 
REMARK    5  A    between atoms: C_16  and  C_7 
REMARK    6  A    between atoms: C_26  and  C_10 
REMARK    7  A    between atoms: C_11  and  C_17 
REMARK    8  A    between atoms: C_20  and  O_28 
REMARK    9  A    between atoms: O_28  and  C_40 
ROOT
ATOM      1  C   UNL d   1      -0.413  -1.233  -0.206  0.00  0.00     0.119 C 
ATOM      2  N   UNL d   1       0.883  -0.765  -0.038  0.00  0.00    -0.244 N 
ATOM      3  N   UNL d   1       0.896   0.562   0.249  0.00  0.00    -0.292 N 
ATOM      4  HN  UNL d   1       1.690   1.120   0.561  1.00  0.00     0.187 HD
ATOM      5  C   UNL d   1      -1.221  -0.120  -0.216  0.00  0.00     0.076 C 
ATOM      6  C   UNL d   1      -0.363   0.982   0.034  0.00  0.00     0.062 C 
ENDROOT
BRANCH   1   7
ATOM      7  N   UNL d   1      -0.897  -2.589  -0.330  0.00  0.00    -0.164 NA
ATOM      8  H   UNL d   1      -0.211  -3.284  -0.621  0.00  0.00     0.147 HD
BRANCH   7   9
ATOM      9  S   UNL d   1      -1.569  -3.246   1.105  0.00  0.00     0.253 S 
ATOM     10  O   UNL d   1      -2.705  -2.457   1.523  0.00  0.00    -0.205 OA
ATOM     11  O   UNL d   1      -1.672  -4.671   0.863  0.00  0.00    -0.205 OA
BRANCH   9  12
ATOM     12  C   UNL d   1      -0.329  -3.133   2.388  0.00  0.00     0.116 A 
ATOM     13  S   UNL d   1      -0.324  -1.696   3.304  0.00  0.00    -0.075 SA
ATOM     14  C   UNL d   1       1.099  -2.136   4.138  0.00  0.00     0.035 A 
ATOM     15  C   UNL d   1       1.512  -3.411   3.807  0.00  0.00     0.023 A 
ATOM     16  C   UNL d   1       0.680  -3.990   2.796  0.00  0.00     0.034 A 
BRANCH  14  17
ATOM     17  C   UNL d   1       1.796  -1.209   5.083  0.00  0.00     0.074 A 
ATOM     18  C   UNL d   1       1.355   0.087   5.427  0.00  0.00     0.077 A 
ATOM     19  C   UNL d   1       2.349   0.591   6.228  0.00  0.00     0.184 A 
ATOM     20  O   UNL d   1       3.309  -0.359   6.394  0.00  0.00    -0.233 OA
ATOM     21  N   UNL d   1       2.961  -1.499   5.679  0.00  0.00    -0.260 N 
ATOM     22  HN  UNL d   1       3.482  -2.373   5.621  1.00  0.00     0.195 HD
BRANCH  19  23
ATOM     23  C   UNL d   1       2.564   1.895   6.874  0.00  0.00     0.441 C 
ATOM     24  F   UNL d   1       1.477   2.701   6.736  0.00  0.00    -0.164 F 
ATOM     25  F   UNL d   1       2.799   1.787   8.205  0.00  0.00    -0.164 F 
ATOM     26  F   UNL d   1       3.612   2.566   6.334  0.00  0.00    -0.164 F 
ENDBRANCH  19  23
ENDBRANCH  14  17
ENDBRANCH   9  12
ENDBRANCH   7   9
ENDBRANCH   1   7
BRANCH   2  27
ATOM     27  C   UNL d   1       2.085  -1.514  -0.063  0.00  0.00     0.058 A 
ATOM     28  C   UNL d   1       2.208  -2.621  -0.911  0.00  0.00     0.038 A 
ATOM     29  C   UNL d   1       3.370  -3.404  -0.912  0.00  0.00    -0.054 A 
ATOM     30  C   UNL d   1       3.459  -4.575  -1.852  0.00  0.00     0.049 C 
ATOM     31  C   UNL d   1       4.434  -3.057  -0.058  0.00  0.00    -0.056 A 
ATOM     32  C   UNL d   1       4.319  -1.920   0.760  0.00  0.00     0.009 A 
ATOM     33  C   UNL d   1       5.708  -3.857  -0.038  0.00  0.00     0.049 C 
ATOM     34  C   UNL d   1       3.158  -1.142   0.750  0.00  0.00     0.032 A 
ENDBRANCH   2  27
BRANCH   6  35
ATOM     35  C   UNL d   1      -0.717   2.409   0.084  0.00  0.00    -0.008 A 
ATOM     36  C   UNL d   1      -2.035   2.818   0.319  0.00  0.00     0.016 A 
ATOM     37  C   UNL d   1      -2.374   4.179   0.376  0.00  0.00     0.038 A 
ATOM     38  C   UNL d   1      -1.388   5.152   0.226  0.00  0.00     0.078 A 
ATOM     39  C   UNL d   1      -0.082   4.753  -0.062  0.00  0.00     0.038 A 
ATOM     40  C   UNL d   1       0.253   3.393  -0.122  0.00  0.00     0.016 A 
BRANCH  38  41
ATOM     41  O   UNL d   1      -1.562   6.500   0.316  0.00  0.00    -0.255 OA
BRANCH  41  42
ATOM     42  C   UNL d   1      -2.653   7.007   1.070  0.00  0.00     0.530 C 
ATOM     43  F   UNL d   1      -3.085   6.159   2.028  0.00  0.00    -0.144 F 
ATOM     44  F   UNL d   1      -2.255   8.145   1.682  0.00  0.00    -0.144 F 
ATOM     45  F   UNL d   1      -3.680   7.307   0.248  0.00  0.00    -0.144 F 
ENDBRANCH  41  42
ENDBRANCH  38  41
ENDBRANCH   6  35
TORSDOF 9
