REMARK  2 active torsions:
REMARK  status: ('A' for Active; 'I' for Inactive)
REMARK    1  A    between atoms: N_8  and  C_1 
REMARK       I    between atoms: C_9  and  N_8 
REMARK    2  A    between atoms: C_10  and  C_9 
ROOT
ATOM      1  C   UNL d   1       2.013   0.610   0.182  0.00  0.00     0.155 C 
ATOM      2  C   UNL d   1      -0.527  -0.523   0.087  0.00  0.00     0.089 A 
ATOM      3  S   UNL d   1       2.049  -1.103   0.452  0.00  0.00    -0.010 SA
ATOM      4  C   UNL d   1       0.445  -1.557  -0.070  0.00  0.00     0.235 C 
ATOM      5  N   UNL d   1       0.989   1.398   0.106  0.00  0.00    -0.335 N 
ATOM      6  HN  UNL d   1       1.101   2.404  -0.020  1.00  0.00     0.168 HD
ATOM      7  C   UNL d   1      -0.275   0.815   0.203  0.00  0.00     0.056 A 
ATOM      8  S   UNL d   1      -2.198  -0.858   0.144  0.00  0.00    -0.095 SA
ATOM      9  C   UNL d   1      -1.448   1.592   0.365  0.00  0.00     0.038 A 
ATOM     10  C   UNL d   1      -2.578   0.800   0.364  0.00  0.00     0.053 A 
ATOM     11  O   UNL d   1       0.227  -2.696  -0.466  0.00  0.00    -0.279 OA
ENDROOT
BRANCH   1  12
ATOM     12  N   UNL d   1       3.225   1.263   0.039  0.00  0.00    -0.302 N 
ATOM     13  C   UNL d   1       4.548   0.823   0.054  0.00  0.00     0.264 C 
ATOM     14  O   UNL d   1       4.881  -0.323   0.340  0.00  0.00    -0.267 OA
ATOM     15  H   UNL d   1       3.099   2.248  -0.152  0.00  0.00     0.171 HD
BRANCH  13  16
ATOM     16  C   UNL d   1       5.548   1.836  -0.274  0.00  0.00     0.072 A 
ATOM     17  S   UNL d   1       5.139   3.446  -0.697  0.00  0.00    -0.097 SA
ATOM     18  C   UNL d   1       6.779   3.881  -0.914  0.00  0.00     0.050 A 
ATOM     19  C   UNL d   1       7.630   2.828  -0.668  0.00  0.00     0.009 A 
ATOM     20  C   UNL d   1       6.920   1.650  -0.300  0.00  0.00     0.025 A 
ENDBRANCH  13  16
ENDBRANCH   1  12
TORSDOF 2
