REMARK  5 active torsions:
REMARK  status: ('A' for Active; 'I' for Inactive)
REMARK    1  A    between atoms: N_5  and  S_1 
REMARK    2  A    between atoms: C_6  and  S_1 
REMARK    3  A    between atoms: N_2  and  C_3 
REMARK    4  A    between atoms: C_4  and  O_7 
REMARK    5  A    between atoms: O_7  and  C_18 
ROOT
ATOM      1  C   UNL d   1       0.504   1.647  -0.118  0.00  0.00     0.074 A 
ATOM      2  C   UNL d   1      -0.882   1.819  -0.197  0.00  0.00     0.027 A 
ATOM      3  C   UNL d   1       1.355   2.752  -0.048  0.00  0.00     0.027 A 
ATOM      4  C   UNL d   1      -0.570   4.218  -0.232  0.00  0.00     0.076 A 
ATOM      5  C   UNL d   1      -1.421   3.109  -0.221  0.00  0.00     0.039 A 
ATOM      6  C   UNL d   1       0.812   4.037  -0.105  0.00  0.00     0.039 A 
ENDROOT
BRANCH   4   7
ATOM      7  O   UNL d   1      -0.988   5.526  -0.347  0.00  0.00    -0.307 OA
BRANCH   7   8
ATOM      8  C   UNL d   1      -2.116   5.842  -1.070  0.00  0.00     0.130 A 
ATOM      9  C   UNL d   1      -2.972   6.821  -0.541  0.00  0.00     0.138 A 
ATOM     10  C   UNL d   1      -4.150   7.225  -1.189  0.00  0.00     0.039 A 
ATOM     11  C   UNL d   1      -4.489   6.640  -2.403  0.00  0.00     0.004 A 
ATOM     12  C   UNL d   1      -3.632   5.702  -2.975  0.00  0.00     0.027 A 
ATOM     13  C   UNL d   1      -2.435   5.333  -2.341  0.00  0.00     0.070 A 
ATOM     14 CL   UNL d   1      -1.383   4.309  -3.259  0.00  0.00    -0.081 Cl
BRANCH   9  15
ATOM     15  N   UNL d   1      -2.643   7.489   0.705  0.00  0.00    -0.113 N 
ATOM     16  O   UNL d   1      -1.567   8.098   0.759  0.00  0.00    -0.532 OA
ATOM     17  O   UNL d   1      -3.498   7.454   1.599  0.00  0.00    -0.532 OA
ENDBRANCH   9  15
ENDBRANCH   7   8
ENDBRANCH   4   7
BRANCH   1  18
ATOM     18  S   UNL d   1       1.185   0.012  -0.009  0.00  0.00     0.243 S 
ATOM     19  O   UNL d   1       1.962  -0.034   1.215  0.00  0.00    -0.206 OA
ATOM     20  O   UNL d   1       0.116  -0.935  -0.246  0.00  0.00    -0.206 OA
BRANCH  18  21
ATOM     21  N   UNL d   1       2.268  -0.090  -1.321  0.00  0.00    -0.202 NA
ATOM     22  C   UNL d   1       1.683  -0.070  -2.701  0.00  0.00     0.134 C 
ATOM     23  C   UNL d   1       1.156  -1.449  -3.130  0.00  0.00     0.183 C 
ATOM     24  O   UNL d   1       2.155  -2.470  -2.991  0.00  0.00    -0.389 OA
ATOM     25  C   UNL d   1       2.622  -2.546  -1.636  0.00  0.00     0.183 C 
ATOM     26  C   UNL d   1       3.256  -1.217  -1.216  0.00  0.00     0.134 C 
ENDBRANCH  18  21
ENDBRANCH   1  18
TORSDOF 5
