REMARK  5 active torsions:
REMARK  status: ('A' for Active; 'I' for Inactive)
REMARK    1  A    between atoms: N_3  and  C_1 
REMARK    2  A    between atoms: N_9  and  C_1 
REMARK    3  A    between atoms: C_2  and  N_3 
REMARK    4  A    between atoms: N_5  and  N_9 
REMARK    5  A    between atoms: C_11  and  C_12 
ROOT
ATOM      1  N   UNL d   1       2.696  -0.509   0.003  0.00  0.00    -0.276 N 
ATOM      2  H   UNL d   1       3.205  -0.051  -0.748  0.00  0.00     0.189 HD
ENDROOT
BRANCH   1   3
ATOM      3  N   UNL d   1       3.306  -0.737   1.203  0.00  0.00    -0.309 N 
ATOM      4  C   UNL d   1       4.550  -0.348   1.234  0.00  0.00     0.119 C 
ATOM      5  HN  UNL d   1       2.835  -1.168   1.998  1.00  0.00     0.186 HD
BRANCH   4   6
ATOM      6  C   UNL d   1       5.398  -0.441   2.449  0.00  0.00    -0.008 A 
ATOM      7  C   UNL d   1       6.772  -0.056   2.439  0.00  0.00    -0.014 A 
ATOM      8  C   UNL d   1       7.492  -0.152   3.659  0.00  0.00    -0.025 A 
ATOM      9  C   UNL d   1       7.491   0.419   1.308  0.00  0.00     0.013 A 
ATOM     10  C   UNL d   1       8.848   0.214   3.718  0.00  0.00     0.012 A 
ATOM     11  C   UNL d   1       6.853  -0.612   4.820  0.00  0.00     0.012 A 
ATOM     12  C   UNL d   1       9.520   0.678   2.590  0.00  0.00     0.001 A 
ATOM     13  C   UNL d   1       8.841   0.780   1.384  0.00  0.00     0.001 A 
ATOM     14  C   UNL d   1       5.511  -0.982   4.808  0.00  0.00     0.002 A 
ATOM     15  C   UNL d   1       4.784  -0.895   3.626  0.00  0.00     0.014 A 
ENDBRANCH   4   6
ENDBRANCH   1   3
BRANCH   1  16
ATOM     16  C   UNL d   1       1.339  -0.640  -0.188  0.00  0.00     0.191 C 
ATOM     17  S   UNL d   1       0.731  -0.123  -1.661  0.00  0.00    -0.039 SA
BRANCH  16  18
ATOM     18  N   UNL d   1       0.661  -1.226   0.861  0.00  0.00    -0.332 N 
ATOM     19  H   UNL d   1       1.261  -1.828   1.411  0.00  0.00     0.168 HD
BRANCH  18  20
ATOM     20  C   UNL d   1      -0.736  -1.258   1.074  0.00  0.00     0.042 A 
ATOM     21  C   UNL d   1      -1.494  -0.104   0.825  0.00  0.00     0.053 A 
ATOM     22  C   UNL d   1      -2.874  -0.101   1.002  0.00  0.00     0.036 A 
ATOM     23 CL   UNL d   1      -3.775   1.332   0.693  0.00  0.00    -0.084 Cl
ATOM     24  C   UNL d   1      -3.527  -1.247   1.435  0.00  0.00     0.024 A 
ATOM     25  C   UNL d   1      -2.780  -2.387   1.734  0.00  0.00     0.011 A 
ATOM     26  C   UNL d   1      -1.375  -2.400   1.592  0.00  0.00    -0.035 A 
ATOM     27  C   UNL d   1      -0.676  -3.695   1.903  0.00  0.00     0.050 C 
ENDBRANCH  18  20
ENDBRANCH  16  18
ENDBRANCH   1  16
TORSDOF 5
