REMARK  4 active torsions:
REMARK  status: ('A' for Active; 'I' for Inactive)
REMARK    1  A    between atoms: C_2  and  C_1 
REMARK    2  A    between atoms: O_4  and  C_1 
REMARK    3  A    between atoms: C_3  and  C_10 
REMARK    4  A    between atoms: C_13  and  O_4 
ROOT
ATOM      1  C   UNL d   1      -3.807   0.599   1.296  0.00  0.00    -0.035 A 
ATOM      2  C   UNL d   1      -3.101  -0.595   1.055  0.00  0.00     0.012 A 
ATOM      3  C   UNL d   1      -3.063   1.782   1.459  0.00  0.00     0.012 A 
ATOM      4  C   UNL d   1      -0.996   0.583   1.083  0.00  0.00     0.079 A 
ATOM      5  C   UNL d   1      -1.667   1.776   1.350  0.00  0.00     0.038 A 
ATOM      6  C   UNL d   1      -1.707  -0.605   0.941  0.00  0.00     0.038 A 
ENDROOT
BRANCH   4   7
ATOM      7  O   UNL d   1       0.396   0.681   0.848  0.00  0.00    -0.275 OA
BRANCH   7   8
ATOM      8  C   UNL d   1       1.269  -0.330   1.222  0.00  0.00     0.303 C 
ATOM      9  O   UNL d   1       0.984  -1.353   1.829  0.00  0.00    -0.259 OA
BRANCH   8  10
ATOM     10  C   UNL d   1       2.646  -0.004   0.789  0.00  0.00     0.100 A 
ATOM     11  C   UNL d   1       3.116   1.309   0.893  0.00  0.00     0.134 A 
ATOM     12  F   UNL d   1       2.314   2.301   1.308  0.00  0.00    -0.205 F 
ATOM     13  C   UNL d   1       4.441   1.634   0.599  0.00  0.00     0.043 A 
ATOM     14  C   UNL d   1       5.331   0.639   0.206  0.00  0.00     0.005 A 
ATOM     15  C   UNL d   1       4.877  -0.673   0.079  0.00  0.00     0.025 A 
ATOM     16  C   UNL d   1       3.540  -0.997   0.359  0.00  0.00     0.053 A 
ATOM     17 CL   UNL d   1       3.075  -2.640   0.088  0.00  0.00    -0.083 Cl
ENDBRANCH   8  10
ENDBRANCH   7   8
ENDBRANCH   4   7
BRANCH   1  18
ATOM     18  C   UNL d   1      -5.324   0.646   1.329  0.00  0.00     0.141 C 
ATOM     19  S   UNL d   1      -6.048  -0.449   2.595  0.00  0.00    -0.148 SA
ATOM     20  C   UNL d   1      -7.396  -1.098   1.573  0.00  0.00     0.085 C 
ATOM     21  C   UNL d   1      -6.865  -1.273   0.166  0.00  0.00     0.085 C 
ATOM     22  S   UNL d   1      -6.051   0.273  -0.307  0.00  0.00    -0.148 SA
ENDBRANCH   1  18
TORSDOF 4
