REMARK  7 active torsions:
REMARK  status: ('A' for Active; 'I' for Inactive)
REMARK    1  A    between atoms: C_4  and  C_1 
REMARK    2  A    between atoms: C_2  and  C_3 
REMARK    3  A    between atoms: N_7  and  C_6 
REMARK       I    between atoms: C_8  and  N_7 
REMARK    4  A    between atoms: C_20  and  C_8 
REMARK    5  A    between atoms: C_11  and  C_21 
REMARK    6  A    between atoms: O_22  and  C_11 
REMARK    7  A    between atoms: C_21  and  C_20 
ROOT
ATOM      1  C   UNL d   1      -0.232  -1.664   3.163  0.00  0.00     0.050 A 
ATOM      2  C   UNL d   1       0.532  -0.815   1.009  0.00  0.00     0.050 A 
ATOM      3  C   UNL d   1      -0.026  -0.596   2.275  0.00  0.00     0.032 A 
ATOM      4  C   UNL d   1       0.723  -3.192   1.520  0.00  0.00     0.036 A 
ATOM      5  C   UNL d   1       0.130  -2.963   2.765  0.00  0.00     0.045 A 
ATOM      6  C   UNL d   1       0.894  -2.121   0.641  0.00  0.00     0.045 A 
ENDROOT
BRANCH   4   7
ATOM      7  N   UNL d   1       1.142  -4.506   1.218  0.00  0.00    -0.327 N 
ATOM      8  C   UNL d   1       2.112  -4.832   0.292  0.00  0.00     0.222 C 
ATOM      9  O   UNL d   1       2.768  -4.040  -0.384  0.00  0.00    -0.273 OA
ATOM     10  H   UNL d   1       0.882  -5.223   1.887  0.00  0.00     0.169 HD
BRANCH   8  11
ATOM     11  C   UNL d   1       2.464  -6.304   0.259  0.00  0.00     0.113 C 
BRANCH  11  12
ATOM     12  C   UNL d   1       3.977  -6.445   0.376  0.00  0.00     0.119 C 
BRANCH  12  13
ATOM     13  C   UNL d   1       4.439  -5.896   1.700  0.00  0.00     0.139 C 
ATOM     14  O   UNL d   1       4.484  -6.561   2.725  0.00  0.00    -0.650 OA
BRANCH  13  15
ATOM     15  O   UNL d   1       4.712  -4.573   1.679  0.00  0.00    -0.776 OA
ATOM     16  H   UNL d   1       4.520  -4.130   0.821  0.00  0.00     0.167 HD
ENDBRANCH  13  15
ENDBRANCH  12  13
ENDBRANCH  11  12
ENDBRANCH   8  11
ENDBRANCH   4   7
BRANCH   2  17
ATOM     17  C   UNL d   1       0.763   0.316   0.034  0.00  0.00     0.417 C 
ATOM     18  F   UNL d   1       0.465   1.541   0.549  0.00  0.00    -0.166 F 
ATOM     19  F   UNL d   1       0.010   0.191  -1.093  0.00  0.00    -0.166 F 
ATOM     20  F   UNL d   1       2.056   0.391  -0.382  0.00  0.00    -0.166 F 
ENDBRANCH   2  17
BRANCH   1  21
ATOM     21  C   UNL d   1      -0.806  -1.435   4.542  0.00  0.00     0.417 C 
ATOM     22  F   UNL d   1      -1.068  -0.128   4.812  0.00  0.00    -0.166 F 
ATOM     23  F   UNL d   1      -1.978  -2.101   4.731  0.00  0.00    -0.166 F 
ATOM     24  F   UNL d   1       0.031  -1.862   5.527  0.00  0.00    -0.166 F 
ENDBRANCH   1  21
TORSDOF 7
