REMARK  2 active torsions:
REMARK  status: ('A' for Active; 'I' for Inactive)
REMARK    1  A    between atoms: C_2  and  C_1 
REMARK    2  A    between atoms: C_12  and  N_3 
ROOT
ATOM      1  C   UNL d   1      -0.394  -1.784  -0.572  0.00  0.00     0.151 C 
ATOM      2  N   UNL d   1       0.778  -1.251  -0.066  0.00  0.00    -0.224 N 
ATOM      3  N   UNL d   1       0.583   0.079   0.110  0.00  0.00     0.001 NA
ATOM      4  N   UNL d   1      -0.532   0.362  -0.546  0.00  0.00    -0.007 NA
ATOM      5  N   UNL d   1      -1.128  -0.778  -1.012  0.00  0.00    -0.269 N 
ATOM      6  HN  UNL d   1      -1.969  -0.840  -1.585  1.00  0.00     0.185 HD
ENDROOT
BRANCH   1   7
ATOM      7  C   UNL d   1      -0.935  -3.169  -0.471  0.00  0.00     0.038 A 
ATOM      8  C   UNL d   1      -0.697  -4.165   0.525  0.00  0.00     0.009 A 
ATOM      9  C   UNL d   1      -1.667  -5.159   0.330  0.00  0.00     0.043 A 
ATOM     10  C   UNL d   1       0.150  -4.290   1.648  0.00  0.00     0.057 A 
ATOM     11  C   UNL d   1      -1.859  -6.230   1.213  0.00  0.00     0.033 A 
ATOM     12  N   UNL d   1      -2.363  -4.835  -0.812  0.00  0.00    -0.364 N 
ATOM     13  C   UNL d   1      -1.028  -6.306   2.330  0.00  0.00     0.044 A 
ATOM     14  C   UNL d   1      -0.033  -5.360   2.526  0.00  0.00     0.117 A 
ATOM     15  F   UNL d   1       0.755  -5.455   3.606  0.00  0.00    -0.206 F 
ATOM     16  C   UNL d   1      -1.957  -3.617  -1.280  0.00  0.00     0.104 A 
ATOM     17  H   UNL d   1      -3.128  -5.380  -1.194  0.00  0.00     0.165 HD
ENDBRANCH   1   7
BRANCH   2  18
ATOM     18  C   UNL d   1       2.080  -1.797   0.043  0.00  0.00     0.056 A 
ATOM     19  C   UNL d   1       2.470  -2.874  -0.767  0.00  0.00     0.032 A 
ATOM     20  C   UNL d   1       3.799  -3.309  -0.741  0.00  0.00     0.021 A 
ATOM     21  C   UNL d   1       4.720  -2.697   0.110  0.00  0.00     0.011 A 
ATOM     22  C   UNL d   1       4.330  -1.644   0.934  0.00  0.00     0.021 A 
ATOM     23 BR   UNL d   1       6.516  -3.284   0.126  0.00  0.00    -0.051 Br
ATOM     24  C   UNL d   1       3.015  -1.180   0.889  0.00  0.00     0.032 A 
ENDBRANCH   2  18
TORSDOF 2
