REMARK  5 active torsions:
REMARK  status: ('A' for Active; 'I' for Inactive)
REMARK    1  A    between atoms: C_9  and  C_1 
REMARK    2  A    between atoms: C_10  and  C_1 
REMARK    3  A    between atoms: N_11  and  C_4 
REMARK    4  A    between atoms: O_19  and  C_8 
REMARK    5  A    between atoms: C_24  and  O_19 
ROOT
ATOM      1  C   UNL d   1       1.403  -0.217  -0.072  0.00  0.00     0.309 C 
ATOM      2  N   UNL d   1       0.732   1.018  -0.533  0.00  0.00    -0.314 N 
ATOM      3  HN  UNL d   1       1.264   1.770  -0.970  1.00  0.00     0.166 HD
ATOM      4  C   UNL d   1      -0.529   1.117  -0.370  0.00  0.00     0.228 C 
ATOM      5  N   UNL d   1       0.510  -1.383  -0.176  0.00  0.00    -0.308 N 
ATOM      6  HN  UNL d   1       0.862  -2.332  -0.304  1.00  0.00     0.166 HD
ATOM      7  O   UNL d   1      -1.308   0.093   0.027  0.00  0.00    -0.241 OA
ATOM      8  C   UNL d   1      -0.739  -1.118  -0.093  0.00  0.00     0.270 C 
ENDROOT
BRANCH   1   9
ATOM      9  C   UNL d   1       2.659  -0.430  -0.944  0.00  0.00     0.441 C 
ATOM     10  F   UNL d   1       3.494   0.636  -0.914  0.00  0.00    -0.166 F 
ATOM     11  F   UNL d   1       3.379  -1.517  -0.582  0.00  0.00    -0.166 F 
ATOM     12  F   UNL d   1       2.314  -0.618  -2.248  0.00  0.00    -0.166 F 
ENDBRANCH   1   9
BRANCH   1  13
ATOM     13  C   UNL d   1       1.940  -0.024   1.365  0.00  0.00     0.441 C 
ATOM     14  F   UNL d   1       2.344   1.251   1.593  0.00  0.00    -0.166 F 
ATOM     15  F   UNL d   1       0.958  -0.271   2.276  0.00  0.00    -0.166 F 
ATOM     16  F   UNL d   1       2.974  -0.830   1.686  0.00  0.00    -0.166 F 
ENDBRANCH   1  13
BRANCH   4  17
ATOM     17  N   UNL d   1      -1.236   2.256  -0.654  0.00  0.00    -0.343 N 
ATOM     18  C   UNL d   1      -2.433   2.653   0.104  0.00  0.00     0.152 C 
ATOM     19  C   UNL d   1      -3.356   3.495  -0.790  0.00  0.00     0.187 C 
ATOM     20  O   UNL d   1      -2.669   4.632  -1.337  0.00  0.00    -0.388 OA
ATOM     21  C   UNL d   1      -1.534   4.210  -2.110  0.00  0.00     0.187 C 
ATOM     22  C   UNL d   1      -0.544   3.414  -1.250  0.00  0.00     0.152 C 
ENDBRANCH   4  17
BRANCH   8  23
ATOM     23  O   UNL d   1      -1.633  -2.134  -0.142  0.00  0.00    -0.317 OA
BRANCH  23  24
ATOM     24  C   UNL d   1      -2.965  -1.852  -0.597  0.00  0.00     0.175 C 
ATOM     25  C   UNL d   1      -3.515  -3.119  -1.224  0.00  0.00     0.034 C 
ENDBRANCH  23  24
ENDBRANCH   8  23
TORSDOF 5
