REMARK  6 active torsions:
REMARK  status: ('A' for Active; 'I' for Inactive)
REMARK    1  A    between atoms: C_7  and  N_1 
REMARK    2  A    between atoms: S_12  and  C_2 
REMARK    3  A    between atoms: C_10  and  C_9 
REMARK    4  A    between atoms: C_22  and  S_12 
REMARK    5  A    between atoms: C_15  and  C_21 
REMARK    6  A    between atoms: C_27  and  C_22 
ROOT
ATOM      1  N   UNL d   1       0.981   0.829  -0.048  0.00  0.00    -0.258 N 
ATOM      2  C   UNL d   1       2.353   0.554  -0.030  0.00  0.00     0.155 A 
ATOM      3  C   UNL d   1       0.062  -0.173   0.306  0.00  0.00     0.266 A 
ATOM      4  N   UNL d   1       2.850  -0.592   0.311  0.00  0.00    -0.335 N 
ATOM      5  HN  UNL d   1       3.859  -0.743   0.279  1.00  0.00     0.168 HD
ATOM      6  C   UNL d   1       0.626  -1.458   0.763  0.00  0.00     0.059 A 
ATOM      7  C   UNL d   1       2.004  -1.612   0.720  0.00  0.00     0.049 A 
ATOM      8  O   UNL d   1      -1.163  -0.049   0.291  0.00  0.00    -0.267 OA
ATOM      9  C   UNL d   1      -0.189  -2.491   1.246  0.00  0.00     0.019 A 
ATOM     10  C   UNL d   1       2.574  -2.820   1.127  0.00  0.00     0.030 A 
ATOM     11  C   UNL d   1       0.391  -3.685   1.678  0.00  0.00     0.001 A 
ATOM     12  C   UNL d   1       1.773  -3.854   1.609  0.00  0.00     0.002 A 
ENDROOT
BRANCH   2  13
ATOM     13  S   UNL d   1       3.520   1.773  -0.554  0.00  0.00    -0.089 SA
BRANCH  13  14
ATOM     14  C   UNL d   1       5.067   0.866  -0.274  0.00  0.00     0.121 C 
BRANCH  14  15
ATOM     15  C   UNL d   1       6.374   1.608  -0.438  0.00  0.00    -0.048 A 
ATOM     16  C   UNL d   1       6.498   2.967  -0.738  0.00  0.00     0.009 A 
ATOM     17  C   UNL d   1       7.761   3.547  -0.910  0.00  0.00     0.012 A 
ATOM     18  C   UNL d   1       8.929   2.783  -0.793  0.00  0.00    -0.036 A 
ATOM     19  C   UNL d   1       8.814   1.439  -0.433  0.00  0.00     0.012 A 
ATOM     20  C   UNL d   1       7.554   0.860  -0.266  0.00  0.00     0.009 A 
BRANCH  18  21
ATOM     21  C   UNL d   1      10.225   3.425  -1.040  0.00  0.00     0.012 C 
ATOM     22  C   UNL d   1      11.273   2.797  -1.598  0.00  0.00     0.017 C 
BRANCH  22  23
ATOM     23  C   UNL d   1      12.502   3.529  -1.919  0.00  0.00     0.024 A 
ATOM     24  C   UNL d   1      12.649   4.061  -3.206  0.00  0.00     0.128 A 
ATOM     25  F   UNL d   1      11.702   3.853  -4.135  0.00  0.00    -0.205 F 
ATOM     26  C   UNL d   1      13.761   4.821  -3.560  0.00  0.00     0.043 A 
ATOM     27  C   UNL d   1      14.760   5.061  -2.621  0.00  0.00     0.005 A 
ATOM     28  C   UNL d   1      14.645   4.524  -1.337  0.00  0.00     0.025 A 
ATOM     29  C   UNL d   1      13.525   3.759  -0.987  0.00  0.00     0.047 A 
ATOM     30 CL   UNL d   1      13.462   3.111   0.615  0.00  0.00    -0.083 Cl
ENDBRANCH  22  23
ENDBRANCH  18  21
ENDBRANCH  14  15
ENDBRANCH  13  14
ENDBRANCH   2  13
BRANCH   1  31
ATOM     31  C   UNL d   1       0.446   2.095  -0.453  0.00  0.00     0.046 A 
ATOM     32  C   UNL d   1      -0.481   2.162  -1.507  0.00  0.00     0.057 A 
ATOM     33  C   UNL d   1      -0.959   3.400  -1.947  0.00  0.00     0.074 A 
ATOM     34 CL   UNL d   1      -2.042   3.462  -3.284  0.00  0.00    -0.081 Cl
ATOM     35  C   UNL d   1      -0.541   4.570  -1.317  0.00  0.00     0.138 A 
ATOM     36  C   UNL d   1       0.331   4.516  -0.238  0.00  0.00     0.046 A 
ATOM     37  F   UNL d   1      -0.971   5.768  -1.741  0.00  0.00    -0.204 F 
ATOM     38  C   UNL d   1       0.821   3.281   0.198  0.00  0.00     0.033 A 
ENDBRANCH   1  31
TORSDOF 6
