REMARK  7 active torsions:
REMARK  status: ('A' for Active; 'I' for Inactive)
REMARK    1  A    between atoms: C_7  and  C_2 
REMARK    2  A    between atoms: C_8  and  C_3 
REMARK    3  A    between atoms: C_11  and  C_5 
REMARK    4  A    between atoms: O_10  and  C_6 
REMARK    5  A    between atoms: C_16  and  C_11 
REMARK    6  A    between atoms: C_18  and  C_16 
REMARK    7  A    between atoms: C_17  and  C_18 
ROOT
ATOM      1  N   UNL d   1       0.742   1.303  -0.136  0.00  0.00     0.102 N 
ATOM      2  C   UNL d   1       1.403   0.108   0.452  0.00  0.00     0.258 C 
ATOM      3  C   UNL d   1      -0.740   1.304   0.071  0.00  0.00     0.262 C 
ATOM      4  C   UNL d   1       0.775  -1.174  -0.135  0.00  0.00     0.073 C 
ATOM      5  C   UNL d   1      -1.490   0.011  -0.397  0.00  0.00     0.052 C 
ATOM      6  C   UNL d   1      -0.730  -1.251   0.091  0.00  0.00     0.127 C 
ATOM      7  C   UNL d   1       1.172   1.481  -1.526  0.00  0.00     0.311 C 
ENDROOT
BRANCH   2   8
ATOM      8  C   UNL d   1       1.524   0.109   1.985  0.00  0.00    -0.025 A 
ATOM      9  C   UNL d   1       1.168   1.214   2.774  0.00  0.00     0.009 A 
ATOM     10  C   UNL d   1       1.198   1.150   4.169  0.00  0.00     0.001 A 
ATOM     11  C   UNL d   1       1.643  -0.005   4.805  0.00  0.00     0.000 A 
ATOM     12  C   UNL d   1       2.090  -1.080   4.048  0.00  0.00     0.001 A 
ATOM     13  C   UNL d   1       2.044  -1.017   2.651  0.00  0.00     0.009 A 
ENDBRANCH   2   8
BRANCH   3  14
ATOM     14  C   UNL d   1      -1.411   2.609  -0.389  0.00  0.00    -0.025 A 
ATOM     15  C   UNL d   1      -1.576   2.947  -1.744  0.00  0.00     0.009 A 
ATOM     16  C   UNL d   1      -2.315   4.069  -2.128  0.00  0.00     0.001 A 
ATOM     17  C   UNL d   1      -2.919   4.870  -1.164  0.00  0.00     0.000 A 
ATOM     18  C   UNL d   1      -2.745   4.571   0.186  0.00  0.00     0.001 A 
ATOM     19  C   UNL d   1      -1.982   3.465   0.570  0.00  0.00     0.009 A 
ENDBRANCH   3  14
BRANCH   6  20
ATOM     20  O   UNL d   1      -1.022  -1.504   1.466  0.00  0.00    -0.395 OA
ATOM     21  H   UNL d   1      -0.378  -2.141   1.819  0.00  0.00     0.210 HD
ENDBRANCH   6  20
BRANCH   5  22
ATOM     22  C   UNL d   1      -2.955  -0.102   0.142  0.00  0.00     0.010 C 
BRANCH  22  23
ATOM     23  C   UNL d   1      -4.063   0.778  -0.443  0.00  0.00     0.001 C 
BRANCH  23  24
ATOM     24  C   UNL d   1      -4.193   0.765  -1.961  0.00  0.00    -0.000 C 
BRANCH  24  25
ATOM     25  C   UNL d   1      -4.714  -0.561  -2.503  0.00  0.00    -0.005 C 
ATOM     26  C   UNL d   1      -4.742  -0.541  -4.022  0.00  0.00     0.005 C 
ENDBRANCH  24  25
ENDBRANCH  23  24
ENDBRANCH  22  23
ENDBRANCH   5  22
TORSDOF 7
