REMARK  5 active torsions:
REMARK  status: ('A' for Active; 'I' for Inactive)
REMARK    1  A    between atoms: C_4  and  N_1 
REMARK    2  A    between atoms: N_19  and  C_2 
REMARK    3  A    between atoms: C_10  and  C_3 
REMARK    4  A    between atoms: O_21  and  C_10 
REMARK    5  A    between atoms: C_22  and  O_21 
ROOT
ATOM      1  N   UNL d   1       1.556  -1.451   0.234  0.00  0.00    -0.222 N 
ATOM      2  C   UNL d   1       1.610  -0.067   0.423  0.00  0.00     0.140 C 
ATOM      3  C   UNL d   1       0.299   0.348   0.549  0.00  0.00     0.101 C 
ATOM      4  N   UNL d   1       0.343  -1.947   0.605  0.00  0.00    -0.301 N 
ATOM      5  HN  UNL d   1       0.083  -2.917   0.782  1.00  0.00     0.186 HD
ATOM      6  C   UNL d   1      -0.427  -0.852   0.683  0.00  0.00     0.129 C 
ENDROOT
BRANCH   1   7
ATOM      7  C   UNL d   1       2.494  -2.226  -0.509  0.00  0.00     0.143 A 
ATOM      8  C   UNL d   1       2.514  -3.631  -0.485  0.00  0.00     0.044 A 
ATOM      9  C   UNL d   1       3.287  -4.223  -1.480  0.00  0.00     0.088 A 
ATOM     10  C   UNL d   1       1.939  -4.643   0.359  0.00  0.00     0.025 A 
ATOM     11  S   UNL d   1       3.241  -5.926  -1.437  0.00  0.00    -0.083 SA
ATOM     12  N   UNL d   1       4.012  -3.592  -2.419  0.00  0.00    -0.346 N 
ATOM     13  C   UNL d   1       2.271  -5.922  -0.032  0.00  0.00     0.053 A 
ATOM     14  C   UNL d   1       3.990  -2.268  -2.286  0.00  0.00     0.183 A 
ATOM     15  HN  UNL d   1       4.525  -4.077  -3.156  1.00  0.00     0.167 HD
ATOM     16  N   UNL d   1       3.314  -1.559  -1.380  0.00  0.00    -0.336 N 
ATOM     17  HN  UNL d   1       3.405  -0.544  -1.337  1.00  0.00     0.168 HD
ENDBRANCH   1   7
BRANCH   2  18
ATOM     18  N   UNL d   1       2.763   0.651   0.388  0.00  0.00    -0.383 N 
ATOM     19  H   UNL d   1       3.583   0.259  -0.077  0.00  0.00     0.157 HD
ATOM     20  H   UNL d   1       2.713   1.670   0.328  0.00  0.00     0.157 HD
ENDBRANCH   2  18
BRANCH   3  21
ATOM     21  C   UNL d   1      -0.159   1.726   0.500  0.00  0.00     0.298 C 
ATOM     22  O   UNL d   1       0.596   2.687   0.566  0.00  0.00    -0.259 OA
BRANCH  21  23
ATOM     23  O   UNL d   1      -1.502   1.820   0.277  0.00  0.00    -0.318 OA
BRANCH  23  24
ATOM     24  C   UNL d   1      -1.992   3.158   0.072  0.00  0.00     0.174 C 
ATOM     25  C   UNL d   1      -1.829   3.584  -1.377  0.00  0.00     0.034 C 
ENDBRANCH  23  24
ENDBRANCH  21  23
ENDBRANCH   3  21
TORSDOF 5
