REMARK  6 active torsions:
REMARK  status: ('A' for Active; 'I' for Inactive)
REMARK    1  A    between atoms: C_2  and  S_1 
REMARK    2  A    between atoms: C_7  and  S_1 
REMARK    3  A    between atoms: C_3  and  C_8 
REMARK       I    between atoms: C_4  and  N_5 
REMARK    4  A    between atoms: C_11  and  C_4 
REMARK    5  A    between atoms: N_5  and  C_6 
REMARK    6  A    between atoms: C_14  and  C_7 
ROOT
ATOM      1  C   UNL d   1       0.450   1.985  -0.592  0.00  0.00     0.086 C 
ATOM      2  C   UNL d   1      -0.938   1.757  -0.532  0.00  0.00     0.056 C 
ATOM      3  C   UNL d   1       0.947   3.299  -0.583  0.00  0.00     0.026 C 
ATOM      4  C   UNL d   1      -1.794   2.857  -0.688  0.00  0.00     0.031 C 
ATOM      5  C   UNL d   1       0.075   4.381  -0.676  0.00  0.00     0.002 C 
ATOM      6  C   UNL d   1      -1.289   4.157  -0.778  0.00  0.00     0.002 C 
ENDROOT
BRANCH   1   7
ATOM      7  S   UNL d   1       1.581   0.611  -0.738  0.00  0.00     0.181 S 
ATOM      8  O   UNL d   1       1.367   0.090  -2.077  0.00  0.00    -0.222 OA
ATOM      9  O   UNL d   1       1.367  -0.219   0.438  0.00  0.00    -0.222 OA
BRANCH   7  10
ATOM     10  C   UNL d   1       3.217   1.310  -0.642  0.00  0.00     0.184 C 
BRANCH  10  11
ATOM     11  C   UNL d   1       4.282   0.293  -0.954  0.00  0.00    -0.043 A 
ATOM     12  C   UNL d   1       4.787  -0.545   0.045  0.00  0.00     0.024 A 
ATOM     13  C   UNL d   1       5.863  -1.411  -0.225  0.00  0.00     0.048 A 
ATOM     14  C   UNL d   1       6.417  -1.428  -1.515  0.00  0.00     0.016 A 
ATOM     15  C   UNL d   1       5.896  -0.616  -2.520  0.00  0.00     0.001 A 
ATOM     16  C   UNL d   1       4.829   0.236  -2.241  0.00  0.00     0.008 A 
BRANCH  13  17
ATOM     17  C   UNL d   1       6.445  -2.292   0.853  0.00  0.00     0.417 C 
ATOM     18  F   UNL d   1       5.796  -2.193   2.047  0.00  0.00    -0.166 F 
ATOM     19  F   UNL d   1       6.424  -3.612   0.522  0.00  0.00    -0.166 F 
ATOM     20  F   UNL d   1       7.748  -1.992   1.115  0.00  0.00    -0.166 F 
ENDBRANCH  13  17
ENDBRANCH  10  11
ENDBRANCH   7  10
ENDBRANCH   1   7
BRANCH   2  21
ATOM     21  N   UNL d   1      -1.463   0.465  -0.335  0.00  0.00    -0.322 N 
ATOM     22  C   UNL d   1      -2.593   0.028   0.328  0.00  0.00     0.256 C 
ATOM     23  O   UNL d   1      -2.970  -1.131   0.151  0.00  0.00    -0.267 OA
ATOM     24  H   UNL d   1      -0.906  -0.327  -0.648  0.00  0.00     0.169 HD
BRANCH  22  25
ATOM     25  C   UNL d   1      -3.330   0.857   1.331  0.00  0.00     0.032 A 
ATOM     26  C   UNL d   1      -4.676   0.542   1.578  0.00  0.00     0.018 A 
ATOM     27  C   UNL d   1      -5.427   1.280   2.501  0.00  0.00     0.025 A 
ATOM     28  C   UNL d   1      -4.834   2.337   3.184  0.00  0.00     0.034 A 
ATOM     29  C   UNL d   1      -3.483   2.623   2.998  0.00  0.00     0.025 A 
ATOM     30 CL   UNL d   1      -5.769   3.293   4.266  0.00  0.00    -0.084 Cl
ATOM     31  C   UNL d   1      -2.726   1.862   2.099  0.00  0.00     0.018 A 
ENDBRANCH  22  25
ENDBRANCH   2  21
TORSDOF 6
