REMARK  2 active torsions:
REMARK  status: ('A' for Active; 'I' for Inactive)
REMARK    1  A    between atoms: C_2  and  S_1 
REMARK    2  A    between atoms: C_6  and  S_1 
ROOT
ATOM      1  C   UNL d   1       0.532  -1.210  -1.319  0.00  0.00     0.133 A 
ATOM      2  N   UNL d   1      -0.815  -1.369  -1.423  0.00  0.00    -0.355 N 
ATOM      3  HN  UNL d   1      -1.461  -0.964  -0.745  1.00  0.00     0.166 HD
ATOM      4  N   UNL d   1      -1.374  -4.036  -5.410  0.00  0.00    -0.191 NA
ATOM      5  C   UNL d   1      -0.942  -3.433  -4.520  0.00  0.00     0.101 C 
ATOM      6  C   UNL d   1      -0.406  -2.688  -3.421  0.00  0.00     0.060 A 
ATOM      7  C   UNL d   1       1.457  -1.760  -2.199  0.00  0.00     0.044 A 
ATOM      8  C   UNL d   1      -1.248  -2.099  -2.484  0.00  0.00     0.111 A 
ATOM      9  C   UNL d   1       0.972  -2.520  -3.264  0.00  0.00     0.027 A 
ENDROOT
BRANCH   1  10
ATOM     10  S   UNL d   1       1.071  -0.092  -0.025  0.00  0.00     0.222 S 
ATOM     11  O   UNL d   1       0.453   1.199  -0.272  0.00  0.00    -0.216 OA
ATOM     12  O   UNL d   1       2.523  -0.197   0.021  0.00  0.00    -0.216 OA
BRANCH  10  13
ATOM     13  C   UNL d   1       0.481  -0.656   1.561  0.00  0.00     0.065 A 
ATOM     14  C   UNL d   1       1.400  -0.974   2.571  0.00  0.00     0.025 A 
ATOM     15  C   UNL d   1       0.939  -1.325   3.843  0.00  0.00     0.025 A 
ATOM     16  C   UNL d   1      -0.431  -1.351   4.101  0.00  0.00     0.034 A 
ATOM     17  C   UNL d   1      -1.347  -1.024   3.099  0.00  0.00     0.025 A 
ATOM     18 CL   UNL d   1      -0.995  -1.770   5.672  0.00  0.00    -0.084 Cl
ATOM     19  C   UNL d   1      -0.892  -0.670   1.824  0.00  0.00     0.025 A 
ENDBRANCH  10  13
ENDBRANCH   1  10
TORSDOF 2
