REMARK  5 active torsions:
REMARK  status: ('A' for Active; 'I' for Inactive)
REMARK    1  A    between atoms: C_11  and  C_1 
REMARK    2  A    between atoms: N_10  and  C_2 
REMARK    3  A    between atoms: C_12  and  C_4 
REMARK       I    between atoms: C_6  and  N_7 
REMARK    4  A    between atoms: C_9  and  C_6 
REMARK       I    between atoms: N_7  and  C_8 
REMARK       I    between atoms: C_8  and  N_10 
REMARK    5  A    between atoms: O_17  and  C_11 
ROOT
ATOM      1  C   UNL d   1       5.043   3.277  -0.997  0.00  0.00     0.261 C 
ATOM      2  N   UNL d   1       4.373   2.646  -2.031  0.00  0.00    -0.275 N 
ATOM      3  C   UNL d   1       3.454   1.647  -1.802  0.00  0.00     0.327 C 
ATOM      4  N   UNL d   1       2.349   2.039  -1.090  0.00  0.00    -0.307 N 
ATOM      5  O   UNL d   1       4.611   3.368   0.146  0.00  0.00    -0.267 OA
ATOM      6  O   UNL d   1       3.641   0.543  -2.315  0.00  0.00    -0.247 OA
ATOM      7  H   UNL d   1       4.950   2.400  -2.821  0.00  0.00     0.173 HD
ATOM      8  H   UNL d   1       2.219   3.043  -0.987  0.00  0.00     0.170 HD
ENDROOT
BRANCH   4   9
ATOM      9  C   UNL d   1       1.253   1.224  -0.797  0.00  0.00     0.060 A 
ATOM     10  C   UNL d   1      -0.029   1.733  -0.657  0.00  0.00     0.107 A 
ATOM     11  S   UNL d   1      -1.148   0.508  -0.245  0.00  0.00    -0.086 SA
ATOM     12  C   UNL d   1       0.019  -0.739  -0.325  0.00  0.00    -0.007 A 
ATOM     13  C   UNL d   1       1.262  -0.201  -0.635  0.00  0.00     0.046 A 
BRANCH  10  14
ATOM     14  C   UNL d   1      -0.472   3.099  -0.888  0.00  0.00     0.302 C 
ATOM     15  O   UNL d   1       0.277   4.056  -1.047  0.00  0.00    -0.259 OA
BRANCH  14  16
ATOM     16  O   UNL d   1      -1.832   3.166  -0.996  0.00  0.00    -0.322 OA
ATOM     17  C   UNL d   1      -2.357   4.428  -1.404  0.00  0.00     0.213 C 
ENDBRANCH  14  16
ENDBRANCH  10  14
BRANCH  12  18
ATOM     18  C   UNL d   1      -0.356  -2.215  -0.111  0.00  0.00    -0.018 C 
ATOM     19  C   UNL d   1      -0.205  -2.966  -1.448  0.00  0.00     0.020 C 
ATOM     20  C   UNL d   1       0.577  -2.851   0.938  0.00  0.00     0.020 C 
ATOM     21  C   UNL d   1      -1.806  -2.420   0.384  0.00  0.00     0.020 C 
ENDBRANCH  12  18
ENDBRANCH   4   9
BRANCH   1  22
ATOM     22  C   UNL d   1       6.344   3.921  -1.366  0.00  0.00     0.054 A 
ATOM     23  C   UNL d   1       6.680   5.206  -0.909  0.00  0.00     0.049 A 
ATOM     24 CL   UNL d   1       5.621   6.185   0.044  0.00  0.00    -0.083 Cl
ATOM     25  C   UNL d   1       7.910   5.780  -1.262  0.00  0.00     0.025 A 
ATOM     26  C   UNL d   1       8.809   5.089  -2.073  0.00  0.00     0.002 A 
ATOM     27  C   UNL d   1       8.485   3.813  -2.530  0.00  0.00     0.001 A 
ATOM     28  C   UNL d   1       7.266   3.223  -2.171  0.00  0.00     0.019 A 
ENDBRANCH   1  22
TORSDOF 5
