REMARK  3 active torsions:
REMARK  status: ('A' for Active; 'I' for Inactive)
REMARK    1  A    between atoms: C_9  and  C_1 
REMARK    2  A    between atoms: C_16  and  N_5 
REMARK    3  A    between atoms: O_14  and  C_9 
ROOT
ATOM      1  C   UNL d   1       2.478   0.799  -0.056  0.00  0.00     0.104 A 
ATOM      2  C   UNL d   1      -0.059   0.736   0.010  0.00  0.00     0.059 A 
ATOM      3  C   UNL d   1      -0.005  -0.662  -0.005  0.00  0.00     0.122 A 
ATOM      4  C   UNL d   1       1.191   1.519   0.034  0.00  0.00     0.204 A 
ATOM      5  N   UNL d   1       1.259  -1.299  -0.015  0.00  0.00    -0.342 N 
ATOM      6  C   UNL d   1       2.417  -0.541  -0.074  0.00  0.00     0.115 A 
ATOM      7  N   UNL d   1      -1.146  -1.395  -0.013  0.00  0.00    -0.345 N 
ATOM      8  HN  UNL d   1      -1.106  -2.414  -0.020  1.00  0.00     0.167 HD
ATOM      9  C   UNL d   1      -1.291   1.391  -0.000  0.00  0.00     0.021 A 
ATOM     10  O   UNL d   1       1.178   2.746   0.119  0.00  0.00    -0.286 OA
ATOM     11  C   UNL d   1      -2.342  -0.752  -0.010  0.00  0.00     0.007 A 
ATOM     12  C   UNL d   1      -2.453   0.633  -0.018  0.00  0.00     0.025 A 
ATOM     13  C   UNL d   1      -3.579  -1.599  -0.008  0.00  0.00     0.068 C 
ENDROOT
BRANCH   1  14
ATOM     14  C   UNL d   1       3.790   1.478  -0.121  0.00  0.00     0.181 C 
ATOM     15  O   UNL d   1       4.849   0.879  -0.222  0.00  0.00    -0.646 OA
BRANCH  14  16
ATOM     16  O   UNL d   1       3.726   2.826  -0.066  0.00  0.00    -0.773 OA
ATOM     17  H   UNL d   1       2.809   3.185   0.023  0.00  0.00     0.167 HD
ENDBRANCH  14  16
ENDBRANCH   1  14
BRANCH   5  18
ATOM     18  C   UNL d   1       1.254  -2.768  -0.029  0.00  0.00     0.125 C 
ATOM     19  C   UNL d   1       1.218  -3.309  -1.451  0.00  0.00     0.027 C 
ENDBRANCH   5  18
TORSDOF 3
