REMARK  3 active torsions:
REMARK  status: ('A' for Active; 'I' for Inactive)
REMARK    1  A    between atoms: C_8  and  C_1 
REMARK    2  A    between atoms: C_11  and  C_8 
REMARK    3  A    between atoms: C_12  and  C_8 
ROOT
ATOM      1  C   UNL d   1       2.267   0.624  -0.070  0.00  0.00     0.137 A 
ATOM      2  C   UNL d   1       0.075   0.909  -0.866  0.00  0.00     0.305 A 
ATOM      3  N   UNL d   1       2.055  -0.508   0.521  0.00  0.00    -0.339 N 
ATOM      4  HN  UNL d   1       2.802  -0.999   1.012  1.00  0.00     0.168 HD
ATOM      5  O   UNL d   1       1.353   1.347  -0.760  0.00  0.00    -0.261 OA
ATOM      6  C   UNL d   1      -0.254  -0.361  -0.212  0.00  0.00     0.105 A 
ATOM      7  C   UNL d   1       0.765  -1.025   0.456  0.00  0.00     0.053 A 
ATOM      8  O   UNL d   1      -0.757   1.552  -1.488  0.00  0.00    -0.259 OA
ATOM      9  C   UNL d   1      -1.539  -0.901  -0.243  0.00  0.00     0.135 A 
ATOM     10  F   UNL d   1      -2.542  -0.284  -0.881  0.00  0.00    -0.205 F 
ATOM     11  C   UNL d   1       0.488  -2.236   1.099  0.00  0.00     0.031 A 
ATOM     12  C   UNL d   1      -0.799  -2.779   1.071  0.00  0.00     0.005 A 
ATOM     13  C   UNL d   1      -1.815  -2.107   0.395  0.00  0.00     0.043 A 
ENDROOT
BRANCH   1  14
ATOM     14  C   UNL d   1       3.608   1.351  -0.017  0.00  0.00     0.098 C 
BRANCH  14  15
ATOM     15  C   UNL d   1       3.660   2.232   1.225  0.00  0.00    -0.046 A 
ATOM     16  C   UNL d   1       3.590   1.685   2.515  0.00  0.00     0.008 A 
ATOM     17  C   UNL d   1       3.580   2.514   3.639  0.00  0.00     0.001 A 
ATOM     18  C   UNL d   1       3.651   3.897   3.488  0.00  0.00     0.000 A 
ATOM     19  C   UNL d   1       3.736   4.454   2.215  0.00  0.00     0.001 A 
ATOM     20  C   UNL d   1       3.739   3.628   1.089  0.00  0.00     0.008 A 
ENDBRANCH  14  15
BRANCH  14  21
ATOM     21  C   UNL d   1       4.819   0.401  -0.150  0.00  0.00     0.002 C 
ATOM     22  C   UNL d   1       6.159   1.149  -0.191  0.00  0.00     0.006 C 
ATOM     23  C   UNL d   1       7.121   0.266  -0.979  0.00  0.00     0.000 C 
ATOM     24  C   UNL d   1       6.274  -0.791  -1.676  0.00  0.00     0.000 C 
ATOM     25  C   UNL d   1       4.826  -0.370  -1.476  0.00  0.00     0.006 C 
ENDBRANCH  14  21
ENDBRANCH   1  14
TORSDOF 3
