REMARK  8 active torsions:
REMARK  status: ('A' for Active; 'I' for Inactive)
REMARK       I    between atoms: N_5  and  C_1 
REMARK    1  A    between atoms: C_6  and  C_1 
REMARK    2  A    between atoms: C_10  and  N_2 
REMARK    3  A    between atoms: C_3  and  C_6 
REMARK    4  A    between atoms: C_8  and  C_3 
REMARK    5  A    between atoms: C_4  and  C_8 
REMARK    6  A    between atoms: O_16  and  C_4 
REMARK    7  A    between atoms: C_13  and  N_5 
REMARK    8  A    between atoms: C_17  and  C_10 
ROOT
ATOM      1  C   UNL d   1      -0.477   1.315  -0.295  0.00  0.00     0.218 C 
ATOM      2  N   UNL d   1       0.546   1.071   0.582  0.00  0.00    -0.356 N 
ATOM      3  O   UNL d   1      -1.053   2.392  -0.436  0.00  0.00    -0.274 OA
ATOM      4  H   UNL d   1       0.813   0.104   0.724  0.00  0.00     0.162 HD
ENDROOT
BRANCH   2   5
ATOM      5  C   UNL d   1       1.203   2.046   1.464  0.00  0.00     0.087 C 
ATOM      6  C   UNL d   1       1.010   3.526   1.135  0.00  0.00     0.055 C 
ATOM      7  C   UNL d   1       1.605   3.884  -0.225  0.00  0.00     0.275 C 
ATOM      8  N   UNL d   1       2.999   3.449  -0.421  0.00  0.00     0.092 N 
ATOM      9  C   UNL d   1       3.279   2.086   0.062  0.00  0.00     0.275 C 
ATOM     10  C   UNL d   1       2.709   1.787   1.451  0.00  0.00     0.055 C 
BRANCH   8  11
ATOM     11  C   UNL d   1       3.297   3.552  -1.872  0.00  0.00     0.311 C 
BRANCH  11  12
ATOM     12  C   UNL d   1       4.737   3.275  -2.222  0.00  0.00    -0.030 A 
ATOM     13  C   UNL d   1       5.081   2.175  -3.025  0.00  0.00     0.009 A 
ATOM     14  C   UNL d   1       6.418   1.916  -3.325  0.00  0.00     0.001 A 
ATOM     15  C   UNL d   1       7.415   2.751  -2.834  0.00  0.00     0.000 A 
ATOM     16  C   UNL d   1       7.084   3.850  -2.040  0.00  0.00     0.001 A 
ATOM     17  C   UNL d   1       5.748   4.110  -1.738  0.00  0.00     0.009 A 
ENDBRANCH  11  12
ENDBRANCH   8  11
ENDBRANCH   2   5
BRANCH   1  18
ATOM     18  C   UNL d   1      -0.910   0.117  -1.113  0.00  0.00     0.112 C 
BRANCH  18  19
ATOM     19  C   UNL d   1      -2.285  -0.394  -0.646  0.00  0.00    -0.023 C 
ATOM     20  C   UNL d   1      -2.180  -0.931   0.797  0.00  0.00     0.010 C 
ATOM     21  C   UNL d   1      -3.282  -1.973   0.932  0.00  0.00     0.001 C 
ATOM     22  C   UNL d   1      -3.614  -2.431  -0.486  0.00  0.00     0.001 C 
ATOM     23  C   UNL d   1      -2.671  -1.671  -1.414  0.00  0.00     0.010 C 
BRANCH  19  24
ATOM     24  C   UNL d   1      -3.400   0.686  -0.734  0.00  0.00     0.119 C 
BRANCH  24  25
ATOM     25  C   UNL d   1      -3.555   1.323  -2.097  0.00  0.00     0.140 C 
ATOM     26  O   UNL d   1      -4.277   0.865  -2.974  0.00  0.00    -0.650 OA
BRANCH  25  27
ATOM     27  O   UNL d   1      -2.814   2.435  -2.288  0.00  0.00    -0.776 OA
ATOM     28  H   UNL d   1      -2.230   2.667  -1.522  0.00  0.00     0.167 HD
ENDBRANCH  25  27
ENDBRANCH  24  25
ENDBRANCH  19  24
ENDBRANCH  18  19
ENDBRANCH   1  18
TORSDOF 8
