REMARK  1 active torsions:
REMARK  status: ('A' for Active; 'I' for Inactive)
REMARK    1  A    between atoms: O_11  and  N_6 
ROOT
ATOM      1  C   UNL d   1      -0.855  -1.232  -0.000  0.00  0.00     0.135 A 
ATOM      2  C   UNL d   1       0.604  -0.735  -0.048  0.00  0.00     0.277 A 
ATOM      3  N   UNL d   1       0.509   0.647  -0.108  0.00  0.00    -0.316 N 
ATOM      4  C   UNL d   1      -1.690  -0.032  -0.031  0.00  0.00     0.025 A 
ATOM      5  C   UNL d   1      -0.829   1.062  -0.094  0.00  0.00     0.049 A 
ATOM      6  N   UNL d   1      -1.306  -2.447   0.050  0.00  0.00    -0.261 N 
ATOM      7  HN  UNL d   1      -2.294  -2.700   0.078  1.00  0.00     0.194 HD
ATOM      8  O   UNL d   1       1.607  -1.416  -0.035  0.00  0.00    -0.265 OA
ATOM      9  C   UNL d   1       1.637   1.535  -0.185  0.00  0.00     0.159 C 
ATOM     10  C   UNL d   1      -3.064   0.105  -0.006  0.00  0.00     0.016 A 
ATOM     11  C   UNL d   1      -1.327   2.352  -0.138  0.00  0.00     0.031 A 
ATOM     12  C   UNL d   1      -3.578   1.404  -0.047  0.00  0.00     0.001 A 
ATOM     13  C   UNL d   1      -2.717   2.517  -0.112  0.00  0.00     0.002 A 
ENDROOT
BRANCH   6  14
ATOM     14  O   UNL d   1      -0.246  -3.361   0.060  0.00  0.00    -0.285 OA
ATOM     15  C   UNL d   1      -0.762  -4.683   0.112  0.00  0.00     0.237 C 
ENDBRANCH   6  14
TORSDOF 1
