REMARK  8 active torsions:
REMARK  status: ('A' for Active; 'I' for Inactive)
REMARK    1  A    between atoms: C_2  and  C_1 
REMARK    2  A    between atoms: C_11  and  C_2 
REMARK    3  A    between atoms: N_13  and  N_5 
REMARK    4  A    between atoms: N_19  and  C_7 
REMARK    5  A    between atoms: C_8  and  C_12 
REMARK    6  A    between atoms: O_21  and  C_11 
REMARK    7  A    between atoms: C_20  and  N_13 
REMARK    8  A    between atoms: C_25  and  O_21 
ROOT
ATOM      1  C   UNL d   1      -1.969  -2.435   0.050  0.00  0.00     0.151 C 
ATOM      2  N   UNL d   1      -3.268  -2.314   0.147  0.00  0.00    -0.293 N 
ATOM      3  HN  UNL d   1      -3.860  -3.141   0.225  1.00  0.00     0.187 HD
ENDROOT
BRANCH   1   4
ATOM      4  C   UNL d   1      -1.443  -3.803   0.011  0.00  0.00     0.075 A 
ATOM      5  N   UNL d   1      -0.075  -4.062  -0.077  0.00  0.00    -0.335 N 
ATOM      6  C   UNL d   1       0.162  -5.348  -0.031  0.00  0.00     0.142 A 
ATOM      7  HN  UNL d   1       0.645  -3.345  -0.167  1.00  0.00     0.168 HD
ATOM      8  S   UNL d   1      -1.232  -6.347   0.007  0.00  0.00    -0.064 SA
ATOM      9  C   UNL d   1      -2.222  -4.951   0.041  0.00  0.00     0.085 A 
BRANCH   6  10
ATOM     10  N   UNL d   1       1.398  -5.862  -0.019  0.00  0.00    -0.380 N 
ATOM     11  H   UNL d   1       2.166  -5.241  -0.244  0.00  0.00     0.158 HD
ATOM     12  H   UNL d   1       1.543  -6.840  -0.230  0.00  0.00     0.158 HD
ENDBRANCH   6  10
ENDBRANCH   1   4
BRANCH   1  13
ATOM     13  C   UNL d   1      -1.030  -1.231  -0.080  0.00  0.00     0.313 C 
ATOM     14  O   UNL d   1      -1.344  -0.236  -0.719  0.00  0.00    -0.257 OA
BRANCH  13  15
ATOM     15  O   UNL d   1       0.153  -1.462   0.518  0.00  0.00    -0.317 OA
BRANCH  15  16
ATOM     16  C   UNL d   1       1.264  -0.723  -0.003  0.00  0.00     0.175 C 
ATOM     17  C   UNL d   1       1.762  -1.395  -1.275  0.00  0.00     0.034 C 
ENDBRANCH  15  16
ENDBRANCH  13  15
ENDBRANCH   1  13
BRANCH   2  18
ATOM     18  N   UNL d   1      -3.819  -1.067   0.141  0.00  0.00    -0.300 N 
ATOM     19  H   UNL d   1      -3.314  -0.292  -0.306  0.00  0.00     0.187 HD
BRANCH  18  20
ATOM     20  C   UNL d   1      -5.224  -0.964   0.033  0.00  0.00     0.048 A 
ATOM     21  C   UNL d   1      -6.067  -2.077   0.164  0.00  0.00     0.047 A 
ATOM     22  C   UNL d   1      -7.466  -1.950   0.136  0.00  0.00     0.050 A 
ATOM     23  C   UNL d   1      -8.028  -0.673   0.008  0.00  0.00     0.016 A 
ATOM     24  C   UNL d   1      -7.206   0.448  -0.100  0.00  0.00     0.003 A 
ATOM     25  C   UNL d   1      -5.816   0.301  -0.082  0.00  0.00     0.031 A 
BRANCH  22  26
ATOM     26  C   UNL d   1      -8.356  -3.161   0.255  0.00  0.00     0.417 C 
ATOM     27  F   UNL d   1      -7.679  -4.342   0.311  0.00  0.00    -0.166 F 
ATOM     28  F   UNL d   1      -9.137  -3.127   1.370  0.00  0.00    -0.166 F 
ATOM     29  F   UNL d   1      -9.217  -3.279  -0.796  0.00  0.00    -0.166 F 
ENDBRANCH  22  26
ENDBRANCH  18  20
ENDBRANCH   2  18
TORSDOF 8
