REMARK  1 active torsions:
REMARK  status: ('A' for Active; 'I' for Inactive)
REMARK    1  A    between atoms: C_6  and  C_1 
ROOT
ATOM      1  C   UNL d   1      -2.457   0.702  -0.401  0.00  0.00     0.233 C 
ATOM      2  O   UNL d   1      -2.354  -0.569   0.258  0.00  0.00    -0.296 OA
ATOM      3  C   UNL d   1      -1.245  -1.317   0.057  0.00  0.00     0.296 C 
ATOM      4  S   UNL d   1      -1.192   1.868   0.169  0.00  0.00    -0.091 SA
ATOM      5  C   UNL d   1       0.067  -0.616  -0.014  0.00  0.00     0.056 A 
ATOM      6  C   UNL d   1       0.195   0.774   0.061  0.00  0.00     0.019 A 
ATOM      7  O   UNL d   1      -1.305  -2.540   0.032  0.00  0.00    -0.259 OA
ATOM      8  C   UNL d   1       1.224  -1.411  -0.094  0.00  0.00     0.019 A 
ATOM      9  C   UNL d   1       1.474   1.351   0.066  0.00  0.00     0.019 A 
ATOM     10  C   UNL d   1       2.492  -0.828  -0.089  0.00  0.00     0.001 A 
ATOM     11  C   UNL d   1       2.617   0.554  -0.007  0.00  0.00     0.001 A 
ENDROOT
BRANCH   1  12
ATOM     12  C   UNL d   1      -3.833   1.287  -0.135  0.00  0.00     0.003 A 
ATOM     13  C   UNL d   1      -4.500   2.089  -1.078  0.00  0.00     0.043 A 
ATOM     14 CL   UNL d   1      -3.842   2.405  -2.646  0.00  0.00    -0.084 Cl
ATOM     15  C   UNL d   1      -5.729   2.684  -0.770  0.00  0.00     0.024 A 
ATOM     16  C   UNL d   1      -6.311   2.492   0.481  0.00  0.00     0.002 A 
ATOM     17  C   UNL d   1      -5.670   1.700   1.428  0.00  0.00     0.001 A 
ATOM     18  C   UNL d   1      -4.444   1.105   1.124  0.00  0.00     0.012 A 
ENDBRANCH   1  12
TORSDOF 1
