REMARK  7 active torsions:
REMARK  status: ('A' for Active; 'I' for Inactive)
REMARK    1  A    between atoms: N_4  and  S_1 
REMARK    2  A    between atoms: C_7  and  S_1 
REMARK    3  A    between atoms: C_5  and  C_2 
REMARK    4  A    between atoms: N_6  and  C_3 
REMARK    5  A    between atoms: C_12  and  N_4 
REMARK    6  A    between atoms: O_21  and  C_5 
REMARK    7  A    between atoms: C_22  and  C_14 
ROOT
ATOM      1  C   UNL d   1       2.421   0.329  -4.235  0.00  0.00     0.068 A 
ATOM      2  C   UNL d   1       1.504   0.113  -5.299  0.00  0.00     0.046 A 
ATOM      3  C   UNL d   1       2.078   0.011  -2.900  0.00  0.00     0.050 A 
ATOM      4  C   UNL d   1       0.206  -0.293  -4.916  0.00  0.00     0.033 A 
ATOM      5  C   UNL d   1       0.810  -0.471  -2.595  0.00  0.00     0.043 A 
ATOM      6  C   UNL d   1      -0.142  -0.575  -3.592  0.00  0.00     0.032 A 
ENDROOT
BRANCH   5   7
ATOM      7  N   UNL d   1       0.469  -0.830  -1.264  0.00  0.00    -0.281 N 
ATOM      8  H   UNL d   1      -0.065  -1.688  -1.132  0.00  0.00     0.179 HD
BRANCH   7   9
ATOM      9  S   UNL d   1       0.017   0.368  -0.167  0.00  0.00     0.263 S 
ATOM     10  O   UNL d   1       1.039   1.387  -0.131  0.00  0.00    -0.200 OA
ATOM     11  O   UNL d   1      -0.392  -0.331   1.039  0.00  0.00    -0.200 OA
BRANCH   9  12
ATOM     12  C   UNL d   1      -1.452   1.077  -0.885  0.00  0.00     0.079 A 
ATOM     13  C   UNL d   1      -2.706   0.531  -0.591  0.00  0.00     0.026 A 
ATOM     14  C   UNL d   1      -3.863   1.142  -1.089  0.00  0.00     0.009 A 
ATOM     15  C   UNL d   1      -3.783   2.303  -1.876  0.00  0.00    -0.055 A 
ATOM     16  C   UNL d   1      -2.513   2.834  -2.157  0.00  0.00     0.009 A 
ATOM     17  C   UNL d   1      -1.353   2.231  -1.663  0.00  0.00     0.026 A 
BRANCH  15  18
ATOM     18  C   UNL d   1      -5.025   2.999  -2.414  0.00  0.00     0.010 C 
ATOM     19  C   UNL d   1      -5.821   2.093  -3.357  0.00  0.00     0.015 C 
ATOM     20  C   UNL d   1      -5.924   3.533  -1.296  0.00  0.00     0.015 C 
ENDBRANCH  15  18
ENDBRANCH   9  12
ENDBRANCH   7   9
ENDBRANCH   5   7
BRANCH   1  21
ATOM     21  C   UNL d   1       3.722   1.035  -4.441  0.00  0.00     0.295 C 
ATOM     22  O   UNL d   1       3.897   1.946  -5.234  0.00  0.00    -0.259 OA
BRANCH  21  23
ATOM     23  O   UNL d   1       4.681   0.506  -3.634  0.00  0.00    -0.322 OA
ATOM     24  C   UNL d   1       5.962   1.137  -3.752  0.00  0.00     0.213 C 
ENDBRANCH  21  23
ENDBRANCH   1  21
BRANCH   2  25
ATOM     25  N   UNL d   1       1.801   0.199  -6.650  0.00  0.00    -0.376 N 
ATOM     26  C   UNL d   1       3.148  -0.064  -7.195  0.00  0.00     0.149 C 
ATOM     27  C   UNL d   1       3.056  -1.095  -8.331  0.00  0.00     0.187 C 
ATOM     28  O   UNL d   1       2.159  -0.665  -9.365  0.00  0.00    -0.388 OA
ATOM     29  C   UNL d   1       0.840  -0.474  -8.828  0.00  0.00     0.187 C 
ATOM     30  C   UNL d   1       0.824   0.567  -7.694  0.00  0.00     0.149 C 
ENDBRANCH   2  25
TORSDOF 7
