REMARK  4 active torsions:
REMARK  status: ('A' for Active; 'I' for Inactive)
REMARK    1  A    between atoms: C_2  and  S_1 
REMARK    2  A    between atoms: N_5  and  S_1 
REMARK    3  A    between atoms: C_8  and  C_3 
REMARK    4  A    between atoms: C_4  and  N_5 
REMARK       I    between atoms: N_18  and  C_8 
ROOT
ATOM      1  S   UNL d   1       0.794  -0.077  -0.038  0.00  0.00     0.247 S 
ATOM      2  O   UNL d   1       0.988   1.345   0.130  0.00  0.00    -0.205 OA
ATOM      3  O   UNL d   1      -0.329  -0.724   0.613  0.00  0.00    -0.205 OA
ENDROOT
BRANCH   1   4
ATOM      4  C   UNL d   1       2.246  -0.983   0.423  0.00  0.00     0.098 A 
ATOM      5  C   UNL d   1       2.068  -2.338   0.762  0.00  0.00     0.052 A 
ATOM      6  C   UNL d   1       3.148  -3.110   1.198  0.00  0.00     0.057 A 
ATOM      7 CL   UNL d   1       2.850  -4.766   1.586  0.00  0.00    -0.083 Cl
ATOM      8  C   UNL d   1       4.412  -2.529   1.315  0.00  0.00     0.057 A 
ATOM      9  C   UNL d   1       4.588  -1.182   0.983  0.00  0.00     0.051 A 
ATOM     10 CL   UNL d   1       5.792  -3.410   1.865  0.00  0.00    -0.082 Cl
ATOM     11  C   UNL d   1       3.513  -0.404   0.529  0.00  0.00     0.058 A 
ATOM     12 CL   UNL d   1       3.895   1.223   0.104  0.00  0.00    -0.083 Cl
ENDBRANCH   1   4
BRANCH   1  13
ATOM     13  N   UNL d   1       0.608  -0.460  -1.684  0.00  0.00    -0.180 NA
ATOM     14  H   UNL d   1      -0.337  -0.845  -1.758  0.00  0.00     0.146 HD
BRANCH  13  15
ATOM     15  C   UNL d   1       0.926   0.498  -2.667  0.00  0.00     0.045 A 
ATOM     16  C   UNL d   1       2.054   0.491  -3.473  0.00  0.00     0.094 A 
ATOM     17  S   UNL d   1       2.026   1.802  -4.589  0.00  0.00    -0.095 SA
ATOM     18  C   UNL d   1       0.503   2.336  -4.042  0.00  0.00     0.052 A 
ATOM     19  C   UNL d   1       0.025   1.550  -3.019  0.00  0.00     0.033 A 
BRANCH  16  20
ATOM     20  C   UNL d   1       3.151  -0.465  -3.474  0.00  0.00     0.258 C 
ATOM     21  O   UNL d   1       3.311  -1.349  -2.634  0.00  0.00    -0.267 OA
ATOM     22  N   UNL d   1       4.045  -0.380  -4.507  0.00  0.00    -0.365 N 
ATOM     23  H   UNL d   1       3.945   0.302  -5.246  0.00  0.00     0.159 HD
ATOM     24  H   UNL d   1       4.780  -1.071  -4.561  0.00  0.00     0.159 HD
ENDBRANCH  16  20
ENDBRANCH  13  15
ENDBRANCH   1  13
TORSDOF 4
