REMARK  3 active torsions:
REMARK  status: ('A' for Active; 'I' for Inactive)
REMARK    1  A    between atoms: C_8  and  C_1 
REMARK    2  A    between atoms: C_13  and  N_6 
REMARK    3  A    between atoms: C_15  and  C_13 
ROOT
ATOM      1  C   UNL d   1      -1.062  -0.009   0.423  0.00  0.00     0.144 A 
ATOM      2  N   UNL d   1      -0.330   0.916  -0.223  0.00  0.00    -0.268 N 
ATOM      3  HN  UNL d   1      -0.630   1.680  -0.828  1.00  0.00     0.190 HD
ATOM      4  N   UNL d   1      -0.287  -0.882   1.148  0.00  0.00    -0.266 N 
ATOM      5  HN  UNL d   1      -0.619  -1.668   1.707  1.00  0.00     0.186 HD
ATOM      6  N   UNL d   1       0.914   0.552   0.154  0.00  0.00    -0.212 N 
ATOM      7  N   UNL d   1       0.974  -0.508   0.983  0.00  0.00    -0.002 NA
ENDROOT
BRANCH   1   8
ATOM      8  C   UNL d   1      -2.520  -0.034   0.429  0.00  0.00     0.014 A 
ATOM      9  C   UNL d   1      -3.243   0.848  -0.387  0.00  0.00     0.039 A 
ATOM     10  C   UNL d   1      -4.636   0.867  -0.341  0.00  0.00     0.036 A 
ATOM     11 CL   UNL d   1      -5.507   1.968  -1.337  0.00  0.00    -0.084 Cl
ATOM     12  C   UNL d   1      -5.328   0.013   0.511  0.00  0.00     0.047 A 
ATOM     13  C   UNL d   1      -4.614  -0.871   1.316  0.00  0.00     0.036 A 
ATOM     14  C   UNL d   1      -3.217  -0.902   1.278  0.00  0.00     0.039 A 
ATOM     15 CL   UNL d   1      -5.462  -1.925   2.381  0.00  0.00    -0.084 Cl
ENDBRANCH   1   8
BRANCH   6  16
ATOM     16  C   UNL d   1       2.050   1.438  -0.028  0.00  0.00     0.205 C 
BRANCH  16  17
ATOM     17  C   UNL d   1       2.825   1.133  -1.282  0.00  0.00    -0.037 A 
ATOM     18  C   UNL d   1       2.475   1.729  -2.502  0.00  0.00     0.009 A 
ATOM     19  C   UNL d   1       3.219   1.473  -3.656  0.00  0.00     0.007 A 
ATOM     20  C   UNL d   1       4.321   0.612  -3.615  0.00  0.00    -0.062 A 
ATOM     21  C   UNL d   1       4.661   0.002  -2.403  0.00  0.00     0.007 A 
ATOM     22  C   UNL d   1       5.113   0.347  -4.861  0.00  0.00     0.048 C 
ATOM     23  C   UNL d   1       3.918   0.256  -1.247  0.00  0.00     0.009 A 
ENDBRANCH  16  17
ENDBRANCH   6  16
TORSDOF 3
