REMARK  2 active torsions:
REMARK  status: ('A' for Active; 'I' for Inactive)
REMARK    1  A    between atoms: C_6  and  N_1 
REMARK    2  A    between atoms: N_7  and  C_6 
ROOT
ATOM      1  N   UNL d   1       0.002  -1.299  -0.081  0.00  0.00    -0.319 N 
ATOM      2  C   UNL d   1       1.017  -0.355  -0.199  0.00  0.00     0.047 A 
ATOM      3  C   UNL d   1       0.431   0.902  -0.007  0.00  0.00     0.005 A 
ATOM      4  C   UNL d   1      -1.232  -0.649   0.012  0.00  0.00     0.047 A 
ATOM      5  C   UNL d   1      -0.977   0.721   0.072  0.00  0.00     0.003 A 
ATOM      6  C   UNL d   1       2.397  -0.468  -0.448  0.00  0.00     0.032 A 
ATOM      7  C   UNL d   1       1.248   2.056   0.026  0.00  0.00     0.038 A 
ATOM      8  C   UNL d   1       2.622   1.926  -0.160  0.00  0.00     0.035 A 
ATOM      9  C   UNL d   1       3.189   0.686  -0.414  0.00  0.00     0.026 A 
ATOM     10 CL   UNL d   1       3.622   3.326  -0.084  0.00  0.00    -0.084 Cl
ATOM     11  C   UNL d   1      -2.550  -1.147   0.034  0.00  0.00     0.030 A 
ATOM     12  C   UNL d   1      -2.063   1.623   0.161  0.00  0.00     0.014 A 
ATOM     13  C   UNL d   1      -3.609  -0.231   0.114  0.00  0.00     0.002 A 
ATOM     14  C   UNL d   1      -3.372   1.136   0.176  0.00  0.00     0.001 A 
ENDROOT
BRANCH   1  15
ATOM     15  C   UNL d   1       0.086  -2.778  -0.148  0.00  0.00     0.403 C 
BRANCH  15  16
ATOM     16  N   UNL d   1       1.442  -3.292   0.067  0.00  0.00     0.110 N 
ATOM     17  C   UNL d   1       1.857  -3.330   1.486  0.00  0.00     0.300 C 
ATOM     18  C   UNL d   1       1.359  -4.545   2.293  0.00  0.00     0.198 C 
ATOM     19  O   UNL d   1       1.616  -5.784   1.623  0.00  0.00    -0.388 OA
ATOM     20  C   UNL d   1       1.054  -5.781   0.308  0.00  0.00     0.198 C 
ATOM     21  C   UNL d   1       1.633  -4.630  -0.526  0.00  0.00     0.300 C 
ENDBRANCH  15  16
ENDBRANCH   1  15
TORSDOF 2
