REMARK  6 active torsions:
REMARK  status: ('A' for Active; 'I' for Inactive)
REMARK    1  A    between atoms: N_4  and  C_1 
REMARK    2  A    between atoms: N_5  and  C_2 
REMARK    3  A    between atoms: O_10  and  C_3 
REMARK    4  A    between atoms: C_6  and  C_7 
REMARK    5  A    between atoms: C_18  and  O_10 
REMARK    6  A    between atoms: S_20  and  C_19 
ROOT
ATOM      1  C   UNL d   1       1.401  -0.066  -0.022  0.00  0.00     0.140 A 
ATOM      2  C   UNL d   1      -0.747  -1.094   0.017  0.00  0.00     0.140 A 
ATOM      3  C   UNL d   1       0.648  -1.250  -0.072  0.00  0.00     0.142 A 
ATOM      4  C   UNL d   1      -0.600   1.329   0.164  0.00  0.00     0.052 A 
ATOM      5  C   UNL d   1      -1.374   0.164   0.135  0.00  0.00     0.055 A 
ATOM      6  C   UNL d   1       0.793   1.203   0.071  0.00  0.00     0.055 A 
ENDROOT
BRANCH   3   7
ATOM      7  O   UNL d   1       1.119  -2.543  -0.087  0.00  0.00    -0.306 OA
BRANCH   7   8
ATOM      8  C   UNL d   1       2.222  -2.893  -0.826  0.00  0.00     0.076 C 
ATOM      9  C   UNL d   1       3.006  -3.925  -0.307  0.00  0.00     0.038 C 
ATOM     10  C   UNL d   1       4.227  -4.254  -0.908  0.00  0.00     0.021 C 
ATOM     11  C   UNL d   1       4.677  -3.544  -2.024  0.00  0.00    -0.000 C 
ATOM     12  C   UNL d   1       3.832  -2.582  -2.592  0.00  0.00     0.021 C 
ATOM     13  C   UNL d   1       2.589  -2.289  -2.025  0.00  0.00     0.038 C 
BRANCH  11  14
ATOM     14  S   UNL d   1       6.255  -3.820  -2.813  0.00  0.00    -0.134 SA
ATOM     15  C   UNL d   1       7.313  -4.291  -1.417  0.00  0.00     0.095 C 
ENDBRANCH  11  14
ENDBRANCH   7   8
ENDBRANCH   3   7
BRANCH   2  16
ATOM     16  N   UNL d   1      -1.613  -2.263   0.002  0.00  0.00    -0.113 N 
ATOM     17  O   UNL d   1      -1.565  -2.991  -0.997  0.00  0.00    -0.532 OA
ATOM     18  O   UNL d   1      -2.376  -2.401   0.966  0.00  0.00    -0.532 OA
ENDBRANCH   2  16
BRANCH   1  19
ATOM     19  N   UNL d   1       2.851  -0.045  -0.004  0.00  0.00    -0.113 N 
ATOM     20  O   UNL d   1       3.415  -0.614   0.942  0.00  0.00    -0.532 OA
ATOM     21  O   UNL d   1       3.415   0.605  -0.896  0.00  0.00    -0.532 OA
ENDBRANCH   1  19
BRANCH   4  22
ATOM     22  C   UNL d   1      -1.215   2.701   0.326  0.00  0.00     0.417 C 
ATOM     23  F   UNL d   1      -2.569   2.676   0.435  0.00  0.00    -0.166 F 
ATOM     24  F   UNL d   1      -0.753   3.334   1.437  0.00  0.00    -0.166 F 
ATOM     25  F   UNL d   1      -0.929   3.517  -0.723  0.00  0.00    -0.166 F 
ENDBRANCH   4  22
TORSDOF 6
