REMARK  6 active torsions:
REMARK  status: ('A' for Active; 'I' for Inactive)
REMARK    1  A    between atoms: S_4  and  C_1 
REMARK    2  A    between atoms: S_7  and  C_1 
REMARK    3  A    between atoms: C_2  and  C_5 
REMARK    4  A    between atoms: C_12  and  S_4 
REMARK    5  A    between atoms: C_5  and  C_10 
REMARK    6  A    between atoms: C_10  and  S_7 
ROOT
ATOM      1  C   UNL d   1      -2.389  -1.937  -1.526  0.00  0.00     0.169 C 
ATOM      2  O   UNL d   1      -3.526  -1.703  -1.938  0.00  0.00    -0.291 OA
ENDROOT
BRANCH   1   3
ATOM      3  C   UNL d   1      -1.858  -3.331  -1.681  0.00  0.00     0.011 A 
ATOM      4  C   UNL d   1      -0.488  -3.631  -1.750  0.00  0.00     0.023 A 
ATOM      5  C   UNL d   1      -0.037  -4.929  -2.044  0.00  0.00    -0.039 A 
ATOM      6  C   UNL d   1       1.440  -5.158  -2.227  0.00  0.00     0.050 C 
ATOM      7  C   UNL d   1      -0.978  -5.953  -2.208  0.00  0.00     0.040 A 
ATOM      8  C   UNL d   1      -2.342  -5.679  -2.088  0.00  0.00     0.025 A 
ATOM      9 CL   UNL d   1      -0.499  -7.567  -2.586  0.00  0.00    -0.084 Cl
ATOM     10  C   UNL d   1      -2.778  -4.373  -1.840  0.00  0.00     0.017 A 
ENDBRANCH   1   3
BRANCH   1  11
ATOM     11  C   UNL d   1      -1.607  -0.863  -0.789  0.00  0.00     0.164 C 
BRANCH  11  12
ATOM     12  S   UNL d   1      -0.163  -0.278  -1.708  0.00  0.00    -0.104 SA
BRANCH  12  13
ATOM     13  C   UNL d   1       0.597   0.812  -0.553  0.00  0.00     0.105 C 
ATOM     14  S   UNL d   1       0.839   0.462   1.069  0.00  0.00    -0.065 SA
BRANCH  13  15
ATOM     15  S   UNL d   1       1.007   2.370  -1.254  0.00  0.00    -0.102 SA
BRANCH  15  16
ATOM     16  C   UNL d   1       2.767   2.199  -1.777  0.00  0.00     0.003 C 
ATOM     17  C   UNL d   1       2.952   1.131  -2.862  0.00  0.00     0.026 C 
ATOM     18  C   UNL d   1       3.152   3.569  -2.368  0.00  0.00     0.026 C 
ATOM     19  C   UNL d   1       3.694   1.910  -0.591  0.00  0.00     0.026 C 
ENDBRANCH  15  16
ENDBRANCH  13  15
ENDBRANCH  12  13
ENDBRANCH  11  12
ENDBRANCH   1  11
TORSDOF 6
