REMARK  4 active torsions:
REMARK  status: ('A' for Active; 'I' for Inactive)
REMARK    1  A    between atoms: C_8  and  C_4 
REMARK    2  A    between atoms: C_9  and  C_8 
REMARK    3  A    between atoms: O_11  and  C_9 
REMARK    4  A    between atoms: C_12  and  O_11 
ROOT
ATOM      1  N   UNL d   1       1.547   2.364  -3.442  0.00  0.00    -0.005 NA
ATOM      2  N   UNL d   1       1.016   3.015  -2.419  0.00  0.00    -0.270 N 
ATOM      3  HN  UNL d   1       0.620   3.955  -2.434  1.00  0.00     0.185 HD
ATOM      4  C   UNL d   1       1.101   2.179  -1.334  0.00  0.00     0.119 A 
ATOM      5  N   UNL d   1       1.708   1.015  -1.618  0.00  0.00    -0.275 N 
ATOM      6  HN  UNL d   1       1.928   0.224  -1.013  1.00  0.00     0.189 HD
ATOM      7  N   UNL d   1       1.941   1.192  -2.931  0.00  0.00    -0.225 N 
ATOM      8  H   UNL d   1       2.393   0.486  -3.504  0.00  0.00     0.205 HD
ENDROOT
BRANCH   4   9
ATOM      9  C   UNL d   1       0.621   2.544   0.013  0.00  0.00     0.190 C 
BRANCH   9  10
ATOM     10  C   UNL d   1      -0.613   3.392  -0.098  0.00  0.00     0.265 C 
ATOM     11  O   UNL d   1      -1.754   2.948  -0.183  0.00  0.00    -0.265 OA
BRANCH  10  12
ATOM     12  O   UNL d   1      -0.275   4.711  -0.179  0.00  0.00    -0.322 OA
BRANCH  12  13
ATOM     13  C   UNL d   1      -1.286   5.575  -0.715  0.00  0.00     0.174 C 
ATOM     14  C   UNL d   1      -1.178   5.566  -2.230  0.00  0.00     0.034 C 
ENDBRANCH  12  13
ENDBRANCH  10  12
ENDBRANCH   9  10
ENDBRANCH   4   9
TORSDOF 4
