REMARK  6 active torsions:
REMARK  status: ('A' for Active; 'I' for Inactive)
REMARK    1  A    between atoms: N_3  and  C_10 
REMARK    2  A    between atoms: C_11  and  C_4 
REMARK    3  A    between atoms: C_13  and  C_8 
REMARK    4  A    between atoms: C_9  and  O_17 
REMARK    5  A    between atoms: C_21  and  C_16 
REMARK    6  A    between atoms: O_17  and  C_22 
ROOT
ATOM      1  N   UNL d   1       0.991  -0.654   0.058  0.00  0.00    -0.277 N 
ATOM      2  HN  UNL d   1       1.829  -1.235   0.057  1.00  0.00     0.189 HD
ATOM      3  C   UNL d   1      -0.256  -1.067   0.076  0.00  0.00     0.174 A 
ATOM      4  O   UNL d   1      -1.153  -0.035   0.068  0.00  0.00    -0.274 OA
ATOM      5  N   UNL d   1       0.939   0.717   0.042  0.00  0.00    -0.278 N 
ATOM      6  HN  UNL d   1       1.742   1.347   0.025  1.00  0.00     0.189 HD
ATOM      7  C   UNL d   1      -0.337   1.081   0.052  0.00  0.00     0.164 A 
ENDROOT
BRANCH   7   8
ATOM      8  C   UNL d   1      -0.796   2.420   0.040  0.00  0.00     0.059 C 
ATOM      9  C   UNL d   1      -2.097   2.756   0.026  0.00  0.00     0.015 C 
BRANCH   9  10
ATOM     10  C   UNL d   1      -2.541   4.157  -0.055  0.00  0.00    -0.036 A 
ATOM     11  C   UNL d   1      -1.780   5.127  -0.724  0.00  0.00     0.014 A 
ATOM     12  C   UNL d   1      -2.212   6.450  -0.817  0.00  0.00     0.038 A 
ATOM     13  C   UNL d   1      -3.449   6.820  -0.303  0.00  0.00     0.078 A 
ATOM     14  C   UNL d   1      -4.211   5.866   0.378  0.00  0.00     0.038 A 
ATOM     15  C   UNL d   1      -3.768   4.542   0.495  0.00  0.00     0.014 A 
BRANCH  13  16
ATOM     16  O   UNL d   1      -3.993   8.065  -0.363  0.00  0.00    -0.255 OA
BRANCH  16  17
ATOM     17  C   UNL d   1      -3.672   8.922  -1.453  0.00  0.00     0.530 C 
ATOM     18  F   UNL d   1      -2.948   8.342  -2.433  0.00  0.00    -0.144 F 
ATOM     19  F   UNL d   1      -4.826   9.359  -2.006  0.00  0.00    -0.144 F 
ATOM     20  F   UNL d   1      -2.993   9.995  -0.992  0.00  0.00    -0.144 F 
ENDBRANCH  16  17
ENDBRANCH  13  16
ENDBRANCH   9  10
ENDBRANCH   7   8
BRANCH   3  21
ATOM     21  C   UNL d   1      -0.783  -2.422   0.124  0.00  0.00     0.019 A 
ATOM     22  C   UNL d   1      -2.160  -2.682   0.095  0.00  0.00     0.052 A 
ATOM     23  C   UNL d   1      -2.625  -4.006   0.152  0.00  0.00     0.103 A 
ATOM     24  C   UNL d   1      -1.727  -5.076   0.241  0.00  0.00     0.036 A 
ATOM     25  C   UNL d   1      -0.357  -4.822   0.269  0.00  0.00     0.003 A 
ATOM     26  C   UNL d   1       0.108  -3.505   0.209  0.00  0.00     0.016 A 
BRANCH  23  27
ATOM     27  N   UNL d   1      -4.069  -4.267   0.124  0.00  0.00    -0.116 N 
ATOM     28  O   UNL d   1      -4.829  -3.291   0.054  0.00  0.00    -0.532 OA
ATOM     29  O   UNL d   1      -4.440  -5.443   0.167  0.00  0.00    -0.532 OA
ENDBRANCH  23  27
ENDBRANCH   3  21
TORSDOF 6
