REMARK  3 active torsions:
REMARK  status: ('A' for Active; 'I' for Inactive)
REMARK    1  A    between atoms: C_6  and  C_2 
REMARK    2  A    between atoms: C_7  and  C_3 
REMARK    3  A    between atoms: O_9  and  C_6 
ROOT
ATOM      1  S   UNL d   1      -1.001   0.067  -0.087  0.00  0.00    -0.084 SA
ATOM      2  C   UNL d   1       0.174   1.307  -0.040  0.00  0.00     0.080 A 
ATOM      3  C   UNL d   1       0.174  -1.185  -0.024  0.00  0.00     0.016 A 
ATOM      4  C   UNL d   1       1.450   0.778  -0.007  0.00  0.00     0.026 A 
ATOM      5  C   UNL d   1       1.449  -0.647  -0.001  0.00  0.00     0.021 A 
ENDROOT
BRANCH   3   6
ATOM      6  C   UNL d   1      -0.229  -2.604  -0.024  0.00  0.00    -0.019 A 
ATOM      7  C   UNL d   1       0.608  -3.576  -0.597  0.00  0.00     0.013 A 
ATOM      8  C   UNL d   1       0.249  -4.928  -0.598  0.00  0.00     0.001 A 
ATOM      9  C   UNL d   1      -0.953  -5.330  -0.024  0.00  0.00     0.000 A 
ATOM     10  C   UNL d   1      -1.796  -4.384   0.552  0.00  0.00     0.001 A 
ATOM     11  C   UNL d   1      -1.435  -3.034   0.554  0.00  0.00     0.013 A 
ENDBRANCH   3   6
BRANCH   2  12
ATOM     12  C   UNL d   1      -0.253   2.693  -0.039  0.00  0.00     0.299 C 
ATOM     13  O   UNL d   1      -1.407   3.104  -0.062  0.00  0.00    -0.259 OA
BRANCH  12  14
ATOM     14  O   UNL d   1       0.844   3.507  -0.004  0.00  0.00    -0.322 OA
ATOM     15  C   UNL d   1       0.534   4.900   0.003  0.00  0.00     0.213 C 
ENDBRANCH  12  14
ENDBRANCH   2  12
TORSDOF 3
