REMARK  8 active torsions:
REMARK  status: ('A' for Active; 'I' for Inactive)
REMARK    1  A    between atoms: N_2  and  C_1 
REMARK    2  A    between atoms: N_3  and  C_1 
REMARK    3  A    between atoms: C_4  and  C_1 
REMARK    4  A    between atoms: C_5  and  C_1 
REMARK       I    between atoms: C_6  and  N_2 
REMARK    5  A    between atoms: C_8  and  N_3 
REMARK    6  A    between atoms: C_7  and  C_6 
REMARK    7  A    between atoms: O_22  and  C_14 
REMARK    8  A    between atoms: C_27  and  O_22 
ROOT
ATOM      1  C   UNL d   1       0.692   0.217  -0.356  0.00  0.00     0.292 C 
ENDROOT
BRANCH   1   2
ATOM      2  N   UNL d   1       0.158  -1.169  -0.038  0.00  0.00    -0.319 N 
ATOM      3  C   UNL d   1       0.431  -2.461  -0.391  0.00  0.00     0.256 C 
ATOM      4  O   UNL d   1      -0.315  -3.335   0.048  0.00  0.00    -0.268 OA
ATOM      5  H   UNL d   1      -0.666  -1.167   0.556  0.00  0.00     0.165 HD
BRANCH   3   6
ATOM      6  C   UNL d   1       1.547  -2.849  -1.270  0.00  0.00     0.065 C 
ATOM      7  C   UNL d   1       2.493  -3.800  -0.857  0.00  0.00     0.084 C 
ATOM      8  C   UNL d   1       3.534  -4.171  -1.719  0.00  0.00     0.038 C 
ATOM      9  C   UNL d   1       3.576  -3.677  -3.021  0.00  0.00     0.003 C 
ATOM     10  C   UNL d   1       2.569  -2.829  -3.471  0.00  0.00     0.001 C 
ATOM     11  C   UNL d   1       1.547  -2.436  -2.604  0.00  0.00     0.020 C 
BRANCH   7  12
ATOM     12  O   UNL d   1       2.389  -4.378   0.387  0.00  0.00    -0.350 OA
BRANCH  12  13
ATOM     13  C   UNL d   1       2.340  -5.812   0.296  0.00  0.00     0.171 C 
ATOM     14  C   UNL d   1       1.544  -6.368   1.462  0.00  0.00     0.034 C 
ENDBRANCH  12  13
ENDBRANCH   7  12
ENDBRANCH   3   6
ENDBRANCH   1   2
BRANCH   1  15
ATOM     15  N   UNL d   1       2.083   0.153   0.162  0.00  0.00    -0.222 NA
ATOM     16  H   UNL d   1       2.116  -0.202   1.116  0.00  0.00     0.133 HD
BRANCH  15  17
ATOM     17  C   UNL d   1       2.722   1.382   0.215  0.00  0.00     0.159 A 
ATOM     18  N   UNL d   1       3.311   1.697   1.370  0.00  0.00    -0.343 N 
ATOM     19  C   UNL d   1       3.887   2.913   1.452  0.00  0.00     0.092 A 
ATOM     20  HN  UNL d   1       3.324   1.047   2.156  1.00  0.00     0.167 HD
ATOM     21  C   UNL d   1       3.888   3.824   0.424  0.00  0.00     0.034 A 
ATOM     22  C   UNL d   1       3.258   3.403  -0.720  0.00  0.00     0.092 A 
ATOM     23  N   UNL d   1       2.672   2.196  -0.842  0.00  0.00    -0.343 N 
ATOM     24  HN  UNL d   1       2.209   1.916  -1.707  1.00  0.00     0.167 HD
ENDBRANCH  15  17
ENDBRANCH   1  15
BRANCH   1  25
ATOM     25  C   UNL d   1      -0.225   1.240   0.402  0.00  0.00     0.436 C 
ATOM     26  F   UNL d   1      -0.244   0.942   1.732  0.00  0.00    -0.167 F 
ATOM     27  F   UNL d   1       0.133   2.534   0.305  0.00  0.00    -0.167 F 
ATOM     28  F   UNL d   1      -1.513   1.142  -0.015  0.00  0.00    -0.167 F 
ENDBRANCH   1  25
BRANCH   1  29
ATOM     29  C   UNL d   1       0.502   0.654  -1.842  0.00  0.00     0.436 C 
ATOM     30  F   UNL d   1      -0.613   0.065  -2.362  0.00  0.00    -0.167 F 
ATOM     31  F   UNL d   1       0.324   1.982  -2.028  0.00  0.00    -0.167 F 
ATOM     32  F   UNL d   1       1.527   0.282  -2.644  0.00  0.00    -0.167 F 
ENDBRANCH   1  29
TORSDOF 8
