REMARK  4 active torsions:
REMARK  status: ('A' for Active; 'I' for Inactive)
REMARK    1  A    between atoms: S_8  and  C_1 
REMARK    2  A    between atoms: C_2  and  S_7 
REMARK    3  A    between atoms: S_7  and  C_9 
REMARK    4  A    between atoms: C_9  and  S_8 
ROOT
ATOM      1  C   UNL d   1      -1.637   3.135   0.002  0.00  0.00     0.159 C 
ENDROOT
BRANCH   1   2
ATOM      2  S   UNL d   1      -1.647   4.932  -0.329  0.00  0.00    -0.116 SA
BRANCH   2   3
ATOM      3  C   UNL d   1      -3.384   5.329  -0.073  0.00  0.00     0.044 A 
ATOM      4  C   UNL d   1      -3.794   6.043   1.073  0.00  0.00     0.052 A 
ATOM      5 CL   UNL d   1      -2.707   6.453   2.360  0.00  0.00    -0.083 Cl
ATOM      6  C   UNL d   1      -5.123   6.464   1.226  0.00  0.00     0.025 A 
ATOM      7  C   UNL d   1      -6.067   6.183   0.245  0.00  0.00     0.003 A 
ATOM      8  C   UNL d   1      -5.687   5.474  -0.889  0.00  0.00     0.025 A 
ATOM      9  C   UNL d   1      -4.359   5.054  -1.054  0.00  0.00     0.052 A 
ATOM     10 CL   UNL d   1      -3.998   4.216  -2.528  0.00  0.00    -0.083 Cl
ENDBRANCH   2   3
ENDBRANCH   1   2
BRANCH   1  11
ATOM     11  S   UNL d   1       0.060   2.522  -0.294  0.00  0.00    -0.116 SA
BRANCH  11  12
ATOM     12  C   UNL d   1      -0.145   0.757   0.000  0.00  0.00     0.044 A 
ATOM     13  C   UNL d   1      -0.714  -0.092  -0.971  0.00  0.00     0.052 A 
ATOM     14 CL   UNL d   1      -1.363   0.493  -2.468  0.00  0.00    -0.083 Cl
ATOM     15  C   UNL d   1      -0.760  -1.480  -0.776  0.00  0.00     0.025 A 
ATOM     16  C   UNL d   1      -0.234  -2.049   0.380  0.00  0.00     0.003 A 
ATOM     17  C   UNL d   1       0.329  -1.230   1.352  0.00  0.00     0.025 A 
ATOM     18  C   UNL d   1       0.375   0.158   1.168  0.00  0.00     0.052 A 
ATOM     19 CL   UNL d   1       1.102   1.079   2.446  0.00  0.00    -0.083 Cl
ENDBRANCH  11  12
ENDBRANCH   1  11
TORSDOF 4
