REMARK  9 active torsions:
REMARK  status: ('A' for Active; 'I' for Inactive)
REMARK    1  A    between atoms: N_8  and  C_1 
REMARK    2  A    between atoms: C_12  and  N_2 
REMARK    3  A    between atoms: C_6  and  C_5 
REMARK       I    between atoms: C_14  and  N_8 
REMARK    4  A    between atoms: C_23  and  C_10 
REMARK       I    between atoms: N_24  and  C_14 
REMARK    5  A    between atoms: C_15  and  C_17 
REMARK    6  A    between atoms: C_16  and  C_18 
REMARK    7  A    between atoms: C_19  and  O_25 
REMARK    8  A    between atoms: C_36  and  N_24 
REMARK    9  A    between atoms: O_25  and  C_37 
ROOT
ATOM      1  C   UNL d   1      -0.354   1.110  -0.381  0.00  0.00     0.113 C 
ATOM      2  N   UNL d   1       0.946   0.736  -0.029  0.00  0.00    -0.244 N 
ATOM      3  N   UNL d   1       1.039  -0.609   0.122  0.00  0.00    -0.292 N 
ATOM      4  HN  UNL d   1       1.849  -1.139   0.446  1.00  0.00     0.187 HD
ATOM      5  C   UNL d   1      -0.143  -1.092  -0.241  0.00  0.00     0.064 C 
ATOM      6  C   UNL d   1      -1.010  -0.069  -0.700  0.00  0.00     0.076 C 
ENDROOT
BRANCH   1   7
ATOM      7  N   UNL d   1      -0.902   2.399  -0.220  0.00  0.00    -0.194 NA
ATOM      8  C   UNL d   1      -0.876   2.869   1.099  0.00  0.00     0.304 C 
ATOM      9  N   UNL d   1      -1.456   4.134   1.242  0.00  0.00    -0.313 N 
ATOM     10  O   UNL d   1      -0.398   2.226   2.029  0.00  0.00    -0.253 OA
ATOM     11  H   UNL d   1      -1.236   4.760   0.480  0.00  0.00     0.170 HD
ATOM     12  H   UNL d   1      -1.807   2.549  -0.647  0.00  0.00     0.140 HD
BRANCH   9  13
ATOM     13  C   UNL d   1      -1.486   4.715   2.543  0.00  0.00     0.036 C 
ATOM     14  C   UNL d   1      -0.944   5.984   2.762  0.00  0.00     0.032 C 
ATOM     15  C   UNL d   1      -0.626   6.395   4.072  0.00  0.00     0.039 C 
ATOM     16  C   UNL d   1      -0.894   5.556   5.155  0.00  0.00     0.078 C 
ATOM     17  C   UNL d   1      -1.634   4.394   4.936  0.00  0.00     0.039 C 
ATOM     18  C   UNL d   1      -1.931   3.975   3.640  0.00  0.00     0.032 C 
BRANCH  16  19
ATOM     19  O   UNL d   1      -0.492   5.707   6.447  0.00  0.00    -0.255 OA
BRANCH  19  20
ATOM     20  C   UNL d   1       0.524   6.640   6.767  0.00  0.00     0.530 C 
ATOM     21  F   UNL d   1       1.478   6.736   5.817  0.00  0.00    -0.144 F 
ATOM     22  F   UNL d   1      -0.023   7.854   6.978  0.00  0.00    -0.144 F 
ATOM     23  F   UNL d   1       1.126   6.243   7.914  0.00  0.00    -0.144 F 
ENDBRANCH  19  20
ENDBRANCH  16  19
ENDBRANCH   9  13
ENDBRANCH   1   7
BRANCH   2  24
ATOM     24  C   UNL d   1       2.148   1.495   0.074  0.00  0.00     0.059 A 
ATOM     25  C   UNL d   1       3.211   0.944   0.807  0.00  0.00     0.047 A 
ATOM     26  C   UNL d   1       4.461   1.558   0.867  0.00  0.00     0.051 A 
ATOM     27  C   UNL d   1       4.651   2.751   0.147  0.00  0.00     0.032 A 
ATOM     28  C   UNL d   1       3.608   3.310  -0.618  0.00  0.00     0.051 A 
ATOM     29  C   UNL d   1       2.339   2.697  -0.625  0.00  0.00     0.047 A 
BRANCH  26  30
ATOM     30  C   UNL d   1       5.580   0.929   1.660  0.00  0.00     0.417 C 
ATOM     31  F   UNL d   1       5.260  -0.264   2.222  0.00  0.00    -0.166 F 
ATOM     32  F   UNL d   1       6.687   0.699   0.897  0.00  0.00    -0.166 F 
ATOM     33  F   UNL d   1       6.002   1.727   2.686  0.00  0.00    -0.166 F 
ENDBRANCH  26  30
BRANCH  28  34
ATOM     34  C   UNL d   1       3.894   4.536  -1.460  0.00  0.00     0.417 C 
ATOM     35  F   UNL d   1       2.859   4.889  -2.272  0.00  0.00    -0.166 F 
ATOM     36  F   UNL d   1       4.172   5.636  -0.709  0.00  0.00    -0.166 F 
ATOM     37  F   UNL d   1       4.966   4.361  -2.280  0.00  0.00    -0.166 F 
ENDBRANCH  28  34
ENDBRANCH   2  24
BRANCH   5  38
ATOM     38  C   UNL d   1      -0.470  -2.501   0.009  0.00  0.00     0.024 A 
ATOM     39  C   UNL d   1      -1.706  -2.977   0.519  0.00  0.00     0.049 A 
ATOM     40  C   UNL d   1      -1.526  -4.315   0.847  0.00  0.00     0.061 A 
ATOM     41  O   UNL d   1      -0.271  -4.700   0.467  0.00  0.00    -0.318 OA
ATOM     42  C   UNL d   1       0.378  -3.595  -0.021  0.00  0.00     0.062 A 
ATOM     43  C   UNL d   1       1.793  -3.791  -0.414  0.00  0.00     0.077 C 
BRANCH  40  44
ATOM     44  C   UNL d   1      -2.422  -5.336   1.526  0.00  0.00    -0.002 C 
ATOM     45  C   UNL d   1      -3.509  -5.808   0.548  0.00  0.00     0.021 C 
ATOM     46  C   UNL d   1      -1.645  -6.572   2.025  0.00  0.00     0.021 C 
ATOM     47  C   UNL d   1      -3.111  -4.705   2.755  0.00  0.00     0.021 C 
ENDBRANCH  40  44
ENDBRANCH   5  38
TORSDOF 9
