REMARK  2 active torsions:
REMARK  status: ('A' for Active; 'I' for Inactive)
REMARK    1  A    between atoms: C_2  and  S_1 
REMARK    2  A    between atoms: N_3  and  S_1 
ROOT
ATOM      1  S   UNL d   1       1.121  -0.049  -0.226  0.00  0.00     0.263 S 
ATOM      2  O   UNL d   1       1.433  -1.408  -0.608  0.00  0.00    -0.200 OA
ATOM      3  O   UNL d   1       0.565   0.855  -1.215  0.00  0.00    -0.200 OA
ENDROOT
BRANCH   1   4
ATOM      4  C   UNL d   1       2.615   0.720   0.354  0.00  0.00     0.107 A 
ATOM      5  C   UNL d   1       3.394   0.123   1.349  0.00  0.00     0.066 A 
ATOM      6  N   UNL d   1       3.022  -0.989   2.023  0.00  0.00    -0.364 N 
ATOM      7  C   UNL d   1       4.637   0.744   1.639  0.00  0.00    -0.008 A 
ATOM      8  C   UNL d   1       3.852  -1.507   2.958  0.00  0.00     0.088 A 
ATOM      9  HN  UNL d   1       2.125  -1.433   1.828  1.00  0.00     0.165 HD
ATOM     10  C   UNL d   1       5.075  -0.964   3.287  0.00  0.00     0.018 A 
ATOM     11  C   UNL d   1       5.468   0.183   2.617  0.00  0.00     0.015 A 
ATOM     12  C   UNL d   1       5.056   1.900   0.959  0.00  0.00     0.014 A 
ATOM     13  C   UNL d   1       4.258   2.469  -0.023  0.00  0.00     0.003 A 
ATOM     14  C   UNL d   1       3.040   1.880  -0.327  0.00  0.00     0.028 A 
ENDBRANCH   1   4
BRANCH   1  15
ATOM     15  N   UNL d   1       0.016  -0.056   1.036  0.00  0.00    -0.302 N 
ATOM     16  C   UNL d   1      -0.500   1.223   1.558  0.00  0.00     0.174 C 
ATOM     17  C   UNL d   1      -1.555   1.074   2.645  0.00  0.00    -0.033 A 
ATOM     18  C   UNL d   1      -2.037   2.208   3.317  0.00  0.00     0.009 A 
ATOM     19  C   UNL d   1      -2.072  -0.192   2.986  0.00  0.00    -0.049 A 
ATOM     20  C   UNL d   1      -3.026   2.083   4.295  0.00  0.00     0.001 A 
ATOM     21  C   UNL d   1      -3.562   0.832   4.596  0.00  0.00     0.001 A 
ATOM     22  C   UNL d   1      -3.093  -0.304   3.939  0.00  0.00     0.008 A 
ATOM     23  C   UNL d   1      -1.517  -1.422   2.310  0.00  0.00     0.060 C 
ATOM     24  C   UNL d   1      -0.042  -1.188   1.972  0.00  0.00     0.140 C 
ENDBRANCH   1  15
TORSDOF 2
