REMARK  2 active torsions:
REMARK  status: ('A' for Active; 'I' for Inactive)
REMARK    1  A    between atoms: N_8  and  C_5 
REMARK       I    between atoms: C_13  and  N_8 
REMARK    2  A    between atoms: C_16  and  C_13 
ROOT
ATOM      1  C   UNL d   1       0.880   1.303   0.101  0.00  0.00     0.140 A 
ATOM      2  C   UNL d   1      -0.347   0.697   0.134  0.00  0.00     0.084 A 
ATOM      3  N   UNL d   1       2.109   0.759   0.040  0.00  0.00    -0.320 N 
ATOM      4  HN  UNL d   1       2.944   1.344   0.033  1.00  0.00     0.169 HD
ATOM      5  C   UNL d   1       2.196  -0.529  -0.011  0.00  0.00     0.156 A 
ATOM      6  S   UNL d   1       0.911  -1.712  -0.034  0.00  0.00    -0.011 SA
ATOM      7  C   UNL d   1      -0.531  -0.718   0.100  0.00  0.00     0.231 A 
ATOM      8  N   UNL d   1       0.630   2.651   0.158  0.00  0.00    -0.281 N 
ATOM      9  N   UNL d   1      -0.690   2.945   0.219  0.00  0.00    -0.307 N 
ATOM     10  HN  UNL d   1      -1.130   3.864   0.263  1.00  0.00     0.186 HD
ATOM     11  C   UNL d   1      -1.279   1.747   0.208  0.00  0.00     0.127 A 
ATOM     12  O   UNL d   1      -1.637  -1.243   0.151  0.00  0.00    -0.279 OA
ATOM     13  C   UNL d   1       1.588   3.731   0.162  0.00  0.00     0.179 C 
ENDROOT
BRANCH   5  14
ATOM     14  N   UNL d   1       3.413  -1.182  -0.064  0.00  0.00    -0.303 N 
ATOM     15  C   UNL d   1       4.659  -0.577  -0.017  0.00  0.00     0.257 C 
ATOM     16  O   UNL d   1       4.845   0.619   0.179  0.00  0.00    -0.267 OA
ATOM     17  H   UNL d   1       3.354  -2.187  -0.103  0.00  0.00     0.171 HD
BRANCH  15  18
ATOM     18  C   UNL d   1       5.863  -1.453  -0.176  0.00  0.00     0.032 A 
ATOM     19  C   UNL d   1       5.851  -2.700  -0.814  0.00  0.00     0.017 A 
ATOM     20  C   UNL d   1       7.051  -3.404  -0.996  0.00  0.00     0.001 A 
ATOM     21  C   UNL d   1       8.260  -2.871  -0.547  0.00  0.00     0.000 A 
ATOM     22  C   UNL d   1       8.278  -1.640   0.100  0.00  0.00     0.001 A 
ATOM     23  C   UNL d   1       7.087  -0.938   0.285  0.00  0.00     0.017 A 
ENDBRANCH  15  18
ENDBRANCH   5  14
TORSDOF 2
