REMARK  8 active torsions:
REMARK  status: ('A' for Active; 'I' for Inactive)
REMARK    1  A    between atoms: N_3  and  C_1 
REMARK    2  A    between atoms: N_7  and  C_1 
REMARK    3  A    between atoms: C_2  and  C_5 
REMARK    4  A    between atoms: O_14  and  C_2 
REMARK    5  A    between atoms: C_11  and  N_3 
REMARK    6  A    between atoms: C_5  and  C_12 
REMARK    7  A    between atoms: C_13  and  C_6 
REMARK    8  A    between atoms: C_12  and  N_7 
ROOT
ATOM      1  N   UNL d   1       0.427   1.277  -0.317  0.00  0.00    -0.333 N 
ATOM      2  H   UNL d   1       1.037   0.461  -0.385  0.00  0.00     0.168 HD
ENDROOT
BRANCH   1   3
ATOM      3  C   UNL d   1      -0.766   1.047   0.314  0.00  0.00     0.172 C 
ATOM      4  S   UNL d   1      -2.274   1.615  -0.129  0.00  0.00    -0.041 SA
BRANCH   3   5
ATOM      5  N   UNL d   1      -0.703   0.206   1.397  0.00  0.00    -0.366 N 
ATOM      6  H   UNL d   1      -1.619   0.041   1.800  0.00  0.00     0.161 HD
BRANCH   5   7
ATOM      7  C   UNL d   1       0.430   0.137   2.313  0.00  0.00     0.132 C 
BRANCH   7   8
ATOM      8  C   UNL d   1       0.889  -1.289   2.568  0.00  0.00     0.129 C 
BRANCH   8   9
ATOM      9  C   UNL d   1       1.563  -1.864   1.349  0.00  0.00     0.140 C 
ATOM     10  O   UNL d   1       2.040  -1.210   0.438  0.00  0.00    -0.650 OA
BRANCH   9  11
ATOM     11  O   UNL d   1       1.629  -3.217   1.381  0.00  0.00    -0.776 OA
ATOM     12  H   UNL d   1       1.204  -3.624   2.159  0.00  0.00     0.167 HD
ENDBRANCH   9  11
ENDBRANCH   8   9
ENDBRANCH   7   8
ENDBRANCH   5   7
ENDBRANCH   3   5
ENDBRANCH   1   3
BRANCH   1  13
ATOM     13  C   UNL d   1       0.858   2.435  -0.998  0.00  0.00     0.034 A 
ATOM     14  C   UNL d   1       0.416   3.712  -0.649  0.00  0.00     0.030 A 
ATOM     15  C   UNL d   1       1.003   4.848  -1.221  0.00  0.00     0.010 A 
ATOM     16  C   UNL d   1       2.035   4.729  -2.161  0.00  0.00    -0.055 A 
ATOM     17  C   UNL d   1       2.433   3.442  -2.549  0.00  0.00     0.010 A 
ATOM     18  C   UNL d   1       1.864   2.306  -1.958  0.00  0.00     0.030 A 
BRANCH  16  19
ATOM     19  C   UNL d   1       2.766   5.947  -2.699  0.00  0.00     0.010 C 
ATOM     20  C   UNL d   1       1.833   6.920  -3.424  0.00  0.00     0.015 C 
ATOM     21  C   UNL d   1       3.524   6.665  -1.576  0.00  0.00     0.015 C 
ENDBRANCH  16  19
ENDBRANCH   1  13
TORSDOF 8
