REMARK  6 active torsions:
REMARK  status: ('A' for Active; 'I' for Inactive)
REMARK    1  A    between atoms: C_9  and  C_1 
REMARK    2  A    between atoms: C_16  and  C_9 
REMARK    3  A    between atoms: C_10  and  O_13 
REMARK    4  A    between atoms: C_24  and  C_10 
REMARK    5  A    between atoms: O_13  and  C_12 
REMARK    6  A    between atoms: O_25  and  C_24 
ROOT
ATOM      1  C   UNL d   1      -1.804  -1.004   0.092  0.00  0.00     0.029 C 
ATOM      2  C   UNL d   1      -2.050   0.463   0.169  0.00  0.00     0.295 C 
ATOM      3  C   UNL d   1      -0.546  -1.503   0.050  0.00  0.00    -0.036 C 
ATOM      4  O   UNL d   1      -0.970   1.302   0.010  0.00  0.00    -0.274 OA
ATOM      5  C   UNL d   1       0.337   0.802   0.003  0.00  0.00     0.093 A 
ATOM      6  C   UNL d   1       0.598  -0.565   0.058  0.00  0.00     0.005 A 
ATOM      7  C   UNL d   1       1.340   1.769  -0.049  0.00  0.00     0.075 A 
ATOM      8  C   UNL d   1       1.949  -0.951   0.074  0.00  0.00     0.017 A 
ATOM      9  O   UNL d   1      -3.177   0.930   0.328  0.00  0.00    -0.259 OA
ATOM     10  C   UNL d   1       2.664   1.365   0.009  0.00  0.00     0.082 A 
ATOM     11  C   UNL d   1       2.977   0.006   0.052  0.00  0.00     0.038 A 
ATOM     12  C   UNL d   1      -0.232  -2.975  -0.038  0.00  0.00     0.050 C 
ENDROOT
BRANCH   1  13
ATOM     13  C   UNL d   1      -3.077  -1.812  -0.060  0.00  0.00     0.084 C 
BRANCH  13  14
ATOM     14  C   UNL d   1      -3.679  -2.383   1.209  0.00  0.00    -0.054 A 
ATOM     15  C   UNL d   1      -4.114  -1.550   2.253  0.00  0.00     0.010 A 
ATOM     16  C   UNL d   1      -4.784  -2.082   3.358  0.00  0.00     0.043 A 
ATOM     17  C   UNL d   1      -5.024  -3.448   3.422  0.00  0.00     0.116 A 
ATOM     18  C   UNL d   1      -4.594  -4.294   2.409  0.00  0.00     0.043 A 
ATOM     19  F   UNL d   1      -5.695  -3.954   4.465  0.00  0.00    -0.206 F 
ATOM     20  C   UNL d   1      -3.922  -3.764   1.305  0.00  0.00     0.010 A 
ENDBRANCH  13  14
ENDBRANCH   1  13
BRANCH  10  21
ATOM     21  O   UNL d   1       3.737   2.274  -0.054  0.00  0.00    -0.277 OA
BRANCH  21  22
ATOM     22  C   UNL d   1       3.633   3.525   0.564  0.00  0.00     0.287 C 
ATOM     23  O   UNL d   1       2.725   3.905   1.294  0.00  0.00    -0.262 OA
BRANCH  22  24
ATOM     24  C   UNL d   1       4.877   4.346   0.266  0.00  0.00     0.278 C 
BRANCH  24  25
ATOM     25  O   UNL d   1       5.133   4.434  -1.129  0.00  0.00    -0.386 OA
ATOM     26  C   UNL d   1       6.272   5.238  -1.404  0.00  0.00     0.202 C 
ENDBRANCH  24  25
ENDBRANCH  22  24
ENDBRANCH  21  22
ENDBRANCH  10  21
TORSDOF 6
