REMARK  4 active torsions:
REMARK  status: ('A' for Active; 'I' for Inactive)
REMARK    1  A    between atoms: C_10  and  C_3 
REMARK    2  A    between atoms: C_14  and  N_6 
REMARK    3  A    between atoms: N_8  and  C_9 
REMARK    4  A    between atoms: C_15  and  C_14 
ROOT
ATOM      1  N   UNL d   1      -0.310  -1.187  -0.211  0.00  0.00    -0.268 N 
ATOM      2  HN  UNL d   1      -0.552  -2.168  -0.347  1.00  0.00     0.190 HD
ATOM      3  C   UNL d   1       0.896  -0.612  -0.049  0.00  0.00     0.144 A 
ATOM      4  N   UNL d   1       0.808   0.750   0.131  0.00  0.00    -0.266 N 
ATOM      5  HN  UNL d   1       1.586   1.394   0.273  1.00  0.00     0.186 HD
ATOM      6  N   UNL d   1      -1.109  -0.099  -0.142  0.00  0.00    -0.212 N 
ATOM      7  N   UNL d   1      -0.477   1.067   0.085  0.00  0.00    -0.002 NA
ENDROOT
BRANCH   3   8
ATOM      8  C   UNL d   1       2.167  -1.328  -0.028  0.00  0.00     0.013 A 
ATOM      9  C   UNL d   1       2.218  -2.717  -0.219  0.00  0.00     0.051 A 
ATOM     10  C   UNL d   1       3.454  -3.383  -0.188  0.00  0.00     0.103 A 
ATOM     11  C   UNL d   1       4.644  -2.677   0.035  0.00  0.00     0.036 A 
ATOM     12  C   UNL d   1       4.595  -1.298   0.226  0.00  0.00     0.003 A 
ATOM     13  C   UNL d   1       3.367  -0.630   0.195  0.00  0.00     0.015 A 
BRANCH  10  14
ATOM     14  N   UNL d   1       3.504  -4.837  -0.391  0.00  0.00    -0.116 N 
ATOM     15  O   UNL d   1       2.433  -5.430  -0.582  0.00  0.00    -0.532 OA
ATOM     16  O   UNL d   1       4.614  -5.385  -0.359  0.00  0.00    -0.532 OA
ENDBRANCH  10  14
ENDBRANCH   3   8
BRANCH   6  17
ATOM     17  C   UNL d   1      -2.556  -0.200  -0.062  0.00  0.00     0.205 C 
BRANCH  17  18
ATOM     18  C   UNL d   1      -3.222  -0.023  -1.405  0.00  0.00    -0.037 A 
ATOM     19  C   UNL d   1      -3.478  -1.133  -2.225  0.00  0.00     0.010 A 
ATOM     20  C   UNL d   1      -4.112  -0.972  -3.460  0.00  0.00     0.024 A 
ATOM     21  C   UNL d   1      -4.489   0.299  -3.887  0.00  0.00     0.034 A 
ATOM     22  C   UNL d   1      -4.236   1.412  -3.088  0.00  0.00     0.024 A 
ATOM     23 CL   UNL d   1      -5.270   0.496  -5.407  0.00  0.00    -0.084 Cl
ATOM     24  C   UNL d   1      -3.602   1.253  -1.853  0.00  0.00     0.010 A 
ENDBRANCH  17  18
ENDBRANCH   6  17
TORSDOF 4
