REMARK  6 active torsions:
REMARK  status: ('A' for Active; 'I' for Inactive)
REMARK    1  A    between atoms: C_3  and  S_1 
REMARK    2  A    between atoms: C_4  and  S_1 
REMARK    3  A    between atoms: C_5  and  C_2 
REMARK    4  A    between atoms: O_12  and  C_5 
REMARK    5  A    between atoms: C_16  and  C_8 
REMARK    6  A    between atoms: O_17  and  C_16 
ROOT
ATOM      1  C   UNL d   1      -1.075  -2.010  -0.231  0.00  0.00     0.058 A 
ATOM      2  C   UNL d   1       0.182  -1.447   0.073  0.00  0.00     0.053 A 
ATOM      3  C   UNL d   1       1.212  -2.323   0.469  0.00  0.00     0.024 A 
ATOM      4  C   UNL d   1      -1.262  -3.407  -0.200  0.00  0.00     0.043 A 
ATOM      5  C   UNL d   1      -0.216  -4.244   0.174  0.00  0.00     0.035 A 
ATOM      6  C   UNL d   1       1.012  -3.707   0.532  0.00  0.00     0.025 A 
ATOM      7 CL   UNL d   1      -0.435  -5.949   0.143  0.00  0.00    -0.084 Cl
ENDROOT
BRANCH   2   8
ATOM      8  S   UNL d   1       0.613   0.281  -0.314  0.00  0.00     0.086 S 
ATOM      9  O   UNL d   1       2.111   0.351  -0.281  0.00  0.00    -0.247 OA
BRANCH   8  10
ATOM     10  C   UNL d   1       0.030   1.088   1.210  0.00  0.00     0.045 A 
ATOM     11  C   UNL d   1       0.806   1.307   2.371  0.00  0.00    -0.015 A 
ATOM     12  C   UNL d   1       0.313   2.197   3.357  0.00  0.00     0.011 A 
ATOM     13  C   UNL d   1      -0.922   2.827   3.227  0.00  0.00     0.001 A 
ATOM     14  C   UNL d   1      -1.697   2.582   2.104  0.00  0.00     0.001 A 
ATOM     15  C   UNL d   1      -1.222   1.728   1.106  0.00  0.00     0.022 A 
BRANCH  11  16
ATOM     16  C   UNL d   1       2.188   0.744   2.605  0.00  0.00     0.204 C 
BRANCH  16  17
ATOM     17  O   UNL d   1       2.324   0.276   3.950  0.00  0.00    -0.396 OA
ATOM     18  H   UNL d   1       1.454  -0.055   4.231  0.00  0.00     0.209 HD
ENDBRANCH  16  17
ENDBRANCH  11  16
ENDBRANCH   8  10
ENDBRANCH   2   8
BRANCH   1  19
ATOM     19  C   UNL d   1      -2.212  -1.194  -0.694  0.00  0.00     0.177 C 
ATOM     20  O   UNL d   1      -2.107  -0.287  -1.497  0.00  0.00    -0.646 OA
BRANCH  19  21
ATOM     21  O   UNL d   1      -3.389  -1.539  -0.126  0.00  0.00    -0.773 OA
ATOM     22  H   UNL d   1      -3.355  -2.221   0.571  0.00  0.00     0.167 HD
ENDBRANCH  19  21
ENDBRANCH   1  19
TORSDOF 6
