REMARK  4 active torsions:
REMARK  status: ('A' for Active; 'I' for Inactive)
REMARK    1  A    between atoms: C_6  and  N_1 
REMARK    2  A    between atoms: C_2  and  N_4 
REMARK    3  A    between atoms: N_15  and  C_3 
REMARK    4  A    between atoms: C_11  and  C_12 
ROOT
ATOM      1  C   UNL d   1       3.606  -2.883   2.997  0.00  0.00     0.145 C 
ATOM      2  C   UNL d   1       4.646  -3.739   2.860  0.00  0.00     0.125 C 
ATOM      3  C   UNL d   1       3.616  -1.879   4.030  0.00  0.00     0.120 C 
ATOM      4  C   UNL d   1       5.787  -3.694   3.731  0.00  0.00     0.114 C 
ATOM      5  N   UNL d   1       3.595  -1.049   4.839  0.00  0.00    -0.190 NA
ATOM      6  N   UNL d   1       6.699  -3.708   4.448  0.00  0.00    -0.190 NA
ENDROOT
BRANCH   1   7
ATOM      7  N   UNL d   1       2.472  -3.081   2.217  0.00  0.00    -0.354 N 
ATOM      8  C   UNL d   1       1.916  -2.037   1.684  0.00  0.00     0.103 C 
ATOM      9  HN  UNL d   1       2.091  -4.015   2.068  1.00  0.00     0.166 HD
BRANCH   8  10
ATOM     10  C   UNL d   1       0.681  -2.186   0.872  0.00  0.00     0.012 A 
ATOM     11  C   UNL d   1       0.221  -1.210  -0.018  0.00  0.00     0.114 A 
ATOM     12  C   UNL d   1      -0.957  -1.393  -0.760  0.00  0.00     0.037 A 
ATOM     13  C   UNL d   1      -1.689  -2.568  -0.602  0.00  0.00     0.002 A 
ATOM     14  C   UNL d   1      -1.252  -3.546   0.292  0.00  0.00     0.001 A 
ATOM     15  C   UNL d   1      -0.076  -3.358   1.024  0.00  0.00     0.015 A 
BRANCH  11  16
ATOM     16  N   UNL d   1       0.961   0.015  -0.232  0.00  0.00    -0.115 N 
ATOM     17  O   UNL d   1       2.149  -0.093  -0.563  0.00  0.00    -0.532 OA
ATOM     18  O   UNL d   1       0.348   1.077  -0.076  0.00  0.00    -0.532 OA
ENDBRANCH  11  16
ENDBRANCH   8  10
ENDBRANCH   1   7
BRANCH   2  19
ATOM     19  N   UNL d   1       4.696  -4.761   1.906  0.00  0.00    -0.291 NA
ATOM     20  H   UNL d   1       3.770  -4.928   1.508  0.00  0.00     0.125 HD
ATOM     21  H   UNL d   1       5.141  -5.613   2.243  0.00  0.00     0.125 HD
ENDBRANCH   2  19
TORSDOF 4
