REMARK  3 active torsions:
REMARK  status: ('A' for Active; 'I' for Inactive)
REMARK       I    between atoms: C_2  and  N_1 
REMARK    1  A    between atoms: C_7  and  C_2 
REMARK    2  A    between atoms: C_9  and  C_3 
REMARK    3  A    between atoms: C_8  and  C_6 
ROOT
ATOM      1  N   UNL d   1       0.865  -0.717   0.067  0.00  0.00    -0.220 N 
ATOM      2  C   UNL d   1       2.070  -1.477   0.113  0.00  0.00     0.284 C 
ATOM      3  C   UNL d   1      -0.458  -1.153  -0.103  0.00  0.00     0.061 A 
ATOM      4  N   UNL d   1       0.908   0.650   0.175  0.00  0.00    -0.302 N 
ATOM      5  HN  UNL d   1       1.730   1.235   0.327  1.00  0.00     0.186 HD
ATOM      6  C   UNL d   1      -1.244  -0.020  -0.119  0.00  0.00     0.050 A 
ATOM      7  O   UNL d   1       2.002  -2.608  -0.359  0.00  0.00    -0.265 OA
ATOM      8  C   UNL d   1      -0.355   1.049   0.039  0.00  0.00     0.110 A 
ENDROOT
BRANCH   3   9
ATOM      9  C   UNL d   1      -0.803  -2.526  -0.114  0.00  0.00     0.032 C 
ATOM     10  C   UNL d   1      -0.980  -3.177  -1.276  0.00  0.00     0.017 C 
BRANCH  10  11
ATOM     11  C   UNL d   1      -1.401  -4.591  -1.323  0.00  0.00     0.007 A 
ATOM     12  C   UNL d   1      -2.769  -4.927  -1.358  0.00  0.00     0.045 A 
ATOM     13 CL   UNL d   1      -4.011  -3.717  -1.361  0.00  0.00    -0.083 Cl
ATOM     14  C   UNL d   1      -3.187  -6.264  -1.406  0.00  0.00     0.025 A 
ATOM     15  C   UNL d   1      -2.248  -7.292  -1.414  0.00  0.00     0.003 A 
ATOM     16  C   UNL d   1      -0.893  -6.983  -1.383  0.00  0.00     0.025 A 
ATOM     17  C   UNL d   1      -0.471  -5.648  -1.345  0.00  0.00     0.045 A 
ATOM     18 CL   UNL d   1       1.237  -5.392  -1.359  0.00  0.00    -0.083 Cl
ENDBRANCH  10  11
ENDBRANCH   3   9
BRANCH   2  19
ATOM     19  C   UNL d   1       3.307  -0.978   0.719  0.00  0.00     0.074 A 
ATOM     20  S   UNL d   1       4.728  -1.947   0.585  0.00  0.00    -0.097 SA
ATOM     21  C   UNL d   1       5.640  -0.884   1.558  0.00  0.00     0.050 A 
ATOM     22  C   UNL d   1       4.902   0.203   1.961  0.00  0.00     0.009 A 
ATOM     23  C   UNL d   1       3.562   0.152   1.476  0.00  0.00     0.025 A 
ENDBRANCH   2  19
TORSDOF 3
