REMARK  8 active torsions:
REMARK  status: ('A' for Active; 'I' for Inactive)
REMARK    1  A    between atoms: N_15  and  C_3 
REMARK    2  A    between atoms: C_6  and  C_4 
REMARK    3  A    between atoms: S_11  and  C_5 
REMARK    4  A    between atoms: O_20  and  C_6 
REMARK    5  A    between atoms: C_10  and  C_14 
REMARK    6  A    between atoms: C_12  and  C_10 
REMARK    7  A    between atoms: C_14  and  S_11 
REMARK    8  A    between atoms: C_24  and  O_20 
ROOT
ATOM      1  N   UNL d   1       0.411  -1.075  -0.169  0.00  0.00    -0.327 N 
ATOM      2  HN  UNL d   1       0.977  -1.921  -0.231  1.00  0.00     0.169 HD
ATOM      3  C   UNL d   1       0.978   0.133  -0.000  0.00  0.00     0.097 A 
ATOM      4  C   UNL d   1       0.231   1.293   0.079  0.00  0.00     0.092 A 
ATOM      5  C   UNL d   1      -0.929  -1.126  -0.252  0.00  0.00     0.145 A 
ATOM      6  N   UNL d   1      -1.737  -0.057  -0.195  0.00  0.00    -0.346 N 
ATOM      7  HN  UNL d   1      -2.750  -0.142  -0.275  1.00  0.00     0.167 HD
ATOM      8  C   UNL d   1      -1.132   1.139  -0.024  0.00  0.00     0.111 A 
ENDROOT
BRANCH   5   9
ATOM      9  S   UNL d   1      -1.702  -2.711  -0.470  0.00  0.00    -0.086 SA
BRANCH   9  10
ATOM     10  C   UNL d   1      -0.219  -3.739  -0.660  0.00  0.00     0.166 C 
BRANCH  10  11
ATOM     11  C   UNL d   1      -0.588  -5.186  -0.890  0.00  0.00     0.169 C 
ATOM     12  O   UNL d   1      -0.729  -5.975   0.046  0.00  0.00    -0.291 OA
BRANCH  11  13
ATOM     13  C   UNL d   1      -0.726  -5.699  -2.285  0.00  0.00     0.011 A 
ATOM     14  C   UNL d   1      -0.449  -7.053  -2.520  0.00  0.00     0.016 A 
ATOM     15  C   UNL d   1      -0.609  -7.598  -3.797  0.00  0.00     0.020 A 
ATOM     16  C   UNL d   1      -1.058  -6.790  -4.839  0.00  0.00     0.011 A 
ATOM     17  C   UNL d   1      -1.325  -5.439  -4.620  0.00  0.00     0.020 A 
ATOM     18 BR   UNL d   1      -1.329  -7.535  -6.555  0.00  0.00    -0.051 Br
ATOM     19  C   UNL d   1      -1.153  -4.890  -3.345  0.00  0.00     0.016 A 
ENDBRANCH  11  13
ENDBRANCH  10  11
ENDBRANCH   9  10
ENDBRANCH   5   9
BRANCH   3  20
ATOM     20  N   UNL d   1       2.354   0.105   0.212  0.00  0.00    -0.288 NA
ATOM     21  H   UNL d   1       2.729  -0.818   0.024  0.00  0.00     0.125 HD
ATOM     22  H   UNL d   1       2.849   0.862  -0.261  0.00  0.00     0.125 HD
ENDBRANCH   3  20
BRANCH   4  23
ATOM     23  C   UNL d   1       0.874   2.600   0.261  0.00  0.00     0.298 C 
ATOM     24  O   UNL d   1       2.000   2.861  -0.127  0.00  0.00    -0.259 OA
BRANCH  23  25
ATOM     25  O   UNL d   1       0.070   3.392   1.011  0.00  0.00    -0.318 OA
BRANCH  25  26
ATOM     26  C   UNL d   1       0.729   4.501   1.641  0.00  0.00     0.174 C 
ATOM     27  C   UNL d   1       1.272   4.028   2.978  0.00  0.00     0.034 C 
ENDBRANCH  25  26
ENDBRANCH  23  25
ENDBRANCH   4  23
TORSDOF 8
