REMARK  6 active torsions:
REMARK  status: ('A' for Active; 'I' for Inactive)
REMARK    1  A    between atoms: C_3  and  C_1 
REMARK    2  A    between atoms: C_6  and  C_2 
REMARK    3  A    between atoms: O_13  and  C_3 
REMARK    4  A    between atoms: O_14  and  C_9 
REMARK    5  A    between atoms: O_15  and  C_10 
REMARK    6  A    between atoms: C_16  and  O_13 
ROOT
ATOM      1  C   UNL d   1       0.940  -0.709  -0.562  0.00  0.00     0.120 C 
ATOM      2  C   UNL d   1       0.470  -0.920   0.680  0.00  0.00     0.040 C 
ATOM      3  C   UNL d   1       2.036  -1.429  -1.114  0.00  0.00     0.105 C 
ATOM      4  N   UNL d   1       2.928  -2.024  -1.562  0.00  0.00    -0.191 NA
ENDROOT
BRANCH   1   5
ATOM      5  C   UNL d   1       0.214   0.279  -1.399  0.00  0.00     0.303 C 
ATOM      6  O   UNL d   1      -0.752   0.926  -1.020  0.00  0.00    -0.258 OA
BRANCH   5   7
ATOM      7  O   UNL d   1       0.720   0.283  -2.658  0.00  0.00    -0.317 OA
BRANCH   7   8
ATOM      8  C   UNL d   1      -0.131   0.833  -3.672  0.00  0.00     0.174 C 
ATOM      9  C   UNL d   1      -1.039  -0.279  -4.169  0.00  0.00     0.034 C 
ENDBRANCH   7   8
ENDBRANCH   5   7
ENDBRANCH   1   5
BRANCH   2  10
ATOM     10  C   UNL d   1       1.041  -1.889   1.618  0.00  0.00    -0.029 A 
ATOM     11  C   UNL d   1       2.119  -1.514   2.427  0.00  0.00     0.048 A 
ATOM     12  C   UNL d   1       2.690  -2.437   3.303  0.00  0.00     0.071 A 
ATOM     13  C   UNL d   1       2.164  -3.731   3.381  0.00  0.00     0.073 A 
ATOM     14  C   UNL d   1       1.069  -4.101   2.599  0.00  0.00     0.071 A 
ATOM     15  C   UNL d   1       0.525  -3.185   1.698  0.00  0.00     0.048 A 
BRANCH  12  16
ATOM     16  O   UNL d   1       3.753  -2.199   4.130  0.00  0.00    -0.356 OA
ATOM     17  C   UNL d   1       4.320  -0.894   4.087  0.00  0.00     0.210 C 
ENDBRANCH  12  16
BRANCH  14  18
ATOM     18  O   UNL d   1       0.471  -5.332   2.618  0.00  0.00    -0.356 OA
ATOM     19  C   UNL d   1       0.560  -6.030   3.857  0.00  0.00     0.210 C 
ENDBRANCH  14  18
ENDBRANCH   2  10
TORSDOF 6
