REMARK  4 active torsions:
REMARK  status: ('A' for Active; 'I' for Inactive)
REMARK    1  A    between atoms: N_3  and  C_1 
REMARK    2  A    between atoms: C_7  and  C_2 
REMARK       I    between atoms: N_13  and  C_7 
REMARK       I    between atoms: C_10  and  N_14 
REMARK    3  A    between atoms: C_15  and  C_10 
REMARK    4  A    between atoms: N_14  and  N_13 
ROOT
ATOM      1  C   UNL d   1      -2.097  -0.822   0.175  0.00  0.00     0.098 A 
ATOM      2  C   UNL d   1      -1.036  -1.731   0.044  0.00  0.00     0.075 A 
ATOM      3  S   UNL d   1      -1.592   0.800   0.288  0.00  0.00    -0.075 SA
ATOM      4  C   UNL d   1       0.241  -0.984   0.063  0.00  0.00    -0.026 A 
ATOM      5  C   UNL d   1       0.029   0.387   0.103  0.00  0.00    -0.008 A 
ATOM      6  C   UNL d   1       1.660  -1.493  -0.042  0.00  0.00     0.041 C 
ATOM      7  C   UNL d   1       1.070   1.468   0.049  0.00  0.00     0.047 C 
ATOM      8  C   UNL d   1       2.706  -0.424   0.333  0.00  0.00     0.005 C 
ATOM      9  C   UNL d   1       2.431   0.906  -0.364  0.00  0.00     0.005 C 
ENDROOT
BRANCH   2  10
ATOM     10  C   UNL d   1      -1.267  -3.193  -0.150  0.00  0.00     0.273 C 
ATOM     11  N   UNL d   1      -0.245  -4.039   0.268  0.00  0.00    -0.263 N 
ATOM     12  H   UNL d   1       0.630  -3.693   0.616  0.00  0.00     0.190 HD
ATOM     13  O   UNL d   1      -2.325  -3.624  -0.591  0.00  0.00    -0.266 OA
BRANCH  11  14
ATOM     14  N   UNL d   1      -0.421  -5.442   0.322  0.00  0.00    -0.263 N 
ATOM     15  C   UNL d   1      -0.535  -6.178  -0.847  0.00  0.00     0.270 C 
ATOM     16  O   UNL d   1      -0.482  -5.687  -1.973  0.00  0.00    -0.266 OA
ATOM     17  H   UNL d   1      -0.566  -5.857   1.235  0.00  0.00     0.190 HD
BRANCH  15  18
ATOM     18  C   UNL d   1      -0.674  -7.660  -0.704  0.00  0.00     0.033 A 
ATOM     19  C   UNL d   1      -0.048  -8.379   0.320  0.00  0.00     0.017 A 
ATOM     20  C   UNL d   1      -0.050  -9.784   0.296  0.00  0.00     0.007 A 
ATOM     21  C   UNL d   1      -0.674 -10.481  -0.748  0.00  0.00    -0.062 A 
ATOM     22  C   UNL d   1      -1.349  -9.757  -1.737  0.00  0.00     0.007 A 
ATOM     23  C   UNL d   1      -0.579 -11.979  -0.824  0.00  0.00     0.048 C 
ATOM     24  C   UNL d   1      -1.344  -8.358  -1.717  0.00  0.00     0.017 A 
ENDBRANCH  15  18
ENDBRANCH  11  14
ENDBRANCH   2  10
BRANCH   1  25
ATOM     25  N   UNL d   1      -3.491  -1.030   0.342  0.00  0.00    -0.313 N 
ATOM     26  C   UNL d   1      -4.539  -0.268  -0.217  0.00  0.00     0.013 A 
ATOM     27  C   UNL d   1      -5.746  -0.744   0.256  0.00  0.00     0.027 A 
ATOM     28  C   UNL d   1      -4.383   0.840  -1.208  0.00  0.00     0.068 C 
ATOM     29  C   UNL d   1      -5.478  -1.811   1.117  0.00  0.00     0.027 A 
ATOM     30  C   UNL d   1      -4.108  -1.958   1.198  0.00  0.00     0.013 A 
ATOM     31  C   UNL d   1      -3.401  -2.902   2.113  0.00  0.00     0.068 C 
ENDBRANCH   1  25
TORSDOF 4
