REMARK  6 active torsions:
REMARK  status: ('A' for Active; 'I' for Inactive)
REMARK    1  A    between atoms: C_4  and  N_1 
REMARK    2  A    between atoms: C_5  and  C_2 
REMARK    3  A    between atoms: C_3  and  C_8 
REMARK       I    between atoms: N_11  and  C_3 
REMARK    4  A    between atoms: O_18  and  C_5 
REMARK    5  A    between atoms: C_9  and  N_17 
REMARK    6  A    between atoms: N_17  and  N_11 
ROOT
ATOM      1  C   UNL d   1      -2.227   3.670   3.098  0.00  0.00     0.270 C 
ATOM      2  O   UNL d   1      -3.280   3.249   3.574  0.00  0.00    -0.266 OA
ATOM      3  N   UNL d   1      -1.802   4.977   3.276  0.00  0.00    -0.266 N 
ATOM      4  H   UNL d   1      -0.869   5.303   3.064  0.00  0.00     0.190 HD
ENDROOT
BRANCH   1   5
ATOM      5  C   UNL d   1      -1.338   2.764   2.298  0.00  0.00     0.033 A 
ATOM      6  C   UNL d   1      -1.771   1.444   2.079  0.00  0.00     0.019 A 
ATOM      7  C   UNL d   1      -0.997   0.543   1.335  0.00  0.00     0.037 A 
ATOM      8  C   UNL d   1       0.227   0.963   0.804  0.00  0.00     0.102 A 
ATOM      9  C   UNL d   1       0.677   2.272   1.016  0.00  0.00     0.037 A 
ATOM     10  C   UNL d   1      -0.106   3.168   1.758  0.00  0.00     0.019 A 
BRANCH   8  11
ATOM     11  N   UNL d   1       1.045   0.031   0.016  0.00  0.00    -0.116 N 
ATOM     12  O   UNL d   1       2.117   0.451  -0.439  0.00  0.00    -0.532 OA
ATOM     13  O   UNL d   1       0.612  -1.119  -0.147  0.00  0.00    -0.532 OA
ENDBRANCH   8  11
ENDBRANCH   1   5
BRANCH   3  14
ATOM     14  N   UNL d   1      -2.534   5.786   4.142  0.00  0.00    -0.309 N 
ATOM     15  H   UNL d   1      -3.315   5.307   4.604  0.00  0.00     0.186 HD
BRANCH  14  16
ATOM     16  C   UNL d   1      -2.648   7.136   3.934  0.00  0.00     0.114 C 
ATOM     17  C   UNL d   1      -3.454   7.995   4.571  0.00  0.00     0.099 C 
BRANCH  17  18
ATOM     18  C   UNL d   1      -3.380   9.428   4.226  0.00  0.00     0.166 C 
ATOM     19  O   UNL d   1      -2.656   9.897   3.366  0.00  0.00    -0.647 OA
BRANCH  18  20
ATOM     20  O   UNL d   1      -4.201  10.178   4.987  0.00  0.00    -0.773 OA
ATOM     21  H   UNL d   1      -4.727   9.695   5.648  0.00  0.00     0.167 HD
ENDBRANCH  18  20
ENDBRANCH  17  18
ENDBRANCH  14  16
ENDBRANCH   3  14
TORSDOF 6
