REMARK  4 active torsions:
REMARK  status: ('A' for Active; 'I' for Inactive)
REMARK    1  A    between atoms: C_3  and  S_1 
REMARK    2  A    between atoms: C_4  and  S_1 
REMARK    3  A    between atoms: S_2  and  C_3 
REMARK    4  A    between atoms: C_5  and  S_2 
ROOT
ATOM      1  C   UNL d   1       0.387   1.530   0.125  0.00  0.00     0.291 C 
ENDROOT
BRANCH   1   2
ATOM      2  S   UNL d   1       1.017   2.302   1.552  0.00  0.00     0.190 S 
ATOM      3  O   UNL d   1       0.652   3.706   1.492  0.00  0.00    -0.222 OA
ATOM      4  O   UNL d   1       0.557   1.520   2.688  0.00  0.00    -0.222 OA
BRANCH   2   5
ATOM      5  C   UNL d   1       2.790   2.248   1.561  0.00  0.00     0.081 A 
ATOM      6  C   UNL d   1       3.563   2.883   0.586  0.00  0.00     0.055 A 
ATOM      7 CL   UNL d   1       2.910   3.712  -0.777  0.00  0.00    -0.083 Cl
ATOM      8  C   UNL d   1       4.960   2.869   0.698  0.00  0.00     0.025 A 
ATOM      9  C   UNL d   1       5.582   2.238   1.777  0.00  0.00     0.002 A 
ATOM     10  C   UNL d   1       4.811   1.610   2.751  0.00  0.00     0.002 A 
ATOM     11  C   UNL d   1       3.420   1.616   2.647  0.00  0.00     0.025 A 
ENDBRANCH   2   5
ENDBRANCH   1   2
BRANCH   1  12
ATOM     12  S   UNL d   1       0.870  -0.126  -0.105  0.00  0.00     0.190 S 
ATOM     13  O   UNL d   1       2.322  -0.131  -0.181  0.00  0.00    -0.222 OA
ATOM     14  O   UNL d   1       0.124  -0.652  -1.234  0.00  0.00    -0.222 OA
BRANCH  12  15
ATOM     15  C   UNL d   1       0.415  -1.111   1.297  0.00  0.00     0.081 A 
ATOM     16  C   UNL d   1      -0.917  -1.314   1.668  0.00  0.00     0.055 A 
ATOM     17 CL   UNL d   1      -2.262  -0.574   0.883  0.00  0.00    -0.083 Cl
ATOM     18  C   UNL d   1      -1.211  -2.171   2.738  0.00  0.00     0.025 A 
ATOM     19  C   UNL d   1      -0.189  -2.824   3.428  0.00  0.00     0.002 A 
ATOM     20  C   UNL d   1       1.137  -2.625   3.056  0.00  0.00     0.002 A 
ATOM     21  C   UNL d   1       1.440  -1.775   1.992  0.00  0.00     0.025 A 
ENDBRANCH  12  15
ENDBRANCH   1  12
TORSDOF 4
