REMARK  3 active torsions:
REMARK  status: ('A' for Active; 'I' for Inactive)
REMARK    1  A    between atoms: C_2  and  C_1 
REMARK       I    between atoms: N_3  and  C_2 
REMARK    2  A    between atoms: C_13  and  C_6 
REMARK    3  A    between atoms: S_14  and  C_7 
ROOT
ATOM      1  C   UNL d   1      -0.194  -1.221  -0.015  0.00  0.00     0.093 A 
ATOM      2  N   UNL d   1      -1.325   0.741   0.277  0.00  0.00    -0.259 N 
ATOM      3  HN  UNL d   1      -2.074   1.426   0.381  1.00  0.00     0.195 HD
ATOM      4  C   UNL d   1      -1.456  -0.596   0.260  0.00  0.00     0.083 A 
ATOM      5  O   UNL d   1       0.013   1.007   0.128  0.00  0.00    -0.241 OA
ATOM      6  C   UNL d   1       0.691  -0.154  -0.014  0.00  0.00     0.090 A 
ATOM      7  C   UNL d   1       2.162  -0.036  -0.112  0.00  0.00     0.080 C 
ENDROOT
BRANCH   1   8
ATOM      8  C   UNL d   1       0.252  -2.610  -0.131  0.00  0.00     0.264 C 
ATOM      9  N   UNL d   1      -0.458  -3.543  -0.936  0.00  0.00    -0.294 N 
ATOM     10  C   UNL d   1      -0.170  -4.932  -1.037  0.00  0.00     0.144 C 
ATOM     11  C   UNL d   1      -1.462  -3.105  -1.902  0.00  0.00     0.136 C 
ATOM     12  N   UNL d   1      -0.855  -5.770  -1.730  0.00  0.00    -0.370 N 
ATOM     13  C   UNL d   1      -2.039  -5.387  -2.480  0.00  0.00     0.123 C 
ATOM     14  HN  UNL d   1      -0.555  -6.745  -1.755  1.00  0.00     0.161 HD
ATOM     15  C   UNL d   1      -2.609  -4.092  -1.961  0.00  0.00     0.040 C 
ATOM     16  O   UNL d   1       1.290  -2.885   0.462  0.00  0.00    -0.267 OA
BRANCH  10  17
ATOM     17  S   UNL d   1       1.196  -5.608  -0.165  0.00  0.00    -0.098 SA
ATOM     18  C   UNL d   1       1.343  -7.246  -0.904  0.00  0.00     0.099 C 
ENDBRANCH  10  17
ENDBRANCH   1   8
BRANCH   4  19
ATOM     19  C   UNL d   1      -2.776  -1.187   0.479  0.00  0.00    -0.006 A 
ATOM     20  C   UNL d   1      -3.909  -0.576  -0.085  0.00  0.00     0.014 A 
ATOM     21  C   UNL d   1      -5.168  -1.167   0.027  0.00  0.00     0.001 A 
ATOM     22  C   UNL d   1      -5.307  -2.372   0.712  0.00  0.00     0.000 A 
ATOM     23  C   UNL d   1      -4.196  -2.970   1.305  0.00  0.00     0.001 A 
ATOM     24  C   UNL d   1      -2.934  -2.378   1.196  0.00  0.00     0.014 A 
ENDBRANCH   4  19
TORSDOF 3
