REMARK  2 active torsions:
REMARK  status: ('A' for Active; 'I' for Inactive)
REMARK       I    between atoms: N_2  and  C_1 
REMARK       I    between atoms: N_3  and  C_1 
REMARK       I    between atoms: C_12  and  N_2 
REMARK       I    between atoms: C_11  and  N_3 
REMARK    1  A    between atoms: N_4  and  N_6 
REMARK    2  A    between atoms: C_8  and  C_9 
ROOT
ATOM      1  C   UNL d   1       1.066   0.640  -2.235  0.00  0.00     0.702 C 
ATOM      2  N   UNL d   1       0.372   0.474  -1.045  0.00  0.00    -0.159 N 
ATOM      3  N   UNL d   1       0.275   1.015  -3.307  0.00  0.00    -0.159 N 
ATOM      4  N   UNL d   1       2.326   0.497  -2.497  0.00  0.00    -0.132 N 
ATOM      5  HN  UNL d   1       2.734   0.723  -3.404  1.00  0.00     0.205 HD
ATOM      6  C   UNL d   1      -1.097   1.180  -3.326  0.00  0.00     0.232 C 
ATOM      7  C   UNL d   1       0.769   0.504   0.288  0.00  0.00     0.232 C 
ATOM      8  O   UNL d   1      -1.830   0.878  -2.384  0.00  0.00    -0.273 OA
ATOM      9  O   UNL d   1       1.804   0.977   0.743  0.00  0.00    -0.273 OA
ATOM     10  C   UNL d   1      -1.651   1.733  -4.609  0.00  0.00     0.118 C 
ATOM     11  C   UNL d   1      -0.308  -0.005   1.217  0.00  0.00     0.118 C 
ATOM     12  H   UNL d   1      -0.629   0.377  -1.188  0.00  0.00     0.187 HD
ATOM     13  H   UNL d   1       0.812   1.203  -4.143  0.00  0.00     0.187 HD
ENDROOT
BRANCH   4  14
ATOM     14  N   UNL d   1       3.068   0.011  -1.435  0.00  0.00    -0.290 N 
ATOM     15  C   UNL d   1       4.360  -0.017  -1.587  0.00  0.00     0.039 C 
ATOM     16  C   UNL d   1       5.043   0.355  -2.886  0.00  0.00     0.071 C 
ATOM     17  HN  UNL d   1       2.624  -0.309  -0.574  1.00  0.00     0.187 HD
BRANCH  15  18
ATOM     18  C   UNL d   1       5.139  -0.434  -0.426  0.00  0.00     0.028 A 
ATOM     19  S   UNL d   1       6.779   0.007  -0.209  0.00  0.00    -0.100 SA
ATOM     20  C   UNL d   1       6.862  -0.760   1.318  0.00  0.00     0.050 A 
ATOM     21  C   UNL d   1       5.670  -1.352   1.662  0.00  0.00     0.008 A 
ATOM     22  C   UNL d   1       4.676  -1.153   0.663  0.00  0.00     0.021 A 
ENDBRANCH  15  18
ENDBRANCH   4  14
TORSDOF 2
