REMARK  3 active torsions:
REMARK  status: ('A' for Active; 'I' for Inactive)
REMARK    1  A    between atoms: N_7  and  C_1 
REMARK    2  A    between atoms: C_12  and  N_2 
REMARK    3  A    between atoms: C_8  and  C_6 
REMARK       I    between atoms: C_11  and  N_7 
ROOT
ATOM      1  C   UNL d   1      -0.405  -1.067  -0.131  0.00  0.00     0.132 C 
ATOM      2  N   UNL d   1       0.918  -0.707   0.130  0.00  0.00    -0.240 N 
ATOM      3  N   UNL d   1       1.020   0.612   0.429  0.00  0.00    -0.296 N 
ATOM      4  HN  UNL d   1       1.822   1.105   0.823  1.00  0.00     0.187 HD
ATOM      5  C   UNL d   1      -1.087   0.122  -0.287  0.00  0.00     0.077 C 
ATOM      6  C   UNL d   1      -0.166   1.118   0.090  0.00  0.00     0.034 C 
ENDROOT
BRANCH   2   7
ATOM      7  C   UNL d   1       2.093  -1.507   0.031  0.00  0.00     0.058 A 
ATOM      8  C   UNL d   1       2.110  -2.681  -0.736  0.00  0.00     0.031 A 
ATOM      9  C   UNL d   1       3.275  -3.444  -0.837  0.00  0.00     0.002 A 
ATOM     10  C   UNL d   1       4.438  -3.032  -0.187  0.00  0.00     0.000 A 
ATOM     11  C   UNL d   1       4.438  -1.847   0.554  0.00  0.00     0.002 A 
ATOM     12  C   UNL d   1       3.274  -1.084   0.658  0.00  0.00     0.031 A 
ENDBRANCH   2   7
BRANCH   1  13
ATOM     13  N   UNL d   1      -0.843  -2.384  -0.178  0.00  0.00    -0.312 N 
ATOM     14  C   UNL d   1      -1.955  -2.785  -0.890  0.00  0.00     0.219 C 
ATOM     15  O   UNL d   1      -2.674  -2.070  -1.579  0.00  0.00    -0.274 OA
ATOM     16  C   UNL d   1      -2.157  -4.280  -0.831  0.00  0.00     0.117 C 
ATOM     17  H   UNL d   1      -0.244  -3.095   0.228  0.00  0.00     0.170 HD
ENDBRANCH   1  13
BRANCH   6  18
ATOM     18  C   UNL d   1      -0.411   2.616   0.163  0.00  0.00     0.037 A 
ATOM     19  C   UNL d   1      -1.753   3.146   0.621  0.00  0.00     0.011 A 
ATOM     20  C   UNL d   1      -1.367   3.270  -0.814  0.00  0.00     0.011 A 
ENDBRANCH   6  18
TORSDOF 3
