REMARK  4 active torsions:
REMARK  status: ('A' for Active; 'I' for Inactive)
REMARK    1  A    between atoms: C_2  and  N_1 
REMARK    2  A    between atoms: N_3  and  N_7 
REMARK    3  A    between atoms: N_7  and  C_11 
REMARK    4  A    between atoms: C_12  and  C_10 
ROOT
ATOM      1  N   UNL d   1      -1.840  -2.646  -4.300  0.00  0.00    -0.301 N 
ATOM      2  H   UNL d   1      -2.115  -1.909  -4.947  0.00  0.00     0.187 HD
ENDROOT
BRANCH   1   3
ATOM      3  N   UNL d   1      -1.337  -3.810  -4.784  0.00  0.00    -0.311 N 
ATOM      4  C   UNL d   1      -1.743  -4.154  -5.963  0.00  0.00     0.118 C 
ATOM      5  HN  UNL d   1      -0.678  -4.378  -4.250  1.00  0.00     0.186 HD
BRANCH   4   6
ATOM      6  C   UNL d   1      -1.278  -5.406  -6.595  0.00  0.00    -0.019 A 
ATOM      7  C   UNL d   1      -0.395  -6.256  -5.923  0.00  0.00     0.013 A 
ATOM      8  C   UNL d   1       0.042  -7.431  -6.536  0.00  0.00     0.007 A 
ATOM      9  C   UNL d   1      -0.398  -7.766  -7.823  0.00  0.00    -0.062 A 
ATOM     10  C   UNL d   1      -1.290  -6.912  -8.485  0.00  0.00     0.007 A 
ATOM     11  C   UNL d   1       0.097  -9.024  -8.474  0.00  0.00     0.048 C 
ATOM     12  C   UNL d   1      -1.731  -5.734  -7.874  0.00  0.00     0.013 A 
ENDBRANCH   4   6
ENDBRANCH   1   3
BRANCH   1  13
ATOM     13  C   UNL d   1      -1.322  -2.172  -3.074  0.00  0.00     0.048 A 
ATOM     14  C   UNL d   1      -0.485  -2.962  -2.269  0.00  0.00     0.033 A 
ATOM     15  C   UNL d   1      -0.032  -2.511  -1.026  0.00  0.00     0.038 A 
ATOM     16  C   UNL d   1      -0.444  -1.260  -0.561  0.00  0.00     0.103 A 
ATOM     17  C   UNL d   1      -1.308  -0.469  -1.328  0.00  0.00     0.038 A 
ATOM     18  C   UNL d   1      -1.748  -0.933  -2.574  0.00  0.00     0.033 A 
BRANCH  16  19
ATOM     19  N   UNL d   1       0.023  -0.781   0.746  0.00  0.00    -0.116 N 
ATOM     20  O   UNL d   1      -0.373   0.330   1.126  0.00  0.00    -0.532 OA
ATOM     21  O   UNL d   1       0.786  -1.513   1.392  0.00  0.00    -0.532 OA
ENDBRANCH  16  19
ENDBRANCH   1  13
TORSDOF 4
