REMARK  5 active torsions:
REMARK  status: ('A' for Active; 'I' for Inactive)
REMARK    1  A    between atoms: C_8  and  N_3 
REMARK    2  A    between atoms: C_9  and  C_8 
REMARK       I    between atoms: N_12  and  C_9 
REMARK       I    between atoms: C_11  and  N_13 
REMARK       I    between atoms: N_16  and  C_11 
REMARK    3  A    between atoms: N_13  and  N_12 
REMARK    4  A    between atoms: C_23  and  N_16 
REMARK    5  A    between atoms: C_24  and  C_23 
ROOT
ATOM      1  C   UNL d   1       2.007  -1.224   0.190  0.00  0.00     0.215 C 
ATOM      2  C   UNL d   1       1.841  -2.664  -0.299  0.00  0.00     0.046 C 
ENDROOT
BRANCH   1   3
ATOM      3  N   UNL d   1       0.741  -0.531   0.346  0.00  0.00    -0.189 N 
ATOM      4  N   UNL d   1       0.701   0.817   0.379  0.00  0.00    -0.115 N 
ATOM      5  C   UNL d   1      -0.529   1.017   0.862  0.00  0.00     0.709 A 
ATOM      6  HN  UNL d   1       1.413   1.495   0.110  1.00  0.00     0.207 HD
ATOM      7  N   UNL d   1      -1.212  -0.161   1.050  0.00  0.00    -0.113 N 
ATOM      8  N   UNL d   1      -1.059   2.204   1.216  0.00  0.00    -0.211 N 
ATOM      9  N   UNL d   1      -0.386  -1.147   0.728  0.00  0.00     0.012 NA
ATOM     10  HN  UNL d   1      -2.173  -0.259   1.376  1.00  0.00     0.203 HD
ATOM     11  C   UNL d   1      -2.390   2.325   1.804  0.00  0.00     0.167 C 
ATOM     12  C   UNL d   1      -0.360   3.469   0.990  0.00  0.00     0.167 C 
ATOM     13  C   UNL d   1      -2.318   3.209   3.059  0.00  0.00     0.188 C 
ATOM     14  O   UNL d   1      -1.720   4.486   2.770  0.00  0.00    -0.388 OA
ATOM     15  C   UNL d   1      -0.379   4.308   2.277  0.00  0.00     0.188 C 
ENDBRANCH   1   3
BRANCH   1  16
ATOM     16  C   UNL d   1       2.818  -1.139   1.484  0.00  0.00     0.262 C 
ATOM     17  N   UNL d   1       2.829   0.105   2.089  0.00  0.00    -0.264 N 
ATOM     18  H   UNL d   1       2.289   0.906   1.741  0.00  0.00     0.190 HD
ATOM     19  O   UNL d   1       3.500  -2.070   1.916  0.00  0.00    -0.269 OA
BRANCH  17  20
ATOM     20  N   UNL d   1       3.536   0.300   3.282  0.00  0.00    -0.249 N 
ATOM     21  C   UNL d   1       3.902   1.601   3.573  0.00  0.00     0.334 C 
ATOM     22  O   UNL d   1       3.550   2.570   2.909  0.00  0.00    -0.246 OA
ATOM     23  N   UNL d   1       4.703   1.665   4.686  0.00  0.00    -0.342 N 
ATOM     24  H   UNL d   1       4.501   0.964   5.386  0.00  0.00     0.164 HD
ATOM     25  H   UNL d   1       4.209  -0.432   3.500  0.00  0.00     0.192 HD
BRANCH  23  26
ATOM     26  C   UNL d   1       5.223   2.933   5.156  0.00  0.00     0.124 C 
BRANCH  26  27
ATOM     27  C   UNL d   1       6.487   2.746   5.991  0.00  0.00     0.015 C 
ATOM     28  C   UNL d   1       7.610   2.085   5.203  0.00  0.00     0.006 C 
ENDBRANCH  26  27
ENDBRANCH  23  26
ENDBRANCH  17  20
ENDBRANCH   1  16
TORSDOF 5
