REMARK  3 active torsions:
REMARK  status: ('A' for Active; 'I' for Inactive)
REMARK    1  A    between atoms: C_8  and  N_1 
REMARK    2  A    between atoms: S_13  and  C_2 
REMARK    3  A    between atoms: C_9  and  C_8 
ROOT
ATOM      1  N   UNL d   1       2.379  -0.595   0.249  0.00  0.00    -0.294 N 
ATOM      2  C   UNL d   1       2.225   0.748   0.546  0.00  0.00     0.147 C 
ATOM      3  C   UNL d   1       1.257  -1.385   0.048  0.00  0.00     0.262 C 
ATOM      4  N   UNL d   1       1.106   1.393   0.474  0.00  0.00    -0.336 N 
ATOM      5  HN  UNL d   1       1.073   2.400   0.634  1.00  0.00     0.168 HD
ATOM      6  C   UNL d   1      -0.050  -0.705   0.013  0.00  0.00     0.059 A 
ATOM      7  C   UNL d   1      -0.057   0.679   0.172  0.00  0.00     0.049 A 
ATOM      8  O   UNL d   1       1.283  -2.613  -0.102  0.00  0.00    -0.267 OA
ATOM      9  C   UNL d   1      -1.239  -1.423  -0.161  0.00  0.00     0.019 A 
ATOM     10  C   UNL d   1      -1.280   1.351   0.088  0.00  0.00     0.030 A 
ATOM     11  C   UNL d   1      -2.455  -0.745  -0.210  0.00  0.00     0.001 A 
ATOM     12  C   UNL d   1      -2.471   0.647  -0.103  0.00  0.00     0.002 A 
ENDROOT
BRANCH   1  13
ATOM     13  C   UNL d   1       3.670  -1.305   0.237  0.00  0.00     0.139 C 
BRANCH  13  14
ATOM     14  C   UNL d   1       4.084  -1.720  -1.156  0.00  0.00     0.004 A 
ATOM     15  C   UNL d   1       5.415  -2.420  -1.307  0.00  0.00     0.007 A 
ATOM     16  C   UNL d   1       5.216  -1.059  -1.909  0.00  0.00     0.007 A 
ENDBRANCH  13  14
ENDBRANCH   1  13
BRANCH   2  17
ATOM     17  S   UNL d   1       3.618   1.645   1.109  0.00  0.00    -0.107 SA
ATOM     18  H   UNL d   1       3.475   2.686   0.288  0.00  0.00     0.110 HD
ENDBRANCH   2  17
TORSDOF 3
