REMARK  7 active torsions:
REMARK  status: ('A' for Active; 'I' for Inactive)
REMARK    1  A    between atoms: O_9  and  S_1 
REMARK    2  A    between atoms: N_10  and  S_1 
REMARK    3  A    between atoms: C_4  and  C_13 
REMARK    4  A    between atoms: C_14  and  C_5 
REMARK    5  A    between atoms: C_19  and  O_9 
REMARK    6  A    between atoms: C_27  and  C_24 
REMARK    7  A    between atoms: C_28  and  C_27 
ROOT
ATOM      1  N   UNL d   1       2.960   4.867  -5.420  0.00  0.00    -0.319 N 
ATOM      2  HN  UNL d   1       3.458   4.036  -5.740  1.00  0.00     0.169 HD
ATOM      3  C   UNL d   1       1.951   4.960  -4.495  0.00  0.00     0.138 A 
ATOM      4  C   UNL d   1       3.125   6.115  -5.791  0.00  0.00     0.182 A 
ATOM      5  N   UNL d   1       1.478   6.205  -4.319  0.00  0.00    -0.242 N 
ATOM      6  HN  UNL d   1       0.723   6.513  -3.706  1.00  0.00     0.196 HD
ATOM      7  O   UNL d   1       2.265   6.977  -5.176  0.00  0.00    -0.217 OA
ENDROOT
BRANCH   3   8
ATOM      8  C   UNL d   1       1.504   3.792  -3.754  0.00  0.00     0.010 A 
ATOM      9  C   UNL d   1       2.158   2.559  -3.927  0.00  0.00     0.018 A 
ATOM     10  C   UNL d   1       1.756   1.433  -3.207  0.00  0.00     0.039 A 
ATOM     11  C   UNL d   1       0.685   1.526  -2.320  0.00  0.00     0.090 A 
ATOM     12  C   UNL d   1       0.056   2.754  -2.112  0.00  0.00     0.039 A 
ATOM     13  C   UNL d   1       0.450   3.877  -2.842  0.00  0.00     0.018 A 
BRANCH  11  14
ATOM     14  O   UNL d   1       0.302   0.366  -1.690  0.00  0.00    -0.221 OA
BRANCH  14  15
ATOM     15  S   UNL d   1      -1.256   0.136  -1.263  0.00  0.00     0.344 S 
ATOM     16  O   UNL d   1      -2.115   0.603  -2.334  0.00  0.00    -0.180 OA
ATOM     17  O   UNL d   1      -1.433   0.623   0.088  0.00  0.00    -0.180 OA
BRANCH  15  18
ATOM     18  N   UNL d   1      -1.419  -1.558  -1.232  0.00  0.00    -0.196 NA
ATOM     19  C   UNL d   1      -1.155  -2.217  -2.524  0.00  0.00     0.131 C 
ATOM     20  C   UNL d   1      -0.790  -2.236  -0.089  0.00  0.00     0.131 C 
ENDBRANCH  15  18
ENDBRANCH  14  15
ENDBRANCH  11  14
ENDBRANCH   3   8
BRANCH   4  21
ATOM     21  C   UNL d   1       4.089   6.660  -6.729  0.00  0.00     0.017 A 
ATOM     22  C   UNL d   1       4.891   5.771  -7.460  0.00  0.00     0.016 A 
ATOM     23  C   UNL d   1       5.853   6.243  -8.354  0.00  0.00     0.008 A 
ATOM     24  C   UNL d   1       6.034   7.617  -8.527  0.00  0.00    -0.058 A 
ATOM     25  C   UNL d   1       5.217   8.507  -7.817  0.00  0.00     0.008 A 
ATOM     26  C   UNL d   1       4.260   8.035  -6.917  0.00  0.00     0.016 A 
BRANCH  24  27
ATOM     27  C   UNL d   1       7.108   8.134  -9.454  0.00  0.00     0.038 C 
BRANCH  27  28
ATOM     28  C   UNL d   1       8.164   8.942  -8.695  0.00  0.00     0.000 C 
ATOM     29  C   UNL d   1       9.255   9.453  -9.619  0.00  0.00     0.005 C 
ENDBRANCH  27  28
ENDBRANCH  24  27
ENDBRANCH   4  21
TORSDOF 7
