REMARK  8 active torsions:
REMARK  status: ('A' for Active; 'I' for Inactive)
REMARK    1  A    between atoms: C_7  and  N_1 
REMARK       I    between atoms: C_2  and  N_3 
REMARK    2  A    between atoms: C_16  and  C_2 
REMARK    3  A    between atoms: N_3  and  C_10 
REMARK    4  A    between atoms: C_4  and  C_17 
REMARK    5  A    between atoms: O_14  and  C_4 
REMARK    6  A    between atoms: C_15  and  C_7 
REMARK    7  A    between atoms: O_13  and  C_16 
REMARK    8  A    between atoms: C_17  and  O_13 
ROOT
ATOM      1  N   UNL d   1       1.332  -0.016   0.171  0.00  0.00     0.092 N 
ATOM      2  C   UNL d   1      -0.778   1.303   0.217  0.00  0.00     0.055 C 
ATOM      3  C   UNL d   1      -0.854  -1.185   0.256  0.00  0.00     0.055 C 
ATOM      4  C   UNL d   1      -1.579   0.075  -0.226  0.00  0.00     0.087 C 
ATOM      5  C   UNL d   1       0.594  -1.219  -0.228  0.00  0.00     0.275 C 
ATOM      6  C   UNL d   1       0.677   1.225  -0.251  0.00  0.00     0.275 C 
ENDROOT
BRANCH   4   7
ATOM      7  N   UNL d   1      -1.800   0.078  -1.675  0.00  0.00    -0.355 N 
ATOM      8  C   UNL d   1      -2.631  -0.827  -2.300  0.00  0.00     0.241 C 
ATOM      9  O   UNL d   1      -3.314  -1.655  -1.705  0.00  0.00    -0.271 OA
ATOM     10  H   UNL d   1      -1.207   0.656  -2.258  0.00  0.00     0.162 HD
BRANCH   8  11
ATOM     11  C   UNL d   1      -2.585  -0.769  -3.832  0.00  0.00     0.271 C 
BRANCH  11  12
ATOM     12  O   UNL d   1      -1.425  -1.367  -4.411  0.00  0.00    -0.372 OA
BRANCH  12  13
ATOM     13  C   UNL d   1      -1.397  -2.789  -4.179  0.00  0.00     0.277 C 
BRANCH  13  14
ATOM     14  C   UNL d   1      -0.234  -3.404  -4.944  0.00  0.00     0.164 C 
ATOM     15  O   UNL d   1       0.056  -4.594  -4.929  0.00  0.00    -0.648 OA
BRANCH  14  16
ATOM     16  O   UNL d   1       0.460  -2.485  -5.659  0.00  0.00    -0.775 OA
ATOM     17  H   UNL d   1       0.050  -1.605  -5.493  0.00  0.00     0.167 HD
ENDBRANCH  14  16
ENDBRANCH  13  14
ENDBRANCH  12  13
ENDBRANCH  11  12
ENDBRANCH   8  11
ENDBRANCH   4   7
BRANCH   1  18
ATOM     18  C   UNL d   1       2.756  -0.076  -0.218  0.00  0.00     0.311 C 
BRANCH  18  19
ATOM     19  C   UNL d   1       3.042  -0.123  -1.708  0.00  0.00    -0.030 A 
ATOM     20  C   UNL d   1       3.140   1.060  -2.457  0.00  0.00     0.009 A 
ATOM     21  C   UNL d   1       3.338   1.014  -3.838  0.00  0.00     0.001 A 
ATOM     22  C   UNL d   1       3.458  -0.214  -4.484  0.00  0.00     0.000 A 
ATOM     23  C   UNL d   1       3.388  -1.396  -3.751  0.00  0.00     0.001 A 
ATOM     24  C   UNL d   1       3.183  -1.352  -2.370  0.00  0.00     0.009 A 
ENDBRANCH  18  19
ENDBRANCH   1  18
TORSDOF 8
