REMARK  4 active torsions:
REMARK  status: ('A' for Active; 'I' for Inactive)
REMARK    1  A    between atoms: N_9  and  C_3 
REMARK    2  A    between atoms: C_8  and  O_11 
REMARK    3  A    between atoms: C_12  and  N_9 
REMARK    4  A    between atoms: O_11  and  C_16 
ROOT
ATOM      1  N   UNL d   1       1.420  -2.715   0.046  0.00  0.00    -0.342 N 
ATOM      2  H   UNL d   1       0.612  -3.252  -0.235  0.00  0.00     0.167 HD
ENDROOT
BRANCH   1   3
ATOM      3  C   UNL d   1       1.308  -1.330   0.067  0.00  0.00     0.123 A 
ATOM      4  N   UNL d   1       2.356  -0.566   0.002  0.00  0.00    -0.287 N 
ATOM      5  C   UNL d   1       2.323   0.798  -0.012  0.00  0.00     0.371 A 
ATOM      6  HN  UNL d   1       3.270  -1.018  -0.042  1.00  0.00     0.172 HD
ATOM      7  O   UNL d   1       1.081   1.428   0.012  0.00  0.00    -0.260 OA
ATOM      8  O   UNL d   1       3.342   1.479  -0.046  0.00  0.00    -0.238 OA
ATOM      9  C   UNL d   1      -0.083   0.668   0.089  0.00  0.00     0.095 A 
ATOM     10  C   UNL d   1      -1.288   1.366   0.131  0.00  0.00     0.038 A 
ATOM     11  C   UNL d   1      -0.042  -0.716   0.130  0.00  0.00     0.042 A 
ATOM     12  C   UNL d   1      -2.482   0.657   0.216  0.00  0.00     0.003 A 
ATOM     13  C   UNL d   1      -2.459  -0.738   0.269  0.00  0.00     0.001 A 
ATOM     14  C   UNL d   1      -1.241  -1.429   0.232  0.00  0.00     0.018 A 
ENDBRANCH   1   3
BRANCH   1  15
ATOM     15  C   UNL d   1       2.628  -3.444  -0.044  0.00  0.00     0.033 A 
ATOM     16  C   UNL d   1       3.833  -2.983   0.498  0.00  0.00     0.032 A 
ATOM     17  C   UNL d   1       5.038  -3.644   0.254  0.00  0.00     0.039 A 
ATOM     18  C   UNL d   1       5.069  -4.790  -0.534  0.00  0.00     0.078 A 
ATOM     19  C   UNL d   1       3.868  -5.326  -0.991  0.00  0.00     0.039 A 
ATOM     20  C   UNL d   1       2.659  -4.650  -0.760  0.00  0.00     0.032 A 
BRANCH  18  21
ATOM     21  O   UNL d   1       6.303  -5.325  -0.729  0.00  0.00    -0.255 OA
BRANCH  21  22
ATOM     22  C   UNL d   1       6.601  -5.915  -1.987  0.00  0.00     0.530 C 
ATOM     23  F   UNL d   1       5.612  -5.819  -2.900  0.00  0.00    -0.144 F 
ATOM     24  F   UNL d   1       7.699  -5.315  -2.501  0.00  0.00    -0.144 F 
ATOM     25  F   UNL d   1       6.888  -7.222  -1.800  0.00  0.00    -0.144 F 
ENDBRANCH  21  22
ENDBRANCH  18  21
ENDBRANCH   1  15
TORSDOF 4
