REMARK  4 active torsions:
REMARK  status: ('A' for Active; 'I' for Inactive)
REMARK    1  A    between atoms: C_4  and  N_1 
REMARK    2  A    between atoms: N_2  and  C_3 
REMARK    3  A    between atoms: C_11  and  C_7 
REMARK    4  A    between atoms: C_8  and  C_12 
ROOT
ATOM      1  C   UNL d   1       0.293  -2.453   2.684  0.00  0.00    -0.035 A 
ATOM      2  C   UNL d   1      -1.036  -4.379   4.282  0.00  0.00    -0.035 A 
ATOM      3  C   UNL d   1       0.067  -3.674   4.777  0.00  0.00     0.012 A 
ATOM      4  C   UNL d   1      -1.444  -4.137   2.965  0.00  0.00     0.012 A 
ATOM      5  C   UNL d   1      -0.786  -3.185   2.175  0.00  0.00     0.012 A 
ATOM      6  C   UNL d   1       0.725  -2.723   3.988  0.00  0.00     0.012 A 
ENDROOT
BRANCH   1   7
ATOM      7  C   UNL d   1       0.955  -1.464   1.819  0.00  0.00     0.035 C 
ATOM      8  C   UNL d   1       1.537  -0.357   2.296  0.00  0.00     0.168 C 
BRANCH   8   9
ATOM      9  N   UNL d   1       2.135   0.596   1.393  0.00  0.00    -0.127 N 
ATOM     10  O   UNL d   1       2.676   1.572   1.927  0.00  0.00    -0.532 OA
ATOM     11  O   UNL d   1       2.070   0.393   0.174  0.00  0.00    -0.532 OA
ENDBRANCH   8   9
ENDBRANCH   1   7
BRANCH   2  12
ATOM     12  C   UNL d   1      -1.683  -5.376   5.148  0.00  0.00     0.035 C 
ATOM     13  C   UNL d   1      -2.985  -5.683   5.069  0.00  0.00     0.168 C 
BRANCH  13  14
ATOM     14  N   UNL d   1      -3.553  -6.659   5.971  0.00  0.00    -0.127 N 
ATOM     15  O   UNL d   1      -2.825  -7.191   6.818  0.00  0.00    -0.532 OA
ATOM     16  O   UNL d   1      -4.759  -6.887   5.820  0.00  0.00    -0.532 OA
ENDBRANCH  13  14
ENDBRANCH   2  12
TORSDOF 4
