REMARK  3 active torsions:
REMARK  status: ('A' for Active; 'I' for Inactive)
REMARK    1  A    between atoms: N_2  and  C_3 
REMARK    2  A    between atoms: C_14  and  N_4 
REMARK    3  A    between atoms: C_13  and  C_14 
ROOT
ATOM      1  N   UNL d   1       1.341  -2.774  -0.012  0.00  0.00    -0.377 N 
ATOM      2  N   UNL d   1       1.869  -5.657   0.366  0.00  0.00     0.095 N 
ATOM      3  C   UNL d   1       2.102  -3.243   1.150  0.00  0.00     0.153 C 
ATOM      4  C   UNL d   1       0.369  -3.751  -0.535  0.00  0.00     0.153 C 
ATOM      5  C   UNL d   1       2.793  -4.579   0.802  0.00  0.00     0.292 C 
ATOM      6  C   UNL d   1       1.057  -5.130  -0.763  0.00  0.00     0.292 C 
ENDROOT
BRANCH   2   7
ATOM      7  C   UNL d   1       0.996  -6.145   1.449  0.00  0.00     0.311 C 
BRANCH   7   8
ATOM      8  C   UNL d   1       1.742  -6.643   2.671  0.00  0.00    -0.029 A 
ATOM      9  C   UNL d   1       2.623  -7.732   2.583  0.00  0.00     0.021 A 
ATOM     10  C   UNL d   1       3.343  -8.180   3.705  0.00  0.00    -0.025 A 
ATOM     11  C   UNL d   1       4.230  -9.266   3.625  0.00  0.00     0.012 A 
ATOM     12  C   UNL d   1       3.175  -7.520   4.944  0.00  0.00    -0.026 A 
ATOM     13  C   UNL d   1       4.940  -9.695   4.748  0.00  0.00     0.001 A 
ATOM     14  C   UNL d   1       4.776  -9.041   5.966  0.00  0.00     0.001 A 
ATOM     15  C   UNL d   1       3.900  -7.959   6.063  0.00  0.00     0.012 A 
ATOM     16  C   UNL d   1       2.289  -6.437   5.029  0.00  0.00     0.013 A 
ATOM     17  C   UNL d   1       1.578  -6.005   3.907  0.00  0.00     0.010 A 
ENDBRANCH   7   8
ENDBRANCH   2   7
BRANCH   1  18
ATOM     18  C   UNL d   1       0.992  -1.416  -0.091  0.00  0.00     0.043 A 
ATOM     19  C   UNL d   1       0.828  -0.512   1.003  0.00  0.00     0.018 A 
ATOM     20  C   UNL d   1       0.626   0.851   0.749  0.00  0.00     0.044 A 
ATOM     21  C   UNL d   1       0.797  -0.642   2.429  0.00  0.00     0.033 A 
ATOM     22  N   UNL d   1       0.540   1.500   1.961  0.00  0.00    -0.365 N 
ATOM     23  C   UNL d   1       0.554   1.389  -0.539  0.00  0.00     0.030 A 
ATOM     24  C   UNL d   1       0.630   0.604   2.986  0.00  0.00     0.089 A 
ATOM     25  H   UNL d   1       0.418   2.497   2.066  0.00  0.00     0.165 HD
ATOM     26  C   UNL d   1       0.673   0.508  -1.607  0.00  0.00     0.005 A 
ATOM     27  C   UNL d   1       0.883  -0.852  -1.386  0.00  0.00     0.030 A 
ENDBRANCH   1  18
TORSDOF 3
