REMARK  4 active torsions:
REMARK  status: ('A' for Active; 'I' for Inactive)
REMARK    1  A    between atoms: S_8  and  C_2 
REMARK    2  A    between atoms: N_3  and  C_9 
REMARK    3  A    between atoms: C_14  and  C_4 
REMARK    4  A    between atoms: C_7  and  S_8 
ROOT
ATOM      1  N   UNL d   1      -1.124   0.074  -0.212  0.00  0.00    -0.320 N 
ATOM      2  C   UNL d   1      -0.271   1.132  -0.186  0.00  0.00     0.167 A 
ATOM      3  C   UNL d   1      -0.345  -1.052  -0.099  0.00  0.00     0.132 A 
ATOM      4  N   UNL d   1       0.920  -0.665  -0.045  0.00  0.00    -0.283 N 
ATOM      5  HN  UNL d   1       1.729  -1.283   0.014  1.00  0.00     0.188 HD
ATOM      6  N   UNL d   1       0.964   0.712  -0.084  0.00  0.00    -0.278 N 
ATOM      7  HN  UNL d   1       1.800   1.294  -0.040  1.00  0.00     0.189 HD
ATOM      8  H   UNL d   1      -2.125   0.121  -0.327  0.00  0.00     0.169 HD
ENDROOT
BRANCH   2   9
ATOM      9  S   UNL d   1      -0.831   2.757  -0.199  0.00  0.00    -0.032 SA
BRANCH   9  10
ATOM     10  C   UNL d   1      -0.780   3.044  -1.957  0.00  0.00     0.110 A 
ATOM     11  C   UNL d   1      -0.042   4.046  -2.576  0.00  0.00     0.136 A 
ATOM     12  C   UNL d   1      -0.109   4.228  -3.963  0.00  0.00     0.040 A 
ATOM     13  C   UNL d   1      -0.925   3.385  -4.705  0.00  0.00     0.020 A 
ATOM     14  C   UNL d   1      -1.633   2.403  -4.031  0.00  0.00     0.089 A 
ATOM     15  N   UNL d   1      -1.587   2.221  -2.688  0.00  0.00    -0.358 N 
ATOM     16  HN  UNL d   1      -2.139   1.490  -2.238  1.00  0.00     0.166 HD
BRANCH  11  17
ATOM     17  N   UNL d   1       0.801   4.940  -1.822  0.00  0.00    -0.113 N 
ATOM     18  O   UNL d   1       0.250   5.677  -0.994  0.00  0.00    -0.532 OA
ATOM     19  O   UNL d   1       2.001   4.961  -2.121  0.00  0.00    -0.532 OA
ENDBRANCH  11  17
ENDBRANCH   9  10
ENDBRANCH   2   9
BRANCH   3  20
ATOM     20  C   UNL d   1      -0.832  -2.430  -0.072  0.00  0.00     0.009 A 
ATOM     21  C   UNL d   1       0.028  -3.467  -0.473  0.00  0.00     0.017 A 
ATOM     22  C   UNL d   1      -0.392  -4.800  -0.458  0.00  0.00     0.025 A 
ATOM     23  C   UNL d   1      -1.678  -5.112  -0.028  0.00  0.00     0.034 A 
ATOM     24  C   UNL d   1      -2.543  -4.101   0.388  0.00  0.00     0.025 A 
ATOM     25 CL   UNL d   1      -2.200  -6.751  -0.005  0.00  0.00    -0.084 Cl
ATOM     26  C   UNL d   1      -2.123  -2.765   0.366  0.00  0.00     0.017 A 
ENDBRANCH   3  20
TORSDOF 4
