REMARK  6 active torsions:
REMARK  status: ('A' for Active; 'I' for Inactive)
REMARK    1  A    between atoms: C_2  and  S_1 
REMARK    2  A    between atoms: N_17  and  S_1 
REMARK    3  A    between atoms: C_23  and  C_6 
REMARK    4  A    between atoms: C_9  and  C_19 
REMARK    5  A    between atoms: C_13  and  C_24 
REMARK    6  A    between atoms: C_19  and  N_17 
ROOT
ATOM      1  N   UNL d   1       1.309   4.488   2.621  0.00  0.00    -0.321 N 
ATOM      2  HN  UNL d   1       2.299   4.553   2.858  1.00  0.00     0.169 HD
ATOM      3  C   UNL d   1       0.323   5.441   2.770  0.00  0.00     0.137 A 
ATOM      4  N   UNL d   1      -0.888   5.040   2.349  0.00  0.00    -0.242 N 
ATOM      5  HN  UNL d   1      -1.761   5.567   2.350  1.00  0.00     0.196 HD
ATOM      6  C   UNL d   1       0.655   3.477   2.098  0.00  0.00     0.167 A 
ATOM      7  O   UNL d   1      -0.672   3.736   1.912  0.00  0.00    -0.221 OA
ENDROOT
BRANCH   6   8
ATOM      8  C   UNL d   1       1.131   2.101   1.790  0.00  0.00     0.218 C 
BRANCH   8   9
ATOM      9  N   UNL d   1       0.417   1.537   0.639  0.00  0.00    -0.308 N 
ATOM     10  H   UNL d   1      -0.588   1.705   0.579  0.00  0.00     0.172 HD
BRANCH   9  11
ATOM     11  S   UNL d   1       0.843  -0.001   0.162  0.00  0.00     0.261 S 
ATOM     12  O   UNL d   1       1.452  -0.666   1.289  0.00  0.00    -0.200 OA
ATOM     13  O   UNL d   1      -0.329  -0.536  -0.494  0.00  0.00    -0.200 OA
BRANCH  11  14
ATOM     14  C   UNL d   1       2.066   0.154  -1.074  0.00  0.00     0.110 A 
ATOM     15  C   UNL d   1       2.619   1.350  -1.557  0.00  0.00     0.108 A 
ATOM     16  C   UNL d   1       3.612   1.343  -2.631  0.00  0.00     0.086 A 
ATOM     17  N   UNL d   1       2.416   2.629  -1.211  0.00  0.00    -0.238 N 
ATOM     18  N   UNL d   1       3.964   2.606  -2.894  0.00  0.00    -0.239 N 
ATOM     19  C   UNL d   1       4.071   0.158  -3.238  0.00  0.00     0.034 A 
ATOM     20  O   UNL d   1       3.231   3.390  -2.025  0.00  0.00    -0.156 OA
ATOM     21  HN  UNL d   1       4.636   2.924  -3.592  1.00  0.00     0.197 HD
ATOM     22  C   UNL d   1       3.511  -1.025  -2.727  0.00  0.00     0.004 A 
ATOM     23  C   UNL d   1       2.548  -1.028  -1.687  0.00  0.00     0.028 A 
ATOM     24  HN  UNL d   1       1.784   2.972  -0.488  1.00  0.00     0.197 HD
ENDBRANCH  11  14
ENDBRANCH   9  11
ENDBRANCH   8   9
ENDBRANCH   6   8
BRANCH   3  25
ATOM     25  C   UNL d   1       0.593   6.736   3.384  0.00  0.00     0.010 A 
ATOM     26  C   UNL d   1       1.897   7.058   3.787  0.00  0.00     0.016 A 
ATOM     27  C   UNL d   1       2.170   8.277   4.415  0.00  0.00     0.017 A 
ATOM     28  C   UNL d   1       1.142   9.200   4.654  0.00  0.00     0.048 A 
ATOM     29  C   UNL d   1      -0.160   8.886   4.239  0.00  0.00     0.017 A 
ATOM     30  C   UNL d   1      -0.431   7.665   3.610  0.00  0.00     0.016 A 
BRANCH  28  31
ATOM     31  C   UNL d   1       1.452  10.501   5.354  0.00  0.00     0.417 C 
ATOM     32  F   UNL d   1       0.363  11.300   5.528  0.00  0.00    -0.166 F 
ATOM     33  F   UNL d   1       1.976  10.309   6.596  0.00  0.00    -0.166 F 
ATOM     34  F   UNL d   1       2.364  11.253   4.676  0.00  0.00    -0.166 F 
ENDBRANCH  28  31
ENDBRANCH   3  25
TORSDOF 6
