REMARK  2 active torsions:
REMARK  status: ('A' for Active; 'I' for Inactive)
REMARK    1  A    between atoms: C_2  and  O_15 
REMARK    2  A    between atoms: C_2  and  C_12 
ROOT
ATOM      1  C   UNL d   1      -1.486  -0.555  -0.730  0.00  0.00     0.252 C 
ATOM      2  C   UNL d   1       1.152  -1.559  -0.126  0.00  0.00     0.094 C 
ATOM      3  C   UNL d   1      -0.336   0.366  -1.133  0.00  0.00     0.071 C 
ATOM      4  C   UNL d   1      -1.212  -0.782   0.746  0.00  0.00     0.071 A 
ATOM      5  C   UNL d   1       1.135  -0.148  -0.764  0.00  0.00     0.040 C 
ATOM      6  C   UNL d   1       0.228  -1.300   1.088  0.00  0.00     0.040 A 
ATOM      7  C   UNL d   1      -0.793   0.637   1.201  0.00  0.00     0.005 A 
ATOM      8  C   UNL d   1       0.617   0.137   1.541  0.00  0.00     0.003 A 
ATOM      9  C   UNL d   1      -0.556   1.483  -0.077  0.00  0.00     0.001 C 
ATOM     10  C   UNL d   1       1.480   0.780   0.429  0.00  0.00    -0.001 C 
ATOM     11  C   UNL d   1       0.801   2.101   0.128  0.00  0.00     0.011 C 
ATOM     12  F   UNL d   1      -2.675   0.089  -0.867  0.00  0.00    -0.205 F 
ATOM     13  F   UNL d   1      -1.592  -1.683  -1.447  0.00  0.00    -0.205 F 
ENDROOT
BRANCH   2  14
ATOM     14  O   UNL d   1       0.574  -2.496  -1.015  0.00  0.00    -0.384 OA
ATOM     15  H   UNL d   1       1.135  -2.530  -1.812  0.00  0.00     0.211 HD
ENDBRANCH   2  14
BRANCH   2  16
ATOM     16  C   UNL d   1       2.430  -2.217   0.379  0.00  0.00    -0.023 A 
ATOM     17  C   UNL d   1       2.335  -3.529   0.897  0.00  0.00     0.010 A 
ATOM     18  C   UNL d   1       3.426  -4.179   1.466  0.00  0.00     0.001 A 
ATOM     19  C   UNL d   1       4.653  -3.531   1.528  0.00  0.00     0.000 A 
ATOM     20  C   UNL d   1       4.790  -2.254   0.982  0.00  0.00     0.001 A 
ATOM     21  C   UNL d   1       3.692  -1.612   0.394  0.00  0.00     0.010 A 
ENDBRANCH   2  16
TORSDOF 2
