REMARK  8 active torsions:
REMARK  status: ('A' for Active; 'I' for Inactive)
REMARK    1  A    between atoms: N_3  and  C_1 
REMARK    2  A    between atoms: N_8  and  C_1 
REMARK    3  A    between atoms: C_2  and  C_7 
REMARK    4  A    between atoms: O_14  and  C_2 
REMARK    5  A    between atoms: C_12  and  N_3 
REMARK    6  A    between atoms: C_5  and  C_6 
REMARK    7  A    between atoms: C_7  and  C_13 
REMARK    8  A    between atoms: C_13  and  N_8 
ROOT
ATOM      1  N   UNL d   1       0.310   1.177   0.562  0.00  0.00    -0.333 N 
ATOM      2  H   UNL d   1       0.874   0.637  -0.096  0.00  0.00     0.168 HD
ENDROOT
BRANCH   1   3
ATOM      3  C   UNL d   1      -0.835   0.556   0.984  0.00  0.00     0.172 C 
ATOM      4  S   UNL d   1      -2.345   1.245   1.166  0.00  0.00    -0.041 SA
BRANCH   3   5
ATOM      5  N   UNL d   1      -0.719  -0.790   1.220  0.00  0.00    -0.366 N 
ATOM      6  H   UNL d   1      -1.603  -1.204   1.497  0.00  0.00     0.161 HD
BRANCH   5   7
ATOM      7  C   UNL d   1       0.487  -1.431   1.734  0.00  0.00     0.132 C 
BRANCH   7   8
ATOM      8  C   UNL d   1       0.904  -2.635   0.905  0.00  0.00     0.129 C 
BRANCH   8   9
ATOM      9  C   UNL d   1       1.450  -2.211  -0.433  0.00  0.00     0.140 C 
ATOM     10  O   UNL d   1       1.882  -1.095  -0.694  0.00  0.00    -0.650 OA
BRANCH   9  11
ATOM     11  O   UNL d   1       1.459  -3.220  -1.334  0.00  0.00    -0.776 OA
ATOM     12  H   UNL d   1       1.086  -4.056  -1.006  0.00  0.00     0.167 HD
ENDBRANCH   9  11
ENDBRANCH   8   9
ENDBRANCH   7   8
ENDBRANCH   5   7
ENDBRANCH   3   5
ENDBRANCH   1   3
BRANCH   1  13
ATOM     13  C   UNL d   1       0.755   2.486   0.836  0.00  0.00     0.034 A 
ATOM     14  C   UNL d   1       0.422   3.159   2.010  0.00  0.00     0.030 A 
ATOM     15  C   UNL d   1       1.057   4.364   2.341  0.00  0.00     0.010 A 
ATOM     16  C   UNL d   1       2.031   4.940   1.504  0.00  0.00    -0.051 A 
ATOM     17  C   UNL d   1       2.289   4.289   0.287  0.00  0.00     0.010 A 
ATOM     18  C   UNL d   1       1.678   3.067  -0.031  0.00  0.00     0.030 A 
BRANCH  16  19
ATOM     19  C   UNL d   1       2.821   6.176   1.970  0.00  0.00    -0.024 C 
ATOM     20  C   UNL d   1       3.853   6.678   0.935  0.00  0.00     0.019 C 
ATOM     21  C   UNL d   1       1.872   7.351   2.283  0.00  0.00     0.019 C 
ATOM     22  C   UNL d   1       3.608   5.815   3.252  0.00  0.00     0.019 C 
ENDBRANCH  16  19
ENDBRANCH   1  13
TORSDOF 8
