REMARK  10 active torsions:
REMARK  status: ('A' for Active; 'I' for Inactive)
REMARK    1  A    between atoms: C_4  and  C_1 
REMARK    2  A    between atoms: N_6  and  C_2 
REMARK    3  A    between atoms: O_15  and  C_4 
REMARK       I    between atoms: C_9  and  N_6 
REMARK    4  A    between atoms: O_17  and  C_7 
REMARK    5  A    between atoms: O_18  and  C_8 
REMARK    6  A    between atoms: C_19  and  C_9 
REMARK    7  A    between atoms: C_10  and  C_20 
REMARK    8  A    between atoms: O_16  and  C_10 
REMARK    9  A    between atoms: S_14  and  C_19 
REMARK   10  A    between atoms: C_20  and  S_14 
ROOT
ATOM      1  C   UNL d   1       1.457  -0.267   0.128  0.00  0.00     0.069 A 
ATOM      2  C   UNL d   1       0.643  -1.411   0.079  0.00  0.00     0.053 A 
ATOM      3  C   UNL d   1       0.858   1.002   0.143  0.00  0.00     0.059 A 
ATOM      4  C   UNL d   1      -0.758  -1.252   0.036  0.00  0.00     0.070 A 
ATOM      5  C   UNL d   1      -0.531   1.157   0.105  0.00  0.00     0.102 A 
ATOM      6  C   UNL d   1      -1.354   0.023   0.027  0.00  0.00     0.103 A 
ENDROOT
BRANCH   2   7
ATOM      7  N   UNL d   1       1.183  -2.723   0.010  0.00  0.00    -0.325 N 
ATOM      8  C   UNL d   1       0.869  -3.695   0.949  0.00  0.00     0.231 C 
ATOM      9  O   UNL d   1       0.177  -3.505   1.949  0.00  0.00    -0.272 OA
ATOM     10  H   UNL d   1       2.133  -2.797  -0.359  0.00  0.00     0.169 HD
BRANCH   8  11
ATOM     11  C   UNL d   1       1.544  -5.040   0.729  0.00  0.00     0.177 C 
BRANCH  11  12
ATOM     12  S   UNL d   1       3.360  -4.903   0.791  0.00  0.00    -0.149 SA
BRANCH  12  13
ATOM     13  C   UNL d   1       3.610  -4.222   2.465  0.00  0.00     0.184 C 
BRANCH  13  14
ATOM     14  C   UNL d   1       3.140  -5.158   3.554  0.00  0.00     0.149 C 
ATOM     15  O   UNL d   1       3.808  -6.079   3.999  0.00  0.00    -0.649 OA
BRANCH  14  16
ATOM     16  O   UNL d   1       1.883  -4.907   3.992  0.00  0.00    -0.776 OA
ATOM     17  H   UNL d   1       1.395  -4.168   3.557  0.00  0.00     0.167 HD
ENDBRANCH  14  16
ENDBRANCH  13  14
ENDBRANCH  12  13
ENDBRANCH  11  12
ENDBRANCH   8  11
ENDBRANCH   2   7
BRANCH   1  18
ATOM     18  C   UNL d   1       2.931  -0.274   0.323  0.00  0.00     0.295 C 
ATOM     19  O   UNL d   1       3.530   0.640   0.867  0.00  0.00    -0.259 OA
BRANCH  18  20
ATOM     20  O   UNL d   1       3.499  -1.403  -0.166  0.00  0.00    -0.322 OA
ATOM     21  C   UNL d   1       4.918  -1.458   0.031  0.00  0.00     0.213 C 
ENDBRANCH  18  20
ENDBRANCH   1  18
BRANCH   6  22
ATOM     22  O   UNL d   1      -2.698   0.242  -0.096  0.00  0.00    -0.353 OA
ATOM     23  C   UNL d   1      -3.568  -0.870  -0.232  0.00  0.00     0.210 C 
ENDBRANCH   6  22
BRANCH   5  24
ATOM     24  O   UNL d   1      -0.921   2.472   0.097  0.00  0.00    -0.353 OA
ATOM     25  C   UNL d   1      -2.165   2.786   0.713  0.00  0.00     0.210 C 
ENDBRANCH   5  24
TORSDOF 10
