REMARK  7 active torsions:
REMARK  status: ('A' for Active; 'I' for Inactive)
REMARK    1  A    between atoms: C_10  and  C_1 
REMARK    2  A    between atoms: O_5  and  C_2 
REMARK    3  A    between atoms: C_4  and  O_5 
REMARK    4  A    between atoms: C_7  and  C_4 
REMARK    5  A    between atoms: O_11  and  C_8 
REMARK    6  A    between atoms: O_16  and  C_10 
REMARK    7  A    between atoms: C_17  and  O_11 
ROOT
ATOM      1  C   UNL d   1      -0.041  -3.516  -0.368  0.00  0.00     0.303 C 
ATOM      2  O   UNL d   1       0.563  -4.354  -1.021  0.00  0.00    -0.259 OA
ENDROOT
BRANCH   1   3
ATOM      3  O   UNL d   1       0.428  -2.817   0.710  0.00  0.00    -0.272 OA
BRANCH   3   4
ATOM      4  C   UNL d   1       1.503  -3.325   1.380  0.00  0.00     0.114 C 
ATOM      5  C   UNL d   1       1.596  -4.642   1.803  0.00  0.00     0.115 C 
ATOM      6  S   UNL d   1       3.070  -4.934   2.611  0.00  0.00    -0.081 SA
ATOM      7  C   UNL d   1       3.514  -3.279   2.581  0.00  0.00     0.019 A 
ATOM      8  C   UNL d   1       4.656  -2.716   3.184  0.00  0.00     0.020 A 
ATOM      9  C   UNL d   1       2.583  -2.506   1.881  0.00  0.00     0.017 A 
ATOM     10  C   UNL d   1       4.862  -1.342   3.091  0.00  0.00     0.001 A 
ATOM     11  C   UNL d   1       3.957  -0.544   2.406  0.00  0.00     0.001 A 
ATOM     12  C   UNL d   1       2.828  -1.110   1.797  0.00  0.00     0.015 A 
BRANCH   5  13
ATOM     13  C   UNL d   1       0.602  -5.690   1.709  0.00  0.00     0.302 C 
ATOM     14  O   UNL d   1      -0.612  -5.503   1.693  0.00  0.00    -0.259 OA
BRANCH  13  15
ATOM     15  O   UNL d   1       1.177  -6.925   1.630  0.00  0.00    -0.322 OA
ATOM     16  C   UNL d   1       0.242  -7.990   1.478  0.00  0.00     0.213 C 
ENDBRANCH  13  15
ENDBRANCH   5  13
ENDBRANCH   3   4
ENDBRANCH   1   3
BRANCH   1  17
ATOM     17  C   UNL d   1      -1.495  -3.298  -0.502  0.00  0.00     0.091 A 
ATOM     18  C   UNL d   1      -2.096  -2.050  -0.482  0.00  0.00     0.164 A 
ATOM     19  N   UNL d   1      -3.444  -1.879  -0.584  0.00  0.00    -0.346 N 
ATOM     20  C   UNL d   1      -4.220  -2.981  -0.615  0.00  0.00     0.090 A 
ATOM     21  HN  UNL d   1      -3.854  -0.947  -0.635  1.00  0.00     0.167 HD
ATOM     22  C   UNL d   1      -3.713  -4.265  -0.609  0.00  0.00     0.018 A 
ATOM     23  C   UNL d   1      -2.330  -4.422  -0.587  0.00  0.00     0.023 A 
BRANCH  18  24
ATOM     24  O   UNL d   1      -1.298  -0.918  -0.377  0.00  0.00    -0.293 OA
BRANCH  24  25
ATOM     25  C   UNL d   1      -1.879   0.204   0.174  0.00  0.00     0.077 A 
ATOM     26  C   UNL d   1      -2.681   0.160   1.320  0.00  0.00     0.037 A 
ATOM     27  C   UNL d   1      -3.275   1.324   1.805  0.00  0.00     0.003 A 
ATOM     28  C   UNL d   1      -3.029   2.542   1.174  0.00  0.00     0.000 A 
ATOM     29  C   UNL d   1      -2.184   2.598   0.065  0.00  0.00     0.003 A 
ATOM     30  C   UNL d   1      -1.604   1.429  -0.434  0.00  0.00     0.037 A 
ENDBRANCH  24  25
ENDBRANCH  18  24
ENDBRANCH   1  17
TORSDOF 7
