REMARK  6 active torsions:
REMARK  status: ('A' for Active; 'I' for Inactive)
REMARK    1  A    between atoms: C_8  and  C_1 
REMARK    2  A    between atoms: N_7  and  C_2 
REMARK    3  A    between atoms: S_3  and  N_7 
REMARK    4  A    between atoms: C_11  and  S_3 
REMARK    5  A    between atoms: C_12  and  C_6 
REMARK       I    between atoms: N_20  and  C_8 
REMARK    6  A    between atoms: C_13  and  C_14 
ROOT
ATOM      1  C   UNL d   1       0.085   1.257   0.167  0.00  0.00     0.100 A 
ATOM      2  C   UNL d   1       1.390   0.797   0.107  0.00  0.00     0.066 A 
ATOM      3  S   UNL d   1      -1.032  -0.050   0.110  0.00  0.00    -0.082 SA
ATOM      4  C   UNL d   1       1.438  -0.623  -0.013  0.00  0.00     0.051 A 
ATOM      5  C   UNL d   1       0.198  -1.221  -0.032  0.00  0.00     0.018 A 
ENDROOT
BRANCH   2   6
ATOM      6  N   UNL d   1       2.604   1.498   0.085  0.00  0.00    -0.279 N 
ATOM      7  H   UNL d   1       2.785   2.138  -0.691  0.00  0.00     0.179 HD
BRANCH   6   8
ATOM      8  S   UNL d   1       3.354   2.049   1.495  0.00  0.00     0.263 S 
ATOM      9  O   UNL d   1       4.484   2.850   1.063  0.00  0.00    -0.200 OA
ATOM     10  O   UNL d   1       2.352   2.576   2.390  0.00  0.00    -0.200 OA
BRANCH   8  11
ATOM     11  C   UNL d   1       4.040   0.577   2.229  0.00  0.00     0.079 A 
ATOM     12  C   UNL d   1       4.956  -0.200   1.514  0.00  0.00     0.025 A 
ATOM     13  C   UNL d   1       5.548  -1.305   2.130  0.00  0.00     0.002 A 
ATOM     14  C   UNL d   1       5.235  -1.620   3.454  0.00  0.00     0.000 A 
ATOM     15  C   UNL d   1       4.317  -0.844   4.164  0.00  0.00     0.002 A 
ATOM     16  C   UNL d   1       3.712   0.254   3.551  0.00  0.00     0.025 A 
ENDBRANCH   8  11
ENDBRANCH   6   8
ENDBRANCH   2   6
BRANCH   1  17
ATOM     17  C   UNL d   1      -0.442   2.608   0.226  0.00  0.00     0.258 C 
ATOM     18  O   UNL d   1       0.138   3.596  -0.220  0.00  0.00    -0.267 OA
ATOM     19  N   UNL d   1      -1.676   2.749   0.800  0.00  0.00    -0.365 N 
ATOM     20  H   UNL d   1      -2.166   1.965   1.216  0.00  0.00     0.159 HD
ATOM     21  H   UNL d   1      -2.093   3.670   0.862  0.00  0.00     0.159 HD
ENDBRANCH   1  17
BRANCH   5  22
ATOM     22  C   UNL d   1      -0.126  -2.649  -0.098  0.00  0.00    -0.019 A 
ATOM     23  C   UNL d   1      -1.294  -3.124  -0.704  0.00  0.00     0.013 A 
ATOM     24  C   UNL d   1      -1.607  -4.486  -0.681  0.00  0.00     0.009 A 
ATOM     25  C   UNL d   1      -0.760  -5.422  -0.062  0.00  0.00    -0.051 A 
ATOM     26  C   UNL d   1       0.432  -4.940   0.498  0.00  0.00     0.009 A 
ATOM     27  C   UNL d   1       0.743  -3.578   0.481  0.00  0.00     0.013 A 
BRANCH  25  28
ATOM     28  C   UNL d   1      -1.166  -6.901   0.015  0.00  0.00    -0.024 C 
ATOM     29  C   UNL d   1      -0.125  -7.782   0.740  0.00  0.00     0.019 C 
ATOM     30  C   UNL d   1      -2.495  -7.024   0.791  0.00  0.00     0.019 C 
ATOM     31  C   UNL d   1      -1.352  -7.476  -1.404  0.00  0.00     0.019 C 
ENDBRANCH  25  28
ENDBRANCH   5  22
TORSDOF 6
