REMARK  3 active torsions:
REMARK  status: ('A' for Active; 'I' for Inactive)
REMARK    1  A    between atoms: C_2  and  C_1 
REMARK       I    between atoms: N_7  and  C_2 
REMARK    2  A    between atoms: N_3  and  N_7 
REMARK    3  A    between atoms: N_9  and  C_5 
ROOT
ATOM      1  C   UNL d   1      -0.366   2.595  -0.016  0.00  0.00     0.271 C 
ATOM      2  N   UNL d   1       0.355   3.778  -0.053  0.00  0.00    -0.265 N 
ATOM      3  O   UNL d   1       0.163   1.483   0.014  0.00  0.00    -0.266 OA
ATOM      4  H   UNL d   1      -0.106   4.680  -0.077  0.00  0.00     0.190 HD
ENDROOT
BRANCH   1   5
ATOM      5  C   UNL d   1      -1.868   2.668  -0.014  0.00  0.00     0.055 A 
ATOM      6  C   UNL d   1      -2.657   3.829  -0.036  0.00  0.00     0.049 A 
ATOM      7 CL   UNL d   1      -2.031   5.442  -0.070  0.00  0.00    -0.083 Cl
ATOM      8  C   UNL d   1      -4.060   3.731  -0.032  0.00  0.00     0.025 A 
ATOM      9  C   UNL d   1      -4.693   2.489  -0.004  0.00  0.00     0.002 A 
ATOM     10  C   UNL d   1      -3.929   1.330   0.021  0.00  0.00     0.001 A 
ATOM     11  C   UNL d   1      -2.534   1.422   0.015  0.00  0.00     0.019 A 
ENDBRANCH   1   5
BRANCH   2  12
ATOM     12  N   UNL d   1       1.717   3.728  -0.052  0.00  0.00    -0.294 N 
ATOM     13  C   UNL d   1       2.344   4.859  -0.088  0.00  0.00     0.194 C 
ATOM     14  HN  UNL d   1       2.219   2.840  -0.024  1.00  0.00     0.187 HD
BRANCH  13  15
ATOM     15  N   UNL d   1       3.709   5.014  -0.093  0.00  0.00    -0.385 N 
ATOM     16  C   UNL d   1       4.596   3.860  -0.043  0.00  0.00     0.149 C 
ATOM     17  C   UNL d   1       4.359   6.310  -0.124  0.00  0.00     0.149 C 
ENDBRANCH  13  15
ENDBRANCH   2  12
TORSDOF 3
