REMARK  8 active torsions:
REMARK  status: ('A' for Active; 'I' for Inactive)
REMARK    1  A    between atoms: C_2  and  S_1 
REMARK    2  A    between atoms: N_10  and  S_1 
REMARK    3  A    between atoms: C_18  and  N_10 
REMARK    4  A    between atoms: N_11  and  C_19 
REMARK    5  A    between atoms: C_20  and  N_11 
REMARK    6  A    between atoms: C_21  and  N_11 
REMARK    7  A    between atoms: C_17  and  C_18 
REMARK    8  A    between atoms: C_19  and  C_17 
ROOT
ATOM      1  S   UNL d   1       0.846   0.088  -0.039  0.00  0.00     0.259 S 
ATOM      2  O   UNL d   1       0.529   1.338   0.605  0.00  0.00    -0.201 OA
ATOM      3  O   UNL d   1       0.512  -0.083  -1.434  0.00  0.00    -0.201 OA
ENDROOT
BRANCH   1   4
ATOM      4  C   UNL d   1       0.246  -1.282   0.999  0.00  0.00     0.092 A 
ATOM      5  C   UNL d   1       0.634  -1.278   2.382  0.00  0.00    -0.032 A 
ATOM      6  C   UNL d   1       0.400  -2.437   3.174  0.00  0.00    -0.048 A 
ATOM      7  C   UNL d   1       1.347  -0.127   3.062  0.00  0.00     0.050 C 
ATOM      8  C   UNL d   1       0.832  -2.506   4.629  0.00  0.00     0.049 C 
ATOM      9  C   UNL d   1      -0.219  -3.578   2.606  0.00  0.00    -0.049 A 
ATOM     10  C   UNL d   1      -0.651  -3.558   1.256  0.00  0.00    -0.048 A 
ATOM     11  C   UNL d   1      -0.389  -4.814   3.469  0.00  0.00     0.049 C 
ATOM     12  C   UNL d   1      -0.438  -2.402   0.443  0.00  0.00    -0.032 A 
ATOM     13  C   UNL d   1      -1.303  -4.809   0.693  0.00  0.00     0.049 C 
ATOM     14  C   UNL d   1      -0.941  -2.492  -0.981  0.00  0.00     0.050 C 
ENDBRANCH   1   4
BRANCH   1  15
ATOM     15  N   UNL d   1       2.515  -0.148   0.070  0.00  0.00    -0.315 N 
ATOM     16  H   UNL d   1       2.975   0.447   0.757  0.00  0.00     0.172 HD
BRANCH  15  17
ATOM     17  C   UNL d   1       3.114  -1.470  -0.195  0.00  0.00     0.134 C 
BRANCH  17  18
ATOM     18  C   UNL d   1       2.782  -2.040  -1.568  0.00  0.00     0.050 C 
BRANCH  18  19
ATOM     19  C   UNL d   1       3.355  -1.208  -2.718  0.00  0.00     0.274 C 
BRANCH  19  20
ATOM     20  N   UNL d   1       4.831  -1.179  -2.781  0.00  0.00     0.087 N 
BRANCH  20  21
ATOM     21  C   UNL d   1       5.443  -2.511  -2.894  0.00  0.00     0.268 C 
ATOM     22  C   UNL d   1       5.141  -3.289  -4.171  0.00  0.00     0.037 C 
ENDBRANCH  20  21
BRANCH  20  23
ATOM     23  C   UNL d   1       5.242  -0.235  -3.836  0.00  0.00     0.268 C 
ATOM     24  C   UNL d   1       6.747  -0.024  -3.933  0.00  0.00     0.037 C 
ENDBRANCH  20  23
ENDBRANCH  19  20
ENDBRANCH  18  19
ENDBRANCH  17  18
ENDBRANCH  15  17
ENDBRANCH   1  15
TORSDOF 8
