REMARK  2 active torsions:
REMARK  status: ('A' for Active; 'I' for Inactive)
REMARK    1  A    between atoms: N_6  and  S_1 
REMARK    2  A    between atoms: C_10  and  S_1 
ROOT
ATOM      1  C   UNL d   1       2.566  -0.738  -0.457  0.00  0.00     0.074 A 
ATOM      2  N   UNL d   1       7.353  -2.816  -1.802  0.00  0.00    -0.191 NA
ATOM      3  C   UNL d   1       6.325  -2.357  -1.528  0.00  0.00     0.099 C 
ATOM      4  C   UNL d   1       3.732  -0.208   0.103  0.00  0.00     0.026 A 
ATOM      5  C   UNL d   1       2.632  -1.785  -1.383  0.00  0.00     0.026 A 
ATOM      6  C   UNL d   1       5.050  -1.793  -1.181  0.00  0.00     0.044 A 
ATOM      7  C   UNL d   1       3.876  -2.308  -1.746  0.00  0.00     0.024 A 
ATOM      8  C   UNL d   1       4.974  -0.739  -0.260  0.00  0.00     0.024 A 
ENDROOT
BRANCH   1   9
ATOM      9  S   UNL d   1       0.964  -0.205   0.116  0.00  0.00     0.243 S 
ATOM     10  O   UNL d   1       0.223  -1.407   0.424  0.00  0.00    -0.206 OA
ATOM     11  O   UNL d   1       1.177   0.826   1.108  0.00  0.00    -0.206 OA
BRANCH   9  12
ATOM     12  N   UNL d   1       0.292   0.508  -1.278  0.00  0.00    -0.203 NA
ATOM     13  C   UNL d   1       0.612   1.958  -1.487  0.00  0.00     0.127 C 
ATOM     14  C   UNL d   1      -0.269   2.875  -0.608  0.00  0.00     0.140 C 
ATOM     15  N   UNL d   1      -1.692   2.560  -0.814  0.00  0.00    -0.359 N 
ATOM     16  C   UNL d   1      -2.657   3.521  -0.777  0.00  0.00     0.148 A 
ATOM     17  C   UNL d   1      -2.046   1.152  -0.573  0.00  0.00     0.140 C 
ATOM     18  N   UNL d   1      -3.923   3.295  -0.493  0.00  0.00    -0.336 N 
ATOM     19  S   UNL d   1      -2.326   5.164  -1.218  0.00  0.00    -0.052 SA
ATOM     20  C   UNL d   1      -4.675   4.457  -0.598  0.00  0.00     0.051 A 
ATOM     21  HN  UNL d   1      -4.302   2.386  -0.229  1.00  0.00     0.168 HD
ATOM     22  C   UNL d   1      -6.057   4.591  -0.346  0.00  0.00     0.032 A 
ATOM     23  C   UNL d   1      -3.966   5.585  -1.004  0.00  0.00     0.036 A 
ATOM     24  C   UNL d   1      -6.677   5.837  -0.514  0.00  0.00     0.026 A 
ATOM     25  C   UNL d   1      -5.938   6.938  -0.934  0.00  0.00     0.035 A 
ATOM     26  C   UNL d   1      -4.572   6.836  -1.188  0.00  0.00     0.045 A 
ATOM     27 CL   UNL d   1      -6.713   8.461  -1.147  0.00  0.00    -0.084 Cl
ATOM     28  C   UNL d   1      -1.178   0.264  -1.488  0.00  0.00     0.127 C 
ENDBRANCH   9  12
ENDBRANCH   1   9
TORSDOF 2
