REMARK  6 active torsions:
REMARK  status: ('A' for Active; 'I' for Inactive)
REMARK    1  A    between atoms: O_2  and  C_1 
REMARK    2  A    between atoms: C_9  and  C_1 
REMARK    3  A    between atoms: C_3  and  O_2 
REMARK    4  A    between atoms: O_16  and  C_4 
REMARK    5  A    between atoms: C_12  and  N_5 
REMARK    6  A    between atoms: C_8  and  C_13 
ROOT
ATOM      1  C   UNL d   1       1.070  -2.267   0.180  0.00  0.00     0.112 A 
ATOM      2  C   UNL d   1       2.031  -2.557   1.158  0.00  0.00     0.102 A 
ATOM      3  C   UNL d   1       2.629  -3.821   1.160  0.00  0.00     0.052 A 
ATOM      4  C   UNL d   1       0.672  -3.232  -0.752  0.00  0.00     0.041 A 
ATOM      5  C   UNL d   1       2.264  -4.776   0.202  0.00  0.00    -0.018 A 
ATOM      6  C   UNL d   1       1.272  -4.490  -0.743  0.00  0.00     0.016 A 
ENDROOT
BRANCH   5   7
ATOM      7  C   UNL d   1       2.970  -6.076   0.207  0.00  0.00     0.100 C 
ATOM      8  N   UNL d   1       2.624  -7.058  -0.563  0.00  0.00    -0.365 N 
ATOM      9  HN  UNL d   1       1.819  -6.970  -1.182  1.00  0.00     0.165 HD
BRANCH   8  10
ATOM     10  C   UNL d   1       3.374  -8.248  -0.534  0.00  0.00     0.032 A 
ATOM     11  C   UNL d   1       3.872  -8.833   0.639  0.00  0.00     0.031 A 
ATOM     12  C   UNL d   1       4.596 -10.031   0.592  0.00  0.00     0.026 A 
ATOM     13  C   UNL d   1       4.805 -10.666  -0.629  0.00  0.00     0.034 A 
ATOM     14  C   UNL d   1       4.300 -10.114  -1.802  0.00  0.00     0.026 A 
ATOM     15 CL   UNL d   1       5.682 -12.145  -0.686  0.00  0.00    -0.084 Cl
ATOM     16  C   UNL d   1       3.588  -8.911  -1.749  0.00  0.00     0.031 A 
ENDBRANCH   8  10
ENDBRANCH   5   7
BRANCH   2  17
ATOM     17  O   UNL d   1       2.294  -1.585   2.088  0.00  0.00    -0.353 OA
ATOM     18  C   UNL d   1       3.580  -1.646   2.698  0.00  0.00     0.210 C 
ENDBRANCH   2  17
BRANCH   1  19
ATOM     19  O   UNL d   1       0.415  -1.025   0.117  0.00  0.00    -0.272 OA
BRANCH  19  20
ATOM     20  C   UNL d   1       1.215   0.054  -0.224  0.00  0.00     0.298 C 
ATOM     21  O   UNL d   1       2.426   0.054  -0.398  0.00  0.00    -0.259 OA
BRANCH  20  22
ATOM     22  C   UNL d   1       0.377   1.273  -0.422  0.00  0.00     0.039 A 
ATOM     23  C   UNL d   1       1.028   2.507  -0.572  0.00  0.00     0.017 A 
ATOM     24  C   UNL d   1       0.297   3.668  -0.837  0.00  0.00     0.001 A 
ATOM     25  C   UNL d   1      -1.089   3.605  -0.957  0.00  0.00     0.000 A 
ATOM     26  C   UNL d   1      -1.748   2.386  -0.800  0.00  0.00     0.001 A 
ATOM     27  C   UNL d   1      -1.021   1.222  -0.530  0.00  0.00     0.017 A 
ENDBRANCH  20  22
ENDBRANCH  19  20
ENDBRANCH   1  19
TORSDOF 6
