REMARK  6 active torsions:
REMARK  status: ('A' for Active; 'I' for Inactive)
REMARK    1  A    between atoms: C_9  and  N_3 
REMARK    2  A    between atoms: C_13  and  C_4 
REMARK    3  A    between atoms: N_8  and  C_12 
REMARK    4  A    between atoms: C_11  and  C_9 
REMARK       I    between atoms: C_10  and  N_16 
REMARK       I    between atoms: N_18  and  C_10 
REMARK       I    between atoms: N_17  and  C_11 
REMARK    5  A    between atoms: N_16  and  N_17 
REMARK    6  A    between atoms: C_22  and  N_18 
ROOT
ATOM      1  C   UNL d   1       1.905  -1.079   0.147  0.00  0.00     0.265 C 
ENDROOT
BRANCH   1   2
ATOM      2  N   UNL d   1       1.186  -0.195  -0.742  0.00  0.00    -0.208 N 
ATOM      3  N   UNL d   1       0.502  -0.595  -1.837  0.00  0.00    -0.268 N 
ATOM      4  C   UNL d   1       0.252   0.607  -2.408  0.00  0.00     0.144 A 
ATOM      5  HN  UNL d   1       0.248  -1.533  -2.145  1.00  0.00     0.190 HD
ATOM      6  N   UNL d   1       0.698   1.655  -1.644  0.00  0.00    -0.266 N 
ATOM      7  N   UNL d   1       1.279   1.135  -0.574  0.00  0.00    -0.002 NA
ATOM      8  HN  UNL d   1       0.600   2.647  -1.859  1.00  0.00     0.186 HD
BRANCH   4   9
ATOM      9  C   UNL d   1      -0.365   0.796  -3.718  0.00  0.00     0.013 A 
ATOM     10  C   UNL d   1      -0.470   2.077  -4.291  0.00  0.00     0.051 A 
ATOM     11  C   UNL d   1      -1.021   2.223  -5.576  0.00  0.00     0.103 A 
ATOM     12  C   UNL d   1      -1.472   1.108  -6.291  0.00  0.00     0.036 A 
ATOM     13  C   UNL d   1      -1.378  -0.158  -5.718  0.00  0.00     0.003 A 
ATOM     14  C   UNL d   1      -0.830  -0.310  -4.443  0.00  0.00     0.015 A 
BRANCH  11  15
ATOM     15  N   UNL d   1      -1.118   3.556  -6.186  0.00  0.00    -0.116 N 
ATOM     16  O   UNL d   1      -0.721   4.524  -5.525  0.00  0.00    -0.532 OA
ATOM     17  O   UNL d   1      -1.593   3.633  -7.331  0.00  0.00    -0.532 OA
ENDBRANCH  11  15
ENDBRANCH   4   9
ENDBRANCH   1   2
BRANCH   1  18
ATOM     18  C   UNL d   1       1.844  -2.557  -0.135  0.00  0.00     0.236 C 
ATOM     19  N   UNL d   1       0.634  -3.126  -0.521  0.00  0.00    -0.169 NA
ATOM     20  H   UNL d   1       0.076  -2.557  -1.165  0.00  0.00     0.156 HD
ATOM     21  O   UNL d   1       2.838  -3.265   0.071  0.00  0.00    -0.276 OA
BRANCH  19  22
ATOM     22  N   UNL d   1       0.763  -4.490  -0.894  0.00  0.00    -0.266 N 
ATOM     23  C   UNL d   1      -0.169  -5.481  -0.703  0.00  0.00     0.335 C 
ATOM     24  N   UNL d   1      -1.442  -5.055  -0.417  0.00  0.00    -0.308 N 
ATOM     25  O   UNL d   1       0.193  -6.644  -0.856  0.00  0.00    -0.246 OA
ATOM     26  H   UNL d   1      -1.571  -4.057  -0.405  0.00  0.00     0.170 HD
ATOM     27  H   UNL d   1       1.723  -4.845  -0.920  0.00  0.00     0.186 HD
BRANCH  24  28
ATOM     28  C   UNL d   1      -2.594  -5.874  -0.341  0.00  0.00     0.036 A 
ATOM     29  C   UNL d   1      -2.548  -7.270  -0.250  0.00  0.00     0.029 A 
ATOM     30  C   UNL d   1      -3.720  -8.032  -0.295  0.00  0.00     0.002 A 
ATOM     31  C   UNL d   1      -4.955  -7.405  -0.422  0.00  0.00     0.000 A 
ATOM     32  C   UNL d   1      -5.019  -6.014  -0.462  0.00  0.00     0.002 A 
ATOM     33  C   UNL d   1      -3.846  -5.251  -0.405  0.00  0.00     0.029 A 
ENDBRANCH  24  28
ENDBRANCH  19  22
ENDBRANCH   1  18
TORSDOF 6
