REMARK  5 active torsions:
REMARK  status: ('A' for Active; 'I' for Inactive)
REMARK    1  A    between atoms: C_3  and  C_1 
REMARK    2  A    between atoms: C_2  and  N_7 
REMARK    3  A    between atoms: N_6  and  C_2 
REMARK    4  A    between atoms: N_4  and  N_6 
REMARK    5  A    between atoms: N_7  and  C_10 
ROOT
ATOM      1  C   UNL d   1       3.338  -4.232   0.456  0.00  0.00     0.191 C 
ATOM      2  S   UNL d   1       4.083  -5.539  -0.278  0.00  0.00    -0.039 SA
ENDROOT
BRANCH   1   3
ATOM      3  N   UNL d   1       2.158  -4.237   1.167  0.00  0.00    -0.332 N 
ATOM      4  H   UNL d   1       2.144  -3.571   1.928  0.00  0.00     0.168 HD
BRANCH   3   5
ATOM      5  C   UNL d   1       1.075  -5.119   1.041  0.00  0.00     0.035 A 
ATOM      6  C   UNL d   1       0.604  -5.501  -0.218  0.00  0.00     0.045 A 
ATOM      7  C   UNL d   1      -0.598  -6.216  -0.345  0.00  0.00     0.050 A 
ATOM      8  C   UNL d   1      -1.266  -6.635   0.816  0.00  0.00     0.016 A 
ATOM      9  C   UNL d   1      -0.780  -6.283   2.075  0.00  0.00     0.003 A 
ATOM     10  C   UNL d   1       0.364  -5.489   2.185  0.00  0.00     0.029 A 
BRANCH   7  11
ATOM     11  C   UNL d   1      -1.219  -6.448  -1.699  0.00  0.00     0.417 C 
ATOM     12  F   UNL d   1      -0.490  -5.944  -2.734  0.00  0.00    -0.166 F 
ATOM     13  F   UNL d   1      -2.448  -5.864  -1.800  0.00  0.00    -0.166 F 
ATOM     14  F   UNL d   1      -1.411  -7.765  -1.979  0.00  0.00    -0.166 F 
ENDBRANCH   7  11
ENDBRANCH   3   5
ENDBRANCH   1   3
BRANCH   1  15
ATOM     15  N   UNL d   1       3.978  -3.008   0.416  0.00  0.00    -0.276 N 
ATOM     16  H   UNL d   1       4.837  -3.021  -0.125  0.00  0.00     0.189 HD
BRANCH  15  17
ATOM     17  N   UNL d   1       3.232  -1.864   0.392  0.00  0.00    -0.307 N 
ATOM     18  C   UNL d   1       3.821  -0.729   0.137  0.00  0.00     0.004 C 
ATOM     19  C   UNL d   1       2.929   0.463  -0.153  0.00  0.00     0.054 C 
ATOM     20  C   UNL d   1       5.323  -0.499   0.082  0.00  0.00     0.054 C 
ATOM     21  C   UNL d   1       2.854   1.385   1.052  0.00  0.00     0.006 C 
ATOM     22  C   UNL d   1       3.973   2.424   1.125  0.00  0.00     0.000 C 
ATOM     23  C   UNL d   1       5.361   1.994   0.647  0.00  0.00     0.000 C 
ATOM     24  C   UNL d   1       5.785   0.585   1.058  0.00  0.00     0.006 C 
ATOM     25  HN  UNL d   1       2.229  -1.897   0.572  1.00  0.00     0.186 HD
ENDBRANCH  15  17
ENDBRANCH   1  15
TORSDOF 5
