REMARK  2 active torsions:
REMARK  status: ('A' for Active; 'I' for Inactive)
REMARK    1  A    between atoms: C_4  and  C_1 
REMARK    2  A    between atoms: C_5  and  C_4 
ROOT
ATOM      1  C   UNL d   1      -3.771  -0.080  -0.132  0.00  0.00     0.215 C 
ATOM      2  O   UNL d   1      -4.556  -0.942   0.254  0.00  0.00    -0.284 OA
ENDROOT
BRANCH   1   3
ATOM      3  C   UNL d   1      -2.332  -0.212  -0.054  0.00  0.00     0.127 A 
ATOM      4  O   UNL d   1      -1.560   0.919  -0.036  0.00  0.00    -0.306 OA
ATOM      5  C   UNL d   1      -0.261   0.528  -0.002  0.00  0.00     0.086 A 
ATOM      6  C   UNL d   1       0.835   1.386  -0.003  0.00  0.00     0.038 A 
ATOM      7  C   UNL d   1      -0.175  -0.858   0.020  0.00  0.00     0.001 A 
ATOM      8  C   UNL d   1       2.095   0.782   0.007  0.00  0.00     0.003 A 
ATOM      9  C   UNL d   1       2.228  -0.609   0.020  0.00  0.00     0.001 A 
ATOM     10  C   UNL d   1       1.101  -1.446   0.030  0.00  0.00     0.014 A 
ATOM     11  C   UNL d   1      -1.516  -1.327   0.021  0.00  0.00     0.055 A 
ENDBRANCH   1   3
BRANCH   1  12
ATOM     12  C   UNL d   1      -4.333   1.165  -0.737  0.00  0.00     0.019 A 
ATOM     13  C   UNL d   1      -3.694   1.800  -1.811  0.00  0.00     0.041 A 
ATOM     14  C   UNL d   1      -4.214   2.983  -2.342  0.00  0.00     0.056 A 
ATOM     15 CL   UNL d   1      -3.347   3.724  -3.640  0.00  0.00    -0.083 Cl
ATOM     16  C   UNL d   1      -5.391   3.525  -1.816  0.00  0.00     0.055 A 
ATOM     17  C   UNL d   1      -6.052   2.870  -0.771  0.00  0.00     0.026 A 
ATOM     18 CL   UNL d   1      -6.077   4.995  -2.410  0.00  0.00    -0.083 Cl
ATOM     19  C   UNL d   1      -5.530   1.689  -0.235  0.00  0.00     0.017 A 
ENDBRANCH   1  12
TORSDOF 2
