REMARK  2 active torsions:
REMARK  status: ('A' for Active; 'I' for Inactive)
REMARK    1  A    between atoms: C_2  and  N_1 
REMARK    2  A    between atoms: C_8  and  C_3 
ROOT
ATOM      1  N   UNL d   1      -0.619  -1.235   0.191  0.00  0.00    -0.293 N 
ATOM      2  C   UNL d   1       0.783  -1.388  -0.160  0.00  0.00     0.190 C 
ATOM      3  S   UNL d   1       1.519   0.263  -0.022  0.00  0.00    -0.129 SA
ATOM      4  C   UNL d   1      -1.139   0.056   0.149  0.00  0.00     0.235 C 
ATOM      5  C   UNL d   1      -0.077   1.091  -0.145  0.00  0.00     0.179 C 
ATOM      6  O   UNL d   1      -2.324   0.354   0.247  0.00  0.00    -0.272 OA
ENDROOT
BRANCH   1   7
ATOM      7  C   UNL d   1      -1.457  -2.368   0.399  0.00  0.00     0.116 A 
ATOM      8  C   UNL d   1      -1.361  -3.511  -0.406  0.00  0.00     0.149 A 
ATOM      9  C   UNL d   1      -2.138  -4.641  -0.163  0.00  0.00     0.087 A 
ATOM     10  F   UNL d   1      -0.538  -3.526  -1.466  0.00  0.00    -0.203 F 
ATOM     11  C   UNL d   1      -3.009  -4.638   0.915  0.00  0.00     0.122 A 
ATOM     12  C   UNL d   1      -3.123  -3.531   1.744  0.00  0.00     0.087 A 
ATOM     13  F   UNL d   1      -3.744  -5.728   1.167  0.00  0.00    -0.206 F 
ATOM     14  C   UNL d   1      -2.353  -2.403   1.478  0.00  0.00     0.149 A 
ATOM     15  F   UNL d   1      -2.398  -1.389   2.355  0.00  0.00    -0.203 F 
ENDBRANCH   1   7
BRANCH   2  16
ATOM     16  C   UNL d   1       1.510  -2.400   0.697  0.00  0.00    -0.010 A 
ATOM     17  C   UNL d   1       2.227  -3.434   0.101  0.00  0.00     0.097 A 
ATOM     18  N   UNL d   1       2.809  -4.448   0.780  0.00  0.00    -0.375 N 
ATOM     19  C   UNL d   1       2.687  -4.431   2.124  0.00  0.00     0.087 A 
ATOM     20  HN  UNL d   1       3.317  -5.190   0.300  1.00  0.00     0.164 HD
ATOM     21  C   UNL d   1       2.024  -3.437   2.822  0.00  0.00     0.018 A 
ATOM     22  C   UNL d   1       1.436  -2.404   2.098  0.00  0.00     0.013 A 
ENDBRANCH   2  16
TORSDOF 2
