REMARK  4 active torsions:
REMARK  status: ('A' for Active; 'I' for Inactive)
REMARK       I    between atoms: N_2  and  C_1 
REMARK    1  A    between atoms: C_3  and  C_1 
REMARK    2  A    between atoms: C_14  and  N_2 
REMARK    3  A    between atoms: C_4  and  C_5 
REMARK    4  A    between atoms: C_13  and  C_14 
ROOT
ATOM      1  C   UNL d   1       1.164   0.082  -0.124  0.00  0.00     0.251 C 
ATOM      2  N   UNL d   1       2.509  -0.015   0.161  0.00  0.00    -0.353 N 
ATOM      3  O   UNL d   1       0.633   1.105  -0.544  0.00  0.00    -0.268 OA
ATOM      4  H   UNL d   1       2.925  -0.934   0.219  0.00  0.00     0.163 HD
ENDROOT
BRANCH   1   5
ATOM      5  C   UNL d   1       0.368  -1.161   0.072  0.00  0.00     0.032 A 
ATOM      6  C   UNL d   1       0.734  -2.129   1.009  0.00  0.00     0.017 A 
ATOM      7  C   UNL d   1      -0.029  -3.296   1.149  0.00  0.00     0.009 A 
ATOM      8  C   UNL d   1      -1.173  -3.526   0.361  0.00  0.00    -0.051 A 
ATOM      9  C   UNL d   1      -1.543  -2.520  -0.548  0.00  0.00     0.009 A 
ATOM     10  C   UNL d   1      -0.786  -1.348  -0.690  0.00  0.00     0.017 A 
BRANCH   8  11
ATOM     11  C   UNL d   1      -1.950  -4.850   0.494  0.00  0.00    -0.024 C 
ATOM     12  C   UNL d   1      -3.158  -4.949  -0.464  0.00  0.00     0.019 C 
ATOM     13  C   UNL d   1      -1.009  -6.031   0.170  0.00  0.00     0.019 C 
ATOM     14  C   UNL d   1      -2.490  -5.024   1.929  0.00  0.00     0.019 C 
ENDBRANCH   8  11
ENDBRANCH   1   5
BRANCH   2  15
ATOM     15  C   UNL d   1       3.399   1.104  -0.048  0.00  0.00     0.162 C 
BRANCH  15  16
ATOM     16  C   UNL d   1       4.606   1.010   0.837  0.00  0.00    -0.025 A 
ATOM     17  C   UNL d   1       5.887   0.928   0.302  0.00  0.00     0.096 A 
ATOM     18  N   UNL d   1       7.018   0.864   1.041  0.00  0.00    -0.375 N 
ATOM     19  C   UNL d   1       6.870   0.893   2.382  0.00  0.00     0.087 A 
ATOM     20  HN  UNL d   1       7.938   0.797   0.606  1.00  0.00     0.164 HD
ATOM     21  C   UNL d   1       5.643   0.973   3.019  0.00  0.00     0.018 A 
ATOM     22  C   UNL d   1       4.496   1.030   2.232  0.00  0.00     0.011 A 
ENDBRANCH  15  16
ENDBRANCH   2  15
TORSDOF 4
