REMARK  3 active torsions:
REMARK  status: ('A' for Active; 'I' for Inactive)
REMARK    1  A    between atoms: N_3  and  C_1 
REMARK    2  A    between atoms: N_15  and  C_2 
REMARK    3  A    between atoms: C_9  and  C_11 
ROOT
ATOM      1  C   UNL d   1       0.965  -0.061   0.104  0.00  0.00     0.145 C 
ATOM      2  C   UNL d   1       1.527   1.155   0.318  0.00  0.00     0.125 C 
ATOM      3  C   UNL d   1       1.145  -0.667  -1.188  0.00  0.00     0.120 C 
ATOM      4  C   UNL d   1       1.404   1.770   1.613  0.00  0.00     0.114 C 
ATOM      5  N   UNL d   1       1.353   2.311   2.639  0.00  0.00    -0.190 NA
ATOM      6  N   UNL d   1       1.279  -1.154  -2.233  0.00  0.00    -0.190 NA
ENDROOT
BRANCH   1   7
ATOM      7  N   UNL d   1       0.304  -0.741   1.117  0.00  0.00    -0.354 N 
ATOM      8  C   UNL d   1      -0.759  -1.411   0.792  0.00  0.00     0.107 C 
ATOM      9  HN  UNL d   1       0.641  -0.715   2.079  1.00  0.00     0.166 HD
BRANCH   8  10
ATOM     10  C   UNL d   1      -1.501  -2.144   1.789  0.00  0.00     0.020 A 
ATOM     11  S   UNL d   1      -2.852  -3.071   1.297  0.00  0.00    -0.101 SA
ATOM     12  C   UNL d   1      -3.168  -3.580   2.898  0.00  0.00     0.050 A 
ATOM     13  C   UNL d   1      -2.263  -3.055   3.794  0.00  0.00     0.008 A 
ATOM     14  C   UNL d   1      -1.296  -2.226   3.152  0.00  0.00     0.021 A 
ENDBRANCH   8  10
ENDBRANCH   1   7
BRANCH   2  15
ATOM     15  N   UNL d   1       2.245   1.933  -0.589  0.00  0.00    -0.291 NA
ATOM     16  H   UNL d   1       2.655   1.431  -1.375  0.00  0.00     0.125 HD
ATOM     17  H   UNL d   1       2.904   2.580  -0.154  0.00  0.00     0.125 HD
ENDBRANCH   2  15
TORSDOF 3
