REMARK  3 active torsions:
REMARK  status: ('A' for Active; 'I' for Inactive)
REMARK    1  A    between atoms: C_3  and  N_1 
REMARK    2  A    between atoms: C_7  and  C_2 
REMARK    3  A    between atoms: O_16  and  C_7 
ROOT
ATOM      1  C   UNL d   1       0.642   4.503  -1.094  0.00  0.00     0.061 A 
ATOM      2  C   UNL d   1      -0.008   2.359  -0.071  0.00  0.00     0.047 A 
ATOM      3  C   UNL d   1       0.662   3.092  -1.064  0.00  0.00     0.050 A 
ATOM      4  C   UNL d   1      -0.043   5.196  -0.093  0.00  0.00     0.051 A 
ATOM      5  C   UNL d   1      -0.694   3.083   0.913  0.00  0.00     0.032 A 
ATOM      6  C   UNL d   1      -0.701   4.483   0.910  0.00  0.00     0.027 A 
ATOM      7 CL   UNL d   1      -0.151   6.917  -0.026  0.00  0.00    -0.083 Cl
ENDROOT
BRANCH   2   8
ATOM      8  N   UNL d   1      -0.007   0.936  -0.075  0.00  0.00    -0.245 N 
ATOM      9  C   UNL d   1       0.912   0.146  -0.711  0.00  0.00     0.255 A 
ATOM     10  C   UNL d   1       0.528  -1.252  -0.485  0.00  0.00     0.080 A 
ATOM     11  O   UNL d   1       1.927   0.434  -1.321  0.00  0.00    -0.268 OA
ATOM     12  C   UNL d   1      -0.564  -1.256   0.275  0.00  0.00     0.080 A 
ATOM     13  C   UNL d   1      -0.922   0.139   0.556  0.00  0.00     0.255 A 
ATOM     14  O   UNL d   1      -1.909   0.420   1.214  0.00  0.00    -0.268 OA
ENDBRANCH   2   8
BRANCH   1  15
ATOM     15  C   UNL d   1       1.315   5.139  -2.260  0.00  0.00     0.177 C 
ATOM     16  O   UNL d   1       1.402   4.571  -3.338  0.00  0.00    -0.646 OA
BRANCH  15  17
ATOM     17  O   UNL d   1       1.885   6.336  -2.031  0.00  0.00    -0.773 OA
ATOM     18  H   UNL d   1       1.702   6.729  -1.156  0.00  0.00     0.167 HD
ENDBRANCH  15  17
ENDBRANCH   1  15
TORSDOF 3
