REMARK  1 active torsions:
REMARK  status: ('A' for Active; 'I' for Inactive)
REMARK    1  A    between atoms: N_8  and  N_4 
REMARK       I    between atoms: N_12  and  C_10 
REMARK       I    between atoms: N_13  and  C_10 
ROOT
ATOM      1  C   UNL d   1      -1.113   0.914   0.030  0.00  0.00     0.129 A 
ATOM      2  C   UNL d   1      -1.826  -0.459   0.024  0.00  0.00     0.275 A 
ATOM      3  N   UNL d   1      -0.805  -1.392   0.029  0.00  0.00    -0.321 N 
ATOM      4  N   UNL d   1      -1.611   2.110   0.090  0.00  0.00    -0.293 N 
ATOM      5  HN  UNL d   1      -1.049   2.960   0.059  1.00  0.00     0.187 HD
ATOM      6  C   UNL d   1       0.318   0.612  -0.006  0.00  0.00     0.024 A 
ATOM      7  C   UNL d   1       0.439  -0.775   0.014  0.00  0.00     0.047 A 
ATOM      8  O   UNL d   1      -3.014  -0.704   0.004  0.00  0.00    -0.266 OA
ATOM      9  C   UNL d   1       1.419   1.446  -0.019  0.00  0.00     0.016 A 
ATOM     10  C   UNL d   1       1.673  -1.391   0.027  0.00  0.00     0.030 A 
ATOM     11  C   UNL d   1       2.678   0.838  -0.006  0.00  0.00     0.001 A 
ATOM     12  C   UNL d   1       2.804  -0.566   0.020  0.00  0.00     0.002 A 
ATOM     13  H   UNL d   1      -0.980  -2.385   0.031  0.00  0.00     0.169 HD
ENDROOT
BRANCH   4  14
ATOM     14  N   UNL d   1      -2.999   2.102   0.201  0.00  0.00    -0.280 N 
ATOM     15  C   UNL d   1      -3.524   3.283   0.232  0.00  0.00     0.141 C 
ATOM     16  N   UNL d   1      -2.861   4.459   0.128  0.00  0.00    -0.278 NA
ATOM     17  N   UNL d   1      -4.851   3.483   0.392  0.00  0.00    -0.278 NA
ATOM     18  H   UNL d   1      -1.866   4.253   0.186  0.00  0.00     0.126 HD
ATOM     19  H   UNL d   1      -3.139   5.111   0.850  0.00  0.00     0.126 HD
ATOM     20  H   UNL d   1      -5.352   2.608   0.270  0.00  0.00     0.126 HD
ATOM     21  H   UNL d   1      -5.209   4.202  -0.224  0.00  0.00     0.126 HD
ATOM     22  HN  UNL d   1      -3.550   1.246   0.252  1.00  0.00     0.189 HD
ENDBRANCH   4  14
TORSDOF 1
