REMARK  5 active torsions:
REMARK  status: ('A' for Active; 'I' for Inactive)
REMARK    1  A    between atoms: N_2  and  C_1 
REMARK    2  A    between atoms: C_3  and  N_2 
REMARK    3  A    between atoms: N_5  and  N_9 
REMARK    4  A    between atoms: C_7  and  C_14 
REMARK    5  A    between atoms: O_17  and  C_13 
ROOT
ATOM      1  C   UNL d   1       1.735   0.431  -0.439  0.00  0.00     0.186 C 
ATOM      2  S   UNL d   1       1.256   0.256  -2.037  0.00  0.00    -0.040 SA
ATOM      3  N   UNL d   1       3.049   0.315  -0.152  0.00  0.00    -0.277 N 
ATOM      4  H   UNL d   1       3.602   0.147  -0.990  0.00  0.00     0.189 HD
ENDROOT
BRANCH   3   5
ATOM      5  N   UNL d   1       3.539  -0.230   1.015  0.00  0.00    -0.309 N 
ATOM      6  C   UNL d   1       4.741  -0.710   0.867  0.00  0.00     0.121 C 
ATOM      7  HN  UNL d   1       3.020  -0.255   1.893  1.00  0.00     0.186 HD
BRANCH   6   8
ATOM      8  C   UNL d   1       5.488  -1.418   1.930  0.00  0.00     0.014 A 
ATOM      9  C   UNL d   1       6.748  -1.965   1.644  0.00  0.00     0.077 A 
ATOM     10  C   UNL d   1       7.452  -2.666   2.624  0.00  0.00     0.037 A 
ATOM     11  C   UNL d   1       6.894  -2.822   3.893  0.00  0.00     0.003 A 
ATOM     12  C   UNL d   1       5.638  -2.280   4.180  0.00  0.00     0.001 A 
ATOM     13  C   UNL d   1       4.933  -1.581   3.199  0.00  0.00     0.015 A 
BRANCH   9  14
ATOM     14  O   UNL d   1       7.296  -1.820   0.399  0.00  0.00    -0.360 OA
ATOM     15  H   UNL d   1       8.158  -2.269   0.376  0.00  0.00     0.217 HD
ENDBRANCH   9  14
ENDBRANCH   6   8
ENDBRANCH   3   5
BRANCH   1  16
ATOM     16  N   UNL d   1       0.778   0.665   0.473  0.00  0.00    -0.361 N 
ATOM     17  H   UNL d   1      -0.131   0.683   0.029  0.00  0.00     0.162 HD
BRANCH  16  18
ATOM     18  C   UNL d   1       0.823   1.325   1.773  0.00  0.00     0.088 C 
ATOM     19  C   UNL d   1       0.795   2.889   1.692  0.00  0.00     0.009 C 
ATOM     20  C   UNL d   1      -0.009   3.289   2.941  0.00  0.00     0.011 C 
ATOM     21  C   UNL d   1      -0.184   3.368   0.606  0.00  0.00     0.007 C 
ATOM     22  C   UNL d   1      -1.193   2.399   2.574  0.00  0.00    -0.012 C 
ATOM     23  C   UNL d   1      -0.495   1.029   2.531  0.00  0.00     0.030 C 
ATOM     24  C   UNL d   1      -1.536   2.871   1.143  0.00  0.00     0.005 C 
ENDBRANCH  16  18
ENDBRANCH   1  16
TORSDOF 5
