REMARK  5 active torsions:
REMARK  status: ('A' for Active; 'I' for Inactive)
REMARK    1  A    between atoms: C_4  and  N_1 
REMARK    2  A    between atoms: C_2  and  O_9 
REMARK    3  A    between atoms: C_3  and  C_2 
REMARK    4  A    between atoms: O_9  and  C_17 
REMARK    5  A    between atoms: C_17  and  C_19 
ROOT
ATOM      1  O   UNL d   1      -1.113  -5.115   3.089  0.00  0.00    -0.313 OA
ENDROOT
BRANCH   1   2
ATOM      2  C   UNL d   1      -1.708  -5.289   4.293  0.00  0.00     0.293 C 
ATOM      3  O   UNL d   1      -2.804  -4.872   4.625  0.00  0.00    -0.259 OA
BRANCH   2   4
ATOM      4  C   UNL d   1      -0.842  -6.098   5.198  0.00  0.00     0.041 A 
ATOM      5  C   UNL d   1       0.402  -6.607   4.796  0.00  0.00     0.044 A 
ATOM      6  C   UNL d   1       1.164  -7.366   5.689  0.00  0.00     0.073 A 
ATOM      7 CL   UNL d   1       2.685  -7.992   5.180  0.00  0.00    -0.081 Cl
ATOM      8  C   UNL d   1       0.692  -7.615   6.978  0.00  0.00     0.138 A 
ATOM      9  C   UNL d   1      -0.540  -7.116   7.387  0.00  0.00     0.045 A 
ATOM     10  F   UNL d   1       1.415  -8.338   7.846  0.00  0.00    -0.204 F 
ATOM     11  C   UNL d   1      -1.308  -6.360   6.497  0.00  0.00     0.021 A 
ENDBRANCH   2   4
ENDBRANCH   1   2
BRANCH   1  12
ATOM     12  C   UNL d   1      -1.869  -4.388   2.108  0.00  0.00     0.217 C 
BRANCH  12  13
ATOM     13  C   UNL d   1      -1.046  -3.224   1.607  0.00  0.00    -0.034 A 
ATOM     14  C   UNL d   1       0.196  -3.448   0.992  0.00  0.00     0.012 A 
ATOM     15  C   UNL d   1       0.964  -2.377   0.525  0.00  0.00     0.037 A 
ATOM     16  C   UNL d   1       0.485  -1.069   0.671  0.00  0.00     0.102 A 
ATOM     17  C   UNL d   1      -0.757  -0.830   1.273  0.00  0.00     0.037 A 
ATOM     18  C   UNL d   1      -1.516  -1.908   1.738  0.00  0.00     0.012 A 
BRANCH  16  19
ATOM     19  N   UNL d   1       1.294   0.059   0.194  0.00  0.00    -0.116 N 
ATOM     20  O   UNL d   1       0.839   1.202   0.348  0.00  0.00    -0.532 OA
ATOM     21  O   UNL d   1       2.385  -0.196  -0.335  0.00  0.00    -0.532 OA
ENDBRANCH  16  19
ENDBRANCH  12  13
ENDBRANCH   1  12
TORSDOF 5
