REMARK  4 active torsions:
REMARK  status: ('A' for Active; 'I' for Inactive)
REMARK    1  A    between atoms: C_7  and  S_13 
REMARK    2  A    between atoms: S_12  and  C_7 
REMARK    3  A    between atoms: C_8  and  S_12 
REMARK    4  A    between atoms: S_13  and  C_9 
ROOT
ATOM      1  C   UNL d   1      -3.897   3.323  -0.167  0.00  0.00     0.158 C 
ENDROOT
BRANCH   1   2
ATOM      2  S   UNL d   1      -4.204   1.537   0.058  0.00  0.00    -0.119 SA
BRANCH   2   3
ATOM      3  C   UNL d   1      -2.582   0.790   0.053  0.00  0.00     0.003 A 
ATOM      4  C   UNL d   1      -1.371   1.482  -0.024  0.00  0.00     0.044 A 
ATOM      5  C   UNL d   1      -0.150   0.787  -0.009  0.00  0.00     0.057 A 
ATOM      6  C   UNL d   1      -0.132  -0.609   0.084  0.00  0.00     0.055 A 
ATOM      7 CL   UNL d   1       1.301   1.722  -0.107  0.00  0.00    -0.083 Cl
ATOM      8  C   UNL d   1      -1.336  -1.307   0.158  0.00  0.00     0.027 A 
ATOM      9 CL   UNL d   1       1.333  -1.522   0.113  0.00  0.00    -0.083 Cl
ATOM     10  C   UNL d   1      -2.549  -0.610   0.142  0.00  0.00     0.020 A 
ENDBRANCH   2   3
ENDBRANCH   1   2
BRANCH   1  11
ATOM     11  S   UNL d   1      -5.512   4.173  -0.258  0.00  0.00    -0.119 SA
BRANCH  11  12
ATOM     12  C   UNL d   1      -5.069   5.900  -0.329  0.00  0.00     0.003 A 
ATOM     13  C   UNL d   1      -5.950   6.813   0.268  0.00  0.00     0.044 A 
ATOM     14  C   UNL d   1      -5.717   8.191   0.196  0.00  0.00     0.057 A 
ATOM     15 CL   UNL d   1      -6.862   9.242   0.951  0.00  0.00    -0.083 Cl
ATOM     16  C   UNL d   1      -4.593   8.670  -0.482  0.00  0.00     0.055 A 
ATOM     17  C   UNL d   1      -3.712   7.766  -1.081  0.00  0.00     0.027 A 
ATOM     18 CL   UNL d   1      -4.246  10.355  -0.631  0.00  0.00    -0.083 Cl
ATOM     19  C   UNL d   1      -3.951   6.388  -1.009  0.00  0.00     0.020 A 
ENDBRANCH  11  12
ENDBRANCH   1  11
TORSDOF 4
