REMARK  5 active torsions:
REMARK  status: ('A' for Active; 'I' for Inactive)
REMARK    1  A    between atoms: N_4  and  S_1 
REMARK    2  A    between atoms: C_5  and  S_1 
REMARK    3  A    between atoms: C_6  and  C_2 
REMARK    4  A    between atoms: C_3  and  N_4 
REMARK    5  A    between atoms: O_18  and  C_6 
ROOT
ATOM      1  S   UNL d   1       0.665   0.138  -0.123  0.00  0.00     0.246 S 
ATOM      2  O   UNL d   1      -0.687   0.651  -0.126  0.00  0.00    -0.206 OA
ATOM      3  O   UNL d   1       1.775   0.897  -0.659  0.00  0.00    -0.206 OA
ENDROOT
BRANCH   1   4
ATOM      4  N   UNL d   1       0.588  -1.398  -0.880  0.00  0.00    -0.180 NA
ATOM      5  H   UNL d   1      -0.388  -1.681  -0.762  0.00  0.00     0.146 HD
BRANCH   4   6
ATOM      6  C   UNL d   1       0.961  -1.424  -2.251  0.00  0.00     0.046 A 
ATOM      7  C   UNL d   1       2.231  -1.611  -2.776  0.00  0.00     0.102 A 
ATOM      8  S   UNL d   1       2.215  -1.478  -4.494  0.00  0.00    -0.094 SA
ATOM      9  C   UNL d   1       0.529  -1.244  -4.539  0.00  0.00     0.052 A 
ATOM     10  C   UNL d   1      -0.019  -1.244  -3.278  0.00  0.00     0.033 A 
BRANCH   7  11
ATOM     11  C   UNL d   1       3.501  -1.909  -2.142  0.00  0.00     0.301 C 
ATOM     12  O   UNL d   1       4.610  -1.791  -2.654  0.00  0.00    -0.259 OA
BRANCH  11  13
ATOM     13  O   UNL d   1       3.300  -2.436  -0.897  0.00  0.00    -0.322 OA
ATOM     14  C   UNL d   1       4.488  -2.909  -0.258  0.00  0.00     0.213 C 
ENDBRANCH  11  13
ENDBRANCH   7  11
ENDBRANCH   4   6
ENDBRANCH   1   4
BRANCH   1  15
ATOM     15  C   UNL d   1       1.075  -0.296   1.546  0.00  0.00     0.078 A 
ATOM     16  C   UNL d   1       2.419  -0.374   1.921  0.00  0.00     0.048 A 
ATOM     17  C   UNL d   1       2.739  -0.623   3.253  0.00  0.00     0.037 A 
ATOM     18 CL   UNL d   1       4.389  -0.720   3.726  0.00  0.00    -0.084 Cl
ATOM     19  C   UNL d   1       1.736  -0.784   4.208  0.00  0.00     0.047 A 
ATOM     20  C   UNL d   1       0.400  -0.694   3.821  0.00  0.00     0.037 A 
ATOM     21  C   UNL d   1       0.058  -0.446   2.493  0.00  0.00     0.048 A 
ATOM     22 CL   UNL d   1      -0.841  -0.877   4.999  0.00  0.00    -0.084 Cl
ENDBRANCH   1  15
TORSDOF 5
