REMARK  4 active torsions:
REMARK  status: ('A' for Active; 'I' for Inactive)
REMARK    1  A    between atoms: C_10  and  C_3 
REMARK    2  A    between atoms: C_12  and  C_4 
REMARK       I    between atoms: C_8  and  N_9 
REMARK    3  A    between atoms: C_11  and  C_8 
REMARK    4  A    between atoms: O_29  and  C_23 
ROOT
ATOM      1  C   UNL d   1       4.110  -4.919   1.642  0.00  0.00     0.253 C 
ATOM      2  N   UNL d   1       3.369  -3.906   1.014  0.00  0.00    -0.348 N 
ATOM      3  C   UNL d   1       1.729  -1.944  -0.324  0.00  0.00     0.066 C 
ATOM      4  C   UNL d   1       2.752  -4.243  -0.271  0.00  0.00     0.127 C 
ATOM      5  C   UNL d   1       3.593  -2.475   1.234  0.00  0.00     0.127 C 
ATOM      6  O   UNL d   1       4.236  -6.043   1.162  0.00  0.00    -0.267 OA
ATOM      7  C   UNL d   1       2.288  -1.702   1.081  0.00  0.00     0.033 C 
ATOM      8  C   UNL d   1       1.476  -3.443  -0.521  0.00  0.00     0.033 C 
ENDROOT
BRANCH   3   9
ATOM      9  C   UNL d   1       0.527  -1.116  -0.608  0.00  0.00     0.152 A 
ATOM     10  N   UNL d   1      -0.651  -1.460  -1.077  0.00  0.00    -0.322 N 
ATOM     11  C   UNL d   1      -1.229  -0.239  -1.358  0.00  0.00     0.137 A 
ATOM     12  HN  UNL d   1      -1.040  -2.395  -1.202  1.00  0.00     0.169 HD
ATOM     13  N   UNL d   1      -0.467   0.813  -1.018  0.00  0.00    -0.242 N 
ATOM     14  O   UNL d   1       0.697   0.235  -0.527  0.00  0.00    -0.222 OA
ATOM     15  HN  UNL d   1      -0.691   1.805  -1.100  1.00  0.00     0.196 HD
BRANCH  11  16
ATOM     16  C   UNL d   1      -2.507  -0.124  -2.049  0.00  0.00     0.010 A 
ATOM     17  C   UNL d   1      -3.393  -1.211  -2.089  0.00  0.00     0.017 A 
ATOM     18  C   UNL d   1      -4.596  -1.121  -2.798  0.00  0.00     0.025 A 
ATOM     19  C   UNL d   1      -4.915   0.053  -3.477  0.00  0.00     0.034 A 
ATOM     20  C   UNL d   1      -4.049   1.144  -3.443  0.00  0.00     0.025 A 
ATOM     21 CL   UNL d   1      -6.381   0.154  -4.370  0.00  0.00    -0.084 Cl
ATOM     22  C   UNL d   1      -2.851   1.057  -2.727  0.00  0.00     0.017 A 
ENDBRANCH  11  16
ENDBRANCH   3   9
BRANCH   1  23
ATOM     23  C   UNL d   1       4.784  -4.655   2.942  0.00  0.00     0.032 A 
ATOM     24  C   UNL d   1       4.145  -3.958   3.975  0.00  0.00     0.020 A 
ATOM     25  C   UNL d   1       4.826  -3.690   5.166  0.00  0.00     0.038 A 
ATOM     26  C   UNL d   1       6.128  -4.159   5.346  0.00  0.00     0.068 A 
ATOM     27  C   UNL d   1       6.727  -4.938   4.354  0.00  0.00     0.038 A 
ATOM     28  C   UNL d   1       6.062  -5.180   3.150  0.00  0.00     0.020 A 
BRANCH  26  29
ATOM     29  O   UNL d   1       6.875  -3.961   6.475  0.00  0.00    -0.356 OA
ATOM     30  C   UNL d   1       6.702  -2.686   7.087  0.00  0.00     0.210 C 
ENDBRANCH  26  29
ENDBRANCH   1  23
TORSDOF 4
