REMARK  5 active torsions:
REMARK  status: ('A' for Active; 'I' for Inactive)
REMARK    1  A    between atoms: N_10  and  C_3 
REMARK    2  A    between atoms: N_15  and  C_6 
REMARK    3  A    between atoms: C_9  and  N_10 
REMARK    4  A    between atoms: O_18  and  C_13 
REMARK    5  A    between atoms: O_19  and  C_16 
ROOT
ATOM      1  N   UNL d   1      -0.238  -1.050   1.177  0.00  0.00    -0.166 N 
ATOM      2  HN  UNL d   1      -0.688  -1.965   1.149  1.00  0.00     0.187 HD
ATOM      3  C   UNL d   1      -0.824   0.029   0.660  0.00  0.00     0.686 A 
ATOM      4  N   UNL d   1      -0.245   1.222   0.625  0.00  0.00    -0.188 N 
ATOM      5  HN  UNL d   1      -0.694   2.040   0.212  1.00  0.00     0.185 HD
ATOM      6  C   UNL d   1       0.950  -0.884   1.726  0.00  0.00     0.170 A 
ATOM      7  N   UNL d   1       1.616   0.257   1.735  0.00  0.00    -0.328 N 
ATOM      8  HN  UNL d   1       2.547   0.353   2.140  1.00  0.00     0.169 HD
ATOM      9  C   UNL d   1       0.967   1.268   1.171  0.00  0.00     0.200 A 
ENDROOT
BRANCH   3  10
ATOM     10  N   UNL d   1      -2.096  -0.076   0.091  0.00  0.00    -0.189 N 
ATOM     11  H   UNL d   1      -2.431   0.807  -0.259  0.00  0.00     0.184 HD
BRANCH  10  12
ATOM     12  C   UNL d   1      -2.991  -1.159   0.082  0.00  0.00     0.085 A 
ATOM     13  C   UNL d   1      -2.940  -2.114   1.121  0.00  0.00     0.069 A 
ATOM     14  C   UNL d   1      -3.728  -3.262   1.130  0.00  0.00     0.070 A 
ATOM     15  C   UNL d   1      -4.617  -3.469   0.082  0.00  0.00     0.039 A 
ATOM     16  C   UNL d   1      -4.715  -2.530  -0.947  0.00  0.00     0.042 A 
ATOM     17  C   UNL d   1      -3.903  -1.385  -0.965  0.00  0.00     0.095 A 
BRANCH  14  18
ATOM     18  O   UNL d   1      -3.714  -4.228   2.100  0.00  0.00    -0.356 OA
ATOM     19  C   UNL d   1      -2.766  -4.056   3.152  0.00  0.00     0.210 C 
ENDBRANCH  14  18
BRANCH  17  20
ATOM     20  O   UNL d   1      -4.163  -0.555  -2.025  0.00  0.00    -0.354 OA
ATOM     21  C   UNL d   1      -3.051   0.057  -2.665  0.00  0.00     0.210 C 
ENDBRANCH  17  20
ENDBRANCH  10  12
ENDBRANCH   3  10
BRANCH   6  22
ATOM     22  N   UNL d   1       1.526  -1.993   2.308  0.00  0.00    -0.273 NA
ATOM     23  H   UNL d   1       1.141  -2.836   1.903  0.00  0.00     0.127 HD
ATOM     24  H   UNL d   1       2.529  -1.906   2.317  0.00  0.00     0.127 HD
ENDBRANCH   6  22
TORSDOF 5
