REMARK  7 active torsions:
REMARK  status: ('A' for Active; 'I' for Inactive)
REMARK    1  A    between atoms: O_6  and  C_1 
REMARK    2  A    between atoms: C_3  and  C_2 
REMARK       I    between atoms: N_5  and  C_3 
REMARK    3  A    between atoms: C_4  and  N_7 
REMARK    4  A    between atoms: N_10  and  C_4 
REMARK    5  A    between atoms: N_7  and  N_5 
REMARK    6  A    between atoms: C_19  and  O_6 
REMARK    7  A    between atoms: C_14  and  N_10 
ROOT
ATOM      1  C   UNL d   1       0.762   3.047   0.167  0.00  0.00     0.274 C 
ATOM      2  N   UNL d   1      -0.322   3.900   0.187  0.00  0.00    -0.264 N 
ATOM      3  O   UNL d   1       1.913   3.489   0.161  0.00  0.00    -0.266 OA
ATOM      4  H   UNL d   1      -1.282   3.591   0.040  0.00  0.00     0.190 HD
ENDROOT
BRANCH   1   5
ATOM      5  C   UNL d   1       0.528   1.576   0.138  0.00  0.00     0.085 A 
ATOM      6  C   UNL d   1      -0.699   0.931   0.299  0.00  0.00     0.164 A 
ATOM      7  N   UNL d   1      -0.821  -0.426   0.321  0.00  0.00    -0.346 N 
ATOM      8  C   UNL d   1       0.287  -1.171   0.143  0.00  0.00     0.090 A 
ATOM      9  HN  UNL d   1      -1.729  -0.867   0.470  1.00  0.00     0.167 HD
ATOM     10  C   UNL d   1       1.539  -0.628  -0.052  0.00  0.00     0.018 A 
ATOM     11  C   UNL d   1       1.658   0.759  -0.047  0.00  0.00     0.023 A 
BRANCH   6  12
ATOM     12  O   UNL d   1      -1.851   1.694   0.471  0.00  0.00    -0.293 OA
BRANCH  12  13
ATOM     13  C   UNL d   1      -3.061   1.036   0.422  0.00  0.00     0.077 A 
ATOM     14  C   UNL d   1      -3.922   1.178   1.511  0.00  0.00     0.037 A 
ATOM     15  C   UNL d   1      -5.161   0.533   1.507  0.00  0.00     0.003 A 
ATOM     16  C   UNL d   1      -5.545  -0.240   0.410  0.00  0.00     0.000 A 
ATOM     17  C   UNL d   1      -4.700  -0.353  -0.693  0.00  0.00     0.003 A 
ATOM     18  C   UNL d   1      -3.466   0.300  -0.697  0.00  0.00     0.037 A 
ENDBRANCH  12  13
ENDBRANCH   6  12
ENDBRANCH   1   5
BRANCH   2  19
ATOM     19  N   UNL d   1      -0.066   5.291   0.065  0.00  0.00    -0.273 N 
ATOM     20  H   UNL d   1       0.933   5.497   0.064  0.00  0.00     0.189 HD
BRANCH  19  21
ATOM     21  C   UNL d   1      -0.842   6.053  -0.760  0.00  0.00     0.191 C 
ATOM     22  S   UNL d   1      -2.160   5.459  -1.623  0.00  0.00    -0.039 SA
BRANCH  21  23
ATOM     23  N   UNL d   1      -0.595   7.384  -0.888  0.00  0.00    -0.332 N 
ATOM     24  H   UNL d   1      -1.234   7.788  -1.567  0.00  0.00     0.168 HD
BRANCH  23  25
ATOM     25  C   UNL d   1       0.229   8.329  -0.240  0.00  0.00     0.034 A 
ATOM     26  C   UNL d   1       1.142   8.076   0.785  0.00  0.00     0.037 A 
ATOM     27  C   UNL d   1       1.902   9.120   1.368  0.00  0.00    -0.043 A 
ATOM     28  C   UNL d   1       2.902   8.794   2.444  0.00  0.00     0.049 C 
ATOM     29  C   UNL d   1       1.700  10.437   0.928  0.00  0.00     0.017 A 
ATOM     30  C   UNL d   1       0.784  10.703  -0.085  0.00  0.00     0.022 A 
ATOM     31 BR   UNL d   1       2.628  11.913   1.680  0.00  0.00    -0.051 Br
ATOM     32  C   UNL d   1       0.068   9.657  -0.668  0.00  0.00     0.031 A 
ENDBRANCH  23  25
ENDBRANCH  21  23
ENDBRANCH  19  21
ENDBRANCH   2  19
TORSDOF 7
