REMARK  9 active torsions:
REMARK  status: ('A' for Active; 'I' for Inactive)
REMARK    1  A    between atoms: C_3  and  C_1 
REMARK    2  A    between atoms: C_2  and  C_4 
REMARK    3  A    between atoms: C_5  and  N_9 
REMARK    4  A    between atoms: N_16  and  C_5 
REMARK    5  A    between atoms: N_9  and  C_7 
REMARK    6  A    between atoms: O_25  and  C_8 
REMARK    7  A    between atoms: N_10  and  N_16 
REMARK    8  A    between atoms: C_12  and  C_18 
REMARK    9  A    between atoms: O_26  and  C_17 
ROOT
ATOM      1  C   UNL d   1       1.371   6.345   0.192  0.00  0.00     0.191 C 
ATOM      2  S   UNL d   1       1.506   4.864  -0.554  0.00  0.00    -0.039 SA
ENDROOT
BRANCH   1   3
ATOM      3  N   UNL d   1       0.433   6.806   1.097  0.00  0.00    -0.332 N 
ATOM      4  H   UNL d   1       0.789   7.642   1.552  0.00  0.00     0.168 HD
BRANCH   3   5
ATOM      5  C   UNL d   1      -0.808   6.332   1.544  0.00  0.00     0.035 A 
ATOM      6  C   UNL d   1      -1.558   5.355   0.895  0.00  0.00     0.045 A 
ATOM      7  C   UNL d   1      -2.805   4.945   1.401  0.00  0.00     0.050 A 
ATOM      8  C   UNL d   1      -3.297   5.534   2.576  0.00  0.00     0.032 A 
ATOM      9  C   UNL d   1      -2.567   6.533   3.234  0.00  0.00     0.050 A 
ATOM     10  C   UNL d   1      -1.333   6.935   2.695  0.00  0.00     0.045 A 
BRANCH   7  11
ATOM     11  C   UNL d   1      -3.589   3.887   0.662  0.00  0.00     0.417 C 
ATOM     12  F   UNL d   1      -4.771   3.573   1.262  0.00  0.00    -0.166 F 
ATOM     13  F   UNL d   1      -2.906   2.716   0.548  0.00  0.00    -0.166 F 
ATOM     14  F   UNL d   1      -3.906   4.265  -0.607  0.00  0.00    -0.166 F 
ENDBRANCH   7  11
BRANCH   9  15
ATOM     15  C   UNL d   1      -3.080   7.179   4.499  0.00  0.00     0.417 C 
ATOM     16  F   UNL d   1      -4.203   6.588   4.994  0.00  0.00    -0.166 F 
ATOM     17  F   UNL d   1      -2.166   7.145   5.508  0.00  0.00    -0.166 F 
ATOM     18  F   UNL d   1      -3.394   8.492   4.323  0.00  0.00    -0.166 F 
ENDBRANCH   9  15
ENDBRANCH   3   5
ENDBRANCH   1   3
BRANCH   1  19
ATOM     19  N   UNL d   1       2.346   7.311  -0.055  0.00  0.00    -0.276 N 
ATOM     20  H   UNL d   1       3.107   7.090  -0.693  0.00  0.00     0.189 HD
BRANCH  19  21
ATOM     21  N   UNL d   1       2.157   8.569   0.415  0.00  0.00    -0.309 N 
ATOM     22  C   UNL d   1       3.084   9.443   0.201  0.00  0.00     0.121 C 
ATOM     23  HN  UNL d   1       1.307   8.819   0.921  1.00  0.00     0.186 HD
BRANCH  22  24
ATOM     24  C   UNL d   1       2.861  10.835   0.650  0.00  0.00     0.017 A 
ATOM     25  C   UNL d   1       1.589  11.274   1.077  0.00  0.00     0.110 A 
ATOM     26  C   UNL d   1       1.420  12.585   1.538  0.00  0.00     0.102 A 
ATOM     27  C   UNL d   1       2.515  13.456   1.510  0.00  0.00     0.040 A 
ATOM     28  C   UNL d   1       3.770  13.027   1.070  0.00  0.00     0.004 A 
ATOM     29  C   UNL d   1       3.949  11.712   0.643  0.00  0.00     0.016 A 
BRANCH  25  30
ATOM     30  O   UNL d   1       0.496  10.446   1.008  0.00  0.00    -0.357 OA
ATOM     31  H   UNL d   1       0.774   9.613   0.572  0.00  0.00     0.217 HD
ENDBRANCH  25  30
BRANCH  26  32
ATOM     32  O   UNL d   1       0.262  13.159   1.990  0.00  0.00    -0.353 OA
ATOM     33  C   UNL d   1      -0.680  12.289   2.610  0.00  0.00     0.210 C 
ENDBRANCH  26  32
ENDBRANCH  22  24
ENDBRANCH  19  21
ENDBRANCH   1  19
TORSDOF 9
