REMARK  8 active torsions:
REMARK  status: ('A' for Active; 'I' for Inactive)
REMARK    1  A    between atoms: N_8  and  C_1 
REMARK    2  A    between atoms: C_6  and  C_5 
REMARK    3  A    between atoms: C_10  and  C_6 
REMARK    4  A    between atoms: C_7  and  O_13 
REMARK    5  A    between atoms: C_16  and  N_8 
REMARK       I    between atoms: N_11  and  C_10 
REMARK    6  A    between atoms: C_22  and  N_11 
REMARK    7  A    between atoms: O_13  and  C_24 
REMARK    8  A    between atoms: C_23  and  C_14 
ROOT
ATOM      1  C   UNL d   1       1.037   0.988   0.528  0.00  0.00     0.148 C 
ATOM      2  N   UNL d   1       1.322  -0.166   1.177  0.00  0.00    -0.306 N 
ATOM      3  C   UNL d   1       0.315  -1.072   1.302  0.00  0.00     0.238 C 
ATOM      4  S   UNL d   1      -0.691   1.258   0.564  0.00  0.00    -0.079 SA
ATOM      5  C   UNL d   1      -1.003  -0.539   0.770  0.00  0.00     0.156 C 
ATOM      6  O   UNL d   1       0.502  -2.209   1.713  0.00  0.00    -0.272 OA
ATOM      7  H   UNL d   1       2.267  -0.451   1.381  0.00  0.00     0.171 HD
ENDROOT
BRANCH   5   8
ATOM      8  C   UNL d   1      -2.122  -0.936   1.713  0.00  0.00     0.128 C 
BRANCH   8   9
ATOM      9  C   UNL d   1      -3.523  -0.838   1.152  0.00  0.00     0.223 C 
ATOM     10  N   UNL d   1      -3.948   0.443   0.861  0.00  0.00    -0.327 N 
ATOM     11  H   UNL d   1      -3.243   1.173   0.811  0.00  0.00     0.169 HD
ATOM     12  O   UNL d   1      -4.199  -1.858   1.040  0.00  0.00    -0.273 OA
BRANCH  10  13
ATOM     13  C   UNL d   1      -5.277   0.828   0.562  0.00  0.00     0.034 A 
ATOM     14  C   UNL d   1      -6.381  -0.005   0.742  0.00  0.00     0.032 A 
ATOM     15  C   UNL d   1      -7.683   0.432   0.456  0.00  0.00     0.039 A 
ATOM     16  C   UNL d   1      -7.904   1.737   0.019  0.00  0.00     0.078 A 
ATOM     17  C   UNL d   1      -6.797   2.570  -0.177  0.00  0.00     0.039 A 
ATOM     18  C   UNL d   1      -5.495   2.130   0.103  0.00  0.00     0.032 A 
BRANCH  16  19
ATOM     19  O   UNL d   1      -9.103   2.317  -0.234  0.00  0.00    -0.255 OA
BRANCH  19  20
ATOM     20  C   UNL d   1     -10.295   1.642   0.148  0.00  0.00     0.530 C 
ATOM     21  F   UNL d   1     -10.187   1.049   1.356  0.00  0.00    -0.144 F 
ATOM     22  F   UNL d   1     -11.295   2.549   0.227  0.00  0.00    -0.144 F 
ATOM     23  F   UNL d   1     -10.635   0.721  -0.778  0.00  0.00    -0.144 F 
ENDBRANCH  19  20
ENDBRANCH  16  19
ENDBRANCH  10  13
ENDBRANCH   8   9
ENDBRANCH   5   8
BRANCH   1  24
ATOM     24  N   UNL d   1       1.860   1.774  -0.074  0.00  0.00    -0.337 N 
ATOM     25  HN  UNL d   1       1.531   2.667  -0.441  1.00  0.00     0.168 HD
BRANCH  24  26
ATOM     26  C   UNL d   1       3.215   1.411  -0.232  0.00  0.00     0.034 A 
ATOM     27  C   UNL d   1       3.606   0.137  -0.663  0.00  0.00     0.030 A 
ATOM     28  C   UNL d   1       4.953  -0.221  -0.738  0.00  0.00     0.010 A 
ATOM     29  C   UNL d   1       5.966   0.705  -0.452  0.00  0.00    -0.054 A 
ATOM     30  C   UNL d   1       5.571   2.019  -0.170  0.00  0.00     0.010 A 
ATOM     31  C   UNL d   1       4.214   2.360  -0.036  0.00  0.00     0.030 A 
BRANCH  29  32
ATOM     32  C   UNL d   1       7.416   0.221  -0.472  0.00  0.00     0.018 C 
ATOM     33  C   UNL d   1       7.661  -0.869   0.596  0.00  0.00     0.009 C 
ATOM     34  C   UNL d   1       7.693  -0.290   2.008  0.00  0.00     0.001 C 
ATOM     35  C   UNL d   1       8.771   0.779   2.149  0.00  0.00     0.000 C 
ATOM     36  C   UNL d   1       8.694   1.853   1.069  0.00  0.00     0.001 C 
ATOM     37  C   UNL d   1       8.521   1.287  -0.344  0.00  0.00     0.009 C 
ENDBRANCH  29  32
ENDBRANCH  24  26
ENDBRANCH   1  24
TORSDOF 8
