REMARK  3 active torsions:
REMARK  status: ('A' for Active; 'I' for Inactive)
REMARK    1  A    between atoms: N_9  and  C_1 
REMARK    2  A    between atoms: C_10  and  N_6 
REMARK    3  A    between atoms: C_8  and  C_10 
ROOT
ATOM      1  C   UNL d   1      -0.118  -1.349   0.085  0.00  0.00     0.709 A 
ATOM      2  N   UNL d   1       1.056  -0.836   0.467  0.00  0.00    -0.116 N 
ATOM      3  HN  UNL d   1       1.868  -1.299   0.876  1.00  0.00     0.207 HD
ATOM      4  N   UNL d   1      -0.990  -0.383  -0.361  0.00  0.00    -0.113 N 
ATOM      5  HN  UNL d   1      -1.948  -0.531  -0.676  1.00  0.00     0.203 HD
ATOM      6  N   UNL d   1       0.870   0.463   0.164  0.00  0.00    -0.199 N 
ATOM      7  N   UNL d   1      -0.350   0.775  -0.303  0.00  0.00     0.011 NA
ENDROOT
BRANCH   6   8
ATOM      8  C   UNL d   1       1.989   1.384   0.038  0.00  0.00     0.209 C 
BRANCH   8   9
ATOM      9  C   UNL d   1       2.288   2.084   1.341  0.00  0.00     0.006 A 
ATOM     10  C   UNL d   1       3.203   1.549   2.267  0.00  0.00     0.043 A 
ATOM     11 CL   UNL d   1       4.140   0.135   1.929  0.00  0.00    -0.084 Cl
ATOM     12  C   UNL d   1       3.415   2.159   3.509  0.00  0.00     0.024 A 
ATOM     13  C   UNL d   1       2.728   3.316   3.848  0.00  0.00     0.003 A 
ATOM     14  C   UNL d   1       1.841   3.882   2.938  0.00  0.00     0.024 A 
ATOM     15  C   UNL d   1       1.622   3.273   1.698  0.00  0.00     0.043 A 
ATOM     16 CL   UNL d   1       0.523   4.069   0.625  0.00  0.00    -0.084 Cl
ENDBRANCH   8   9
ENDBRANCH   6   8
BRANCH   1  17
ATOM     17  N   UNL d   1      -0.428  -2.662   0.027  0.00  0.00    -0.211 N 
ATOM     18  C   UNL d   1      -1.737  -3.104  -0.458  0.00  0.00     0.167 C 
ATOM     19  C   UNL d   1      -1.599  -4.505  -1.077  0.00  0.00     0.188 C 
ATOM     20  O   UNL d   1      -1.026  -5.438  -0.146  0.00  0.00    -0.388 OA
ATOM     21  C   UNL d   1       0.285  -4.999   0.252  0.00  0.00     0.188 C 
ATOM     22  C   UNL d   1       0.242  -3.614   0.916  0.00  0.00     0.167 C 
ENDBRANCH   1  17
TORSDOF 3
