REMARK  4 active torsions:
REMARK  status: ('A' for Active; 'I' for Inactive)
REMARK    1  A    between atoms: C_12  and  C_5 
REMARK    2  A    between atoms: C_13  and  N_7 
REMARK    3  A    between atoms: C_9  and  O_11 
REMARK    4  A    between atoms: O_11  and  C_17 
ROOT
ATOM      1  C   UNL d   1       0.427   1.371   0.305  0.00  0.00     0.161 C 
ATOM      2  N   UNL d   1      -1.357  -0.371   0.204  0.00  0.00    -0.299 N 
ATOM      3  HN  UNL d   1      -2.359  -0.560   0.222  1.00  0.00     0.187 HD
ATOM      4  N   UNL d   1      -0.886   0.929   0.156  0.00  0.00    -0.275 N 
ATOM      5  C   UNL d   1      -0.496  -1.352   0.225  0.00  0.00     0.046 C 
ATOM      6  S   UNL d   1       1.450   0.259   1.217  0.00  0.00    -0.086 SA
ATOM      7  N   UNL d   1       0.853   2.502  -0.189  0.00  0.00    -0.336 N 
ATOM      8  HN  UNL d   1       0.169   3.112  -0.637  1.00  0.00     0.168 HD
ATOM      9  C   UNL d   1       1.005  -1.169   0.220  0.00  0.00     0.142 C 
ATOM     10  C   UNL d   1      -1.927   1.918  -0.118  0.00  0.00     0.180 C 
ENDROOT
BRANCH   7  11
ATOM     11  C   UNL d   1       2.182   2.934  -0.144  0.00  0.00     0.034 A 
ATOM     12  C   UNL d   1       3.248   2.169  -0.646  0.00  0.00     0.032 A 
ATOM     13  C   UNL d   1       4.559   2.656  -0.643  0.00  0.00     0.039 A 
ATOM     14  C   UNL d   1       4.818   3.961  -0.234  0.00  0.00     0.078 A 
ATOM     15  C   UNL d   1       3.759   4.739   0.244  0.00  0.00     0.039 A 
ATOM     16  C   UNL d   1       2.457   4.232   0.288  0.00  0.00     0.032 A 
BRANCH  14  17
ATOM     17  O   UNL d   1       6.020   4.602  -0.272  0.00  0.00    -0.255 OA
BRANCH  17  18
ATOM     18  C   UNL d   1       7.107   3.979  -0.938  0.00  0.00     0.530 C 
ATOM     19  F   UNL d   1       6.739   3.376  -2.089  0.00  0.00    -0.144 F 
ATOM     20  F   UNL d   1       8.018   4.929  -1.250  0.00  0.00    -0.144 F 
ATOM     21  F   UNL d   1       7.699   3.076  -0.128  0.00  0.00    -0.144 F 
ENDBRANCH  17  18
ENDBRANCH  14  17
ENDBRANCH   7  11
BRANCH   5  22
ATOM     22  C   UNL d   1      -1.010  -2.754   0.202  0.00  0.00    -0.011 A 
ATOM     23  C   UNL d   1      -2.246  -3.035   0.794  0.00  0.00     0.013 A 
ATOM     24  C   UNL d   1      -2.739  -4.341   0.797  0.00  0.00     0.001 A 
ATOM     25  C   UNL d   1      -2.005  -5.367   0.203  0.00  0.00     0.000 A 
ATOM     26  C   UNL d   1      -0.782  -5.089  -0.406  0.00  0.00     0.001 A 
ATOM     27  C   UNL d   1      -0.284  -3.785  -0.411  0.00  0.00     0.013 A 
ENDBRANCH   5  22
TORSDOF 4
