REMARK  4 active torsions:
REMARK  status: ('A' for Active; 'I' for Inactive)
REMARK    1  A    between atoms: C_2  and  S_1 
REMARK    2  A    between atoms: C_3  and  S_1 
REMARK    3  A    between atoms: N_10  and  C_4 
REMARK    4  A    between atoms: C_15  and  N_10 
ROOT
ATOM      1  C   UNL d   1       0.428  -1.478  -0.773  0.00  0.00     0.159 C 
ATOM      2  C   UNL d   1       0.391  -0.231  -0.269  0.00  0.00     0.123 C 
ATOM      3  C   UNL d   1       0.299  -2.633   0.026  0.00  0.00     0.113 C 
ATOM      4  N   UNL d   1       0.182  -3.563   0.710  0.00  0.00    -0.191 NA
ENDROOT
BRANCH   1   5
ATOM      5  S   UNL d   1       0.757  -1.664  -2.466  0.00  0.00     0.218 S 
ATOM      6  O   UNL d   1       2.187  -1.845  -2.645  0.00  0.00    -0.216 OA
ATOM      7  O   UNL d   1       0.067  -0.627  -3.212  0.00  0.00    -0.216 OA
BRANCH   5   8
ATOM      8  C   UNL d   1      -0.013  -3.207  -2.934  0.00  0.00     0.065 A 
ATOM      9  C   UNL d   1      -1.328  -3.207  -3.414  0.00  0.00     0.036 A 
ATOM     10  C   UNL d   1      -1.941  -4.415  -3.784  0.00  0.00    -0.025 A 
ATOM     11  C   UNL d   1      -3.270  -4.451  -4.237  0.00  0.00     0.012 A 
ATOM     12  C   UNL d   1      -1.211  -5.624  -3.691  0.00  0.00    -0.026 A 
ATOM     13  C   UNL d   1      -3.877  -5.662  -4.573  0.00  0.00     0.001 A 
ATOM     14  C   UNL d   1      -3.161  -6.851  -4.474  0.00  0.00     0.001 A 
ATOM     15  C   UNL d   1      -1.834  -6.832  -4.044  0.00  0.00     0.012 A 
ATOM     16  C   UNL d   1       0.122  -5.594  -3.248  0.00  0.00     0.014 A 
ATOM     17  C   UNL d   1       0.724  -4.392  -2.875  0.00  0.00     0.025 A 
ENDBRANCH   5   8
ENDBRANCH   1   5
BRANCH   2  18
ATOM     18  N   UNL d   1       0.266   0.172   1.045  0.00  0.00    -0.364 N 
ATOM     19  H   UNL d   1       0.314  -0.545   1.765  0.00  0.00     0.165 HD
BRANCH  18  20
ATOM     20  C   UNL d   1       0.080   1.480   1.532  0.00  0.00     0.032 A 
ATOM     21  C   UNL d   1      -0.434   2.522   0.748  0.00  0.00     0.032 A 
ATOM     22  C   UNL d   1      -0.563   3.816   1.265  0.00  0.00     0.044 A 
ATOM     23  C   UNL d   1      -0.153   4.081   2.564  0.00  0.00     0.116 A 
ATOM     24  C   UNL d   1       0.381   3.075   3.357  0.00  0.00     0.044 A 
ATOM     25  F   UNL d   1      -0.271   5.320   3.056  0.00  0.00    -0.206 F 
ATOM     26  C   UNL d   1       0.497   1.781   2.842  0.00  0.00     0.032 A 
ENDBRANCH  18  20
ENDBRANCH   2  18
TORSDOF 4
