REMARK  8 active torsions:
REMARK  status: ('A' for Active; 'I' for Inactive)
REMARK    1  A    between atoms: O_6  and  C_1 
REMARK       I    between atoms: C_2  and  N_10 
REMARK    2  A    between atoms: O_5  and  C_2 
REMARK    3  A    between atoms: C_3  and  C_4 
REMARK       I    between atoms: N_11  and  C_3 
REMARK    4  A    between atoms: C_9  and  O_5 
REMARK    5  A    between atoms: C_17  and  O_6 
REMARK    6  A    between atoms: N_10  and  C_20 
REMARK    7  A    between atoms: C_24  and  N_11 
REMARK    8  A    between atoms: C_20  and  C_24 
ROOT
ATOM      1  C   UNL d   1       2.603  -3.272   5.186  0.00  0.00     0.251 C 
ATOM      2  O   UNL d   1       2.600  -4.488   5.040  0.00  0.00    -0.268 OA
ATOM      3  N   UNL d   1       2.926  -2.655   6.373  0.00  0.00    -0.355 N 
ATOM      4  H   UNL d   1       3.164  -1.670   6.385  0.00  0.00     0.162 HD
ENDROOT
BRANCH   1   5
ATOM      5  C   UNL d   1       2.294  -2.370   4.038  0.00  0.00     0.032 A 
ATOM      6  C   UNL d   1       1.875  -1.045   4.212  0.00  0.00     0.020 A 
ATOM      7  C   UNL d   1       1.593  -0.238   3.102  0.00  0.00     0.038 A 
ATOM      8  C   UNL d   1       1.683  -0.761   1.812  0.00  0.00     0.078 A 
ATOM      9  C   UNL d   1       2.131  -2.074   1.638  0.00  0.00     0.038 A 
ATOM     10  C   UNL d   1       2.425  -2.880   2.741  0.00  0.00     0.020 A 
BRANCH   8  11
ATOM     11  O   UNL d   1       1.413  -0.096   0.657  0.00  0.00    -0.255 OA
BRANCH  11  12
ATOM     12  C   UNL d   1       0.416   0.916   0.650  0.00  0.00     0.530 C 
ATOM     13  F   UNL d   1      -0.335   0.965   1.770  0.00  0.00    -0.144 F 
ATOM     14  F   UNL d   1      -0.416   0.689  -0.392  0.00  0.00    -0.144 F 
ATOM     15  F   UNL d   1       1.001   2.119   0.465  0.00  0.00    -0.144 F 
ENDBRANCH  11  12
ENDBRANCH   8  11
ENDBRANCH   1   5
BRANCH   3  16
ATOM     16  C   UNL d   1       3.440  -3.402   7.509  0.00  0.00     0.142 C 
BRANCH  16  17
ATOM     17  C   UNL d   1       4.929  -3.740   7.369  0.00  0.00     0.144 C 
BRANCH  17  18
ATOM     18  N   UNL d   1       5.880  -2.641   7.202  0.00  0.00    -0.335 N 
ATOM     19  C   UNL d   1       5.644  -1.307   7.260  0.00  0.00     0.361 C 
ATOM     20  O   UNL d   1       4.565  -0.777   7.469  0.00  0.00    -0.238 OA
ATOM     21  H   UNL d   1       6.850  -2.884   7.056  0.00  0.00     0.164 HD
BRANCH  19  22
ATOM     22  O   UNL d   1       6.806  -0.649   7.049  0.00  0.00    -0.294 OA
BRANCH  22  23
ATOM     23  C   UNL d   1       6.863   0.802   7.157  0.00  0.00     0.061 C 
ATOM     24  C   UNL d   1       6.465   1.255   8.570  0.00  0.00     0.046 C 
ATOM     25  C   UNL d   1       8.337   1.161   6.902  0.00  0.00     0.046 C 
ATOM     26  C   UNL d   1       6.002   1.480   6.082  0.00  0.00     0.046 C 
ENDBRANCH  22  23
ENDBRANCH  19  22
ENDBRANCH  17  18
ENDBRANCH  16  17
ENDBRANCH   3  16
TORSDOF 8
