REMARK  4 active torsions:
REMARK  status: ('A' for Active; 'I' for Inactive)
REMARK    1  A    between atoms: N_2  and  S_1 
REMARK    2  A    between atoms: C_3  and  S_1 
REMARK    3  A    between atoms: C_8  and  N_2 
REMARK    4  A    between atoms: C_4  and  C_8 
ROOT
ATOM      1  S   UNL d   1       0.979  -0.133  -0.003  0.00  0.00     0.241 S 
ATOM      2  O   UNL d   1       0.470  -1.139  -0.908  0.00  0.00    -0.206 OA
ATOM      3  O   UNL d   1       2.394   0.018   0.250  0.00  0.00    -0.206 OA
ENDROOT
BRANCH   1   4
ATOM      4  N   UNL d   1       0.235  -0.330   1.496  0.00  0.00    -0.211 NA
ATOM      5  H   UNL d   1       0.327   0.500   2.082  0.00  0.00     0.140 HD
BRANCH   4   6
ATOM      6  C   UNL d   1      -1.122  -0.885   1.475  0.00  0.00     0.150 C 
BRANCH   6   7
ATOM      7  C   UNL d   1      -1.566  -1.080   2.893  0.00  0.00    -0.004 A 
ATOM      8  S   UNL d   1      -2.532   0.105   3.669  0.00  0.00    -0.105 SA
ATOM      9  C   UNL d   1      -2.638  -0.824   5.101  0.00  0.00     0.050 A 
ATOM     10  C   UNL d   1      -1.935  -2.005   5.003  0.00  0.00     0.008 A 
ATOM     11  C   UNL d   1      -1.309  -2.149   3.733  0.00  0.00     0.016 A 
ENDBRANCH   6   7
ENDBRANCH   4   6
ENDBRANCH   1   4
BRANCH   1  12
ATOM     12  C   UNL d   1       0.374   1.452  -0.546  0.00  0.00     0.074 A 
ATOM     13  C   UNL d   1       1.131   2.598  -0.284  0.00  0.00     0.025 A 
ATOM     14  C   UNL d   1       0.727   3.828  -0.804  0.00  0.00     0.008 A 
ATOM     15  C   UNL d   1      -0.428   3.922  -1.592  0.00  0.00    -0.062 A 
ATOM     16  C   UNL d   1      -1.182   2.767  -1.843  0.00  0.00     0.008 A 
ATOM     17  C   UNL d   1      -0.816   5.245  -2.188  0.00  0.00     0.048 C 
ATOM     18  C   UNL d   1      -0.779   1.530  -1.330  0.00  0.00     0.025 A 
ENDBRANCH   1  12
TORSDOF 4
