REMARK  2 active torsions:
REMARK  status: ('A' for Active; 'I' for Inactive)
REMARK    1  A    between atoms: O_7  and  N_1 
REMARK    2  A    between atoms: C_8  and  O_7 
ROOT
ATOM      1  N   UNL d   1       2.263  -0.353  -0.091  0.00  0.00    -0.136 N 
ATOM      2  C   UNL d   1       1.801   0.953  -0.054  0.00  0.00     0.286 C 
ATOM      3  C   UNL d   1       1.524  -1.499  -0.337  0.00  0.00     0.286 C 
ATOM      4  C   UNL d   1       0.323   1.093  -0.004  0.00  0.00     0.046 A 
ATOM      5  C   UNL d   1       0.067  -1.349  -0.141  0.00  0.00     0.046 A 
ATOM      6  C   UNL d   1      -0.479  -0.061  -0.020  0.00  0.00     0.006 A 
ATOM      7  O   UNL d   1       1.987  -2.566  -0.735  0.00  0.00    -0.265 OA
ATOM      8  O   UNL d   1       2.514   1.952  -0.101  0.00  0.00    -0.265 OA
ATOM      9  C   UNL d   1      -1.885   0.075   0.067  0.00  0.00    -0.024 A 
ATOM     10  C   UNL d   1      -0.744  -2.488  -0.122  0.00  0.00     0.018 A 
ATOM     11  C   UNL d   1      -0.256   2.366   0.052  0.00  0.00     0.018 A 
ATOM     12  C   UNL d   1      -1.640   2.497   0.105  0.00  0.00     0.002 A 
ATOM     13  C   UNL d   1      -2.122  -2.349   0.006  0.00  0.00     0.002 A 
ATOM     14  C   UNL d   1      -2.448   1.359   0.122  0.00  0.00     0.012 A 
ATOM     15  C   UNL d   1      -2.690  -1.077   0.087  0.00  0.00     0.012 A 
ENDROOT
BRANCH   1  16
ATOM     16  O   UNL d   1       3.645  -0.483  -0.358  0.00  0.00    -0.187 OA
BRANCH  16  17
ATOM     17  C   UNL d   1       4.310  -1.100   0.665  0.00  0.00     0.278 C 
ATOM     18  O   UNL d   1       3.816  -1.462   1.726  0.00  0.00    -0.264 OA
ATOM     19  C   UNL d   1       5.752  -1.272   0.296  0.00  0.00     0.128 C 
ENDBRANCH  16  17
ENDBRANCH   1  16
TORSDOF 2
