REMARK  2 active torsions:
REMARK  status: ('A' for Active; 'I' for Inactive)
REMARK    1  A    between atoms: N_2  and  C_1 
REMARK    2  A    between atoms: C_5  and  N_2 
ROOT
ATOM      1  N   UNL d   1       0.565  -0.815  -0.960  0.00  0.00    -0.333 N 
ATOM      2  H   UNL d   1      -0.412  -0.606  -1.130  0.00  0.00     0.168 HD
ENDROOT
BRANCH   1   3
ATOM      3  C   UNL d   1       1.104  -0.167   0.103  0.00  0.00     0.171 C 
ATOM      4  S   UNL d   1       0.111   0.484   1.276  0.00  0.00    -0.041 SA
ATOM      5  N   UNL d   1       2.442   0.047   0.181  0.00  0.00    -0.371 N 
ATOM      6  C   UNL d   1       3.332   0.213  -0.955  0.00  0.00     0.148 C 
ATOM      7  H   UNL d   1       2.716   0.540   1.023  0.00  0.00     0.161 HD
ENDBRANCH   1   3
BRANCH   1   8
ATOM      8  C   UNL d   1       1.101  -1.885  -1.704  0.00  0.00     0.034 A 
ATOM      9  C   UNL d   1       2.091  -2.731  -1.198  0.00  0.00     0.029 A 
ATOM     10  C   UNL d   1       2.598  -3.770  -1.982  0.00  0.00     0.002 A 
ATOM     11  C   UNL d   1       2.118  -3.964  -3.274  0.00  0.00     0.000 A 
ATOM     12  C   UNL d   1       1.107  -3.143  -3.772  0.00  0.00     0.002 A 
ATOM     13  C   UNL d   1       0.582  -2.120  -2.978  0.00  0.00     0.029 A 
ENDBRANCH   1   8
TORSDOF 2
