REMARK  2 active torsions:
REMARK  status: ('A' for Active; 'I' for Inactive)
REMARK    1  A    between atoms: C_8  and  C_3 
REMARK    2  A    between atoms: C_7  and  C_4 
ROOT
ATOM      1  N   UNL d   1       1.392  -0.604  -0.079  0.00  0.00    -0.349 N 
ATOM      2  HN  UNL d   1       2.271  -1.116  -0.157  1.00  0.00     0.166 HD
ATOM      3  C   UNL d   1       0.198  -1.166  -0.024  0.00  0.00     0.084 A 
ATOM      4  C   UNL d   1       1.285   0.778  -0.018  0.00  0.00     0.050 A 
ATOM      5  S   UNL d   1      -1.117  -0.048   0.019  0.00  0.00    -0.081 SA
ATOM      6  C   UNL d   1      -0.009   1.254   0.018  0.00  0.00     0.082 A 
ENDROOT
BRANCH   3   7
ATOM      7  C   UNL d   1      -0.044  -2.621  -0.049  0.00  0.00    -0.002 A 
ATOM      8  C   UNL d   1      -1.179  -3.211   0.535  0.00  0.00     0.016 A 
ATOM      9  C   UNL d   1      -1.381  -4.595   0.480  0.00  0.00     0.024 A 
ATOM     10  C   UNL d   1      -0.447  -5.406  -0.156  0.00  0.00     0.034 A 
ATOM     11  C   UNL d   1       0.693  -4.848  -0.727  0.00  0.00     0.024 A 
ATOM     12 CL   UNL d   1      -0.703  -7.105  -0.233  0.00  0.00    -0.084 Cl
ATOM     13  C   UNL d   1       0.895  -3.464  -0.668  0.00  0.00     0.016 A 
ENDBRANCH   3   7
BRANCH   4  14
ATOM     14  C   UNL d   1       2.465   1.636  -0.027  0.00  0.00    -0.006 A 
ATOM     15  C   UNL d   1       3.633   1.202  -0.665  0.00  0.00     0.056 A 
ATOM     16  C   UNL d   1       4.755   2.025  -0.695  0.00  0.00     0.117 A 
ATOM     17  F   UNL d   1       5.862   1.607  -1.321  0.00  0.00    -0.206 F 
ATOM     18  C   UNL d   1       4.747   3.277  -0.090  0.00  0.00     0.042 A 
ATOM     19  C   UNL d   1       3.597   3.714   0.563  0.00  0.00     0.004 A 
ATOM     20  C   UNL d   1       2.463   2.897   0.596  0.00  0.00     0.014 A 
ENDBRANCH   4  14
TORSDOF 2
