REMARK  10 active torsions:
REMARK  status: ('A' for Active; 'I' for Inactive)
REMARK    1  A    between atoms: C_2  and  C_1 
REMARK    2  A    between atoms: C_3  and  C_1 
REMARK    3  A    between atoms: O_16  and  C_10 
REMARK    4  A    between atoms: C_17  and  O_16 
REMARK    5  A    between atoms: C_18  and  C_17 
REMARK    6  A    between atoms: C_22  and  C_18 
REMARK    7  A    between atoms: C_19  and  C_20 
REMARK    8  A    between atoms: C_20  and  C_21 
REMARK    9  A    between atoms: C_21  and  C_23 
REMARK   10  A    between atoms: C_23  and  C_22 
ROOT
ATOM      1  C   UNL d   1      -0.021  -0.558   1.031  0.00  0.00     0.015 A 
ATOM      2  C   UNL d   1       0.716  -1.378   1.883  0.00  0.00     0.018 A 
ATOM      3  C   UNL d   1      -1.405  -0.751   0.906  0.00  0.00     0.018 A 
ATOM      4  C   UNL d   1      -1.325  -2.464   2.610  0.00  0.00     0.068 A 
ATOM      5  C   UNL d   1       0.065  -2.331   2.673  0.00  0.00     0.037 A 
ATOM      6  C   UNL d   1      -2.053  -1.688   1.710  0.00  0.00     0.037 A 
ENDROOT
BRANCH   1   7
ATOM      7  C   UNL d   1       0.677   0.526   0.289  0.00  0.00     0.192 C 
ATOM      8  O   UNL d   1       1.838   0.363  -0.076  0.00  0.00    -0.287 OA
BRANCH   7   9
ATOM      9  C   UNL d   1      -0.020   1.811  -0.000  0.00  0.00     0.015 A 
ATOM     10  C   UNL d   1       0.331   2.518  -1.156  0.00  0.00     0.018 A 
ATOM     11  C   UNL d   1      -0.372   3.675  -1.497  0.00  0.00     0.043 A 
ATOM     12  C   UNL d   1      -1.409   4.123  -0.680  0.00  0.00     0.116 A 
ATOM     13  C   UNL d   1      -1.737   3.451   0.491  0.00  0.00     0.043 A 
ATOM     14  F   UNL d   1      -2.104   5.213  -1.029  0.00  0.00    -0.206 F 
ATOM     15  C   UNL d   1      -1.020   2.310   0.848  0.00  0.00     0.018 A 
ENDBRANCH   7   9
ENDBRANCH   1   7
BRANCH   4  16
ATOM     16  O   UNL d   1      -2.071  -3.343   3.344  0.00  0.00    -0.351 OA
BRANCH  16  17
ATOM     17  C   UNL d   1      -1.531  -3.679   4.620  0.00  0.00     0.175 C 
BRANCH  17  18
ATOM     18  C   UNL d   1      -2.504  -4.621   5.319  0.00  0.00     0.027 C 
BRANCH  18  19
ATOM     19  C   UNL d   1      -1.971  -5.020   6.688  0.00  0.00     0.002 C 
BRANCH  19  20
ATOM     20  C   UNL d   1      -2.910  -5.989   7.394  0.00  0.00     0.000 C 
BRANCH  20  21
ATOM     21  C   UNL d   1      -2.355  -6.380   8.766  0.00  0.00     0.000 C 
BRANCH  21  22
ATOM     22  C   UNL d   1      -3.290  -7.352   9.480  0.00  0.00    -0.000 C 
BRANCH  22  23
ATOM     23  C   UNL d   1      -2.744  -7.745  10.852  0.00  0.00    -0.005 C 
ATOM     24  C   UNL d   1      -3.680  -8.712  11.558  0.00  0.00     0.005 C 
ENDBRANCH  22  23
ENDBRANCH  21  22
ENDBRANCH  20  21
ENDBRANCH  19  20
ENDBRANCH  18  19
ENDBRANCH  17  18
ENDBRANCH  16  17
ENDBRANCH   4  16
TORSDOF 10
