REMARK  1 active torsions:
REMARK  status: ('A' for Active; 'I' for Inactive)
REMARK    1  A    between atoms: C_4  and  N_1 
ROOT
ATOM      1  N   UNL d   1       0.495   1.143  -0.643  0.00  0.00    -0.249 N 
ATOM      2  C   UNL d   1       1.293   0.004  -0.469  0.00  0.00     0.231 C 
ATOM      3  C   UNL d   1      -0.819   1.226  -0.173  0.00  0.00     0.231 C 
ATOM      4  C   UNL d   1       0.567  -1.317  -0.349  0.00  0.00     0.108 C 
ATOM      5  C   UNL d   1      -1.564  -0.089  -0.094  0.00  0.00     0.108 C 
ATOM      6  O   UNL d   1       2.523   0.023  -0.403  0.00  0.00    -0.273 OA
ATOM      7  O   UNL d   1      -1.429   2.265   0.080  0.00  0.00    -0.273 OA
ATOM      8  C   UNL d   1      -0.726  -1.231   0.443  0.00  0.00    -0.001 C 
ATOM      9  C   UNL d   1      -0.487  -1.115   1.948  0.00  0.00     0.011 C 
ENDROOT
BRANCH   1  10
ATOM     10  C   UNL d   1       1.144   2.318  -1.164  0.00  0.00     0.084 A 
ATOM     11  C   UNL d   1       1.939   2.202  -2.321  0.00  0.00     0.146 A 
ATOM     12  C   UNL d   1       2.530   3.308  -2.924  0.00  0.00     0.086 A 
ATOM     13  F   UNL d   1       2.060   1.015  -2.939  0.00  0.00    -0.204 F 
ATOM     14  C   UNL d   1       2.332   4.559  -2.365  0.00  0.00     0.119 A 
ATOM     15  C   UNL d   1       1.558   4.715  -1.221  0.00  0.00     0.045 A 
ATOM     16  F   UNL d   1       2.877   5.636  -2.946  0.00  0.00    -0.206 F 
ATOM     17  C   UNL d   1       0.959   3.599  -0.624  0.00  0.00     0.036 A 
ENDBRANCH   1  10
TORSDOF 1
