REMARK  4 active torsions:
REMARK  status: ('A' for Active; 'I' for Inactive)
REMARK    1  A    between atoms: C_3  and  C_5 
REMARK    2  A    between atoms: S_9  and  C_4 
REMARK    3  A    between atoms: C_5  and  S_9 
REMARK    4  A    between atoms: O_16  and  C_6 
ROOT
ATOM      1  N   UNL d   1      -0.216  -1.001   0.621  0.00  0.00    -0.318 N 
ATOM      2  HN  UNL d   1      -0.832  -1.805   0.735  1.00  0.00     0.170 HD
ATOM      3  C   UNL d   1       1.102  -1.133   0.393  0.00  0.00     0.146 A 
ATOM      4  C   UNL d   1      -0.662   0.255   0.685  0.00  0.00     0.142 A 
ATOM      5  N   UNL d   1       1.956  -0.106   0.228  0.00  0.00    -0.347 N 
ATOM      6  HN  UNL d   1       2.949  -0.257   0.050  1.00  0.00     0.167 HD
ATOM      7  C   UNL d   1       0.102   1.379   0.544  0.00  0.00     0.073 A 
ATOM      8  C   UNL d   1       1.430   1.134   0.311  0.00  0.00     0.094 A 
ENDROOT
BRANCH   3   9
ATOM      9  S   UNL d   1       1.707  -2.801   0.344  0.00  0.00    -0.089 SA
BRANCH   9  10
ATOM     10  C   UNL d   1       3.477  -2.518   0.018  0.00  0.00     0.124 C 
BRANCH  10  11
ATOM     11  C   UNL d   1       4.257  -3.815   0.118  0.00  0.00    -0.005 A 
ATOM     12  C   UNL d   1       4.412  -4.669  -0.992  0.00  0.00     0.042 A 
ATOM     13 CL   UNL d   1       3.756  -4.286  -2.547  0.00  0.00    -0.084 Cl
ATOM     14  C   UNL d   1       5.107  -5.881  -0.885  0.00  0.00     0.024 A 
ATOM     15  C   UNL d   1       5.660  -6.271   0.330  0.00  0.00     0.003 A 
ATOM     16  C   UNL d   1       5.513  -5.449   1.442  0.00  0.00     0.024 A 
ATOM     17  C   UNL d   1       4.817  -4.237   1.341  0.00  0.00     0.042 A 
ATOM     18 CL   UNL d   1       4.681  -3.302   2.791  0.00  0.00    -0.084 Cl
ENDBRANCH  10  11
ENDBRANCH   9  10
ENDBRANCH   3   9
BRANCH   4  19
ATOM     19  O   UNL d   1      -1.995   0.359   0.919  0.00  0.00    -0.346 OA
ATOM     20  H   UNL d   1      -2.240  -0.582   0.971  0.00  0.00     0.219 HD
ENDBRANCH   4  19
TORSDOF 4
