REMARK  1 active torsions:
REMARK  status: ('A' for Active; 'I' for Inactive)
REMARK    1  A    between atoms: C_2  and  N_1 
ROOT
ATOM      1  N   UNL d   1       0.628   1.112  -0.561  0.00  0.00    -0.250 N 
ATOM      2  C   UNL d   1       1.400  -0.010  -0.193  0.00  0.00     0.240 C 
ATOM      3  C   UNL d   1      -0.762   1.298  -0.417  0.00  0.00     0.240 C 
ATOM      4  S   UNL d   1      -0.711  -0.816   1.364  0.00  0.00    -0.150 SA
ATOM      5  O   UNL d   1      -1.361   2.305  -0.813  0.00  0.00    -0.272 OA
ATOM      6  O   UNL d   1       2.629  -0.066  -0.305  0.00  0.00    -0.272 OA
ATOM      7  C   UNL d   1       0.669  -1.238   0.297  0.00  0.00     0.178 C 
ATOM      8  C   UNL d   1      -1.587   0.159   0.140  0.00  0.00     0.178 C 
ENDROOT
BRANCH   1   9
ATOM      9  C   UNL d   1       1.345   2.184  -1.195  0.00  0.00     0.057 A 
ATOM     10  C   UNL d   1       1.542   3.412  -0.522  0.00  0.00    -0.034 A 
ATOM     11  C   UNL d   1       2.216   4.452  -1.184  0.00  0.00     0.009 A 
ATOM     12  C   UNL d   1       1.042   3.677   0.872  0.00  0.00     0.050 C 
ATOM     13  C   UNL d   1       2.716   4.274  -2.471  0.00  0.00     0.001 A 
ATOM     14  C   UNL d   1       2.538   3.059  -3.126  0.00  0.00     0.009 A 
ATOM     15  C   UNL d   1       1.839   2.009  -2.511  0.00  0.00    -0.034 A 
ATOM     16  C   UNL d   1       1.662   0.729  -3.282  0.00  0.00     0.050 C 
ENDBRANCH   1   9
TORSDOF 1
