REMARK  3 active torsions:
REMARK  status: ('A' for Active; 'I' for Inactive)
REMARK    1  A    between atoms: C_7  and  C_1 
REMARK    2  A    between atoms: C_8  and  C_7 
REMARK    3  A    between atoms: O_19  and  C_14 
ROOT
ATOM      1  C   UNL d   1      -2.321   0.537  -0.086  0.00  0.00     0.029 A 
ATOM      2  C   UNL d   1      -2.132  -0.939  -0.177  0.00  0.00     0.295 A 
ATOM      3  C   UNL d   1      -1.271   1.384   0.021  0.00  0.00    -0.036 A 
ATOM      4  O   UNL d   1      -0.843  -1.424  -0.076  0.00  0.00    -0.274 OA
ATOM      5  C   UNL d   1       0.259  -0.559  -0.013  0.00  0.00     0.092 A 
ATOM      6  C   UNL d   1       0.095   0.825   0.026  0.00  0.00     0.005 A 
ATOM      7  C   UNL d   1       1.514  -1.170  -0.010  0.00  0.00     0.074 A 
ATOM      8  C   UNL d   1       1.258   1.609   0.058  0.00  0.00     0.017 A 
ATOM      9  O   UNL d   1      -3.079  -1.708  -0.330  0.00  0.00    -0.259 OA
ATOM     10  C   UNL d   1       2.644  -0.369   0.024  0.00  0.00     0.068 A 
ATOM     11  C   UNL d   1       2.526   1.014   0.054  0.00  0.00     0.037 A 
ATOM     12  C   UNL d   1      -1.407   2.885   0.067  0.00  0.00     0.050 C 
ENDROOT
BRANCH   1  13
ATOM     13  C   UNL d   1      -3.768   0.962  -0.119  0.00  0.00     0.087 C 
BRANCH  13  14
ATOM     14  C   UNL d   1      -4.381   1.478  -1.418  0.00  0.00    -0.010 A 
ATOM     15  C   UNL d   1      -3.799   1.426  -2.703  0.00  0.00     0.042 A 
ATOM     16 CL   UNL d   1      -2.287   0.678  -3.088  0.00  0.00    -0.084 Cl
ATOM     17  C   UNL d   1      -4.447   1.989  -3.816  0.00  0.00     0.024 A 
ATOM     18  C   UNL d   1      -5.697   2.581  -3.696  0.00  0.00     0.003 A 
ATOM     19  C   UNL d   1      -6.317   2.601  -2.457  0.00  0.00     0.024 A 
ATOM     20  C   UNL d   1      -5.674   2.057  -1.338  0.00  0.00     0.042 A 
ATOM     21 CL   UNL d   1      -6.563   2.130   0.152  0.00  0.00    -0.084 Cl
ENDBRANCH  13  14
ENDBRANCH   1  13
BRANCH  10  22
ATOM     22  O   UNL d   1       3.897  -0.902   0.024  0.00  0.00    -0.361 OA
ATOM     23  H   UNL d   1       3.825  -1.871  -0.005  0.00  0.00     0.217 HD
ENDBRANCH  10  22
TORSDOF 3
