REMARK  4 active torsions:
REMARK  status: ('A' for Active; 'I' for Inactive)
REMARK    1  A    between atoms: C_7  and  C_1 
REMARK    2  A    between atoms: C_2  and  C_6 
REMARK       I    between atoms: C_3  and  N_5 
REMARK       I    between atoms: N_4  and  C_3 
REMARK    3  A    between atoms: C_20  and  N_4 
REMARK    4  A    between atoms: N_5  and  C_19 
ROOT
ATOM      1  C   UNL d   1      -0.862   0.182   6.229  0.00  0.00     0.325 C 
ATOM      2  N   UNL d   1      -0.909  -1.103   5.720  0.00  0.00    -0.309 N 
ATOM      3  N   UNL d   1      -0.548   1.112   5.250  0.00  0.00    -0.309 N 
ATOM      4  O   UNL d   1      -1.062   0.456   7.408  0.00  0.00    -0.247 OA
ATOM      5  H   UNL d   1      -0.404  -1.279   4.866  0.00  0.00     0.170 HD
ATOM      6  H   UNL d   1      -0.404   0.763   4.316  0.00  0.00     0.170 HD
ENDROOT
BRANCH   3   7
ATOM      7  C   UNL d   1      -0.332   2.494   5.454  0.00  0.00     0.036 A 
ATOM      8  C   UNL d   1      -0.561   3.142   6.671  0.00  0.00     0.030 A 
ATOM      9  C   UNL d   1      -0.192   4.476   6.854  0.00  0.00     0.018 A 
ATOM     10  C   UNL d   1       0.408   5.197   5.818  0.00  0.00     0.048 A 
ATOM     11  C   UNL d   1       0.559   4.577   4.570  0.00  0.00     0.018 A 
ATOM     12  C   UNL d   1       0.184   3.239   4.388  0.00  0.00     0.030 A 
BRANCH  10  13
ATOM     13  C   UNL d   1       0.913   6.594   6.080  0.00  0.00     0.417 C 
ATOM     14  F   UNL d   1       1.499   7.174   4.996  0.00  0.00    -0.166 F 
ATOM     15  F   UNL d   1       1.852   6.623   7.068  0.00  0.00    -0.166 F 
ATOM     16  F   UNL d   1      -0.072   7.445   6.476  0.00  0.00    -0.166 F 
ENDBRANCH  10  13
ENDBRANCH   3   7
BRANCH   2  17
ATOM     17  C   UNL d   1      -1.397  -2.238   6.414  0.00  0.00     0.036 A 
ATOM     18  C   UNL d   1      -2.179  -2.146   7.570  0.00  0.00     0.030 A 
ATOM     19  C   UNL d   1      -2.692  -3.291   8.184  0.00  0.00     0.018 A 
ATOM     20  C   UNL d   1      -2.440  -4.558   7.649  0.00  0.00     0.048 A 
ATOM     21  C   UNL d   1      -1.635  -4.654   6.504  0.00  0.00     0.018 A 
ATOM     22  C   UNL d   1      -1.123  -3.504   5.889  0.00  0.00     0.030 A 
BRANCH  20  23
ATOM     23  C   UNL d   1      -3.040  -5.793   8.273  0.00  0.00     0.417 C 
ATOM     24  F   UNL d   1      -3.863  -5.530   9.327  0.00  0.00    -0.166 F 
ATOM     25  F   UNL d   1      -3.791  -6.506   7.386  0.00  0.00    -0.166 F 
ATOM     26  F   UNL d   1      -2.097  -6.656   8.741  0.00  0.00    -0.166 F 
ENDBRANCH  20  23
ENDBRANCH   2  17
TORSDOF 4
