REMARK  1 active torsions:
REMARK  status: ('A' for Active; 'I' for Inactive)
REMARK    1  A    between atoms: C_7  and  C_6 
ROOT
ATOM      1  N   UNL d   1       0.153  -1.083  -0.019  0.00  0.00    -0.298 N 
ATOM      2  C   UNL d   1       0.878   0.076  -0.039  0.00  0.00     0.179 A 
ATOM      3  C   UNL d   1      -1.294   0.674  -0.038  0.00  0.00     0.104 A 
ATOM      4  C   UNL d   1      -1.196  -0.829  -0.028  0.00  0.00     0.274 A 
ATOM      5  N   UNL d   1      -0.002   1.140  -0.059  0.00  0.00    -0.329 N 
ATOM      6  C   UNL d   1      -2.372   1.464  -0.009  0.00  0.00     0.054 C 
ATOM      7  S   UNL d   1       2.522   0.191  -0.033  0.00  0.00    -0.040 SA
ATOM      8  O   UNL d   1      -2.089  -1.650  -0.044  0.00  0.00    -0.266 OA
ATOM      9  H   UNL d   1       0.539  -2.012  -0.008  0.00  0.00     0.171 HD
ATOM     10  H   UNL d   1       0.281   2.110  -0.058  0.00  0.00     0.168 HD
ENDROOT
BRANCH   6  11
ATOM     11  C   UNL d   1      -3.694   0.958   0.066  0.00  0.00     0.007 A 
ATOM     12  S   UNL d   1      -4.461   0.799   1.597  0.00  0.00    -0.102 SA
ATOM     13  C   UNL d   1      -5.905   0.219   0.893  0.00  0.00     0.050 A 
ATOM     14  C   UNL d   1      -5.824   0.162  -0.480  0.00  0.00     0.008 A 
ATOM     15  C   UNL d   1      -4.549   0.587  -0.956  0.00  0.00     0.019 A 
ENDBRANCH   6  11
TORSDOF 1
