REMARK  1 active torsions:
REMARK  status: ('A' for Active; 'I' for Inactive)
REMARK    1  A    between atoms: C_7  and  C_1 
ROOT
ATOM      1  C   UNL d   1       2.260   0.790  -0.046  0.00  0.00     0.164 A 
ATOM      2  N   UNL d   1       1.145   1.436  -0.118  0.00  0.00    -0.335 N 
ATOM      3  HN  UNL d   1       1.127   2.452  -0.204  1.00  0.00     0.168 HD
ATOM      4  O   UNL d   1       2.402  -0.552   0.042  0.00  0.00    -0.256 OA
ATOM      5  C   UNL d   1       1.303  -1.345   0.036  0.00  0.00     0.302 A 
ATOM      6  C   UNL d   1      -0.009  -0.690  -0.011  0.00  0.00     0.067 A 
ATOM      7  C   UNL d   1      -0.029   0.695  -0.075  0.00  0.00     0.050 A 
ATOM      8  C   UNL d   1      -1.195  -1.433   0.014  0.00  0.00     0.038 A 
ATOM      9  O   UNL d   1       1.393  -2.568   0.071  0.00  0.00    -0.259 OA
ATOM     10  C   UNL d   1      -1.257   1.357  -0.096  0.00  0.00     0.032 A 
ATOM     11  C   UNL d   1      -2.416  -0.761  -0.022  0.00  0.00     0.007 A 
ATOM     12  C   UNL d   1      -2.452   0.633  -0.070  0.00  0.00     0.020 A 
ATOM     13  I   UNL d   1      -4.191  -1.839  -0.008  0.00  0.00    -0.045 I 
ENDROOT
BRANCH   1  14
ATOM     14  C   UNL d   1       3.593   1.440  -0.049  0.00  0.00     0.037 A 
ATOM     15  C   UNL d   1       3.821   2.692   0.546  0.00  0.00     0.050 A 
ATOM     16  C   UNL d   1       5.095   3.272   0.497  0.00  0.00     0.048 A 
ATOM     17 CL   UNL d   1       2.614   3.575   1.415  0.00  0.00    -0.083 Cl
ATOM     18  C   UNL d   1       6.143   2.606  -0.133  0.00  0.00     0.035 A 
ATOM     19  C   UNL d   1       5.934   1.364  -0.725  0.00  0.00     0.025 A 
ATOM     20 CL   UNL d   1       7.707   3.319  -0.173  0.00  0.00    -0.084 Cl
ATOM     21  C   UNL d   1       4.663   0.784  -0.688  0.00  0.00     0.019 A 
ENDBRANCH   1  14
TORSDOF 1
