REMARK  2 active torsions:
REMARK  status: ('A' for Active; 'I' for Inactive)
REMARK    1  A    between atoms: C_7  and  N_1 
REMARK    2  A    between atoms: C_9  and  C_2 
ROOT
ATOM      1  C   UNL d   1      -2.911   4.214   1.880  0.00  0.00     0.122 A 
ATOM      2  O   UNL d   1      -1.960   4.683   1.013  0.00  0.00    -0.306 OA
ATOM      3  C   UNL d   1      -2.721   2.860   2.087  0.00  0.00     0.055 A 
ATOM      4  C   UNL d   1      -1.605   2.471   1.306  0.00  0.00     0.003 A 
ATOM      5  C   UNL d   1      -1.171   3.626   0.667  0.00  0.00     0.086 A 
ATOM      6  C   UNL d   1       0.178   1.282   0.200  0.00  0.00     0.103 A 
ATOM      7  C   UNL d   1      -0.923   1.264   1.075  0.00  0.00     0.050 A 
ATOM      8  C   UNL d   1      -0.081   3.674  -0.202  0.00  0.00     0.040 A 
ATOM      9  C   UNL d   1       0.596   2.467  -0.429  0.00  0.00     0.039 A 
ENDROOT
BRANCH   1  10
ATOM     10  C   UNL d   1      -3.918   5.097   2.432  0.00  0.00     0.179 C 
ATOM     11  O   UNL d   1      -4.780   4.694   3.216  0.00  0.00    -0.291 OA
ATOM     12  C   UNL d   1      -3.911   6.549   2.028  0.00  0.00     0.099 C 
ENDBRANCH   1  10
BRANCH   6  13
ATOM     13  N   UNL d   1       0.899   0.027  -0.060  0.00  0.00    -0.116 N 
ATOM     14  O   UNL d   1       0.495  -0.998   0.505  0.00  0.00    -0.532 OA
ATOM     15  O   UNL d   1       1.869   0.070  -0.830  0.00  0.00    -0.532 OA
ENDBRANCH   6  13
TORSDOF 2
