REMARK  8 active torsions:
REMARK  status: ('A' for Active; 'I' for Inactive)
REMARK    1  A    between atoms: O_4  and  S_1 
REMARK    2  A    between atoms: C_10  and  S_1 
REMARK    3  A    between atoms: S_2  and  O_3 
REMARK    4  A    between atoms: C_11  and  S_2 
REMARK    5  A    between atoms: O_3  and  C_8 
REMARK    6  A    between atoms: C_7  and  O_4 
REMARK    7  A    between atoms: C_5  and  S_9 
REMARK    8  A    between atoms: S_9  and  C_6 
ROOT
ATOM      1  S   UNL d   1      -1.544   1.643   2.101  0.00  0.00    -0.085 SA
ENDROOT
BRANCH   1   2
ATOM      2  C   UNL d   1      -1.615   1.965   0.342  0.00  0.00     0.042 A 
ATOM      3  C   UNL d   1      -1.303   0.994  -0.629  0.00  0.00     0.106 A 
ATOM      4  C   UNL d   1      -1.593   1.238  -1.977  0.00  0.00     0.041 A 
ATOM      5  C   UNL d   1      -2.099   2.472  -2.377  0.00  0.00     0.026 A 
ATOM      6  C   UNL d   1      -2.347   3.455  -1.426  0.00  0.00     0.035 A 
ATOM      7  C   UNL d   1      -2.133   3.201  -0.073  0.00  0.00     0.045 A 
ATOM      8 CL   UNL d   1      -2.950   4.986  -1.928  0.00  0.00    -0.084 Cl
BRANCH   3   9
ATOM      9  O   UNL d   1      -0.784  -0.213  -0.220  0.00  0.00    -0.228 OA
BRANCH   9  10
ATOM     10  S   UNL d   1       0.442  -0.936  -1.033  0.00  0.00     0.303 S 
ATOM     11  O   UNL d   1       1.137   0.036  -1.851  0.00  0.00    -0.193 OA
ATOM     12  O   UNL d   1       1.167  -1.770  -0.091  0.00  0.00    -0.193 OA
BRANCH  10  13
ATOM     13  C   UNL d   1      -0.366  -2.078  -2.141  0.00  0.00     0.086 A 
ATOM     14  C   UNL d   1       0.209  -2.356  -3.384  0.00  0.00     0.026 A 
ATOM     15  C   UNL d   1      -0.484  -3.156  -4.296  0.00  0.00     0.008 A 
ATOM     16  C   UNL d   1      -1.755  -3.656  -3.981  0.00  0.00    -0.062 A 
ATOM     17  C   UNL d   1      -2.294  -3.410  -2.711  0.00  0.00     0.008 A 
ATOM     18  C   UNL d   1      -2.517  -4.474  -4.985  0.00  0.00     0.048 C 
ATOM     19  C   UNL d   1      -1.604  -2.621  -1.788  0.00  0.00     0.026 A 
ENDBRANCH  10  13
ENDBRANCH   9  10
ENDBRANCH   3   9
ENDBRANCH   1   2
BRANCH   1  20
ATOM     20  C   UNL d   1       0.136   2.091   2.531  0.00  0.00     0.042 A 
ATOM     21  C   UNL d   1       1.105   1.100   2.779  0.00  0.00     0.106 A 
ATOM     22  C   UNL d   1       2.383   1.467   3.213  0.00  0.00     0.041 A 
ATOM     23  C   UNL d   1       2.687   2.808   3.453  0.00  0.00     0.026 A 
ATOM     24  C   UNL d   1       1.723   3.785   3.228  0.00  0.00     0.035 A 
ATOM     25 CL   UNL d   1       2.098   5.435   3.552  0.00  0.00    -0.084 Cl
ATOM     26  C   UNL d   1       0.453   3.438   2.764  0.00  0.00     0.045 A 
BRANCH  21  27
ATOM     27  O   UNL d   1       0.743  -0.209   2.564  0.00  0.00    -0.228 OA
BRANCH  27  28
ATOM     28  S   UNL d   1       1.384  -1.435   3.433  0.00  0.00     0.303 S 
ATOM     29  O   UNL d   1       1.509  -1.022   4.820  0.00  0.00    -0.193 OA
ATOM     30  O   UNL d   1       2.535  -1.966   2.732  0.00  0.00    -0.193 OA
BRANCH  28  31
ATOM     31  C   UNL d   1       0.096  -2.667   3.398  0.00  0.00     0.086 A 
ATOM     32  C   UNL d   1       0.095  -3.667   2.425  0.00  0.00     0.026 A 
ATOM     33  C   UNL d   1      -0.903  -4.646   2.449  0.00  0.00     0.008 A 
ATOM     34  C   UNL d   1      -1.888  -4.637   3.450  0.00  0.00    -0.062 A 
ATOM     35  C   UNL d   1      -1.865  -3.635   4.426  0.00  0.00     0.008 A 
ATOM     36  C   UNL d   1      -2.952  -5.696   3.471  0.00  0.00     0.048 C 
ATOM     37  C   UNL d   1      -0.877  -2.651   4.404  0.00  0.00     0.026 A 
ENDBRANCH  28  31
ENDBRANCH  27  28
ENDBRANCH  21  27
ENDBRANCH   1  20
TORSDOF 8
