REMARK  4 active torsions:
REMARK  status: ('A' for Active; 'I' for Inactive)
REMARK    1  A    between atoms: C_2  and  C_1 
REMARK    2  A    between atoms: O_9  and  C_2 
REMARK    3  A    between atoms: N_3  and  C_10 
REMARK    4  A    between atoms: C_16  and  O_9 
ROOT
ATOM      1  C   UNL d   1       0.035   2.379  -0.184  0.00  0.00     0.303 C 
ATOM      2  O   UNL d   1       1.098   2.974  -0.049  0.00  0.00    -0.259 OA
ENDROOT
BRANCH   1   3
ATOM      3  C   UNL d   1      -0.089   0.936  -0.189  0.00  0.00     0.095 A 
ATOM      4  C   UNL d   1      -1.255   0.193  -0.167  0.00  0.00     0.090 A 
ATOM      5  O   UNL d   1      -0.951  -1.131  -0.177  0.00  0.00    -0.242 OA
ATOM      6  C   UNL d   1      -2.697   0.512  -0.113  0.00  0.00     0.080 C 
ATOM      7  N   UNL d   1       0.416  -1.292  -0.195  0.00  0.00    -0.265 N 
ATOM      8  C   UNL d   1       0.933  -0.057  -0.186  0.00  0.00     0.047 A 
ATOM      9  HN  UNL d   1       0.930  -2.173  -0.210  1.00  0.00     0.194 HD
ATOM     10  C   UNL d   1       2.408   0.104  -0.190  0.00  0.00     0.071 C 
ENDBRANCH   1   3
BRANCH   1  11
ATOM     11  O   UNL d   1      -1.208   3.003  -0.353  0.00  0.00    -0.275 OA
BRANCH  11  12
ATOM     12  C   UNL d   1      -1.530   4.368  -0.160  0.00  0.00     0.079 A 
ATOM     13  C   UNL d   1      -2.776   4.749  -0.671  0.00  0.00     0.040 A 
ATOM     14  C   UNL d   1      -3.278   6.022  -0.403  0.00  0.00     0.039 A 
ATOM     15  C   UNL d   1      -2.525   6.905   0.381  0.00  0.00     0.103 A 
ATOM     16  C   UNL d   1      -1.259   6.532   0.862  0.00  0.00     0.039 A 
ATOM     17  C   UNL d   1      -0.761   5.252   0.592  0.00  0.00     0.040 A 
BRANCH  15  18
ATOM     18  N   UNL d   1      -3.086   8.215   0.738  0.00  0.00    -0.116 N 
ATOM     19  O   UNL d   1      -4.234   8.475   0.348  0.00  0.00    -0.532 OA
ATOM     20  O   UNL d   1      -2.386   8.976   1.419  0.00  0.00    -0.532 OA
ENDBRANCH  15  18
ENDBRANCH  11  12
ENDBRANCH   1  11
TORSDOF 4
