REMARK  2 active torsions:
REMARK  status: ('A' for Active; 'I' for Inactive)
REMARK    1  A    between atoms: C_2  and  N_1 
REMARK    2  A    between atoms: N_6  and  C_3 
ROOT
ATOM      1  C   UNL d   1       0.190  -0.734  -1.068  0.00  0.00     0.118 A 
ATOM      2  C   UNL d   1      -0.878  -2.451  -2.966  0.00  0.00     0.103 A 
ATOM      3  N   UNL d   1      -1.448  -2.378  -1.741  0.00  0.00    -0.350 N 
ATOM      4  HN  UNL d   1      -2.260  -2.950  -1.511  1.00  0.00     0.166 HD
ATOM      5  C   UNL d   1      -0.918  -1.526  -0.821  0.00  0.00     0.125 A 
ATOM      6  C   UNL d   1       0.791  -0.806  -2.318  0.00  0.00     0.041 A 
ATOM      7  C   UNL d   1       0.245  -1.672  -3.267  0.00  0.00     0.051 A 
ENDROOT
BRANCH   2   8
ATOM      8  N   UNL d   1      -1.364  -3.359  -3.891  0.00  0.00    -0.366 N 
ATOM      9  C   UNL d   1      -2.147  -4.506  -3.408  0.00  0.00     0.134 C 
ATOM     10  C   UNL d   1      -3.657  -4.334  -3.578  0.00  0.00     0.093 C 
ATOM     11  S   UNL d   1      -4.124  -4.056  -5.321  0.00  0.00    -0.166 SA
ATOM     12  C   UNL d   1      -3.020  -2.639  -5.623  0.00  0.00     0.093 C 
ATOM     13  C   UNL d   1      -1.557  -2.960  -5.293  0.00  0.00     0.134 C 
ENDBRANCH   2   8
BRANCH   1  14
ATOM     14  N   UNL d   1       0.719   0.140  -0.032  0.00  0.00    -0.114 N 
ATOM     15  O   UNL d   1       0.130   0.163   1.060  0.00  0.00    -0.532 OA
ATOM     16  O   UNL d   1       1.726   0.810  -0.300  0.00  0.00    -0.532 OA
ENDBRANCH   1  14
TORSDOF 2
