REMARK  5 active torsions:
REMARK  status: ('A' for Active; 'I' for Inactive)
REMARK    1  A    between atoms: C_3  and  N_1 
REMARK    2  A    between atoms: C_6  and  C_2 
REMARK    3  A    between atoms: C_5  and  C_4 
REMARK    4  A    between atoms: O_12  and  C_5 
REMARK    5  A    between atoms: O_13  and  C_6 
ROOT
ATOM      1  C   UNL d   1      -0.711  -2.421   0.084  0.00  0.00     0.056 A 
ATOM      2  C   UNL d   1      -1.461  -2.886  -1.017  0.00  0.00     0.064 A 
ATOM      3  C   UNL d   1      -1.823  -4.242  -1.095  0.00  0.00     0.020 A 
ATOM      4  C   UNL d   1      -0.368  -3.333   1.099  0.00  0.00     0.031 A 
ATOM      5  C   UNL d   1      -1.469  -5.133  -0.083  0.00  0.00     0.001 A 
ATOM      6  C   UNL d   1      -0.749  -4.676   1.015  0.00  0.00     0.002 A 
ENDROOT
BRANCH   1   7
ATOM      7  N   UNL d   1      -0.203  -1.090   0.161  0.00  0.00    -0.316 N 
ATOM      8  C   UNL d   1      -0.038  -0.296   1.301  0.00  0.00     0.113 A 
ATOM      9  C   UNL d   1       0.603   0.873   0.906  0.00  0.00     0.038 A 
ATOM     10  C   UNL d   1       0.815   0.815  -0.484  0.00  0.00     0.020 A 
ATOM     11  C   UNL d   1       0.308  -0.386  -0.914  0.00  0.00     0.098 A 
BRANCH   8  12
ATOM     12  C   UNL d   1      -0.573  -0.595   2.611  0.00  0.00     0.194 C 
ATOM     13  O   UNL d   1      -1.608  -1.203   2.837  0.00  0.00    -0.645 OA
BRANCH  12  14
ATOM     14  O   UNL d   1       0.220  -0.124   3.603  0.00  0.00    -0.772 OA
ATOM     15  H   UNL d   1       1.054   0.267   3.285  0.00  0.00     0.167 HD
ENDBRANCH  12  14
ENDBRANCH   8  12
ENDBRANCH   1   7
BRANCH   2  16
ATOM     16  C   UNL d   1      -1.974  -2.041  -2.121  0.00  0.00     0.178 C 
ATOM     17  O   UNL d   1      -1.872  -2.361  -3.293  0.00  0.00    -0.646 OA
BRANCH  16  18
ATOM     18  O   UNL d   1      -2.629  -0.939  -1.704  0.00  0.00    -0.773 OA
ATOM     19  H   UNL d   1      -2.709  -0.837  -0.737  0.00  0.00     0.167 HD
ENDBRANCH  16  18
ENDBRANCH   2  16
TORSDOF 5
