REMARK  5 active torsions:
REMARK  status: ('A' for Active; 'I' for Inactive)
REMARK    1  A    between atoms: C_2  and  C_1 
REMARK       I    between atoms: N_6  and  C_2 
REMARK    2  A    between atoms: N_3  and  C_4 
REMARK    3  A    between atoms: C_7  and  C_5 
REMARK    4  A    between atoms: C_12  and  N_6 
REMARK    5  A    between atoms: O_18  and  C_7 
ROOT
ATOM      1  C   UNL d   1       1.426  -0.287  -0.160  0.00  0.00     0.082 C 
ATOM      2  C   UNL d   1       0.560  -1.351   0.149  0.00  0.00     0.119 C 
ATOM      3  C   UNL d   1       0.837   0.928  -0.564  0.00  0.00     0.056 C 
ATOM      4  C   UNL d   1      -0.833  -1.196   0.213  0.00  0.00     0.037 C 
ATOM      5  C   UNL d   1      -0.564   1.091  -0.488  0.00  0.00     0.019 C 
ATOM      6  C   UNL d   1      -1.387   0.049  -0.054  0.00  0.00     0.004 C 
ENDROOT
BRANCH   1   7
ATOM      7  C   UNL d   1       2.840  -0.407   0.317  0.00  0.00     0.259 C 
ATOM      8  N   UNL d   1       3.840   0.224  -0.384  0.00  0.00    -0.323 N 
ATOM      9  H   UNL d   1       3.597   0.631  -1.290  0.00  0.00     0.169 HD
ATOM     10  O   UNL d   1       2.989  -1.023   1.368  0.00  0.00    -0.267 OA
BRANCH   8  11
ATOM     11  C   UNL d   1       5.172   0.452   0.036  0.00  0.00     0.036 A 
ATOM     12  C   UNL d   1       5.698   0.047   1.268  0.00  0.00     0.055 A 
ATOM     13  C   UNL d   1       7.012   0.382   1.628  0.00  0.00     0.058 A 
ATOM     14 CL   UNL d   1       7.581  -0.131   3.180  0.00  0.00    -0.082 Cl
ATOM     15  C   UNL d   1       7.813   1.124   0.754  0.00  0.00     0.055 A 
ATOM     16  C   UNL d   1       7.300   1.513  -0.483  0.00  0.00     0.028 A 
ATOM     17 CL   UNL d   1       9.427   1.599   1.142  0.00  0.00    -0.083 Cl
ATOM     18  C   UNL d   1       5.989   1.180  -0.837  0.00  0.00     0.031 A 
ENDBRANCH   8  11
ENDBRANCH   1   7
BRANCH   2  19
ATOM     19  N   UNL d   1       1.086  -2.705   0.227  0.00  0.00    -0.115 N 
ATOM     20  O   UNL d   1       1.773  -3.081  -0.734  0.00  0.00    -0.532 OA
ATOM     21  O   UNL d   1       0.711  -3.409   1.173  0.00  0.00    -0.532 OA
ENDBRANCH   2  19
BRANCH   3  22
ATOM     22  C   UNL d   1       1.621   1.957  -1.290  0.00  0.00     0.177 C 
ATOM     23  O   UNL d   1       2.512   1.647  -2.057  0.00  0.00    -0.646 OA
BRANCH  22  24
ATOM     24  O   UNL d   1       1.235   3.232  -1.093  0.00  0.00    -0.773 OA
ATOM     25  H   UNL d   1       0.573   3.398  -0.399  0.00  0.00     0.167 HD
ENDBRANCH  22  24
ENDBRANCH   3  22
TORSDOF 5
