REMARK  5 active torsions:
REMARK  status: ('A' for Active; 'I' for Inactive)
REMARK    1  A    between atoms: C_2  and  C_5 
REMARK    2  A    between atoms: C_6  and  N_14 
REMARK    3  A    between atoms: N_13  and  C_19 
REMARK    4  A    between atoms: C_16  and  N_31 
REMARK    5  A    between atoms: C_19  and  C_22 
ROOT
ATOM      1  C   UNL d   1      -0.113   0.714   0.068  0.00  0.00    -0.005 A 
ATOM      2  C   UNL d   1       1.141   1.496  -0.058  0.00  0.00     0.040 C 
ATOM      3  C   UNL d   1      -0.063  -0.678   0.113  0.00  0.00     0.046 A 
ATOM      4  C   UNL d   1      -1.375   1.338   0.059  0.00  0.00     0.016 A 
ATOM      5  C   UNL d   1       2.326   0.840  -0.219  0.00  0.00     0.096 C 
ATOM      6  C   UNL d   1       1.248  -1.351   0.130  0.00  0.00     0.260 C 
ATOM      7  C   UNL d   1      -1.238  -1.452   0.099  0.00  0.00     0.054 A 
ATOM      8  C   UNL d   1      -2.553   0.584   0.039  0.00  0.00     0.037 A 
ATOM      9  N   UNL d   1       2.381  -0.554  -0.076  0.00  0.00    -0.299 N 
ATOM     10  O   UNL d   1       1.274  -2.562   0.303  0.00  0.00    -0.267 OA
ATOM     11  C   UNL d   1      -2.479  -0.812   0.046  0.00  0.00     0.103 A 
ENDROOT
BRANCH   2  12
ATOM     12  C   UNL d   1       1.145   2.979  -0.132  0.00  0.00     0.047 A 
ATOM     13  N   UNL d   1       1.290   3.639   1.046  0.00  0.00    -0.355 N 
ATOM     14  C   UNL d   1       1.289   4.986   1.024  0.00  0.00     0.043 A 
ATOM     15  HN  UNL d   1       1.398   3.129   1.922  1.00  0.00     0.166 HD
ATOM     16  C   UNL d   1       1.157   5.719  -0.173  0.00  0.00    -0.009 A 
ATOM     17  C   UNL d   1       1.422   5.697   2.212  0.00  0.00     0.030 A 
ATOM     18  C   UNL d   1       1.169   7.125  -0.155  0.00  0.00     0.013 A 
ATOM     19  C   UNL d   1       1.004   5.011  -1.369  0.00  0.00     0.016 A 
ATOM     20  C   UNL d   1       1.295   7.811   1.050  0.00  0.00     0.001 A 
ATOM     21  C   UNL d   1       1.417   7.098   2.237  0.00  0.00     0.002 A 
ATOM     22  C   UNL d   1       0.991   3.623  -1.352  0.00  0.00     0.031 A 
ENDBRANCH   2  12
BRANCH   5  23
ATOM     23  N   UNL d   1       3.464   1.562  -0.547  0.00  0.00    -0.288 NA
ATOM     24  H   UNL d   1       4.305   1.026  -0.700  0.00  0.00     0.125 HD
ATOM     25  H   UNL d   1       3.606   2.379   0.046  0.00  0.00     0.125 HD
ENDBRANCH   5  23
BRANCH   9  26
ATOM     26  C   UNL d   1       3.668  -1.274  -0.077  0.00  0.00     0.172 C 
BRANCH  26  27
ATOM     27  C   UNL d   1       4.168  -1.583  -1.472  0.00  0.00    -0.040 A 
ATOM     28  C   UNL d   1       5.435  -1.151  -1.891  0.00  0.00     0.009 A 
ATOM     29  C   UNL d   1       5.832  -1.316  -3.219  0.00  0.00     0.001 A 
ATOM     30  C   UNL d   1       4.982  -1.939  -4.131  0.00  0.00     0.000 A 
ATOM     31  C   UNL d   1       3.760  -2.449  -3.705  0.00  0.00     0.001 A 
ATOM     32  C   UNL d   1       3.362  -2.286  -2.379  0.00  0.00     0.009 A 
ENDBRANCH  26  27
ENDBRANCH   9  26
BRANCH  11  33
ATOM     33  N   UNL d   1      -3.712  -1.606  -0.024  0.00  0.00    -0.116 N 
ATOM     34  O   UNL d   1      -3.607  -2.840  -0.009  0.00  0.00    -0.532 OA
ATOM     35  O   UNL d   1      -4.786  -0.993  -0.106  0.00  0.00    -0.532 OA
ENDBRANCH  11  33
TORSDOF 5
