REMARK  3 active torsions:
REMARK  status: ('A' for Active; 'I' for Inactive)
REMARK    1  A    between atoms: N_3  and  C_1 
REMARK    2  A    between atoms: C_2  and  C_4 
REMARK       I    between atoms: C_4  and  N_3 
REMARK    3  A    between atoms: C_16  and  C_9 
ROOT
ATOM      1  C   UNL d   1      -2.860  -1.821  -0.636  0.00  0.00     0.113 C 
ATOM      2  C   UNL d   1      -3.937  -2.269   0.042  0.00  0.00     0.039 C 
ATOM      3  C   UNL d   1      -2.159  -2.618  -1.580  0.00  0.00     0.105 C 
ATOM      4  N   UNL d   1      -1.543  -3.216  -2.361  0.00  0.00    -0.191 NA
ENDROOT
BRANCH   1   5
ATOM      5  C   UNL d   1      -2.386  -0.428  -0.297  0.00  0.00     0.267 C 
ATOM      6  N   UNL d   1      -1.273   0.015  -0.990  0.00  0.00    -0.307 N 
ATOM      7  H   UNL d   1      -0.754  -0.637  -1.570  0.00  0.00     0.170 HD
ATOM      8  O   UNL d   1      -2.954   0.204   0.591  0.00  0.00    -0.266 OA
BRANCH   6   9
ATOM      9  C   UNL d   1      -0.617   1.221  -0.752  0.00  0.00     0.125 C 
ATOM     10  N   UNL d   1      -1.074   2.385  -0.160  0.00  0.00    -0.281 N 
ATOM     11  N   UNL d   1      -0.095   3.308   0.002  0.00  0.00    -0.308 N 
ATOM     12  C   UNL d   1      -2.422   2.828   0.112  0.00  0.00     0.179 C 
ATOM     13  C   UNL d   1       0.964   2.771  -0.596  0.00  0.00     0.111 C 
ATOM     14  HN  UNL d   1      -0.157   4.210   0.476  1.00  0.00     0.186 HD
ATOM     15  C   UNL d   1       0.688   1.498  -1.115  0.00  0.00     0.068 C 
ENDBRANCH   6   9
ENDBRANCH   1   5
BRANCH   2  16
ATOM     16  C   UNL d   1      -4.505  -3.620  -0.004  0.00  0.00    -0.035 A 
ATOM     17  C   UNL d   1      -4.167  -4.521   1.013  0.00  0.00     0.013 A 
ATOM     18  C   UNL d   1      -4.756  -5.787   1.060  0.00  0.00     0.023 A 
ATOM     19  C   UNL d   1      -5.691  -6.163   0.094  0.00  0.00     0.044 A 
ATOM     20  C   UNL d   1      -6.328  -7.447   0.171  0.00  0.00     0.099 C 
ATOM     21  C   UNL d   1      -6.019  -5.269  -0.934  0.00  0.00     0.023 A 
ATOM     22  N   UNL d   1      -6.847  -8.482   0.245  0.00  0.00    -0.191 NA
ATOM     23  C   UNL d   1      -5.425  -4.001  -0.985  0.00  0.00     0.013 A 
ENDBRANCH   2  16
TORSDOF 3
