REMARK  8 active torsions:
REMARK  status: ('A' for Active; 'I' for Inactive)
REMARK    1  A    between atoms: C_4  and  C_1 
REMARK    2  A    between atoms: O_16  and  C_1 
REMARK       I    between atoms: C_2  and  N_6 
REMARK    3  A    between atoms: C_19  and  C_2 
REMARK    4  A    between atoms: C_3  and  C_20 
REMARK    5  A    between atoms: N_6  and  C_15 
REMARK    6  A    between atoms: S_14  and  C_19 
REMARK    7  A    between atoms: C_20  and  S_14 
REMARK    8  A    between atoms: C_21  and  O_16 
ROOT
ATOM      1  C   UNL d   1      -2.967   4.687   2.605  0.00  0.00     0.231 C 
ATOM      2  N   UNL d   1      -2.088   4.604   1.533  0.00  0.00    -0.327 N 
ATOM      3  O   UNL d   1      -3.171   3.808   3.439  0.00  0.00    -0.272 OA
ATOM      4  H   UNL d   1      -1.917   5.456   1.010  0.00  0.00     0.169 HD
ENDROOT
BRANCH   2   5
ATOM      5  C   UNL d   1      -1.365   3.453   1.147  0.00  0.00     0.034 A 
ATOM      6  C   UNL d   1      -1.677   2.173   1.612  0.00  0.00     0.030 A 
ATOM      7  C   UNL d   1      -0.910   1.064   1.244  0.00  0.00     0.020 A 
ATOM      8  C   UNL d   1       0.190   1.216   0.396  0.00  0.00     0.039 A 
ATOM      9  C   UNL d   1       0.482   2.490  -0.110  0.00  0.00     0.020 A 
ATOM     10  C   UNL d   1      -0.297   3.600   0.253  0.00  0.00     0.030 A 
BRANCH   8  11
ATOM     11  C   UNL d   1       1.055   0.065   0.014  0.00  0.00     0.293 C 
ATOM     12  O   UNL d   1       1.960   0.152  -0.804  0.00  0.00    -0.259 OA
BRANCH  11  13
ATOM     13  O   UNL d   1       0.707  -1.050   0.701  0.00  0.00    -0.318 OA
BRANCH  13  14
ATOM     14  C   UNL d   1       1.450  -2.243   0.399  0.00  0.00     0.174 C 
ATOM     15  C   UNL d   1       2.731  -2.303   1.212  0.00  0.00     0.034 C 
ENDBRANCH  13  14
ENDBRANCH  11  13
ENDBRANCH   8  11
ENDBRANCH   2   5
BRANCH   1  16
ATOM     16  C   UNL d   1      -3.678   6.021   2.737  0.00  0.00     0.177 C 
BRANCH  16  17
ATOM     17  S   UNL d   1      -4.692   6.394   1.277  0.00  0.00    -0.153 SA
BRANCH  17  18
ATOM     18  C   UNL d   1      -5.784   4.924   1.294  0.00  0.00     0.139 C 
BRANCH  18  19
ATOM     19  C   UNL d   1      -6.750   4.988   0.167  0.00  0.00     0.061 A 
ATOM     20  O   UNL d   1      -6.667   3.990  -0.762  0.00  0.00    -0.326 OA
ATOM     21  C   UNL d   1      -7.620   4.236  -1.697  0.00  0.00     0.142 A 
ATOM     22  C   UNL d   1      -8.321   5.376  -1.382  0.00  0.00     0.027 A 
ATOM     23  C   UNL d   1      -7.767   5.858  -0.172  0.00  0.00     0.035 A 
ENDBRANCH  18  19
ENDBRANCH  17  18
ENDBRANCH  16  17
ENDBRANCH   1  16
TORSDOF 8
