REMARK  6 active torsions:
REMARK  status: ('A' for Active; 'I' for Inactive)
REMARK    1  A    between atoms: C_4  and  C_14 
REMARK    2  A    between atoms: O_18  and  C_7 
REMARK    3  A    between atoms: C_20  and  C_8 
REMARK    4  A    between atoms: N_15  and  C_21 
REMARK    5  A    between atoms: C_22  and  C_20 
REMARK    6  A    between atoms: C_21  and  C_22 
ROOT
ATOM      1  C   UNL d   1      -1.465   6.182   3.458  0.00  0.00     0.097 C 
ATOM      2  N   UNL d   1      -1.506   5.393   2.440  0.00  0.00    -0.398 N 
ATOM      3  HN  UNL d   1      -2.122   5.550   1.642  1.00  0.00     0.158 HD
ENDROOT
BRANCH   2   4
ATOM      4  C   UNL d   1      -0.594   4.253   2.526  0.00  0.00     0.119 C 
BRANCH   4   5
ATOM      5  C   UNL d   1      -0.784   3.412   1.264  0.00  0.00     0.021 C 
BRANCH   5   6
ATOM      6  C   UNL d   1      -0.492   4.167  -0.041  0.00  0.00     0.021 C 
BRANCH   6   7
ATOM      7  C   UNL d   1       0.907   4.766  -0.125  0.00  0.00     0.119 A 
ATOM      8  C   UNL d   1       2.002   3.729  -0.122  0.00  0.00     0.245 A 
ATOM      9  N   UNL d   1       2.604   3.845  -1.361  0.00  0.00    -0.270 N 
ATOM     10  O   UNL d   1       2.299   2.957   0.773  0.00  0.00    -0.271 OA
ATOM     11  N   UNL d   1       2.096   4.829  -2.161  0.00  0.00    -0.312 N 
ATOM     12  H   UNL d   1       3.386   3.275  -1.664  0.00  0.00     0.190 HD
ATOM     13  C   UNL d   1       1.135   5.372  -1.484  0.00  0.00     0.094 A 
ATOM     14  HN  UNL d   1       2.409   5.084  -3.098  1.00  0.00     0.185 HD
ENDBRANCH   6   7
ENDBRANCH   5   6
ENDBRANCH   4   5
ENDBRANCH   2   4
BRANCH   1  15
ATOM     15  C   UNL d   1      -2.333   7.375   3.516  0.00  0.00     0.015 A 
ATOM     16  C   UNL d   1      -2.261   8.251   4.601  0.00  0.00     0.099 A 
ATOM     17  C   UNL d   1      -3.085   9.381   4.629  0.00  0.00     0.069 A 
ATOM     18 CL   UNL d   1      -3.006  10.480   5.957  0.00  0.00    -0.081 Cl
ATOM     19  C   UNL d   1      -3.976   9.639   3.587  0.00  0.00     0.050 A 
ATOM     20  C   UNL d   1      -4.044   8.757   2.512  0.00  0.00     0.036 A 
ATOM     21  C   UNL d   1      -3.230   7.626   2.469  0.00  0.00     0.039 A 
ATOM     22 CL   UNL d   1      -5.138   9.068   1.222  0.00  0.00    -0.084 Cl
BRANCH  16  23
ATOM     23  O   UNL d   1      -1.383   7.997   5.621  0.00  0.00    -0.358 OA
ATOM     24  H   UNL d   1      -1.480   8.710   6.283  0.00  0.00     0.217 HD
ENDBRANCH  16  23
ENDBRANCH   1  15
TORSDOF 6
