REMARK  8 active torsions:
REMARK  status: ('A' for Active; 'I' for Inactive)
REMARK    1  A    between atoms: S_3  and  C_1 
REMARK    2  A    between atoms: C_7  and  C_2 
REMARK    3  A    between atoms: N_8  and  S_3 
REMARK    4  A    between atoms: C_9  and  C_4 
REMARK    5  A    between atoms: O_16  and  C_7 
REMARK    6  A    between atoms: C_15  and  N_8 
REMARK    7  A    between atoms: C_22  and  C_15 
REMARK    8  A    between atoms: C_23  and  O_16 
ROOT
ATOM      1  C   UNL d   1      -1.649  -0.803   0.021  0.00  0.00     0.127 A 
ATOM      2  C   UNL d   1      -0.311  -1.331   0.000  0.00  0.00     0.094 A 
ATOM      3  C   UNL d   1      -1.547   0.584   0.024  0.00  0.00     0.110 A 
ATOM      4  O   UNL d   1      -0.213   0.909   0.029  0.00  0.00    -0.312 OA
ATOM      5  C   UNL d   1       0.521  -0.229   0.026  0.00  0.00     0.068 A 
ATOM      6  C   UNL d   1       1.989  -0.036   0.005  0.00  0.00     0.078 C 
ENDROOT
BRANCH   1   7
ATOM      7  S   UNL d   1      -3.088  -1.746   0.065  0.00  0.00     0.245 S 
ATOM      8  O   UNL d   1      -3.795  -1.383  -1.142  0.00  0.00    -0.206 OA
ATOM      9  O   UNL d   1      -2.698  -3.103   0.347  0.00  0.00    -0.206 OA
BRANCH   7  10
ATOM     10  N   UNL d   1      -4.036  -1.247   1.371  0.00  0.00    -0.211 NA
ATOM     11  H   UNL d   1      -5.025  -1.320   1.134  0.00  0.00     0.140 HD
BRANCH  10  12
ATOM     12  C   UNL d   1      -3.705  -1.912   2.641  0.00  0.00     0.143 C 
BRANCH  12  13
ATOM     13  C   UNL d   1      -4.520  -1.383   3.793  0.00  0.00    -0.044 A 
ATOM     14  C   UNL d   1      -5.501  -2.186   4.395  0.00  0.00     0.008 A 
ATOM     15  C   UNL d   1      -6.204  -1.727   5.510  0.00  0.00     0.001 A 
ATOM     16  C   UNL d   1      -5.939  -0.461   6.027  0.00  0.00     0.000 A 
ATOM     17  C   UNL d   1      -4.986   0.355   5.419  0.00  0.00     0.001 A 
ATOM     18  C   UNL d   1      -4.282  -0.101   4.303  0.00  0.00     0.008 A 
ENDBRANCH  12  13
ENDBRANCH  10  12
ENDBRANCH   7  10
ENDBRANCH   1   7
BRANCH   2  19
ATOM     19  C   UNL d   1       0.185  -2.691  -0.065  0.00  0.00     0.297 C 
ATOM     20  O   UNL d   1       1.179  -3.066   0.544  0.00  0.00    -0.259 OA
BRANCH  19  21
ATOM     21  O   UNL d   1      -0.498  -3.431  -0.973  0.00  0.00    -0.318 OA
BRANCH  21  22
ATOM     22  C   UNL d   1       0.046  -4.716  -1.293  0.00  0.00     0.174 C 
ATOM     23  C   UNL d   1       0.738  -4.578  -2.632  0.00  0.00     0.034 C 
ENDBRANCH  21  22
ENDBRANCH  19  21
ENDBRANCH   2  19
BRANCH   3  24
ATOM     24  C   UNL d   1      -2.425   1.768   0.064  0.00  0.00    -0.001 A 
ATOM     25  C   UNL d   1      -3.822   1.695   0.029  0.00  0.00     0.016 A 
ATOM     26  C   UNL d   1      -4.625   2.834   0.178  0.00  0.00     0.024 A 
ATOM     27  C   UNL d   1      -4.038   4.083   0.327  0.00  0.00     0.034 A 
ATOM     28  C   UNL d   1      -2.656   4.204   0.302  0.00  0.00     0.024 A 
ATOM     29 CL   UNL d   1      -5.022   5.475   0.547  0.00  0.00    -0.084 Cl
ATOM     30  C   UNL d   1      -1.862   3.058   0.171  0.00  0.00     0.016 A 
ENDBRANCH   3  24
TORSDOF 8
