REMARK  5 active torsions:
REMARK  status: ('A' for Active; 'I' for Inactive)
REMARK    1  A    between atoms: C_8  and  C_1 
REMARK    2  A    between atoms: N_11  and  C_2 
REMARK    3  A    between atoms: C_6  and  C_12 
REMARK    4  A    between atoms: C_7  and  C_13 
REMARK       I    between atoms: C_10  and  N_11 
REMARK       I    between atoms: N_16  and  C_10 
REMARK    5  A    between atoms: C_15  and  N_16 
ROOT
ATOM      1  C   UNL d   1       1.712  -2.805   0.016  0.00  0.00     0.325 C 
ATOM      2  N   UNL d   1       0.481  -2.293   0.291  0.00  0.00    -0.304 N 
ATOM      3  N   UNL d   1       2.612  -1.956  -0.576  0.00  0.00    -0.309 N 
ATOM      4  O   UNL d   1       1.960  -3.942   0.417  0.00  0.00    -0.247 OA
ATOM      5  H   UNL d   1      -0.012  -2.830   0.996  0.00  0.00     0.171 HD
ATOM      6  H   UNL d   1       2.349  -0.979  -0.569  0.00  0.00     0.170 HD
ENDROOT
BRANCH   2   7
ATOM      7  C   UNL d   1      -0.210  -1.226  -0.261  0.00  0.00     0.097 C 
ATOM      8  C   UNL d   1      -1.257  -0.483   0.382  0.00  0.00     0.096 C 
ATOM      9  N   UNL d   1      -1.677   0.512  -0.414  0.00  0.00    -0.258 N 
ATOM     10  O   UNL d   1      -1.018   0.353  -1.610  0.00  0.00    -0.240 OA
ATOM     11  HN  UNL d   1      -2.350   1.241  -0.179  1.00  0.00     0.195 HD
ATOM     12  C   UNL d   1      -0.171  -0.710  -1.538  0.00  0.00     0.101 C 
ATOM     13  C   UNL d   1       0.431  -1.096  -2.831  0.00  0.00     0.081 C 
BRANCH   8  14
ATOM     14  C   UNL d   1      -1.791  -0.632   1.735  0.00  0.00     0.017 A 
ATOM     15  C   UNL d   1      -2.301  -1.844   2.232  0.00  0.00     0.046 A 
ATOM     16 CL   UNL d   1      -2.412  -3.282   1.276  0.00  0.00    -0.083 Cl
ATOM     17  C   UNL d   1      -2.775  -1.927   3.547  0.00  0.00     0.025 A 
ATOM     18  C   UNL d   1      -2.768  -0.802   4.371  0.00  0.00     0.002 A 
ATOM     19  C   UNL d   1      -2.286   0.410   3.884  0.00  0.00     0.001 A 
ATOM     20  C   UNL d   1      -1.800   0.494   2.577  0.00  0.00     0.015 A 
ENDBRANCH   8  14
ENDBRANCH   2   7
BRANCH   3  21
ATOM     21  C   UNL d   1       3.924  -2.268  -0.990  0.00  0.00     0.037 A 
ATOM     22  C   UNL d   1       4.410  -3.574  -1.073  0.00  0.00     0.045 A 
ATOM     23  C   UNL d   1       5.695  -3.844  -1.575  0.00  0.00     0.050 A 
ATOM     24  C   UNL d   1       6.512  -2.774  -1.965  0.00  0.00     0.032 A 
ATOM     25  C   UNL d   1       6.046  -1.453  -1.887  0.00  0.00     0.050 A 
ATOM     26  C   UNL d   1       4.752  -1.212  -1.389  0.00  0.00     0.045 A 
BRANCH  23  27
ATOM     27  C   UNL d   1       6.157  -5.277  -1.705  0.00  0.00     0.417 C 
ATOM     28  F   UNL d   1       7.242  -5.415  -2.520  0.00  0.00    -0.166 F 
ATOM     29  F   UNL d   1       6.512  -5.827  -0.513  0.00  0.00    -0.166 F 
ATOM     30  F   UNL d   1       5.199  -6.089  -2.230  0.00  0.00    -0.166 F 
ENDBRANCH  23  27
BRANCH  25  31
ATOM     31  C   UNL d   1       6.903  -0.298  -2.350  0.00  0.00     0.417 C 
ATOM     32  F   UNL d   1       8.016  -0.688  -3.031  0.00  0.00    -0.166 F 
ATOM     33  F   UNL d   1       6.229   0.539  -3.188  0.00  0.00    -0.166 F 
ATOM     34  F   UNL d   1       7.340   0.474  -1.321  0.00  0.00    -0.166 F 
ENDBRANCH  25  31
ENDBRANCH   3  21
TORSDOF 5
