REMARK  4 active torsions:
REMARK  status: ('A' for Active; 'I' for Inactive)
REMARK    1  A    between atoms: N_4  and  S_1 
REMARK    2  A    between atoms: C_10  and  S_1 
REMARK    3  A    between atoms: C_3  and  N_5 
REMARK    4  A    between atoms: N_5  and  N_4 
ROOT
ATOM      1  N   UNL d   1       0.984  -0.819  -2.465  0.00  0.00    -0.275 N 
ATOM      2  H   UNL d   1       1.865  -0.312  -2.547  0.00  0.00     0.189 HD
ENDROOT
BRANCH   1   3
ATOM      3  C   UNL d   1       0.530  -1.484  -3.602  0.00  0.00     0.141 A 
ATOM      4  C   UNL d   1       1.232  -1.424  -4.812  0.00  0.00     0.077 A 
ATOM      5  S   UNL d   1       2.688  -0.585  -5.196  0.00  0.00    -0.096 SA
ATOM      6  C   UNL d   1       0.749  -2.113  -5.918  0.00  0.00     0.054 A 
ATOM      7  C   UNL d   1       2.671  -1.142  -6.810  0.00  0.00     0.053 A 
ATOM      8  C   UNL d   1       1.586  -1.950  -7.062  0.00  0.00     0.038 A 
ATOM      9  N   UNL d   1      -0.387  -2.848  -5.879  0.00  0.00    -0.351 N 
ATOM     10  C   UNL d   1      -0.997  -2.845  -4.688  0.00  0.00     0.182 A 
ATOM     11  HN  UNL d   1      -0.747  -3.359  -6.686  1.00  0.00     0.166 HD
ATOM     12  N   UNL d   1      -0.611  -2.215  -3.566  0.00  0.00    -0.336 N 
ATOM     13  HN  UNL d   1      -1.162  -2.284  -2.710  1.00  0.00     0.168 HD
ENDBRANCH   1   3
BRANCH   1  14
ATOM     14  N   UNL d   1       0.324  -0.796  -1.166  0.00  0.00    -0.221 N 
ATOM     15  H   UNL d   1      -0.565  -1.282  -1.031  0.00  0.00     0.200 HD
BRANCH  14  16
ATOM     16  S   UNL d   1       1.053   0.087   0.077  0.00  0.00     0.276 S 
ATOM     17  O   UNL d   1       0.981   1.486  -0.285  0.00  0.00    -0.199 OA
ATOM     18  O   UNL d   1       2.329  -0.533   0.364  0.00  0.00    -0.199 OA
BRANCH  16  19
ATOM     19  C   UNL d   1      -0.010  -0.175   1.474  0.00  0.00     0.081 A 
ATOM     20  C   UNL d   1       0.249  -1.240   2.345  0.00  0.00     0.027 A 
ATOM     21  C   UNL d   1      -0.480  -1.354   3.531  0.00  0.00     0.025 A 
ATOM     22  C   UNL d   1      -1.454  -0.404   3.843  0.00  0.00     0.034 A 
ATOM     23  C   UNL d   1      -1.715   0.655   2.973  0.00  0.00     0.025 A 
ATOM     24 CL   UNL d   1      -2.317  -0.522   5.326  0.00  0.00    -0.084 Cl
ATOM     25  C   UNL d   1      -0.990   0.775   1.784  0.00  0.00     0.027 A 
ENDBRANCH  16  19
ENDBRANCH  14  16
ENDBRANCH   1  14
TORSDOF 4
