REMARK  6 active torsions:
REMARK  status: ('A' for Active; 'I' for Inactive)
REMARK    1  A    between atoms: C_7  and  C_1 
REMARK    2  A    between atoms: N_14  and  C_3 
REMARK    3  A    between atoms: C_9  and  C_7 
REMARK    4  A    between atoms: C_12  and  C_7 
REMARK    5  A    between atoms: N_8  and  C_9 
REMARK    6  A    between atoms: O_23  and  C_20 
ROOT
ATOM      1  C   UNL d   1      -0.091   1.503  -0.174  0.00  0.00     0.059 C 
ATOM      2  N   UNL d   1      -0.691  -0.654   0.621  0.00  0.00    -0.294 N 
ATOM      3  C   UNL d   1      -0.707   0.733   0.765  0.00  0.00     0.096 C 
ATOM      4  N   UNL d   1       0.205  -0.480  -1.541  0.00  0.00    -0.270 N 
ATOM      5  C   UNL d   1      -0.290  -1.296  -0.552  0.00  0.00     0.332 C 
ATOM      6  C   UNL d   1       0.685   0.752  -1.202  0.00  0.00     0.261 C 
ATOM      7  O   UNL d   1      -0.338  -2.523  -0.681  0.00  0.00    -0.246 OA
ATOM      8  O   UNL d   1       1.701   1.240  -1.689  0.00  0.00    -0.267 OA
ATOM      9  C   UNL d   1      -1.259  -1.546   1.624  0.00  0.00     0.162 C 
ATOM     10  C   UNL d   1       0.712  -1.115  -2.740  0.00  0.00     0.164 C 
ENDROOT
BRANCH   1  11
ATOM     11  C   UNL d   1       0.020   3.048  -0.197  0.00  0.00     0.084 C 
BRANCH  11  12
ATOM     12  C   UNL d   1       0.784   3.772  -1.332  0.00  0.00     0.215 C 
BRANCH  12  13
ATOM     13  N   UNL d   1       0.220   3.555  -2.708  0.00  0.00    -0.155 N 
ATOM     14  O   UNL d   1       0.825   4.108  -3.633  0.00  0.00    -0.537 OA
ATOM     15  O   UNL d   1      -0.801   2.866  -2.840  0.00  0.00    -0.537 OA
ENDBRANCH  12  13
ENDBRANCH  11  12
BRANCH  11  16
ATOM     16  C   UNL d   1      -1.272   3.830   0.112  0.00  0.00    -0.047 A 
ATOM     17  C   UNL d   1      -1.198   5.041   0.829  0.00  0.00     0.011 A 
ATOM     18  C   UNL d   1      -2.356   5.744   1.179  0.00  0.00     0.037 A 
ATOM     19  C   UNL d   1      -3.608   5.245   0.829  0.00  0.00     0.068 A 
ATOM     20  C   UNL d   1      -3.691   4.079   0.069  0.00  0.00     0.037 A 
ATOM     21  C   UNL d   1      -2.537   3.380  -0.291  0.00  0.00     0.011 A 
BRANCH  19  22
ATOM     22  O   UNL d   1      -4.801   5.836   1.137  0.00  0.00    -0.356 OA
ATOM     23  C   UNL d   1      -4.836   6.504   2.394  0.00  0.00     0.210 C 
ENDBRANCH  19  22
ENDBRANCH  11  16
ENDBRANCH   1  11
BRANCH   3  24
ATOM     24  N   UNL d   1      -1.346   1.286   1.858  0.00  0.00    -0.288 NA
ATOM     25  H   UNL d   1      -1.097   0.844   2.738  0.00  0.00     0.125 HD
ATOM     26  H   UNL d   1      -1.300   2.296   1.944  0.00  0.00     0.125 HD
ENDBRANCH   3  24
TORSDOF 6
