REMARK  2 active torsions:
REMARK  status: ('A' for Active; 'I' for Inactive)
REMARK    1  A    between atoms: C_12  and  N_1 
REMARK    2  A    between atoms: C_10  and  C_15 
ROOT
ATOM      1  N   UNL d   1      -2.264   0.135   0.210  0.00  0.00    -0.252 N 
ATOM      2  C   UNL d   1      -1.530   1.245   0.592  0.00  0.00     0.236 A 
ATOM      3  C   UNL d   1      -1.462  -0.981   0.056  0.00  0.00     0.236 A 
ATOM      4  C   UNL d   1      -0.076   0.853   0.781  0.00  0.00     0.100 A 
ATOM      5  C   UNL d   1      -0.041  -0.615   0.350  0.00  0.00     0.100 A 
ATOM      6  C   UNL d   1       0.884   1.546  -0.225  0.00  0.00     0.028 C 
ATOM      7  C   UNL d   1       0.812  -0.583  -0.926  0.00  0.00     0.023 C 
ATOM      8  C   UNL d   1       2.288   0.967  -0.107  0.00  0.00    -0.082 C 
ATOM      9  C   UNL d   1       2.231  -0.319  -0.494  0.00  0.00    -0.018 C 
ATOM     10  C   UNL d   1       0.511   0.813  -1.519  0.00  0.00     0.019 C 
ATOM     11  O   UNL d   1      -1.763  -2.099  -0.343  0.00  0.00    -0.272 OA
ATOM     12  O   UNL d   1      -1.916   2.398   0.773  0.00  0.00    -0.272 OA
ATOM     13  C   UNL d   1       3.527   1.762   0.069  0.00  0.00     0.043 C 
ENDROOT
BRANCH   1  14
ATOM     14  C   UNL d   1      -3.667   0.129  -0.076  0.00  0.00     0.045 A 
ATOM     15  C   UNL d   1      -4.408  -1.066  -0.040  0.00  0.00     0.031 A 
ATOM     16  C   UNL d   1      -5.780  -1.095  -0.328  0.00  0.00     0.018 A 
ATOM     17  C   UNL d   1      -6.462   0.074  -0.667  0.00  0.00     0.048 A 
ATOM     18  C   UNL d   1      -5.736   1.271  -0.718  0.00  0.00     0.018 A 
ATOM     19  C   UNL d   1      -4.362   1.298  -0.416  0.00  0.00     0.031 A 
BRANCH  17  20
ATOM     20  C   UNL d   1      -7.941   0.055  -0.968  0.00  0.00     0.417 C 
ATOM     21  F   UNL d   1      -8.508  -1.177  -0.836  0.00  0.00    -0.166 F 
ATOM     22  F   UNL d   1      -8.650   0.878  -0.146  0.00  0.00    -0.166 F 
ATOM     23  F   UNL d   1      -8.224   0.460  -2.237  0.00  0.00    -0.166 F 
ENDBRANCH  17  20
ENDBRANCH   1  14
TORSDOF 2
