REMARK  4 active torsions:
REMARK  status: ('A' for Active; 'I' for Inactive)
REMARK    1  A    between atoms: C_11  and  C_3 
REMARK    2  A    between atoms: C_12  and  C_4 
REMARK    3  A    between atoms: C_8  and  N_5 
REMARK    4  A    between atoms: N_9  and  C_12 
ROOT
ATOM      1  C   UNL d   1       0.070  -2.374  -0.242  0.00  0.00     0.337 C 
ENDROOT
BRANCH   1   2
ATOM      2  N   UNL d   1       1.166  -3.290   0.117  0.00  0.00     0.097 N 
ATOM      3  C   UNL d   1       2.237  -3.351  -0.911  0.00  0.00     0.292 C 
ATOM      4  C   UNL d   1       3.223  -2.154  -0.970  0.00  0.00     0.153 C 
ATOM      5  N   UNL d   1       3.746  -1.857   0.379  0.00  0.00    -0.377 N 
ATOM      6  C   UNL d   1       2.701  -1.656   1.388  0.00  0.00     0.153 C 
ATOM      7  C   UNL d   1       1.771  -2.896   1.415  0.00  0.00     0.292 C 
BRANCH   5   8
ATOM      8  C   UNL d   1       4.985  -1.235   0.499  0.00  0.00     0.031 A 
ATOM      9  C   UNL d   1       6.112  -1.802  -0.115  0.00  0.00     0.053 A 
ATOM     10  C   UNL d   1       7.389  -1.261   0.058  0.00  0.00     0.036 A 
ATOM     11 CL   UNL d   1       8.746  -2.023  -0.676  0.00  0.00    -0.084 Cl
ATOM     12  C   UNL d   1       7.577  -0.127   0.838  0.00  0.00     0.024 A 
ATOM     13  C   UNL d   1       6.474   0.465   1.445  0.00  0.00     0.004 A 
ATOM     14  C   UNL d   1       5.195  -0.085   1.279  0.00  0.00     0.029 A 
ENDBRANCH   5   8
ENDBRANCH   1   2
BRANCH   1  15
ATOM     15  C   UNL d   1      -0.779  -2.810  -1.413  0.00  0.00     0.079 A 
ATOM     16  N   UNL d   1      -0.726  -2.253  -2.606  0.00  0.00    -0.351 N 
ATOM     17  C   UNL d   1      -1.769  -2.709  -3.405  0.00  0.00     0.049 A 
ATOM     18  HN  UNL d   1      -0.018  -1.582  -2.902  1.00  0.00     0.166 HD
ATOM     19  C   UNL d   1      -2.564  -3.669  -2.814  0.00  0.00     0.081 A 
ATOM     20  S   UNL d   1      -2.011  -3.997  -1.221  0.00  0.00    -0.085 SA
BRANCH  17  21
ATOM     21  C   UNL d   1      -1.980  -2.133  -4.740  0.00  0.00    -0.009 A 
ATOM     22  C   UNL d   1      -1.093  -1.148  -5.203  0.00  0.00     0.014 A 
ATOM     23  C   UNL d   1      -1.269  -0.542  -6.452  0.00  0.00     0.007 A 
ATOM     24  C   UNL d   1      -2.337  -0.913  -7.272  0.00  0.00    -0.062 A 
ATOM     25  C   UNL d   1      -3.229  -1.889  -6.818  0.00  0.00     0.007 A 
ATOM     26  C   UNL d   1      -2.515  -0.258  -8.609  0.00  0.00     0.048 C 
ATOM     27  C   UNL d   1      -3.051  -2.497  -5.568  0.00  0.00     0.014 A 
ENDBRANCH  17  21
ENDBRANCH   1  15
TORSDOF 4
