REMARK  5 active torsions:
REMARK  status: ('A' for Active; 'I' for Inactive)
REMARK       I    between atoms: N_3  and  C_1 
REMARK    1  A    between atoms: C_4  and  C_1 
REMARK    2  A    between atoms: C_2  and  C_5 
REMARK       I    between atoms: N_8  and  C_2 
REMARK    3  A    between atoms: C_11  and  N_3 
REMARK    4  A    between atoms: N_15  and  N_8 
REMARK    5  A    between atoms: C_14  and  C_11 
ROOT
ATOM      1  C   UNL d   1      -1.545  -1.559  -5.877  0.00  0.00     0.033 A 
ATOM      2  C   UNL d   1      -0.936  -2.611  -5.183  0.00  0.00     0.017 A 
ATOM      3  C   UNL d   1      -1.318  -0.239  -5.471  0.00  0.00     0.017 A 
ATOM      4  C   UNL d   1       0.108  -1.028  -3.664  0.00  0.00    -0.040 A 
ATOM      5  C   UNL d   1      -0.116  -2.347  -4.083  0.00  0.00     0.010 A 
ATOM      6  C   UNL d   1      -0.493   0.023  -4.373  0.00  0.00     0.010 A 
ENDROOT
BRANCH   4   7
ATOM      7  C   UNL d   1       1.021  -0.742  -2.502  0.00  0.00     0.161 C 
BRANCH   7   8
ATOM      8  N   UNL d   1       2.382  -0.547  -2.938  0.00  0.00    -0.355 N 
ATOM      9  C   UNL d   1       3.386  -0.263  -2.029  0.00  0.00     0.251 C 
ATOM     10  O   UNL d   1       3.152  -0.128  -0.828  0.00  0.00    -0.271 OA
ATOM     11  H   UNL d   1       2.621  -0.717  -3.910  0.00  0.00     0.162 HD
BRANCH   9  12
ATOM     12  C   UNL d   1       4.798  -0.118  -2.596  0.00  0.00     0.269 C 
ATOM     13 CL   UNL d   1       5.260  -1.621  -3.423  0.00  0.00    -0.098 Cl
ATOM     14 CL   UNL d   1       4.841   1.254  -3.723  0.00  0.00    -0.098 Cl
ENDBRANCH   9  12
ENDBRANCH   7   8
ENDBRANCH   4   7
BRANCH   1  15
ATOM     15  C   UNL d   1      -2.374  -1.881  -7.070  0.00  0.00     0.265 C 
ATOM     16  O   UNL d   1      -2.146  -2.887  -7.738  0.00  0.00    -0.266 OA
ATOM     17  N   UNL d   1      -3.410  -0.999  -7.359  0.00  0.00    -0.290 N 
ATOM     18  H   UNL d   1      -3.723  -0.332  -6.657  0.00  0.00     0.183 HD
BRANCH  17  19
ATOM     19  N   UNL d   1      -4.279  -1.298  -8.432  0.00  0.00    -0.247 NA
ATOM     20  H   UNL d   1      -4.062  -2.263  -8.725  0.00  0.00     0.143 HD
ATOM     21  H   UNL d   1      -3.989  -0.734  -9.235  0.00  0.00     0.143 HD
ENDBRANCH  17  19
ENDBRANCH   1  15
TORSDOF 5
