REMARK  4 active torsions:
REMARK  status: ('A' for Active; 'I' for Inactive)
REMARK    1  A    between atoms: C_4  and  N_1 
REMARK    2  A    between atoms: C_5  and  C_9 
REMARK    3  A    between atoms: C_6  and  C_8 
REMARK    4  A    between atoms: C_10  and  C_7 
ROOT
ATOM      1  N   UNL d   1       0.019  -0.962  -0.106  0.00  0.00    -0.252 N 
ATOM      2  C   UNL d   1       1.247  -0.283  -0.129  0.00  0.00     0.231 C 
ATOM      3  C   UNL d   1      -1.233  -0.366   0.082  0.00  0.00     0.231 C 
ATOM      4  C   UNL d   1      -0.088   1.860  -0.158  0.00  0.00     0.039 C 
ATOM      5  C   UNL d   1       1.233   1.191   0.176  0.00  0.00     0.113 C 
ATOM      6  C   UNL d   1      -1.247   1.096   0.463  0.00  0.00     0.113 C 
ATOM      7  O   UNL d   1      -2.310  -0.961  -0.016  0.00  0.00    -0.273 OA
ATOM      8  O   UNL d   1       2.346  -0.828  -0.272  0.00  0.00    -0.273 OA
ENDROOT
BRANCH   1   9
ATOM      9  C   UNL d   1       0.062  -2.391  -0.274  0.00  0.00     0.046 A 
ATOM     10  C   UNL d   1       0.824  -2.972  -1.297  0.00  0.00     0.046 A 
ATOM     11  C   UNL d   1       0.935  -4.365  -1.423  0.00  0.00     0.050 A 
ATOM     12  C   UNL d   1       0.293  -5.183  -0.477  0.00  0.00     0.032 A 
ATOM     13  C   UNL d   1      -0.465  -4.625   0.565  0.00  0.00     0.050 A 
ATOM     14  C   UNL d   1      -0.600  -3.229   0.636  0.00  0.00     0.046 A 
BRANCH  11  15
ATOM     15  C   UNL d   1       1.744  -4.981  -2.538  0.00  0.00     0.417 C 
ATOM     16  F   UNL d   1       2.296  -4.069  -3.385  0.00  0.00    -0.166 F 
ATOM     17  F   UNL d   1       2.775  -5.739  -2.075  0.00  0.00    -0.166 F 
ATOM     18  F   UNL d   1       0.995  -5.807  -3.320  0.00  0.00    -0.166 F 
ENDBRANCH  11  15
BRANCH  13  19
ATOM     19  C   UNL d   1      -1.085  -5.523   1.610  0.00  0.00     0.417 C 
ATOM     20  F   UNL d   1      -1.705  -4.846   2.615  0.00  0.00    -0.166 F 
ATOM     21  F   UNL d   1      -2.015  -6.367   1.090  0.00  0.00    -0.166 F 
ATOM     22  F   UNL d   1      -0.157  -6.316   2.216  0.00  0.00    -0.166 F 
ENDBRANCH  13  19
ENDBRANCH   1   9
BRANCH   4  23
ATOM     23  C   UNL d   1      -0.045   3.356   0.175  0.00  0.00    -0.010 A 
ATOM     24  C   UNL d   1       0.037   3.859   1.498  0.00  0.00     0.042 A 
ATOM     25 CL   UNL d   1       0.071   2.861   2.913  0.00  0.00    -0.084 Cl
ATOM     26  C   UNL d   1       0.134   5.235   1.756  0.00  0.00     0.024 A 
ATOM     27  C   UNL d   1       0.161   6.151   0.714  0.00  0.00     0.003 A 
ATOM     28  C   UNL d   1       0.085   5.692  -0.593  0.00  0.00     0.024 A 
ATOM     29  C   UNL d   1      -0.017   4.319  -0.863  0.00  0.00     0.042 A 
ATOM     30 CL   UNL d   1      -0.078   3.892  -2.542  0.00  0.00    -0.084 Cl
ENDBRANCH   4  23
TORSDOF 4
