REMARK  5 active torsions:
REMARK  status: ('A' for Active; 'I' for Inactive)
REMARK    1  A    between atoms: N_3  and  C_1 
REMARK    2  A    between atoms: C_2  and  C_5 
REMARK    3  A    between atoms: O_11  and  C_2 
REMARK    4  A    between atoms: C_10  and  N_3 
REMARK    5  A    between atoms: C_14  and  O_11 
ROOT
ATOM      1  C   UNL d   1       2.089   3.678  -3.644  0.00  0.00     0.039 A 
ATOM      2  C   UNL d   1       1.006   4.024  -2.828  0.00  0.00     0.020 A 
ATOM      3  C   UNL d   1       2.659   2.404  -3.525  0.00  0.00     0.020 A 
ATOM      4  C   UNL d   1       1.041   1.819  -1.817  0.00  0.00     0.034 A 
ATOM      5  C   UNL d   1       0.497   3.104  -1.906  0.00  0.00     0.030 A 
ATOM      6  C   UNL d   1       2.135   1.481  -2.617  0.00  0.00     0.030 A 
ENDROOT
BRANCH   4   7
ATOM      7  N   UNL d   1       0.492   0.938  -0.867  0.00  0.00    -0.334 N 
ATOM      8  H   UNL d   1       0.008   1.367  -0.085  0.00  0.00     0.168 HD
BRANCH   7   9
ATOM      9  C   UNL d   1       0.554  -0.415  -0.797  0.00  0.00     0.169 C 
ATOM     10  S   UNL d   1       0.204  -1.214   0.617  0.00  0.00    -0.041 SA
ATOM     11  N   UNL d   1       0.837  -1.110  -1.919  0.00  0.00    -0.376 N 
ATOM     12  H   UNL d   1       0.633  -0.680  -2.812  0.00  0.00     0.158 HD
ATOM     13  H   UNL d   1       0.709  -2.114  -1.878  0.00  0.00     0.158 HD
ENDBRANCH   7   9
ENDBRANCH   4   7
BRANCH   1  14
ATOM     14  C   UNL d   1       2.553   4.662  -4.658  0.00  0.00     0.293 C 
ATOM     15  O   UNL d   1       2.000   5.725  -4.869  0.00  0.00    -0.259 OA
BRANCH  14  16
ATOM     16  O   UNL d   1       3.592   4.140  -5.356  0.00  0.00    -0.318 OA
BRANCH  16  17
ATOM     17  C   UNL d   1       3.860   4.764  -6.617  0.00  0.00     0.174 C 
ATOM     18  C   UNL d   1       2.986   4.096  -7.664  0.00  0.00     0.034 C 
ENDBRANCH  16  17
ENDBRANCH  14  16
ENDBRANCH   1  14
TORSDOF 5
