REMARK  3 active torsions:
REMARK  status: ('A' for Active; 'I' for Inactive)
REMARK    1  A    between atoms: C_3  and  C_1 
REMARK       I    between atoms: N_6  and  C_3 
REMARK    2  A    between atoms: C_8  and  N_6 
REMARK    3  A    between atoms: O_21  and  C_16 
ROOT
ATOM      1  C   UNL d   1      -2.335  -0.200  -0.268  0.00  0.00     0.102 A 
ATOM      2  N   UNL d   1      -1.557   0.926  -0.087  0.00  0.00    -0.351 N 
ATOM      3  C   UNL d   1      -1.457  -1.257  -0.433  0.00  0.00     0.049 A 
ATOM      4  C   UNL d   1      -0.130  -0.762  -0.276  0.00  0.00    -0.004 A 
ATOM      5  C   UNL d   1      -0.221   0.611  -0.077  0.00  0.00     0.043 A 
ATOM      6  C   UNL d   1       1.144  -1.359  -0.277  0.00  0.00     0.050 A 
ATOM      7  C   UNL d   1       0.902   1.425   0.098  0.00  0.00     0.033 A 
ATOM      8  C   UNL d   1       2.286  -0.571  -0.081  0.00  0.00     0.069 A 
ATOM      9  C   UNL d   1       2.160   0.807   0.093  0.00  0.00     0.039 A 
ATOM     10  H   UNL d   1      -1.945   1.850   0.055  0.00  0.00     0.166 HD
ENDROOT
BRANCH   1  11
ATOM     11  C   UNL d   1      -3.781  -0.098  -0.242  0.00  0.00     0.272 C 
ATOM     12  N   UNL d   1      -4.453  -1.296  -0.395  0.00  0.00    -0.319 N 
ATOM     13  H   UNL d   1      -3.898  -2.135  -0.312  0.00  0.00     0.169 HD
ATOM     14  O   UNL d   1      -4.306   0.987  -0.018  0.00  0.00    -0.266 OA
BRANCH  12  15
ATOM     15  C   UNL d   1      -5.859  -1.464  -0.373  0.00  0.00     0.074 A 
ATOM     16  C   UNL d   1      -6.787  -0.457  -0.674  0.00  0.00     0.144 A 
ATOM     17  C   UNL d   1      -8.157  -0.664  -0.526  0.00  0.00     0.062 A 
ATOM     18  F   UNL d   1      -6.406   0.716  -1.195  0.00  0.00    -0.204 F 
ATOM     19  C   UNL d   1      -8.622  -1.905  -0.103  0.00  0.00     0.009 A 
ATOM     20  C   UNL d   1      -7.725  -2.947   0.126  0.00  0.00     0.020 A 
ATOM     21  I   UNL d   1     -10.657  -2.200   0.181  0.00  0.00    -0.044 I 
ATOM     22  C   UNL d   1      -6.348  -2.730  -0.019  0.00  0.00     0.034 A 
ENDBRANCH  12  15
ENDBRANCH   1  11
BRANCH   8  23
ATOM     23  O   UNL d   1       3.458  -1.279  -0.079  0.00  0.00    -0.356 OA
ATOM     24  C   UNL d   1       4.657  -0.546   0.134  0.00  0.00     0.210 C 
ENDBRANCH   8  23
TORSDOF 3
