REMARK  8 active torsions:
REMARK  status: ('A' for Active; 'I' for Inactive)
REMARK    1  A    between atoms: C_2  and  S_1 
REMARK    2  A    between atoms: N_9  and  S_1 
REMARK    3  A    between atoms: N_4  and  C_3 
REMARK    4  A    between atoms: C_16  and  N_9 
REMARK    5  A    between atoms: C_10  and  C_15 
REMARK    6  A    between atoms: O_14  and  C_10 
REMARK    7  A    between atoms: C_15  and  C_17 
REMARK    8  A    between atoms: C_17  and  C_16 
ROOT
ATOM      1  S   UNL d   1       0.913  -0.168   0.134  0.00  0.00     0.261 S 
ATOM      2  O   UNL d   1       0.340  -0.027   1.451  0.00  0.00    -0.200 OA
ATOM      3  O   UNL d   1       0.646   0.828  -0.879  0.00  0.00    -0.200 OA
ENDROOT
BRANCH   1   4
ATOM      4  C   UNL d   1       0.400  -1.736  -0.511  0.00  0.00     0.112 A 
ATOM      5  C   UNL d   1       0.105  -2.810   0.329  0.00  0.00     0.126 A 
ATOM      6  C   UNL d   1      -0.508  -3.970  -0.171  0.00  0.00     0.038 A 
ATOM      7  C   UNL d   1      -0.803  -4.056  -1.532  0.00  0.00     0.003 A 
ATOM      8  C   UNL d   1      -0.481  -3.001  -2.386  0.00  0.00     0.002 A 
ATOM      9  C   UNL d   1       0.103  -1.837  -1.878  0.00  0.00     0.028 A 
BRANCH   5  10
ATOM     10  N   UNL d   1       0.512  -2.815   1.722  0.00  0.00    -0.114 N 
ATOM     11  O   UNL d   1       1.712  -2.597   1.949  0.00  0.00    -0.532 OA
ATOM     12  O   UNL d   1      -0.343  -3.118   2.562  0.00  0.00    -0.532 OA
ENDBRANCH   5  10
ENDBRANCH   1   4
BRANCH   1  13
ATOM     13  N   UNL d   1       2.571  -0.299   0.322  0.00  0.00    -0.315 N 
ATOM     14  H   UNL d   1       2.815  -0.674   1.245  0.00  0.00     0.172 HD
BRANCH  13  15
ATOM     15  C   UNL d   1       3.479  -0.669  -0.773  0.00  0.00     0.133 C 
BRANCH  15  16
ATOM     16  C   UNL d   1       3.404   0.240  -1.998  0.00  0.00     0.031 C 
BRANCH  16  17
ATOM     17  C   UNL d   1       3.634   1.723  -1.699  0.00  0.00     0.111 C 
BRANCH  17  18
ATOM     18  C   UNL d   1       5.038   1.997  -1.225  0.00  0.00     0.139 C 
ATOM     19  O   UNL d   1       6.008   1.303  -1.496  0.00  0.00    -0.650 OA
BRANCH  18  20
ATOM     20  O   UNL d   1       5.138   3.124  -0.488  0.00  0.00    -0.776 OA
ATOM     21  H   UNL d   1       4.284   3.577  -0.343  0.00  0.00     0.167 HD
ENDBRANCH  18  20
ENDBRANCH  17  18
ENDBRANCH  16  17
ENDBRANCH  15  16
ENDBRANCH  13  15
ENDBRANCH   1  13
TORSDOF 8
