REMARK  9 active torsions:
REMARK  status: ('A' for Active; 'I' for Inactive)
REMARK    1  A    between atoms: N_5  and  S_1 
REMARK    2  A    between atoms: C_14  and  S_1 
REMARK    3  A    between atoms: C_10  and  C_2 
REMARK    4  A    between atoms: C_4  and  C_3 
REMARK    5  A    between atoms: N_9  and  N_5 
REMARK    6  A    between atoms: C_8  and  N_9 
REMARK    7  A    between atoms: O_23  and  C_10 
REMARK    8  A    between atoms: C_28  and  O_23 
REMARK    9  A    between atoms: O_27  and  C_24 
ROOT
ATOM      1  C   UNL d   1      -0.141   5.708   3.245  0.00  0.00     0.087 A 
ATOM      2  C   UNL d   1       1.147   5.221   3.365  0.00  0.00     0.150 A 
ATOM      3  N   UNL d   1       1.469   3.974   2.893  0.00  0.00    -0.184 N 
ATOM      4  HN  UNL d   1       2.405   3.595   3.041  1.00  0.00     0.184 HD
ATOM      5  C   UNL d   1       0.551   3.257   2.237  0.00  0.00     0.697 A 
ATOM      6  N   UNL d   1      -0.706   3.674   2.054  0.00  0.00    -0.199 N 
ATOM      7  HN  UNL d   1      -1.390   3.110   1.549  1.00  0.00     0.183 HD
ATOM      8  C   UNL d   1      -1.025   4.881   2.572  0.00  0.00     0.126 A 
ENDROOT
BRANCH   5   9
ATOM      9  N   UNL d   1       0.971   2.046   1.713  0.00  0.00    -0.122 N 
ATOM     10  H   UNL d   1       1.952   1.837   1.881  0.00  0.00     0.206 HD
BRANCH   9  11
ATOM     11  N   UNL d   1       0.282   1.284   0.686  0.00  0.00    -0.208 N 
ATOM     12  H   UNL d   1      -0.613   1.599   0.301  0.00  0.00     0.201 HD
BRANCH  11  13
ATOM     13  S   UNL d   1       0.991  -0.101   0.037  0.00  0.00     0.276 S 
ATOM     14  O   UNL d   1       2.417   0.150  -0.052  0.00  0.00    -0.199 OA
ATOM     15  O   UNL d   1       0.200  -0.519  -1.091  0.00  0.00    -0.199 OA
BRANCH  13  16
ATOM     16  C   UNL d   1       0.717  -1.259   1.356  0.00  0.00     0.081 A 
ATOM     17  C   UNL d   1      -0.594  -1.514   1.771  0.00  0.00     0.028 A 
ATOM     18  C   UNL d   1      -0.826  -2.388   2.835  0.00  0.00     0.038 A 
ATOM     19  C   UNL d   1       0.250  -3.008   3.478  0.00  0.00     0.068 A 
ATOM     20  C   UNL d   1       1.554  -2.765   3.037  0.00  0.00     0.038 A 
ATOM     21  C   UNL d   1       1.797  -1.883   1.984  0.00  0.00     0.028 A 
BRANCH  19  22
ATOM     22  O   UNL d   1       0.142  -3.894   4.514  0.00  0.00    -0.356 OA
ATOM     23  C   UNL d   1      -1.006  -3.740   5.344  0.00  0.00     0.210 C 
ENDBRANCH  19  22
ENDBRANCH  13  16
ENDBRANCH  11  13
ENDBRANCH   9  11
ENDBRANCH   5   9
BRANCH   2  24
ATOM     24  C   UNL d   1       2.321   5.984   3.941  0.00  0.00     0.434 C 
ATOM     25  F   UNL d   1       2.148   7.316   4.140  0.00  0.00    -0.165 F 
ATOM     26  F   UNL d   1       2.735   5.472   5.137  0.00  0.00    -0.165 F 
ATOM     27  F   UNL d   1       3.415   5.913   3.121  0.00  0.00    -0.165 F 
ENDBRANCH   2  24
BRANCH   1  28
ATOM     28  C   UNL d   1      -0.674   7.009   3.673  0.00  0.00     0.296 C 
ATOM     29  O   UNL d   1      -1.568   7.571   3.063  0.00  0.00    -0.259 OA
BRANCH  28  30
ATOM     30  O   UNL d   1      -0.109   7.426   4.824  0.00  0.00    -0.318 OA
BRANCH  30  31
ATOM     31  C   UNL d   1      -0.517   8.735   5.268  0.00  0.00     0.174 C 
ATOM     32  C   UNL d   1       0.119   9.834   4.429  0.00  0.00     0.034 C 
ENDBRANCH  30  31
ENDBRANCH  28  30
ENDBRANCH   1  28
TORSDOF 9
