REMARK  5 active torsions:
REMARK  status: ('A' for Active; 'I' for Inactive)
REMARK    1  A    between atoms: C_5  and  C_1 
REMARK       I    between atoms: N_10  and  C_5 
REMARK    2  A    between atoms: C_13  and  N_10 
REMARK    3  A    between atoms: O_14  and  C_11 
REMARK    4  A    between atoms: C_16  and  C_13 
REMARK    5  A    between atoms: C_15  and  C_16 
ROOT
ATOM      1  C   UNL d   1      -2.422   0.035  -0.050  0.00  0.00     0.102 A 
ATOM      2  N   UNL d   1      -1.583  -1.058   0.033  0.00  0.00    -0.351 N 
ATOM      3  C   UNL d   1      -1.609   1.154   0.001  0.00  0.00     0.049 A 
ATOM      4  C   UNL d   1      -0.260   0.726   0.120  0.00  0.00    -0.004 A 
ATOM      5  C   UNL d   1      -0.268  -0.664   0.137  0.00  0.00     0.043 A 
ATOM      6  C   UNL d   1       0.971   1.400   0.217  0.00  0.00     0.050 A 
ATOM      7  C   UNL d   1       0.906  -1.419   0.243  0.00  0.00     0.033 A 
ATOM      8  C   UNL d   1       2.161   0.669   0.331  0.00  0.00     0.069 A 
ATOM      9  C   UNL d   1       2.122  -0.725   0.340  0.00  0.00     0.039 A 
ATOM     10  H   UNL d   1      -1.910  -2.015   0.017  0.00  0.00     0.166 HD
ENDROOT
BRANCH   1  11
ATOM     11  C   UNL d   1      -3.857  -0.115  -0.167  0.00  0.00     0.268 C 
ATOM     12  O   UNL d   1      -4.399  -1.214  -0.212  0.00  0.00    -0.266 OA
ATOM     13  N   UNL d   1      -4.562   1.065  -0.224  0.00  0.00    -0.355 N 
ATOM     14  H   UNL d   1      -4.080   1.930  -0.029  0.00  0.00     0.162 HD
BRANCH  13  15
ATOM     15  C   UNL d   1      -6.011   1.077  -0.250  0.00  0.00     0.127 C 
BRANCH  15  16
ATOM     16  C   UNL d   1      -6.595   2.491  -0.343  0.00  0.00     0.058 C 
BRANCH  16  17
ATOM     17  C   UNL d   1      -6.339   3.361   0.869  0.00  0.00    -0.057 A 
ATOM     18  C   UNL d   1      -5.707   4.605   0.729  0.00  0.00     0.007 A 
ATOM     19  C   UNL d   1      -5.510   5.431   1.838  0.00  0.00     0.001 A 
ATOM     20  C   UNL d   1      -5.945   5.026   3.098  0.00  0.00     0.000 A 
ATOM     21  C   UNL d   1      -6.577   3.795   3.250  0.00  0.00     0.001 A 
ATOM     22  C   UNL d   1      -6.777   2.968   2.143  0.00  0.00     0.007 A 
ENDBRANCH  16  17
ENDBRANCH  15  16
ENDBRANCH  13  15
ENDBRANCH   1  11
BRANCH   8  23
ATOM     23  O   UNL d   1       3.283   1.448   0.423  0.00  0.00    -0.356 OA
ATOM     24  C   UNL d   1       4.526   0.777   0.573  0.00  0.00     0.210 C 
ENDBRANCH   8  23
TORSDOF 5
