REMARK  5 active torsions:
REMARK  status: ('A' for Active; 'I' for Inactive)
REMARK    1  A    between atoms: N_3  and  C_1 
REMARK    2  A    between atoms: C_2  and  N_3 
REMARK    3  A    between atoms: C_15  and  N_9 
REMARK    4  A    between atoms: C_19  and  C_15 
REMARK    5  A    between atoms: C_16  and  C_19 
ROOT
ATOM      1  C   UNL d   1       1.162  -0.202  -0.107  0.00  0.00     0.172 C 
ATOM      2  S   UNL d   1       0.553  -0.920   1.275  0.00  0.00    -0.041 SA
ATOM      3  N   UNL d   1       2.494   0.081  -0.068  0.00  0.00    -0.367 N 
ATOM      4  H   UNL d   1       2.900  -0.153   0.832  0.00  0.00     0.161 HD
ENDROOT
BRANCH   1   5
ATOM      5  N   UNL d   1       0.494   0.170  -1.248  0.00  0.00    -0.332 N 
ATOM      6  H   UNL d   1       0.855   1.003  -1.697  0.00  0.00     0.168 HD
BRANCH   5   7
ATOM      7  C   UNL d   1      -0.848  -0.146  -1.605  0.00  0.00     0.057 A 
ATOM      8  C   UNL d   1      -1.415  -1.393  -1.314  0.00  0.00     0.055 A 
ATOM      9  C   UNL d   1      -2.757  -1.644  -1.596  0.00  0.00     0.036 A 
ATOM     10 CL   UNL d   1      -3.445  -3.167  -1.183  0.00  0.00    -0.084 Cl
ATOM     11  C   UNL d   1      -3.546  -0.673  -2.208  0.00  0.00     0.026 A 
ATOM     12  C   UNL d   1      -2.975   0.546  -2.575  0.00  0.00     0.028 A 
ATOM     13  C   UNL d   1      -1.627   0.799  -2.295  0.00  0.00     0.060 A 
ATOM     14 CL   UNL d   1      -0.965   2.325  -2.770  0.00  0.00    -0.082 Cl
ENDBRANCH   5   7
ENDBRANCH   1   5
BRANCH   3  15
ATOM     15  C   UNL d   1       3.311   0.884  -0.967  0.00  0.00     0.126 C 
BRANCH  15  16
ATOM     16  C   UNL d   1       4.797   0.712  -0.644  0.00  0.00     0.058 C 
BRANCH  16  17
ATOM     17  C   UNL d   1       5.662   1.715  -1.355  0.00  0.00    -0.054 A 
ATOM     18  C   UNL d   1       5.921   2.963  -0.782  0.00  0.00     0.024 A 
ATOM     19  C   UNL d   1       6.714   3.862  -1.473  0.00  0.00     0.088 A 
ATOM     20  N   UNL d   1       7.254   3.607  -2.685  0.00  0.00    -0.375 N 
ATOM     21  C   UNL d   1       6.992   2.398  -3.221  0.00  0.00     0.088 A 
ATOM     22  HN  UNL d   1       7.831   4.295  -3.170  1.00  0.00     0.164 HD
ATOM     23  C   UNL d   1       6.212   1.430  -2.608  0.00  0.00     0.024 A 
ENDBRANCH  16  17
ENDBRANCH  15  16
ENDBRANCH   3  15
TORSDOF 5
