REMARK  3 active torsions:
REMARK  status: ('A' for Active; 'I' for Inactive)
REMARK    1  A    between atoms: C_8  and  C_5 
REMARK    2  A    between atoms: C_9  and  N_6 
REMARK    3  A    between atoms: C_12  and  C_9 
ROOT
ATOM      1  N   UNL d   1      -0.298  -1.184  -0.190  0.00  0.00    -0.268 N 
ATOM      2  HN  UNL d   1      -0.529  -2.167  -0.334  1.00  0.00     0.190 HD
ATOM      3  N   UNL d   1       0.797   0.766   0.165  0.00  0.00    -0.266 N 
ATOM      4  HN  UNL d   1       1.567   1.419   0.310  1.00  0.00     0.186 HD
ATOM      5  C   UNL d   1       0.901  -0.594  -0.027  0.00  0.00     0.144 A 
ATOM      6  N   UNL d   1      -1.109  -0.106  -0.111  0.00  0.00    -0.212 N 
ATOM      7  N   UNL d   1      -0.492   1.066   0.124  0.00  0.00    -0.002 NA
ENDROOT
BRANCH   6   8
ATOM      8  C   UNL d   1      -2.553  -0.225  -0.045  0.00  0.00     0.205 C 
BRANCH   8   9
ATOM      9  C   UNL d   1      -3.206  -0.052  -1.394  0.00  0.00    -0.037 A 
ATOM     10  C   UNL d   1      -3.474  -1.169  -2.204  0.00  0.00     0.012 A 
ATOM     11  C   UNL d   1      -4.107  -1.011  -3.438  0.00  0.00     0.043 A 
ATOM     12  C   UNL d   1      -4.466   0.260  -3.869  0.00  0.00     0.116 A 
ATOM     13  C   UNL d   1      -4.195   1.380  -3.093  0.00  0.00     0.043 A 
ATOM     14  F   UNL d   1      -5.084   0.407  -5.048  0.00  0.00    -0.206 F 
ATOM     15  C   UNL d   1      -3.562   1.227  -1.858  0.00  0.00     0.012 A 
ENDBRANCH   8   9
ENDBRANCH   6   8
BRANCH   5  16
ATOM     16  C   UNL d   1       2.182  -1.292  -0.018  0.00  0.00     0.010 A 
ATOM     17  C   UNL d   1       3.369  -0.589   0.247  0.00  0.00     0.017 A 
ATOM     18  C   UNL d   1       4.603  -1.249   0.260  0.00  0.00     0.025 A 
ATOM     19  C   UNL d   1       4.659  -2.617   0.008  0.00  0.00     0.034 A 
ATOM     20  C   UNL d   1       3.492  -3.332  -0.256  0.00  0.00     0.025 A 
ATOM     21 CL   UNL d   1       6.175  -3.428   0.022  0.00  0.00    -0.084 Cl
ATOM     22  C   UNL d   1       2.258  -2.671  -0.268  0.00  0.00     0.017 A 
ENDBRANCH   5  16
TORSDOF 3
