REMARK  2 active torsions:
REMARK  status: ('A' for Active; 'I' for Inactive)
REMARK    1  A    between atoms: C_4  and  C_1 
REMARK    2  A    between atoms: C_14  and  C_5 
ROOT
ATOM      1  C   UNL d   1       0.537  -0.993  -0.029  0.00  0.00     0.186 A 
ATOM      2  N   UNL d   1       1.207   0.110   0.226  0.00  0.00    -0.318 N 
ATOM      3  HN  UNL d   1       2.177   0.208   0.527  1.00  0.00     0.169 HD
ATOM      4  C   UNL d   1       0.280   1.103  -0.014  0.00  0.00     0.138 A 
ATOM      5  N   UNL d   1      -0.934   0.638  -0.348  0.00  0.00    -0.242 N 
ATOM      6  HN  UNL d   1      -1.781   1.171  -0.543  1.00  0.00     0.196 HD
ATOM      7  O   UNL d   1      -0.765  -0.741  -0.368  0.00  0.00    -0.217 OA
ENDROOT
BRANCH   1   8
ATOM      8  C   UNL d   1       1.126  -2.347   0.011  0.00  0.00     0.073 A 
ATOM      9  C   UNL d   1       0.500  -3.513  -0.358  0.00  0.00     0.089 A 
ATOM     10  O   UNL d   1       1.372  -4.546  -0.202  0.00  0.00    -0.242 OA
ATOM     11  C   UNL d   1      -0.837  -3.856  -0.881  0.00  0.00     0.080 C 
ATOM     12  N   UNL d   1       2.580  -4.067   0.273  0.00  0.00    -0.265 N 
ATOM     13  C   UNL d   1       2.426  -2.742   0.398  0.00  0.00     0.045 A 
ATOM     14  HN  UNL d   1       3.416  -4.611   0.486  1.00  0.00     0.194 HD
ATOM     15  C   UNL d   1       3.543  -1.906   0.895  0.00  0.00     0.071 C 
ENDBRANCH   1   8
BRANCH   4  16
ATOM     16  C   UNL d   1       0.625   2.521   0.028  0.00  0.00     0.010 A 
ATOM     17  C   UNL d   1       1.940   2.921   0.319  0.00  0.00     0.022 A 
ATOM     18  C   UNL d   1       2.303   4.276   0.298  0.00  0.00    -0.061 A 
ATOM     19  C   UNL d   1       3.715   4.699   0.580  0.00  0.00     0.048 C 
ATOM     20  C   UNL d   1       1.334   5.237  -0.005  0.00  0.00     0.007 A 
ATOM     21  C   UNL d   1       0.022   4.855  -0.281  0.00  0.00     0.002 A 
ATOM     22  C   UNL d   1      -0.331   3.504  -0.264  0.00  0.00     0.015 A 
ENDBRANCH   4  16
TORSDOF 2
