REMARK  8 active torsions:
REMARK  status: ('A' for Active; 'I' for Inactive)
REMARK    1  A    between atoms: C_9  and  C_1 
REMARK    2  A    between atoms: C_8  and  C_2 
REMARK    3  A    between atoms: C_7  and  C_3 
REMARK    4  A    between atoms: O_18  and  C_8 
REMARK    5  A    between atoms: O_19  and  C_9 
REMARK    6  A    between atoms: O_22  and  C_15 
REMARK    7  A    between atoms: C_24  and  O_18 
REMARK    8  A    between atoms: C_23  and  O_19 
ROOT
ATOM      1  C   UNL d   1      -1.299  -1.002   0.110  0.00  0.00     0.052 C 
ATOM      2  C   UNL d   1       1.272  -1.008   0.117  0.00  0.00     0.052 C 
ATOM      3  C   UNL d   1      -0.010  -1.828  -0.118  0.00  0.00     0.102 C 
ATOM      4  C   UNL d   1      -1.241   0.354   0.089  0.00  0.00     0.018 C 
ATOM      5  C   UNL d   1       1.215   0.347   0.115  0.00  0.00     0.018 C 
ATOM      6  N   UNL d   1      -0.010   0.980  -0.017  0.00  0.00    -0.362 N 
ATOM      7  C   UNL d   1      -2.405   1.316   0.139  0.00  0.00     0.069 C 
ATOM      8  C   UNL d   1       2.411   1.262   0.210  0.00  0.00     0.069 C 
ATOM      9  H   UNL d   1      -0.011   1.998   0.056  0.00  0.00     0.165 HD
ENDROOT
BRANCH   3  10
ATOM     10  C   UNL d   1      -0.007  -2.427  -1.542  0.00  0.00    -0.023 A 
ATOM     11  C   UNL d   1      -0.082  -3.806  -1.806  0.00  0.00     0.044 A 
ATOM     12  C   UNL d   1      -0.089  -4.281  -3.123  0.00  0.00     0.061 A 
ATOM     13 CL   UNL d   1      -0.144  -5.000  -0.555  0.00  0.00    -0.084 Cl
ATOM     14  C   UNL d   1      -0.012  -3.403  -4.208  0.00  0.00     0.069 A 
ATOM     15  C   UNL d   1       0.068  -2.037  -3.965  0.00  0.00     0.037 A 
ATOM     16  C   UNL d   1       0.066  -1.558  -2.652  0.00  0.00     0.012 A 
BRANCH  14  17
ATOM     17  O   UNL d   1      -0.021  -4.001  -5.438  0.00  0.00    -0.356 OA
ATOM     18  C   UNL d   1       0.046  -3.144  -6.572  0.00  0.00     0.210 C 
ENDBRANCH  14  17
ENDBRANCH   3  10
BRANCH   2  19
ATOM     19  C   UNL d   1       2.577  -1.704   0.283  0.00  0.00     0.292 C 
ATOM     20  O   UNL d   1       3.651  -1.147   0.448  0.00  0.00    -0.259 OA
BRANCH  19  21
ATOM     21  O   UNL d   1       2.427  -3.045   0.161  0.00  0.00    -0.318 OA
BRANCH  21  22
ATOM     22  C   UNL d   1       3.638  -3.769  -0.108  0.00  0.00     0.174 C 
ATOM     23  C   UNL d   1       3.850  -3.794  -1.611  0.00  0.00     0.034 C 
ENDBRANCH  21  22
ENDBRANCH  19  21
ENDBRANCH   2  19
BRANCH   1  24
ATOM     24  C   UNL d   1      -2.525  -1.819   0.323  0.00  0.00     0.292 C 
ATOM     25  O   UNL d   1      -2.653  -2.965  -0.079  0.00  0.00    -0.259 OA
BRANCH  24  26
ATOM     26  O   UNL d   1      -3.442  -1.169   1.084  0.00  0.00    -0.318 OA
BRANCH  26  27
ATOM     27  C   UNL d   1      -4.662  -1.880   1.349  0.00  0.00     0.174 C 
ATOM     28  C   UNL d   1      -5.589  -1.851   0.144  0.00  0.00     0.034 C 
ENDBRANCH  26  27
ENDBRANCH  24  26
ENDBRANCH   1  24
TORSDOF 8
