REMARK  4 active torsions:
REMARK  status: ('A' for Active; 'I' for Inactive)
REMARK    1  A    between atoms: C_6  and  C_1 
REMARK    2  A    between atoms: C_7  and  N_3 
REMARK    3  A    between atoms: O_12  and  C_6 
REMARK    4  A    between atoms: C_18  and  O_12 
ROOT
ATOM      1  C   UNL d   1      -0.331  -1.202   0.012  0.00  0.00     0.064 A 
ATOM      2  C   UNL d   1       0.984  -0.739   0.021  0.00  0.00     0.029 A 
ATOM      3  N   UNL d   1       0.973   0.666   0.032  0.00  0.00    -0.319 N 
ATOM      4  C   UNL d   1      -1.160  -0.056   0.089  0.00  0.00     0.044 A 
ATOM      5  C   UNL d   1      -0.366   1.070   0.074  0.00  0.00     0.014 A 
ATOM      6  C   UNL d   1       2.229  -1.569   0.078  0.00  0.00     0.070 C 
ATOM      7  C   UNL d   1      -0.863   2.475  -0.021  0.00  0.00     0.068 C 
ENDROOT
BRANCH   3   8
ATOM      8  C   UNL d   1       2.120   1.532  -0.008  0.00  0.00     0.039 A 
ATOM      9  C   UNL d   1       3.259   1.184  -0.750  0.00  0.00     0.031 A 
ATOM     10  C   UNL d   1       4.386   2.014  -0.766  0.00  0.00     0.026 A 
ATOM     11  C   UNL d   1       4.371   3.218  -0.072  0.00  0.00     0.034 A 
ATOM     12  C   UNL d   1       3.242   3.592   0.650  0.00  0.00     0.026 A 
ATOM     13 CL   UNL d   1       5.748   4.247  -0.107  0.00  0.00    -0.084 Cl
ATOM     14  C   UNL d   1       2.128   2.745   0.694  0.00  0.00     0.031 A 
ENDBRANCH   3   8
BRANCH   1  15
ATOM     15  C   UNL d   1      -0.774  -2.593  -0.095  0.00  0.00     0.295 C 
ATOM     16  O   UNL d   1      -0.011  -3.547  -0.232  0.00  0.00    -0.259 OA
BRANCH  15  17
ATOM     17  O   UNL d   1      -2.134  -2.699  -0.131  0.00  0.00    -0.318 OA
BRANCH  17  18
ATOM     18  C   UNL d   1      -2.626  -3.943  -0.646  0.00  0.00     0.174 C 
ATOM     19  C   UNL d   1      -2.683  -3.841  -2.159  0.00  0.00     0.034 C 
ENDBRANCH  17  18
ENDBRANCH  15  17
ENDBRANCH   1  15
TORSDOF 4
