REMARK  5 active torsions:
REMARK  status: ('A' for Active; 'I' for Inactive)
REMARK    1  A    between atoms: N_7  and  C_1 
REMARK       I    between atoms: C_6  and  N_7 
REMARK    2  A    between atoms: C_9  and  C_6 
REMARK    3  A    between atoms: O_21  and  C_10 
REMARK    4  A    between atoms: O_22  and  C_11 
REMARK    5  A    between atoms: O_23  and  C_12 
ROOT
ATOM      1  C   UNL d   1      -4.644   2.749  -0.124  0.00  0.00     0.256 C 
ATOM      2  N   UNL d   1      -3.270   2.611  -0.145  0.00  0.00    -0.318 N 
ATOM      3  O   UNL d   1      -5.263   3.798  -0.260  0.00  0.00    -0.267 OA
ATOM      4  H   UNL d   1      -2.870   1.687   0.005  0.00  0.00     0.169 HD
ENDROOT
BRANCH   2   5
ATOM      5  C   UNL d   1      -2.304   3.599  -0.223  0.00  0.00     0.112 C 
ATOM      6  C   UNL d   1      -2.538   4.909  -0.345  0.00  0.00     0.051 C 
ATOM      7  C   UNL d   1      -1.442   5.883  -0.365  0.00  0.00     0.011 A 
ATOM      8  C   UNL d   1      -1.617   7.261  -0.677  0.00  0.00    -0.013 A 
ATOM      9  C   UNL d   1      -0.174   5.413  -0.024  0.00  0.00     0.090 A 
ATOM     10  C   UNL d   1      -0.493   8.120  -0.573  0.00  0.00    -0.025 A 
ATOM     11  C   UNL d   1      -2.839   7.829  -1.110  0.00  0.00     0.013 A 
ATOM     12  C   UNL d   1      -0.623   9.480  -0.905  0.00  0.00     0.012 A 
ATOM     13  C   UNL d   1       0.749   7.618  -0.156  0.00  0.00     0.015 A 
ATOM     14  C   UNL d   1      -1.834  10.004  -1.345  0.00  0.00     0.001 A 
ATOM     15  C   UNL d   1      -2.945   9.179  -1.446  0.00  0.00     0.001 A 
ATOM     16  C   UNL d   1       0.914   6.265   0.112  0.00  0.00     0.039 A 
ATOM     17  O   UNL d   1       0.085   4.040   0.141  0.00  0.00    -0.273 OA
ATOM     18  C   UNL d   1      -0.899   3.104  -0.119  0.00  0.00     0.315 C 
ATOM     19  O   UNL d   1      -0.662   1.899  -0.187  0.00  0.00    -0.257 OA
ENDBRANCH   2   5
BRANCH   1  20
ATOM     20  C   UNL d   1      -5.405   1.502   0.172  0.00  0.00     0.037 A 
ATOM     21  C   UNL d   1      -6.614   1.620   0.870  0.00  0.00     0.057 A 
ATOM     22  C   UNL d   1      -7.339   0.485   1.246  0.00  0.00     0.105 A 
ATOM     23  C   UNL d   1      -6.826  -0.790   0.926  0.00  0.00     0.135 A 
ATOM     24  C   UNL d   1      -5.621  -0.906   0.197  0.00  0.00     0.105 A 
ATOM     25  C   UNL d   1      -4.931   0.242  -0.198  0.00  0.00     0.057 A 
BRANCH  22  26
ATOM     26  O   UNL d   1      -8.539   0.545   1.903  0.00  0.00    -0.353 OA
ATOM     27  C   UNL d   1      -9.071   1.824   2.222  0.00  0.00     0.210 C 
ENDBRANCH  22  26
BRANCH  23  28
ATOM     28  O   UNL d   1      -7.458  -1.980   1.213  0.00  0.00    -0.351 OA
ATOM     29  C   UNL d   1      -8.039  -2.081   2.509  0.00  0.00     0.210 C 
ENDBRANCH  23  28
BRANCH  24  30
ATOM     30  O   UNL d   1      -5.189  -2.180  -0.092  0.00  0.00    -0.353 OA
ATOM     31  C   UNL d   1      -3.822  -2.329  -0.463  0.00  0.00     0.210 C 
ENDBRANCH  24  30
ENDBRANCH   1  20
TORSDOF 5
