REMARK  3 active torsions:
REMARK  status: ('A' for Active; 'I' for Inactive)
REMARK    1  A    between atoms: C_7  and  CA_1 
REMARK    2  A    between atoms: C_8  and  C_4 
REMARK    3  A    between atoms: OXT_10  and  C_7 
ROOT
ATOM      1  CA  UNL d   1      -0.287  -1.160   0.183  0.00  0.00     0.123 A 
ATOM      2  N   UNL d   1      -1.070  -0.036   0.432  0.00  0.00    -0.335 N 
ATOM      3  HN  UNL d   1      -1.984  -0.013   0.885  1.00  0.00     0.168 HD
ATOM      4  C   UNL d   1      -0.387   0.996  -0.038  0.00  0.00     0.116 A 
ATOM      5  N   UNL d   1       0.811   0.563  -0.565  0.00  0.00    -0.349 N 
ATOM      6  C   UNL d   1       0.890  -0.791  -0.425  0.00  0.00     0.126 A 
ATOM      7  H   UNL d   1       1.526   1.165  -0.949  0.00  0.00     0.167 HD
ENDROOT
BRANCH   4   8
ATOM      8  C   UNL d   1      -0.751   2.413   0.025  0.00  0.00     0.008 A 
ATOM      9  C   UNL d   1      -1.528   2.891   1.088  0.00  0.00     0.015 A 
ATOM     10  C   UNL d   1      -1.812   4.255   1.205  0.00  0.00     0.001 A 
ATOM     11  C   UNL d   1      -1.334   5.154   0.252  0.00  0.00     0.000 A 
ATOM     12  C   UNL d   1      -0.586   4.689  -0.826  0.00  0.00     0.001 A 
ATOM     13  C   UNL d   1      -0.300   3.326  -0.941  0.00  0.00     0.015 A 
ENDBRANCH   4   8
BRANCH   1  14
ATOM     14  C   UNL d   1      -0.711  -2.505   0.556  0.00  0.00     0.195 C 
ATOM     15  O   UNL d   1      -0.056  -3.519   0.372  0.00  0.00    -0.645 OA
BRANCH  14  16
ATOM     16  OXT UNL d   1      -1.936  -2.504   1.139  0.00  0.00    -0.772 OA
ATOM     17  HXT UNL d   1      -2.245  -1.569   1.163  0.00  0.00     0.167 HD
ENDBRANCH  14  16
ENDBRANCH   1  14
TORSDOF 3
