REMARK  6 active torsions:
REMARK  status: ('A' for Active; 'I' for Inactive)
REMARK       I    between atoms: C_2  and  N_1 
REMARK    1  A    between atoms: C_3  and  N_1 
REMARK    2  A    between atoms: C_14  and  C_2 
REMARK    3  A    between atoms: C_6  and  C_15 
REMARK    4  A    between atoms: O_12  and  C_6 
REMARK    5  A    between atoms: S_11  and  C_14 
REMARK    6  A    between atoms: C_15  and  S_11 
ROOT
ATOM      1  N   UNL d   1       1.018   0.167  -0.083  0.00  0.00    -0.311 N 
ATOM      2  C   UNL d   1       0.333   1.366  -0.056  0.00  0.00     0.232 C 
ATOM      3  O   UNL d   1       0.811   2.500   0.006  0.00  0.00    -0.272 OA
ATOM      4  H   UNL d   1       0.486  -0.694  -0.060  0.00  0.00     0.170 HD
ENDROOT
BRANCH   1   5
ATOM      5  C   UNL d   1       2.419   0.055  -0.076  0.00  0.00     0.123 A 
ATOM      6  N   UNL d   1       3.186   1.161  -0.071  0.00  0.00    -0.350 N 
ATOM      7  C   UNL d   1       4.525   0.974  -0.064  0.00  0.00     0.106 A 
ATOM      8  HN  UNL d   1       2.777   2.095  -0.073  1.00  0.00     0.166 HD
ATOM      9  C   UNL d   1       5.100  -0.283  -0.063  0.00  0.00     0.104 A 
ATOM     10  N   UNL d   1       4.354  -1.410  -0.067  0.00  0.00    -0.371 N 
ATOM     11  C   UNL d   1       3.010  -1.210  -0.073  0.00  0.00     0.136 A 
ATOM     12  HN  UNL d   1       4.769  -2.342  -0.066  1.00  0.00     0.164 HD
ENDBRANCH   1   5
BRANCH   2  13
ATOM     13  C   UNL d   1      -1.177   1.215  -0.024  0.00  0.00     0.177 C 
BRANCH  13  14
ATOM     14  S   UNL d   1      -1.768   1.165   1.700  0.00  0.00    -0.149 SA
BRANCH  14  15
ATOM     15  C   UNL d   1      -1.115   2.747   2.351  0.00  0.00     0.184 C 
BRANCH  15  16
ATOM     16  C   UNL d   1      -1.663   3.952   1.622  0.00  0.00     0.149 C 
ATOM     17  O   UNL d   1      -2.731   4.484   1.889  0.00  0.00    -0.649 OA
BRANCH  16  18
ATOM     18  O   UNL d   1      -0.875   4.400   0.613  0.00  0.00    -0.776 OA
ATOM     19  H   UNL d   1      -0.051   3.873   0.456  0.00  0.00     0.167 HD
ENDBRANCH  16  18
ENDBRANCH  15  16
ENDBRANCH  14  15
ENDBRANCH  13  14
ENDBRANCH   2  13
TORSDOF 6
