REMARK  7 active torsions:
REMARK  status: ('A' for Active; 'I' for Inactive)
REMARK    1  A    between atoms: C_14  and  C_1 
REMARK    2  A    between atoms: O_12  and  C_2 
REMARK    3  A    between atoms: C_9  and  C_5 
REMARK    4  A    between atoms: S_7  and  C_9 
REMARK    5  A    between atoms: C_10  and  S_7 
REMARK    6  A    between atoms: N_13  and  C_11 
REMARK    7  A    between atoms: O_15  and  C_14 
ROOT
ATOM      1  C   UNL d   1       0.317   1.489   0.011  0.00  0.00     0.009 A 
ATOM      2  C   UNL d   1      -0.705   0.517   0.044  0.00  0.00     0.096 A 
ATOM      3  N   UNL d   1       0.900  -1.278   0.035  0.00  0.00    -0.367 N 
ATOM      4  HN  UNL d   1       1.122  -2.273   0.029  1.00  0.00     0.165 HD
ATOM      5  C   UNL d   1       1.655   1.038   0.043  0.00  0.00    -0.022 A 
ATOM      6  C   UNL d   1      -0.383  -0.842   0.047  0.00  0.00     0.039 A 
ATOM      7  C   UNL d   1       1.873  -0.343   0.033  0.00  0.00     0.096 A 
ATOM      8  C   UNL d   1      -1.432  -1.914   0.048  0.00  0.00     0.071 C 
ENDROOT
BRANCH   5   9
ATOM      9  C   UNL d   1       2.862   1.949   0.056  0.00  0.00     0.120 C 
BRANCH   9  10
ATOM     10  S   UNL d   1       3.450   2.259  -1.641  0.00  0.00    -0.123 SA
BRANCH  10  11
ATOM     11  C   UNL d   1       4.899   3.321  -1.447  0.00  0.00     0.021 A 
ATOM     12  C   UNL d   1       5.575   3.714  -2.630  0.00  0.00     0.022 A 
ATOM     13  C   UNL d   1       6.706   4.537  -2.543  0.00  0.00     0.024 A 
ATOM     14  C   UNL d   1       7.133   5.030  -1.312  0.00  0.00     0.002 A 
ATOM     15  C   UNL d   1       6.458   4.668  -0.151  0.00  0.00     0.001 A 
ATOM     16  C   UNL d   1       5.349   3.813  -0.215  0.00  0.00     0.020 A 
BRANCH  12  17
ATOM     17  N   UNL d   1       5.275   3.126  -3.877  0.00  0.00    -0.302 NA
ATOM     18  H   UNL d   1       4.338   2.726  -3.887  0.00  0.00     0.124 HD
ATOM     19  H   UNL d   1       5.464   3.723  -4.675  0.00  0.00     0.124 HD
ENDBRANCH  12  17
ENDBRANCH  10  11
ENDBRANCH   9  10
ENDBRANCH   5   9
BRANCH   1  20
ATOM     20  C   UNL d   1      -0.001   2.964   0.009  0.00  0.00     0.206 C 
BRANCH  20  21
ATOM     21  O   UNL d   1      -1.273   3.213  -0.592  0.00  0.00    -0.396 OA
ATOM     22  H   UNL d   1      -1.097   3.379  -1.538  0.00  0.00     0.209 HD
ENDBRANCH  20  21
ENDBRANCH   1  20
BRANCH   2  23
ATOM     23  O   UNL d   1      -2.027   0.875   0.076  0.00  0.00    -0.358 OA
ATOM     24  H   UNL d   1      -2.079   1.844  -0.069  0.00  0.00     0.217 HD
ENDBRANCH   2  23
TORSDOF 7
