REMARK  5 active torsions:
REMARK  status: ('A' for Active; 'I' for Inactive)
REMARK    1  A    between atoms: C_7  and  N_1 
REMARK    2  A    between atoms: S_9  and  C_2 
REMARK    3  A    between atoms: C_18  and  S_9 
REMARK    4  A    between atoms: C_14  and  C_18 
REMARK    5  A    between atoms: C_15  and  C_14 
ROOT
ATOM      1  N   UNL d   1       2.358  -0.892  -0.099  0.00  0.00    -0.258 N 
ATOM      2  C   UNL d   1       2.279   0.489  -0.346  0.00  0.00     0.155 C 
ATOM      3  C   UNL d   1       1.162  -1.578   0.199  0.00  0.00     0.266 C 
ATOM      4  C   UNL d   1      -0.096  -0.832   0.109  0.00  0.00     0.060 A 
ATOM      5  N   UNL d   1       1.190   1.188  -0.253  0.00  0.00    -0.335 N 
ATOM      6  HN  UNL d   1       1.221   2.203  -0.351  1.00  0.00     0.168 HD
ATOM      7  C   UNL d   1      -0.019   0.543  -0.019  0.00  0.00     0.050 A 
ATOM      8  O   UNL d   1       1.050  -2.741   0.595  0.00  0.00    -0.267 OA
ATOM      9  C   UNL d   1      -1.334  -1.487   0.173  0.00  0.00     0.026 A 
ATOM     10  C   UNL d   1      -1.201   1.284  -0.021  0.00  0.00     0.031 A 
ATOM     11  C   UNL d   1      -2.521  -0.750   0.118  0.00  0.00    -0.061 A 
ATOM     12  C   UNL d   1      -2.444   0.644   0.046  0.00  0.00     0.009 A 
ATOM     13  C   UNL d   1      -3.850  -1.443   0.088  0.00  0.00     0.048 C 
ENDROOT
BRANCH   1  14
ATOM     14  C   UNL d   1       3.594  -1.661   0.037  0.00  0.00     0.045 A 
ATOM     15  C   UNL d   1       3.599  -3.053  -0.211  0.00  0.00     0.038 A 
ATOM     16  C   UNL d   1       4.676  -3.894   0.131  0.00  0.00    -0.043 A 
ATOM     17  C   UNL d   1       4.487  -5.385   0.050  0.00  0.00     0.049 C 
ATOM     18  C   UNL d   1       5.851  -3.306   0.601  0.00  0.00     0.017 A 
ATOM     19  C   UNL d   1       5.911  -1.925   0.780  0.00  0.00     0.022 A 
ATOM     20 BR   UNL d   1       7.378  -4.332   1.061  0.00  0.00    -0.051 Br
ATOM     21  C   UNL d   1       4.785  -1.123   0.538  0.00  0.00     0.031 A 
ENDBRANCH   1  14
BRANCH   2  22
ATOM     22  S   UNL d   1       3.663   1.382  -0.977  0.00  0.00    -0.086 SA
BRANCH  22  23
ATOM     23  C   UNL d   1       3.034   3.099  -0.969  0.00  0.00     0.161 C 
BRANCH  23  24
ATOM     24  C   UNL d   1       4.030   4.082  -1.584  0.00  0.00     0.144 C 
ATOM     25  O   UNL d   1       5.176   3.738  -1.906  0.00  0.00    -0.296 OA
BRANCH  24  26
ATOM     26  C   UNL d   1       3.616   5.569  -1.706  0.00  0.00     0.010 C 
ATOM     27  C   UNL d   1       4.069   6.296  -0.433  0.00  0.00     0.022 C 
ATOM     28  C   UNL d   1       4.337   6.176  -2.925  0.00  0.00     0.022 C 
ATOM     29  C   UNL d   1       2.107   5.773  -1.897  0.00  0.00     0.022 C 
ENDBRANCH  24  26
ENDBRANCH  23  24
ENDBRANCH  22  23
ENDBRANCH   2  22
TORSDOF 5
