REMARK  4 active torsions:
REMARK  status: ('A' for Active; 'I' for Inactive)
REMARK    1  A    between atoms: C_4  and  C_1 
REMARK    2  A    between atoms: C_2  and  C_4 
REMARK    3  A    between atoms: O_13  and  C_2 
REMARK    4  A    between atoms: O_15  and  C_12 
ROOT
ATOM      1  C   UNL d   1       2.417  -0.668  -0.045  0.00  0.00    -0.043 A 
ATOM      2  C   UNL d   1       1.202  -1.371   0.038  0.00  0.00     0.020 A 
ATOM      3  C   UNL d   1      -0.035  -0.700   0.051  0.00  0.00    -0.025 A 
ATOM      4  C   UNL d   1      -0.060   0.709   0.016  0.00  0.00    -0.023 A 
ATOM      5  C   UNL d   1       2.379   0.731  -0.064  0.00  0.00     0.009 A 
ATOM      6  C   UNL d   1      -1.300   1.374   0.011  0.00  0.00     0.049 A 
ATOM      7  C   UNL d   1       1.156   1.410  -0.026  0.00  0.00     0.013 A 
ATOM      8  C   UNL d   1      -1.251  -1.401   0.078  0.00  0.00     0.015 A 
ATOM      9  C   UNL d   1      -2.506   0.666   0.022  0.00  0.00     0.069 A 
ATOM     10  C   UNL d   1      -2.476  -0.725   0.055  0.00  0.00     0.037 A 
ENDROOT
BRANCH   1  11
ATOM     11  C   UNL d   1       3.730  -1.433  -0.178  0.00  0.00     0.112 C 
ATOM     12  C   UNL d   1       4.659  -1.168   1.010  0.00  0.00     0.026 C 
BRANCH  11  13
ATOM     13  C   UNL d   1       4.472  -1.175  -1.493  0.00  0.00     0.148 C 
ATOM     14  O   UNL d   1       5.689  -1.212  -1.609  0.00  0.00    -0.649 OA
BRANCH  13  15
ATOM     15  O   UNL d   1       3.678  -0.976  -2.573  0.00  0.00    -0.776 OA
ATOM     16  H   UNL d   1       2.721  -0.955  -2.371  0.00  0.00     0.167 HD
ENDBRANCH  13  15
ENDBRANCH  11  13
ENDBRANCH   1  11
BRANCH   9  17
ATOM     17  O   UNL d   1      -3.631   1.444  -0.005  0.00  0.00    -0.356 OA
ATOM     18  C   UNL d   1      -4.883   0.766  -0.019  0.00  0.00     0.210 C 
ENDBRANCH   9  17
TORSDOF 4
