REMARK  5 active torsions:
REMARK  status: ('A' for Active; 'I' for Inactive)
REMARK    1  A    between atoms: O_9  and  C_1 
REMARK    2  A    between atoms: N_4  and  C_2 
REMARK    3  A    between atoms: N_5  and  C_3 
REMARK    4  A    between atoms: C_8  and  O_9 
REMARK    5  A    between atoms: C_10  and  C_11 
ROOT
ATOM      1  C   UNL d   1       1.145  -0.449  -0.312  0.00  0.00     0.142 C 
ATOM      2  C   UNL d   1       0.237  -0.926   0.648  0.00  0.00     0.140 C 
ATOM      3  C   UNL d   1       0.626   0.440  -1.276  0.00  0.00     0.140 C 
ATOM      4  C   UNL d   1      -1.672   0.005  -0.554  0.00  0.00     0.052 C 
ATOM      5  C   UNL d   1      -1.156  -0.740   0.513  0.00  0.00     0.055 C 
ATOM      6  C   UNL d   1      -0.765   0.645  -1.410  0.00  0.00     0.055 C 
ENDROOT
BRANCH   1   7
ATOM      7  O   UNL d   1       2.469  -0.792  -0.453  0.00  0.00    -0.305 OA
BRANCH   7   8
ATOM      8  C   UNL d   1       2.998  -2.029  -0.142  0.00  0.00     0.092 C 
ATOM      9  C   UNL d   1       2.344  -3.290  -0.145  0.00  0.00     0.047 C 
ATOM     10  C   UNL d   1       2.945  -4.260   0.680  0.00  0.00     0.053 C 
ATOM     11  C   UNL d   1       1.168  -3.686  -0.848  0.00  0.00     0.049 C 
ATOM     12  C   UNL d   1       2.197  -5.369   1.088  0.00  0.00    -0.034 C 
ATOM     13  N   UNL d   1       4.223  -4.153   1.081  0.00  0.00    -0.359 N 
ATOM     14  C   UNL d   1       2.661  -6.208   2.252  0.00  0.00     0.050 C 
ATOM     15  C   UNL d   1       0.950  -5.646   0.514  0.00  0.00     0.011 C 
ATOM     16  C   UNL d   1       0.476  -4.846  -0.513  0.00  0.00     0.025 C 
ATOM     17  C   UNL d   1       4.947  -3.073   0.741  0.00  0.00     0.008 C 
ATOM     18  HN  UNL d   1       4.644  -4.892   1.644  1.00  0.00     0.166 HD
ATOM     19  C   UNL d   1       4.342  -1.942   0.230  0.00  0.00     0.062 C 
ATOM     20  C   UNL d   1       6.429  -3.146   0.936  0.00  0.00     0.068 C 
ATOM     21 CL   UNL d   1       0.614  -2.849  -2.261  0.00  0.00    -0.083 Cl
ENDBRANCH   7   8
ENDBRANCH   1   7
BRANCH   2  22
ATOM     22  N   UNL d   1       0.681  -1.563   1.878  0.00  0.00    -0.113 N 
ATOM     23  O   UNL d   1       1.555  -0.981   2.528  0.00  0.00    -0.532 OA
ATOM     24  O   UNL d   1       0.097  -2.601   2.216  0.00  0.00    -0.532 OA
ENDBRANCH   2  22
BRANCH   3  25
ATOM     25  N   UNL d   1       1.514   1.206  -2.174  0.00  0.00    -0.113 N 
ATOM     26  O   UNL d   1       2.715   1.296  -1.891  0.00  0.00    -0.532 OA
ATOM     27  O   UNL d   1       0.985   1.776  -3.139  0.00  0.00    -0.532 OA
ENDBRANCH   3  25
BRANCH   4  28
ATOM     28  C   UNL d   1      -3.161   0.142  -0.785  0.00  0.00     0.417 C 
ATOM     29  F   UNL d   1      -3.911  -0.533   0.126  0.00  0.00    -0.166 F 
ATOM     30  F   UNL d   1      -3.574   1.435  -0.736  0.00  0.00    -0.166 F 
ATOM     31  F   UNL d   1      -3.532  -0.332  -2.005  0.00  0.00    -0.166 F 
ENDBRANCH   4  28
TORSDOF 5
