REMARK  6 active torsions:
REMARK  status: ('A' for Active; 'I' for Inactive)
REMARK    1  A    between atoms: C_8  and  C_1 
REMARK    2  A    between atoms: N_11  and  C_2 
REMARK    3  A    between atoms: C_6  and  C_14 
REMARK    4  A    between atoms: O_16  and  C_8 
REMARK    5  A    between atoms: N_9  and  N_11 
REMARK    6  A    between atoms: C_23  and  O_16 
ROOT
ATOM      1  C   UNL d   1      -0.077   1.311   0.083  0.00  0.00     0.109 A 
ATOM      2  C   UNL d   1      -1.361   0.810   0.019  0.00  0.00     0.153 A 
ATOM      3  N   UNL d   1       0.040  -0.966  -0.225  0.00  0.00    -0.302 N 
ATOM      4  HN  UNL d   1       0.382  -1.917  -0.359  1.00  0.00     0.186 HD
ATOM      5  N   UNL d   1      -1.231  -0.538  -0.168  0.00  0.00    -0.283 N 
ATOM      6  C   UNL d   1       0.753   0.158  -0.065  0.00  0.00     0.042 A 
ATOM      7  C   UNL d   1       2.237   0.090  -0.048  0.00  0.00     0.071 C 
ATOM      8  H   UNL d   1      -1.998  -1.197  -0.248  0.00  0.00     0.188 HD
ENDROOT
BRANCH   2   9
ATOM      9  N   UNL d   1      -2.594   1.356   0.117  0.00  0.00    -0.284 N 
ATOM     10  H   UNL d   1      -2.680   2.368   0.244  0.00  0.00     0.188 HD
BRANCH   9  11
ATOM     11  N   UNL d   1      -3.696   0.579  -0.012  0.00  0.00    -0.309 N 
ATOM     12  C   UNL d   1      -4.842   1.142   0.196  0.00  0.00     0.123 C 
ATOM     13  HN  UNL d   1      -3.626  -0.408  -0.262  1.00  0.00     0.186 HD
BRANCH  12  14
ATOM     14  C   UNL d   1      -6.099   0.377   0.062  0.00  0.00     0.041 A 
ATOM     15  C   UNL d   1      -6.064  -1.021  -0.033  0.00  0.00     0.129 A 
ATOM     16  F   UNL d   1      -4.911  -1.703   0.043  0.00  0.00    -0.205 F 
ATOM     17  C   UNL d   1      -7.232  -1.764  -0.193  0.00  0.00     0.043 A 
ATOM     18  C   UNL d   1      -8.462  -1.119  -0.261  0.00  0.00     0.005 A 
ATOM     19  C   UNL d   1      -8.517   0.272  -0.156  0.00  0.00     0.025 A 
ATOM     20  C   UNL d   1      -7.342   1.020   0.007  0.00  0.00     0.048 A 
ATOM     21 CL   UNL d   1      -7.517   2.737   0.111  0.00  0.00    -0.083 Cl
ENDBRANCH  12  14
ENDBRANCH   9  11
ENDBRANCH   2   9
BRANCH   1  22
ATOM     22  C   UNL d   1       0.341   2.681   0.293  0.00  0.00     0.299 C 
ATOM     23  O   UNL d   1       1.515   3.014   0.404  0.00  0.00    -0.259 OA
BRANCH  22  24
ATOM     24  O   UNL d   1      -0.713   3.548   0.396  0.00  0.00    -0.318 OA
BRANCH  24  25
ATOM     25  C   UNL d   1      -0.381   4.878   0.821  0.00  0.00     0.174 C 
ATOM     26  C   UNL d   1      -0.450   4.935   2.336  0.00  0.00     0.034 C 
ENDBRANCH  24  25
ENDBRANCH  22  24
ENDBRANCH   1  22
TORSDOF 6
