REMARK  6 active torsions:
REMARK  status: ('A' for Active; 'I' for Inactive)
REMARK    1  A    between atoms: N_14  and  C_3 
REMARK    2  A    between atoms: N_10  and  C_5 
REMARK    3  A    between atoms: C_8  and  N_10 
REMARK    4  A    between atoms: N_12  and  C_8 
REMARK    5  A    between atoms: C_15  and  N_12 
REMARK    6  A    between atoms: O_26  and  C_18 
ROOT
ATOM      1  C   UNL d   1      -0.288  -1.083   0.070  0.00  0.00    -0.039 C 
ATOM      2  C   UNL d   1      -0.499   0.303   0.076  0.00  0.00    -0.021 C 
ATOM      3  C   UNL d   1       0.584   1.175  -0.051  0.00  0.00     0.021 C 
ATOM      4  C   UNL d   1      -1.981   0.625   0.178  0.00  0.00    -0.017 C 
ATOM      5  C   UNL d   1       2.085  -0.762  -0.296  0.00  0.00     0.042 C 
ATOM      6  C   UNL d   1       1.842   0.639  -0.422  0.00  0.00    -0.014 C 
ATOM      7  C   UNL d   1      -1.579  -1.861   0.191  0.00  0.00    -0.019 C 
ATOM      8  C   UNL d   1       0.999  -1.610  -0.049  0.00  0.00     0.038 C 
ATOM      9  C   UNL d   1      -2.616  -0.758  -0.141  0.00  0.00     0.027 C 
ATOM     10  C   UNL d   1      -2.388   1.115   1.574  0.00  0.00     0.020 C 
ATOM     11  C   UNL d   1      -2.456   1.638  -0.878  0.00  0.00     0.020 C 
ATOM     12  C   UNL d   1       2.934   1.581  -0.881  0.00  0.00     0.052 C 
ATOM     13  C   UNL d   1      -1.775  -2.431   1.601  0.00  0.00     0.020 C 
ATOM     14  C   UNL d   1      -1.690  -3.002  -0.832  0.00  0.00     0.020 C 
ENDROOT
BRANCH   5  15
ATOM     15  N   UNL d   1       3.427  -1.218  -0.432  0.00  0.00    -0.333 N 
ATOM     16  H   UNL d   1       4.040  -0.560  -0.873  0.00  0.00     0.168 HD
BRANCH  15  17
ATOM     17  C   UNL d   1       4.085  -2.361  -0.073  0.00  0.00     0.176 C 
ATOM     18  S   UNL d   1       3.472  -3.769   0.604  0.00  0.00    -0.041 SA
BRANCH  17  19
ATOM     19  N   UNL d   1       5.439  -2.413  -0.320  0.00  0.00    -0.333 N 
ATOM     20  H   UNL d   1       5.776  -3.360  -0.224  0.00  0.00     0.168 HD
BRANCH  19  21
ATOM     21  C   UNL d   1       6.433  -1.468  -0.664  0.00  0.00     0.034 A 
ATOM     22  C   UNL d   1       6.337  -0.085  -0.503  0.00  0.00     0.032 A 
ATOM     23  C   UNL d   1       7.369   0.764  -0.936  0.00  0.00     0.039 A 
ATOM     24  C   UNL d   1       8.527   0.227  -1.496  0.00  0.00     0.068 A 
ATOM     25  C   UNL d   1       8.678  -1.153  -1.559  0.00  0.00     0.039 A 
ATOM     26  C   UNL d   1       7.639  -1.994  -1.151  0.00  0.00     0.032 A 
BRANCH  24  27
ATOM     27  O   UNL d   1       9.586   0.966  -1.942  0.00  0.00    -0.356 OA
ATOM     28  C   UNL d   1       9.226   2.143  -2.659  0.00  0.00     0.210 C 
ENDBRANCH  24  27
ENDBRANCH  19  21
ENDBRANCH  17  19
ENDBRANCH  15  17
ENDBRANCH   5  15
BRANCH   3  29
ATOM     29  N   UNL d   1       0.384   2.566   0.037  0.00  0.00    -0.302 NA
ATOM     30  H   UNL d   1       1.237   3.104   0.131  0.00  0.00     0.124 HD
ATOM     31  H   UNL d   1      -0.240   2.789   0.808  0.00  0.00     0.124 HD
ENDBRANCH   3  29
TORSDOF 6
