REMARK  6 active torsions:
REMARK  status: ('A' for Active; 'I' for Inactive)
REMARK    1  A    between atoms: C_7  and  C_1 
REMARK    2  A    between atoms: C_6  and  O_10 
REMARK       I    between atoms: N_9  and  C_6 
REMARK    3  A    between atoms: O_10  and  C_7 
REMARK    4  A    between atoms: C_8  and  C_13 
REMARK    5  A    between atoms: O_14  and  C_8 
REMARK    6  A    between atoms: C_13  and  N_9 
ROOT
ATOM      1  C   UNL d   1      -0.030   1.812  -0.000  0.00  0.00     0.078 A 
ATOM      2  C   UNL d   1      -0.744  -0.486  -0.025  0.00  0.00    -0.018 A 
ATOM      3  C   UNL d   1       0.704  -0.479  -0.043  0.00  0.00    -0.018 A 
ATOM      4  C   UNL d   1      -1.209   0.847  -0.005  0.00  0.00    -0.036 A 
ATOM      5  C   UNL d   1       1.155   0.859  -0.048  0.00  0.00    -0.036 A 
ATOM      6  C   UNL d   1       1.614  -1.524  -0.036  0.00  0.00     0.013 A 
ATOM      7  C   UNL d   1      -1.642  -1.540  -0.022  0.00  0.00     0.013 A 
ATOM      8  C   UNL d   1      -2.564   1.141  -0.016  0.00  0.00     0.009 A 
ATOM      9  C   UNL d   1       2.507   1.167  -0.071  0.00  0.00     0.009 A 
ATOM     10  C   UNL d   1      -3.011  -1.250  -0.008  0.00  0.00     0.001 A 
ATOM     11  C   UNL d   1       2.979  -1.219  -0.029  0.00  0.00     0.001 A 
ATOM     12  C   UNL d   1       3.421   0.114  -0.051  0.00  0.00     0.001 A 
ATOM     13  C   UNL d   1      -3.468   0.078  -0.010  0.00  0.00     0.001 A 
ENDROOT
BRANCH   1  14
ATOM     14  C   UNL d   1      -0.017   2.761   1.210  0.00  0.00     0.194 C 
BRANCH  14  15
ATOM     15  O   UNL d   1       0.099   2.068   2.476  0.00  0.00    -0.303 OA
BRANCH  15  16
ATOM     16  C   UNL d   1       1.286   2.210   3.116  0.00  0.00     0.361 C 
ATOM     17  N   UNL d   1       1.362   1.544   4.297  0.00  0.00    -0.327 N 
ATOM     18  H   UNL d   1       2.251   1.640   4.780  0.00  0.00     0.165 HD
ATOM     19  O   UNL d   1       2.226   2.886   2.720  0.00  0.00    -0.239 OA
BRANCH  17  20
ATOM     20  C   UNL d   1       0.293   0.856   4.987  0.00  0.00     0.234 C 
BRANCH  20  21
ATOM     21  C   UNL d   1       0.841   0.214   6.257  0.00  0.00     0.158 C 
ATOM     22  O   UNL d   1       2.014   0.278   6.618  0.00  0.00    -0.649 OA
BRANCH  21  23
ATOM     23  O   UNL d   1      -0.097  -0.432   6.990  0.00  0.00    -0.775 OA
ATOM     24  H   UNL d   1      -0.996  -0.410   6.608  0.00  0.00     0.167 HD
ENDBRANCH  21  23
ENDBRANCH  20  21
ENDBRANCH  17  20
ENDBRANCH  15  16
ENDBRANCH  14  15
ENDBRANCH   1  14
TORSDOF 6
