REMARK  8 active torsions:
REMARK  status: ('A' for Active; 'I' for Inactive)
REMARK    1  A    between atoms: C_6  and  C_1 
REMARK    2  A    between atoms: O_8  and  C_1 
REMARK    3  A    between atoms: C_2  and  O_9 
REMARK    4  A    between atoms: C_7  and  C_2 
REMARK    5  A    between atoms: S_5  and  C_3 
REMARK    6  A    between atoms: C_4  and  S_5 
REMARK    7  A    between atoms: C_10  and  O_8 
REMARK    8  A    between atoms: O_9  and  C_11 
ROOT
ATOM      1  S   UNL d   1      -0.547   2.302   0.224  0.00  0.00    -0.085 SA
ENDROOT
BRANCH   1   2
ATOM      2  C   UNL d   1       1.018   2.193   1.089  0.00  0.00     0.041 A 
ATOM      3  C   UNL d   1       1.699   3.360   1.502  0.00  0.00     0.096 A 
ATOM      4  C   UNL d   1       2.934   3.297   2.147  0.00  0.00     0.040 A 
ATOM      5  C   UNL d   1       3.524   2.050   2.359  0.00  0.00     0.026 A 
ATOM      6  C   UNL d   1       2.882   0.891   1.920  0.00  0.00     0.035 A 
ATOM      7  C   UNL d   1       1.641   0.957   1.285  0.00  0.00     0.045 A 
ATOM      8 CL   UNL d   1       3.634  -0.639   2.151  0.00  0.00    -0.084 Cl
BRANCH   3   9
ATOM      9  O   UNL d   1       1.066   4.598   1.194  0.00  0.00    -0.273 OA
BRANCH   9  10
ATOM     10  C   UNL d   1       1.556   5.913   1.207  0.00  0.00     0.305 C 
ATOM     11  O   UNL d   1       2.654   6.244   1.637  0.00  0.00    -0.258 OA
BRANCH  10  12
ATOM     12  C   UNL d   1       0.566   6.816   0.633  0.00  0.00     0.080 A 
ATOM     13  S   UNL d   1      -0.858   6.227  -0.130  0.00  0.00    -0.096 SA
ATOM     14  C   UNL d   1      -1.412   7.796  -0.491  0.00  0.00     0.050 A 
ATOM     15  C   UNL d   1      -0.537   8.764  -0.056  0.00  0.00     0.009 A 
ATOM     16  C   UNL d   1       0.611   8.198   0.581  0.00  0.00     0.025 A 
ENDBRANCH  10  12
ENDBRANCH   9  10
ENDBRANCH   3   9
ENDBRANCH   1   2
BRANCH   1  17
ATOM     17  C   UNL d   1      -1.595   0.995   0.855  0.00  0.00     0.041 A 
ATOM     18  C   UNL d   1      -2.566   0.408   0.019  0.00  0.00     0.096 A 
ATOM     19  C   UNL d   1      -3.475  -0.538   0.512  0.00  0.00     0.040 A 
ATOM     20  C   UNL d   1      -3.377  -0.970   1.830  0.00  0.00     0.026 A 
ATOM     21  C   UNL d   1      -2.404  -0.421   2.661  0.00  0.00     0.035 A 
ATOM     22 CL   UNL d   1      -2.280  -0.967   4.288  0.00  0.00    -0.084 Cl
ATOM     23  C   UNL d   1      -1.537   0.572   2.192  0.00  0.00     0.045 A 
BRANCH  18  24
ATOM     24  O   UNL d   1      -2.680   0.851  -1.320  0.00  0.00    -0.273 OA
BRANCH  24  25
ATOM     25  C   UNL d   1      -2.831  -0.104  -2.329  0.00  0.00     0.305 C 
ATOM     26  O   UNL d   1      -2.787  -1.319  -2.153  0.00  0.00    -0.258 OA
BRANCH  25  27
ATOM     27  C   UNL d   1      -3.110   0.514  -3.614  0.00  0.00     0.080 A 
ATOM     28  S   UNL d   1      -2.806   2.167  -3.937  0.00  0.00    -0.096 SA
ATOM     29  C   UNL d   1      -3.355   2.026  -5.552  0.00  0.00     0.050 A 
ATOM     30  C   UNL d   1      -3.774   0.748  -5.845  0.00  0.00     0.009 A 
ATOM     31  C   UNL d   1      -3.623  -0.125  -4.730  0.00  0.00     0.025 A 
ENDBRANCH  25  27
ENDBRANCH  24  25
ENDBRANCH  18  24
ENDBRANCH   1  17
TORSDOF 8
