REMARK  4 active torsions:
REMARK  status: ('A' for Active; 'I' for Inactive)
REMARK    1  A    between atoms: C_15  and  C_1 
REMARK    2  A    between atoms: C_3  and  C_10 
REMARK    3  A    between atoms: N_7  and  O_17 
REMARK    4  A    between atoms: O_17  and  C_15 
ROOT
ATOM      1  N   UNL d   1      -1.426   4.058   0.067  0.00  0.00    -0.277 N 
ATOM      2  HN  UNL d   1      -0.787   4.581  -0.532  1.00  0.00     0.193 HD
ATOM      3  C   UNL d   1      -2.381   4.565   0.782  0.00  0.00     0.127 C 
ENDROOT
BRANCH   1   4
ATOM      4  O   UNL d   1      -1.421   2.665   0.257  0.00  0.00    -0.276 OA
BRANCH   4   5
ATOM      5  C   UNL d   1      -0.094   2.177   0.052  0.00  0.00     0.243 C 
BRANCH   5   6
ATOM      6  C   UNL d   1      -0.105   0.670   0.118  0.00  0.00     0.011 A 
ATOM      7  C   UNL d   1      -0.265  -0.110  -1.042  0.00  0.00     0.044 A 
ATOM      8 CL   UNL d   1      -0.475   0.598  -2.608  0.00  0.00    -0.084 Cl
ATOM      9  C   UNL d   1      -0.261  -1.509  -0.981  0.00  0.00     0.024 A 
ATOM     10  C   UNL d   1      -0.113  -2.159   0.239  0.00  0.00     0.003 A 
ATOM     11  C   UNL d   1       0.016  -1.409   1.403  0.00  0.00     0.024 A 
ATOM     12  C   UNL d   1       0.012  -0.009   1.345  0.00  0.00     0.044 A 
ATOM     13 CL   UNL d   1       0.154   0.832   2.852  0.00  0.00    -0.084 Cl
ENDBRANCH   5   6
ENDBRANCH   4   5
ENDBRANCH   1   4
BRANCH   3  14
ATOM     14  C   UNL d   1      -2.648   6.016   0.809  0.00  0.00     0.003 A 
ATOM     15  C   UNL d   1      -3.257   6.619   1.919  0.00  0.00     0.047 A 
ATOM     16  C   UNL d   1      -3.510   7.993   1.915  0.00  0.00     0.048 A 
ATOM     17 CL   UNL d   1      -3.678   5.737   3.343  0.00  0.00    -0.083 Cl
ATOM     18  C   UNL d   1      -3.165   8.760   0.804  0.00  0.00     0.035 A 
ATOM     19  C   UNL d   1      -2.557   8.170  -0.303  0.00  0.00     0.025 A 
ATOM     20 CL   UNL d   1      -3.492  10.449   0.800  0.00  0.00    -0.084 Cl
ATOM     21  C   UNL d   1      -2.292   6.798  -0.299  0.00  0.00     0.016 A 
ENDBRANCH   3  14
TORSDOF 4
