REMARK  4 active torsions:
REMARK  status: ('A' for Active; 'I' for Inactive)
REMARK    1  A    between atoms: C_15  and  C_2 
REMARK    2  A    between atoms: C_9  and  O_11 
REMARK    3  A    between atoms: O_11  and  C_10 
REMARK    4  A    between atoms: O_16  and  C_15 
ROOT
ATOM      1  C   UNL d   1       0.245   0.563  -0.052  0.00  0.00     0.093 A 
ATOM      2  C   UNL d   1      -0.502  -1.790  -0.022  0.00  0.00    -0.016 A 
ATOM      3  O   UNL d   1      -1.097   0.989  -0.084  0.00  0.00    -0.275 OA
ATOM      4  C   UNL d   1      -2.135   0.078  -0.039  0.00  0.00     0.288 A 
ATOM      5  C   UNL d   1       0.582  -0.794  -0.014  0.00  0.00     0.007 A 
ATOM      6  C   UNL d   1      -1.768  -1.344  -0.028  0.00  0.00     0.092 A 
ATOM      7  C   UNL d   1       1.205   1.578  -0.055  0.00  0.00     0.075 A 
ATOM      8  C   UNL d   1       1.945  -1.119   0.030  0.00  0.00     0.017 A 
ATOM      9  C   UNL d   1       2.546   1.229   0.018  0.00  0.00     0.081 A 
ATOM     10  O   UNL d   1      -3.311   0.419  -0.037  0.00  0.00    -0.260 OA
ATOM     11  C   UNL d   1       2.923  -0.115   0.047  0.00  0.00     0.038 A 
ENDROOT
BRANCH   9  12
ATOM     12  O   UNL d   1       3.599   2.167  -0.001  0.00  0.00    -0.279 OA
BRANCH  12  13
ATOM     13  C   UNL d   1       3.466   3.432   0.572  0.00  0.00     0.260 C 
ATOM     14  O   UNL d   1       2.489   3.874   1.161  0.00  0.00    -0.265 OA
ATOM     15  C   UNL d   1       4.735   4.209   0.377  0.00  0.00     0.126 C 
ENDBRANCH  12  13
ENDBRANCH   9  12
BRANCH   2  16
ATOM     16  C   UNL d   1      -0.207  -3.266  -0.066  0.00  0.00     0.206 C 
BRANCH  16  17
ATOM     17  O   UNL d   1       0.478  -3.652   1.123  0.00  0.00    -0.391 OA
ATOM     18  C   UNL d   1       0.800  -5.037   1.115  0.00  0.00     0.201 C 
ENDBRANCH  16  17
ENDBRANCH   2  16
TORSDOF 4
