REMARK  4 active torsions:
REMARK  status: ('A' for Active; 'I' for Inactive)
REMARK    1  A    between atoms: C_6  and  C_1 
REMARK    2  A    between atoms: C_7  and  C_6 
REMARK       I    between atoms: N_10  and  C_7 
REMARK    3  A    between atoms: C_9  and  C_15 
REMARK    4  A    between atoms: C_15  and  N_10 
ROOT
ATOM      1  C   UNL d   1       1.246  -1.195  -0.098  0.00  0.00    -0.007 A 
ATOM      2  C   UNL d   1       1.965  -0.011  -0.156  0.00  0.00     0.057 A 
ATOM      3  O   UNL d   1       1.122   1.060  -0.180  0.00  0.00    -0.314 OA
ATOM      4  C   UNL d   1      -0.134  -0.809  -0.087  0.00  0.00     0.007 A 
ATOM      5  C   UNL d   1      -0.146   0.580  -0.126  0.00  0.00     0.086 A 
ATOM      6  C   UNL d   1       3.405   0.324  -0.165  0.00  0.00     0.077 C 
ATOM      7  C   UNL d   1      -1.370  -1.480  -0.021  0.00  0.00     0.015 A 
ATOM      8  C   UNL d   1      -1.301   1.358  -0.098  0.00  0.00     0.038 A 
ATOM      9  C   UNL d   1      -2.553  -0.726   0.002  0.00  0.00     0.001 A 
ATOM     10  C   UNL d   1      -2.517   0.670  -0.033  0.00  0.00     0.003 A 
ENDROOT
BRANCH   1  11
ATOM     11  C   UNL d   1       1.774  -2.587   0.025  0.00  0.00     0.144 C 
BRANCH  11  12
ATOM     12  C   UNL d   1       2.647  -3.096  -1.111  0.00  0.00     0.222 C 
ATOM     13  O   UNL d   1       3.477  -3.982  -0.901  0.00  0.00    -0.273 OA
ATOM     14  N   UNL d   1       2.423  -2.589  -2.369  0.00  0.00    -0.357 N 
ATOM     15  H   UNL d   1       1.600  -2.018  -2.532  0.00  0.00     0.162 HD
BRANCH  14  16
ATOM     16  C   UNL d   1       3.095  -3.164  -3.506  0.00  0.00     0.149 C 
BRANCH  16  17
ATOM     17  C   UNL d   1       3.176  -2.138  -4.590  0.00  0.00    -0.018 C 
ATOM     18  C   UNL d   1       2.741  -2.324  -5.841  0.00  0.00     0.008 C 
ENDBRANCH  16  17
ENDBRANCH  14  16
ENDBRANCH  11  12
ENDBRANCH   1  11
TORSDOF 4
