REMARK  0 active torsions:
REMARK  status: ('A' for Active; 'I' for Inactive)
ROOT
ATOM      1  C   UNL d   1       3.405   1.393  -0.022  0.00  0.00     0.084 A 
ATOM      2  C   UNL d   1       4.354   2.458  -0.094  0.00  0.00     0.122 A 
ATOM      3  N   UNL d   1       4.172   3.764  -0.213  0.00  0.00    -0.340 N 
ATOM      4  HN  UNL d   1       3.281   4.258  -0.243  1.00  0.00     0.167 HD
ATOM      5  C   UNL d   1       3.841  -0.032   0.052  0.00  0.00     0.302 A 
ATOM      6  C   UNL d   1       2.097   1.701  -0.041  0.00  0.00     0.035 A 
ATOM      7  N   UNL d   1       5.705   2.176  -0.063  0.00  0.00    -0.340 N 
ATOM      8  O   UNL d   1       2.851  -1.007   0.035  0.00  0.00    -0.274 OA
ATOM      9  C   UNL d   1       1.082   0.659  -0.015  0.00  0.00     0.000 A 
ATOM     10  C   UNL d   1       1.488  -0.671   0.004  0.00  0.00     0.089 A 
ATOM     11  C   UNL d   1       5.428   4.321  -0.287  0.00  0.00     0.060 A 
ATOM     12  C   UNL d   1       6.408   3.341  -0.198  0.00  0.00     0.060 A 
ATOM     13  O   UNL d   1       5.028  -0.346   0.116  0.00  0.00    -0.259 OA
ATOM     14  C   UNL d   1      -0.285   0.946  -0.027  0.00  0.00     0.033 A 
ATOM     15  C   UNL d   1       0.573  -1.722  -0.003  0.00  0.00     0.039 A 
ATOM     16  C   UNL d   1      -1.212  -0.101  -0.027  0.00  0.00     0.011 A 
ATOM     17  C   UNL d   1      -0.790  -1.433  -0.020  0.00  0.00     0.022 A 
ATOM     18 BR   UNL d   1      -3.063   0.287  -0.041  0.00  0.00    -0.051 Br
ATOM     19  C   UNL d   1       5.815   5.660  -0.440  0.00  0.00     0.032 A 
ATOM     20  C   UNL d   1       7.777   3.611  -0.253  0.00  0.00     0.032 A 
ATOM     21  C   UNL d   1       8.144   4.952  -0.410  0.00  0.00     0.002 A 
ATOM     22  C   UNL d   1       7.183   5.961  -0.502  0.00  0.00     0.002 A 
ATOM     23  H   UNL d   1       6.101   1.246   0.023  0.00  0.00     0.167 HD
ENDROOT
TORSDOF 0
