REMARK  9 active torsions:
REMARK  status: ('A' for Active; 'I' for Inactive)
REMARK    1  A    between atoms: N_2  and  S_1 
REMARK    2  A    between atoms: C_4  and  S_1 
REMARK    3  A    between atoms: C_9  and  N_3 
REMARK    4  A    between atoms: C_12  and  C_9 
REMARK    5  A    between atoms: C_13  and  C_9 
REMARK    6  A    between atoms: C_23  and  C_18 
REMARK    7  A    between atoms: C_24  and  C_23 
REMARK    8  A    between atoms: C_26  and  C_24 
REMARK    9  A    between atoms: C_25  and  C_26 
ROOT
ATOM      1  N   UNL d   1       0.469  -1.093  -0.465  0.00  0.00    -0.203 NA
ATOM      2  N   UNL d   1      -0.919  -2.463   1.843  0.00  0.00     0.104 N 
ATOM      3  C   UNL d   1      -0.961  -0.876  -0.143  0.00  0.00     0.138 C 
ATOM      4  C   UNL d   1       0.798  -2.522  -0.138  0.00  0.00     0.138 C 
ATOM      5  C   UNL d   1       0.396  -2.927   1.309  0.00  0.00     0.289 C 
ATOM      6  C   UNL d   1      -1.230  -1.110   1.343  0.00  0.00     0.289 C 
ENDROOT
BRANCH   1   7
ATOM      7  S   UNL d   1       1.609   0.071   0.094  0.00  0.00     0.243 S 
ATOM      8  O   UNL d   1       2.848  -0.159  -0.630  0.00  0.00    -0.206 OA
ATOM      9  O   UNL d   1       1.601   0.081   1.536  0.00  0.00    -0.206 OA
BRANCH   7  10
ATOM     10  C   UNL d   1       0.955   1.639  -0.473  0.00  0.00     0.074 A 
ATOM     11  C   UNL d   1       0.610   2.624   0.456  0.00  0.00     0.025 A 
ATOM     12  C   UNL d   1      -0.120   3.744   0.039  0.00  0.00     0.009 A 
ATOM     13  C   UNL d   1      -0.474   3.910  -1.307  0.00  0.00    -0.058 A 
ATOM     14  C   UNL d   1       0.011   2.985  -2.245  0.00  0.00     0.009 A 
ATOM     15  C   UNL d   1       0.713   1.844  -1.831  0.00  0.00     0.025 A 
BRANCH  13  16
ATOM     16  C   UNL d   1      -1.356   5.070  -1.724  0.00  0.00     0.038 C 
BRANCH  16  17
ATOM     17  C   UNL d   1      -2.642   4.680  -2.477  0.00  0.00     0.005 C 
BRANCH  17  18
ATOM     18  C   UNL d   1      -3.608   3.817  -1.655  0.00  0.00    -0.000 C 
BRANCH  18  19
ATOM     19  C   UNL d   1      -4.868   3.479  -2.458  0.00  0.00    -0.005 C 
ATOM     20  C   UNL d   1      -5.830   2.609  -1.663  0.00  0.00     0.005 C 
ENDBRANCH  18  19
ENDBRANCH  17  18
ENDBRANCH  16  17
ENDBRANCH  13  16
ENDBRANCH   7  10
ENDBRANCH   1   7
BRANCH   2  21
ATOM     21  C   UNL d   1      -2.020  -3.460   1.723  0.00  0.00     0.289 C 
BRANCH  21  22
ATOM     22  C   UNL d   1      -1.704  -4.755   2.486  0.00  0.00    -0.021 A 
ATOM     23  C   UNL d   1      -1.454  -4.743   3.869  0.00  0.00     0.010 A 
ATOM     24  C   UNL d   1      -1.254  -5.934   4.570  0.00  0.00     0.001 A 
ATOM     25  C   UNL d   1      -1.278  -7.152   3.896  0.00  0.00     0.000 A 
ATOM     26  C   UNL d   1      -1.467  -7.177   2.515  0.00  0.00     0.001 A 
ATOM     27  C   UNL d   1      -1.678  -5.987   1.814  0.00  0.00     0.010 A 
ENDBRANCH  21  22
BRANCH  21  28
ATOM     28  C   UNL d   1      -3.414  -2.941   2.152  0.00  0.00    -0.021 A 
ATOM     29  C   UNL d   1      -4.565  -3.380   1.474  0.00  0.00     0.010 A 
ATOM     30  C   UNL d   1      -5.817  -2.808   1.735  0.00  0.00     0.001 A 
ATOM     31  C   UNL d   1      -5.944  -1.810   2.697  0.00  0.00     0.000 A 
ATOM     32  C   UNL d   1      -4.834  -1.425   3.443  0.00  0.00     0.001 A 
ATOM     33  C   UNL d   1      -3.588  -2.007   3.194  0.00  0.00     0.010 A 
ENDBRANCH  21  28
ENDBRANCH   2  21
TORSDOF 9
