REMARK  6 active torsions:
REMARK  status: ('A' for Active; 'I' for Inactive)
REMARK    1  A    between atoms: C_16  and  N_8 
REMARK    2  A    between atoms: C_23  and  C_16 
REMARK    3  A    between atoms: C_17  and  O_22 
REMARK    4  A    between atoms: O_22  and  C_26 
REMARK    5  A    between atoms: C_26  and  C_23 
REMARK    6  A    between atoms: O_30  and  C_23 
ROOT
ATOM      1  C   UNL d   1      -3.100   0.342  -0.245  0.00  0.00     0.148 A 
ATOM      2  N   UNL d   1      -2.407  -0.510   0.481  0.00  0.00    -0.336 N 
ATOM      3  HN  UNL d   1      -2.818  -1.147   1.163  1.00  0.00     0.168 HD
ATOM      4  S   UNL d   1      -2.113   1.335  -1.263  0.00  0.00    -0.052 SA
ATOM      5  N   UNL d   1      -4.460   0.412  -0.188  0.00  0.00    -0.358 N 
ATOM      6  C   UNL d   1      -0.695   0.518  -0.738  0.00  0.00     0.036 A 
ATOM      7  C   UNL d   1      -1.057  -0.437   0.207  0.00  0.00     0.051 A 
ATOM      8  N   UNL d   1      -7.253  -0.401  -0.733  0.00  0.00     0.094 N 
ATOM      9  C   UNL d   1       0.638   0.703  -1.135  0.00  0.00     0.045 A 
ATOM     10  C   UNL d   1      -5.178  -0.432   0.772  0.00  0.00     0.155 C 
ATOM     11  C   UNL d   1      -5.296   1.257  -1.043  0.00  0.00     0.155 C 
ATOM     12  C   UNL d   1      -0.054  -1.238   0.788  0.00  0.00     0.032 A 
ATOM     13  C   UNL d   1       1.612  -0.114  -0.552  0.00  0.00     0.035 A 
ATOM     14  C   UNL d   1      -6.456   0.433  -1.667  0.00  0.00     0.292 C 
ATOM     15  C   UNL d   1      -6.288  -1.232   0.048  0.00  0.00     0.292 C 
ATOM     16  C   UNL d   1       1.281  -1.072   0.398  0.00  0.00     0.026 A 
ATOM     17 CL   UNL d   1       3.257   0.065  -1.030  0.00  0.00    -0.084 Cl
ENDROOT
BRANCH   8  18
ATOM     18  C   UNL d   1      -8.090   0.381   0.193  0.00  0.00     0.306 C 
BRANCH  18  19
ATOM     19  C   UNL d   1      -9.199   1.285  -0.387  0.00  0.00     0.170 C 
BRANCH  19  20
ATOM     20  C   UNL d   1     -10.244   0.542  -1.237  0.00  0.00     0.209 C 
BRANCH  20  21
ATOM     21  O   UNL d   1     -11.220   1.506  -1.666  0.00  0.00    -0.349 OA
BRANCH  21  22
ATOM     22  C   UNL d   1     -12.209   1.084  -2.508  0.00  0.00     0.070 A 
ATOM     23  C   UNL d   1     -13.408   1.798  -2.431  0.00  0.00     0.062 A 
ATOM     24  C   UNL d   1     -14.478   1.498  -3.283  0.00  0.00     0.058 A 
ATOM     25 CL   UNL d   1     -15.928   2.418  -3.118  0.00  0.00    -0.082 Cl
ATOM     26  C   UNL d   1     -14.338   0.479  -4.232  0.00  0.00     0.056 A 
ATOM     27  C   UNL d   1     -13.136  -0.229  -4.315  0.00  0.00     0.028 A 
ATOM     28 CL   UNL d   1     -15.603   0.057  -5.332  0.00  0.00    -0.083 Cl
ATOM     29  C   UNL d   1     -12.073   0.074  -3.458  0.00  0.00     0.038 A 
ENDBRANCH  21  22
ENDBRANCH  20  21
ENDBRANCH  19  20
BRANCH  19  30
ATOM     30  O   UNL d   1      -9.835   1.937   0.731  0.00  0.00    -0.392 OA
ATOM     31  H   UNL d   1     -10.353   1.269   1.212  0.00  0.00     0.210 HD
ENDBRANCH  19  30
ENDBRANCH  18  19
ENDBRANCH   8  18
TORSDOF 6
