REMARK  8 active torsions:
REMARK  status: ('A' for Active; 'I' for Inactive)
REMARK    1  A    between atoms: C_4  and  C_1 
REMARK    2  A    between atoms: C_2  and  C_3 
REMARK    3  A    between atoms: C_5  and  O_10 
REMARK    4  A    between atoms: C_13  and  C_5 
REMARK    5  A    between atoms: O_10  and  N_6 
REMARK    6  A    between atoms: C_9  and  C_11 
REMARK    7  A    between atoms: N_26  and  C_9 
REMARK    8  A    between atoms: C_12  and  C_14 
ROOT
ATOM      1  N   UNL d   1       1.513  -5.377  -1.016  0.00  0.00    -0.246 N 
ATOM      2  HN  UNL d   1       2.211  -4.806  -0.538  1.00  0.00     0.196 HD
ATOM      3  C   UNL d   1       1.081  -6.522  -0.568  0.00  0.00     0.098 C 
ENDROOT
BRANCH   3   4
ATOM      4  C   UNL d   1       1.720  -6.998   0.697  0.00  0.00     0.044 C 
ATOM      5  C   UNL d   1       1.742  -8.294   1.052  0.00  0.00     0.014 C 
BRANCH   5   6
ATOM      6  C   UNL d   1       2.441  -8.795   2.249  0.00  0.00    -0.035 A 
ATOM      7  C   UNL d   1       2.470  -8.076   3.451  0.00  0.00     0.027 A 
ATOM      8  C   UNL d   1       3.177  -8.553   4.569  0.00  0.00     0.049 A 
ATOM      9  C   UNL d   1       3.843  -9.784   4.481  0.00  0.00     0.032 A 
ATOM     10  C   UNL d   1       3.805 -10.538   3.297  0.00  0.00     0.049 A 
ATOM     11  C   UNL d   1       3.089 -10.037   2.194  0.00  0.00     0.027 A 
BRANCH   8  12
ATOM     12  C   UNL d   1       3.225  -7.724   5.831  0.00  0.00     0.417 C 
ATOM     13  F   UNL d   1       3.982  -8.279   6.818  0.00  0.00    -0.166 F 
ATOM     14  F   UNL d   1       1.992  -7.527   6.371  0.00  0.00    -0.166 F 
ATOM     15  F   UNL d   1       3.744  -6.484   5.616  0.00  0.00    -0.166 F 
ENDBRANCH   8  12
BRANCH  10  16
ATOM     16  C   UNL d   1       4.535 -11.857   3.190  0.00  0.00     0.417 C 
ATOM     17  F   UNL d   1       5.245 -12.177   4.308  0.00  0.00    -0.166 F 
ATOM     18  F   UNL d   1       3.692 -12.903   2.971  0.00  0.00    -0.166 F 
ATOM     19  F   UNL d   1       5.430 -11.874   2.164  0.00  0.00    -0.166 F 
ENDBRANCH  10  16
ENDBRANCH   5   6
ENDBRANCH   3   4
BRANCH   3  20
ATOM     20  N   UNL d   1       0.092  -7.250  -1.184  0.00  0.00    -0.287 NA
ATOM     21  H   UNL d   1      -0.445  -6.685  -1.831  0.00  0.00     0.125 HD
ATOM     22  H   UNL d   1      -0.501  -7.777  -0.554  0.00  0.00     0.125 HD
ENDBRANCH   3  20
BRANCH   1  23
ATOM     23  O   UNL d   1       0.907  -5.015  -2.240  0.00  0.00    -0.194 OA
BRANCH  23  24
ATOM     24  C   UNL d   1       1.477  -3.864  -2.713  0.00  0.00     0.315 C 
ATOM     25  O   UNL d   1       2.330  -3.175  -2.165  0.00  0.00    -0.257 OA
BRANCH  24  26
ATOM     26  C   UNL d   1       0.913  -3.502  -4.047  0.00  0.00     0.041 A 
ATOM     27  C   UNL d   1       1.338  -2.298  -4.635  0.00  0.00     0.019 A 
ATOM     28  C   UNL d   1       0.849  -1.903  -5.885  0.00  0.00     0.025 A 
ATOM     29  C   UNL d   1      -0.067  -2.708  -6.554  0.00  0.00     0.034 A 
ATOM     30  C   UNL d   1      -0.495  -3.909  -5.985  0.00  0.00     0.025 A 
ATOM     31 CL   UNL d   1      -0.672  -2.225  -8.089  0.00  0.00    -0.084 Cl
ATOM     32  C   UNL d   1      -0.006  -4.308  -4.735  0.00  0.00     0.019 A 
ENDBRANCH  24  26
ENDBRANCH  23  24
ENDBRANCH   1  23
TORSDOF 8
