REMARK  1 active torsions:
REMARK  status: ('A' for Active; 'I' for Inactive)
REMARK    1  A    between atoms: C_12  and  C_3 
ROOT
ATOM      1  S   UNL d   1       1.655   1.941  -0.415  0.00  0.00    -0.144 SA
ATOM      2  S   UNL d   1       2.083  -1.081  -0.962  0.00  0.00    -0.144 SA
ATOM      3  C   UNL d   1       2.826   0.533  -0.508  0.00  0.00     0.141 C 
ATOM      4  C   UNL d   1      -0.292  -0.793   0.385  0.00  0.00    -0.041 A 
ATOM      5  C   UNL d   1      -0.478   0.578   0.625  0.00  0.00    -0.041 A 
ATOM      6  C   UNL d   1      -1.380  -1.559  -0.068  0.00  0.00     0.015 A 
ATOM      7  C   UNL d   1      -1.739   1.151   0.381  0.00  0.00     0.015 A 
ATOM      8  C   UNL d   1      -2.819   0.390  -0.093  0.00  0.00    -0.056 A 
ATOM      9  C   UNL d   1      -2.642  -0.986  -0.309  0.00  0.00    -0.056 A 
ATOM     10  C   UNL d   1       1.068  -1.432   0.499  0.00  0.00     0.114 C 
ATOM     11  C   UNL d   1       0.667   1.470   1.027  0.00  0.00     0.114 C 
ATOM     12  C   UNL d   1      -3.730  -1.886  -0.828  0.00  0.00     0.049 C 
ATOM     13  C   UNL d   1      -4.119   1.086  -0.389  0.00  0.00     0.049 C 
ENDROOT
BRANCH   3  14
ATOM     14  C   UNL d   1       3.916   0.887  -1.520  0.00  0.00    -0.035 A 
ATOM     15  C   UNL d   1       3.622   1.016  -2.893  0.00  0.00     0.009 A 
ATOM     16  C   UNL d   1       4.616   1.349  -3.814  0.00  0.00     0.001 A 
ATOM     17  C   UNL d   1       5.920   1.565  -3.380  0.00  0.00     0.000 A 
ATOM     18  C   UNL d   1       6.229   1.453  -2.025  0.00  0.00     0.001 A 
ATOM     19  C   UNL d   1       5.236   1.117  -1.099  0.00  0.00     0.009 A 
ENDBRANCH   3  14
TORSDOF 1
