REMARK  4 active torsions:
REMARK  status: ('A' for Active; 'I' for Inactive)
REMARK    1  A    between atoms: N_3  and  C_1 
REMARK    2  A    between atoms: C_2  and  C_7 
REMARK       I    between atoms: C_4  and  N_3 
REMARK    3  A    between atoms: C_12  and  C_4 
REMARK    4  A    between atoms: N_6  and  C_5 
ROOT
ATOM      1  C   UNL d   1       1.445  -0.303   0.208  0.00  0.00     0.057 A 
ATOM      2  C   UNL d   1       0.565  -1.400   0.034  0.00  0.00     0.037 A 
ATOM      3  C   UNL d   1      -0.416   1.273   0.162  0.00  0.00     0.050 A 
ATOM      4  C   UNL d   1       0.954   1.012   0.259  0.00  0.00     0.047 A 
ATOM      5  C   UNL d   1      -0.806  -1.113  -0.092  0.00  0.00     0.027 A 
ATOM      6  C   UNL d   1      -1.290   0.199  -0.025  0.00  0.00     0.018 A 
ENDROOT
BRANCH   1   7
ATOM      7  N   UNL d   1       2.837  -0.543   0.324  0.00  0.00    -0.321 N 
ATOM      8  C   UNL d   1       3.605   0.123   1.266  0.00  0.00     0.256 C 
ATOM      9  O   UNL d   1       3.189   0.943   2.082  0.00  0.00    -0.267 OA
ATOM     10  H   UNL d   1       3.129  -1.470   0.028  0.00  0.00     0.169 HD
BRANCH   8  11
ATOM     11  C   UNL d   1       5.038  -0.251   1.348  0.00  0.00     0.035 A 
ATOM     12  C   UNL d   1       5.819  -0.447   0.212  0.00  0.00     0.034 A 
ATOM     13  C   UNL d   1       7.167  -0.694   0.399  0.00  0.00     0.088 A 
ATOM     14  N   UNL d   1       7.761  -0.772   1.612  0.00  0.00    -0.375 N 
ATOM     15  C   UNL d   1       6.980  -0.570   2.694  0.00  0.00     0.088 A 
ATOM     16  HN  UNL d   1       8.756  -0.976   1.704  1.00  0.00     0.164 HD
ATOM     17  C   UNL d   1       5.628  -0.304   2.616  0.00  0.00     0.034 A 
ENDBRANCH   8  11
ENDBRANCH   1   7
BRANCH   2  18
ATOM     18  N   UNL d   1       1.065  -2.732   0.080  0.00  0.00    -0.281 NA
ATOM     19  C   UNL d   1       0.226  -3.750  -0.584  0.00  0.00     0.096 C 
ATOM     20  C   UNL d   1       1.008  -5.057  -0.683  0.00  0.00     0.015 C 
ATOM     21  C   UNL d   1       1.449  -5.530   0.701  0.00  0.00     0.002 C 
ATOM     22  C   UNL d   1       2.202  -4.428   1.441  0.00  0.00     0.015 C 
ATOM     23  C   UNL d   1       1.403  -3.124   1.471  0.00  0.00     0.096 C 
ENDBRANCH   2  18
BRANCH   3  24
ATOM     24  C   UNL d   1      -0.953   2.676   0.287  0.00  0.00     0.417 C 
ATOM     25  F   UNL d   1       0.009   3.626   0.455  0.00  0.00    -0.166 F 
ATOM     26  F   UNL d   1      -1.666   3.059  -0.809  0.00  0.00    -0.166 F 
ATOM     27  F   UNL d   1      -1.801   2.811   1.345  0.00  0.00    -0.166 F 
ENDBRANCH   3  24
TORSDOF 4
