REMARK  5 active torsions:
REMARK  status: ('A' for Active; 'I' for Inactive)
REMARK    1  A    between atoms: N_2  and  C_1 
REMARK    2  A    between atoms: C_5  and  C_1 
REMARK       I    between atoms: C_3  and  N_2 
REMARK    3  A    between atoms: C_7  and  C_3 
REMARK    4  A    between atoms: N_9  and  C_4 
REMARK    5  A    between atoms: O_10  and  C_5 
ROOT
ATOM      1  N   UNL d   1       0.603   1.402  -0.256  0.00  0.00    -0.317 N 
ATOM      2  C   UNL d   1      -0.336   2.091   0.491  0.00  0.00     0.256 C 
ATOM      3  O   UNL d   1      -0.862   1.696   1.526  0.00  0.00    -0.267 OA
ATOM      4  H   UNL d   1       1.321   1.986  -0.674  0.00  0.00     0.169 HD
ENDROOT
BRANCH   1   5
ATOM      5  C   UNL d   1       1.012   0.103   0.011  0.00  0.00     0.126 C 
ATOM      6  C   UNL d   1       0.222  -0.954   0.282  0.00  0.00     0.120 C 
BRANCH   6   7
ATOM      7  N   UNL d   1      -1.153  -1.185   0.259  0.00  0.00    -0.396 N 
ATOM      8  C   UNL d   1      -2.127  -0.371  -0.457  0.00  0.00     0.148 C 
ATOM      9  C   UNL d   1      -1.745  -2.278   1.032  0.00  0.00     0.148 C 
ENDBRANCH   6   7
BRANCH   5  10
ATOM     10  C   UNL d   1       2.492  -0.178  -0.007  0.00  0.00     0.311 C 
ATOM     11  O   UNL d   1       3.014  -1.268   0.173  0.00  0.00    -0.258 OA
BRANCH  10  12
ATOM     12  O   UNL d   1       3.171   0.986  -0.236  0.00  0.00    -0.321 OA
ATOM     13  C   UNL d   1       4.588   0.834  -0.139  0.00  0.00     0.213 C 
ENDBRANCH  10  12
ENDBRANCH   5  10
ENDBRANCH   1   5
BRANCH   2  14
ATOM     14  C   UNL d   1      -0.653   3.463   0.008  0.00  0.00     0.032 A 
ATOM     15  C   UNL d   1      -0.651   3.780  -1.356  0.00  0.00     0.017 A 
ATOM     16  C   UNL d   1      -1.022   5.062  -1.772  0.00  0.00     0.001 A 
ATOM     17  C   UNL d   1      -1.391   6.025  -0.833  0.00  0.00     0.000 A 
ATOM     18  C   UNL d   1      -1.394   5.712   0.526  0.00  0.00     0.001 A 
ATOM     19  C   UNL d   1      -1.031   4.432   0.946  0.00  0.00     0.017 A 
ENDBRANCH   2  14
TORSDOF 5
