REMARK  2 active torsions:
REMARK  status: ('A' for Active; 'I' for Inactive)
REMARK    1  A    between atoms: N_2  and  C_1 
REMARK    2  A    between atoms: C_9  and  C_4 
ROOT
ATOM      1  C   UNL d   1       2.363  -0.835  -0.041  0.00  0.00     0.115 C 
ATOM      2  C   UNL d   1       1.231  -1.547  -0.061  0.00  0.00     0.049 C 
ATOM      3  C   UNL d   1       2.458   0.655   0.021  0.00  0.00     0.218 C 
ATOM      4  O   UNL d   1       1.185   1.347  -0.082  0.00  0.00    -0.334 OA
ATOM      5  C   UNL d   1      -0.009  -0.784  -0.026  0.00  0.00     0.001 A 
ATOM      6  C   UNL d   1       0.030   0.616  -0.042  0.00  0.00     0.080 A 
ATOM      7  C   UNL d   1      -1.245  -1.440  -0.001  0.00  0.00     0.038 A 
ATOM      8  C   UNL d   1      -1.156   1.352  -0.027  0.00  0.00     0.039 A 
ATOM      9  C   UNL d   1      -2.426  -0.697   0.010  0.00  0.00     0.035 A 
ATOM     10  C   UNL d   1      -2.388   0.696  -0.000  0.00  0.00     0.026 A 
ATOM     11 CL   UNL d   1      -3.943  -1.508   0.033  0.00  0.00    -0.084 Cl
ENDROOT
BRANCH   3  12
ATOM     12  C   UNL d   1       3.115   1.175   1.296  0.00  0.00    -0.023 A 
ATOM     13  C   UNL d   1       4.298   1.932   1.225  0.00  0.00     0.013 A 
ATOM     14  C   UNL d   1       4.895   2.426   2.388  0.00  0.00     0.043 A 
ATOM     15  C   UNL d   1       4.314   2.165   3.622  0.00  0.00     0.116 A 
ATOM     16  C   UNL d   1       3.148   1.416   3.719  0.00  0.00     0.043 A 
ATOM     17  F   UNL d   1       4.882   2.647   4.735  0.00  0.00    -0.206 F 
ATOM     18  C   UNL d   1       2.549   0.921   2.560  0.00  0.00     0.013 A 
ENDBRANCH   3  12
BRANCH   1  19
ATOM     19  N   UNL d   1       3.619  -1.548  -0.142  0.00  0.00    -0.117 N 
ATOM     20  O   UNL d   1       3.663  -2.709   0.285  0.00  0.00    -0.532 OA
ATOM     21  O   UNL d   1       4.566  -0.952  -0.671  0.00  0.00    -0.532 OA
ENDBRANCH   1  19
TORSDOF 2
