REMARK  3 active torsions:
REMARK  status: ('A' for Active; 'I' for Inactive)
REMARK    1  A    between atoms: N_12  and  C_5 
REMARK    2  A    between atoms: C_14  and  N_12 
REMARK    3  A    between atoms: C_15  and  C_14 
ROOT
ATOM      1  C   UNL d   1       0.925   1.746   1.098  0.00  0.00     0.122 A 
ATOM      2  C   UNL d   1       1.527   1.369   2.287  0.00  0.00     0.138 A 
ATOM      3  N   UNL d   1       1.710   1.369   0.021  0.00  0.00    -0.346 N 
ATOM      4  HN  UNL d   1       1.522   1.524  -0.970  1.00  0.00     0.167 HD
ATOM      5  C   UNL d   1      -0.327   2.390   1.192  0.00  0.00     0.133 A 
ATOM      6  N   UNL d   1       2.687   0.749   1.922  0.00  0.00    -0.337 N 
ATOM      7  N   UNL d   1       1.076   1.552   3.534  0.00  0.00    -0.337 N 
ATOM      8  HN  UNL d   1       1.567   1.263   4.380  1.00  0.00     0.168 HD
ATOM      9  N   UNL d   1      -0.837   2.582   2.441  0.00  0.00    -0.337 N 
ATOM     10  HN  UNL d   1      -1.746   3.026   2.566  1.00  0.00     0.168 HD
ATOM     11  C   UNL d   1       2.753   0.768   0.555  0.00  0.00     0.182 A 
ATOM     12  C   UNL d   1      -0.120   2.174   3.512  0.00  0.00     0.183 A 
ATOM     13  H   UNL d   1       3.356   0.346   2.558  0.00  0.00     0.168 HD
ENDROOT
BRANCH   5  14
ATOM     14  N   UNL d   1      -1.029   2.778   0.067  0.00  0.00    -0.370 N 
ATOM     15  H   UNL d   1      -0.475   2.852  -0.778  0.00  0.00     0.161 HD
BRANCH  14  16
ATOM     16  C   UNL d   1      -2.265   3.514   0.165  0.00  0.00     0.160 C 
BRANCH  16  17
ATOM     17  C   UNL d   1      -2.058   5.009   0.228  0.00  0.00    -0.041 A 
ATOM     18  C   UNL d   1      -1.987   5.778  -0.944  0.00  0.00     0.009 A 
ATOM     19  C   UNL d   1      -1.869   7.169  -0.874  0.00  0.00     0.001 A 
ATOM     20  C   UNL d   1      -1.809   7.805   0.365  0.00  0.00     0.000 A 
ATOM     21  C   UNL d   1      -1.854   7.051   1.535  0.00  0.00     0.001 A 
ATOM     22  C   UNL d   1      -1.974   5.662   1.467  0.00  0.00     0.009 A 
ENDBRANCH  16  17
ENDBRANCH  14  16
ENDBRANCH   5  14
TORSDOF 3
