REMARK  9 active torsions:
REMARK  status: ('A' for Active; 'I' for Inactive)
REMARK    1  A    between atoms: C_12  and  C_1 
REMARK    2  A    between atoms: O_15  and  C_3 
REMARK    3  A    between atoms: C_4  and  N_11 
REMARK    4  A    between atoms: N_13  and  C_4 
REMARK    5  A    between atoms: N_11  and  N_6 
REMARK    6  A    between atoms: C_19  and  N_13 
REMARK    7  A    between atoms: C_17  and  C_19 
REMARK    8  A    between atoms: C_20  and  C_17 
REMARK    9  A    between atoms: O_18  and  C_20 
ROOT
ATOM      1  N   UNL d   1       0.879   4.369   0.510  0.00  0.00    -0.309 N 
ATOM      2  HN  UNL d   1       1.739   4.104   0.989  1.00  0.00     0.186 HD
ATOM      3  C   UNL d   1      -0.071   3.517   0.301  0.00  0.00     0.121 C 
ENDROOT
BRANCH   1   4
ATOM      4  N   UNL d   1       0.675   5.639   0.062  0.00  0.00    -0.277 N 
ATOM      5  H   UNL d   1      -0.272   5.951  -0.141  0.00  0.00     0.189 HD
BRANCH   4   6
ATOM      6  C   UNL d   1       1.716   6.539   0.013  0.00  0.00     0.186 C 
ATOM      7  S   UNL d   1       3.343   6.158  -0.057  0.00  0.00    -0.040 SA
BRANCH   6   8
ATOM      8  N   UNL d   1       1.375   7.865   0.021  0.00  0.00    -0.366 N 
ATOM      9  H   UNL d   1       2.189   8.469  -0.011  0.00  0.00     0.161 HD
BRANCH   8  10
ATOM     10  C   UNL d   1       0.183   8.426   0.637  0.00  0.00     0.124 C 
BRANCH  10  11
ATOM     11  C   UNL d   1      -0.700   9.167  -0.357  0.00  0.00     0.046 C 
BRANCH  11  12
ATOM     12  C   UNL d   1      -1.233   8.279  -1.475  0.00  0.00     0.168 C 
BRANCH  12  13
ATOM     13  O   UNL d   1      -1.870   7.127  -0.917  0.00  0.00    -0.396 OA
ATOM     14  C   UNL d   1      -2.431   6.308  -1.937  0.00  0.00     0.201 C 
ENDBRANCH  12  13
ENDBRANCH  11  12
ENDBRANCH  10  11
ENDBRANCH   8  10
ENDBRANCH   6   8
ENDBRANCH   4   6
ENDBRANCH   1   4
BRANCH   3  15
ATOM     15  C   UNL d   1       0.019   2.162   0.887  0.00  0.00     0.017 A 
ATOM     16  C   UNL d   1      -0.787   1.119   0.429  0.00  0.00     0.099 A 
ATOM     17  C   UNL d   1      -0.692  -0.142   1.033  0.00  0.00     0.069 A 
ATOM     18 CL   UNL d   1      -1.668  -1.452   0.474  0.00  0.00    -0.081 Cl
ATOM     19  C   UNL d   1       0.182  -0.359   2.099  0.00  0.00     0.050 A 
ATOM     20  C   UNL d   1       0.978   0.690   2.552  0.00  0.00     0.036 A 
ATOM     21  C   UNL d   1       0.909   1.942   1.948  0.00  0.00     0.039 A 
ATOM     22 CL   UNL d   1       2.040   0.440   3.883  0.00  0.00    -0.084 Cl
BRANCH  16  23
ATOM     23  O   UNL d   1      -1.653   1.330  -0.614  0.00  0.00    -0.358 OA
ATOM     24  H   UNL d   1      -2.084   0.476  -0.816  0.00  0.00     0.217 HD
ENDBRANCH  16  23
ENDBRANCH   3  15
TORSDOF 9
