REMARK  5 active torsions:
REMARK  status: ('A' for Active; 'I' for Inactive)
REMARK    1  A    between atoms: C_4  and  N_1 
REMARK    2  A    between atoms: C_3  and  C_12 
REMARK    3  A    between atoms: S_14  and  C_4 
REMARK    4  A    between atoms: N_13  and  C_5 
REMARK    5  A    between atoms: N_8  and  N_6 
ROOT
ATOM      1  C   UNL d   1       0.486   1.077   0.890  0.00  0.00     0.159 C 
ATOM      2  N   UNL d   1       1.034   1.969   1.666  0.00  0.00    -0.280 N 
ATOM      3  HN  UNL d   1       0.477   2.564   2.279  1.00  0.00     0.189 HD
ENDROOT
BRANCH   2   4
ATOM      4  N   UNL d   1       2.417   2.064   1.611  0.00  0.00    -0.309 N 
ATOM      5  C   UNL d   1       2.856   3.240   1.923  0.00  0.00     0.123 C 
ATOM      6  HN  UNL d   1       3.025   1.287   1.352  1.00  0.00     0.186 HD
BRANCH   5   7
ATOM      7  C   UNL d   1       4.303   3.489   2.031  0.00  0.00     0.041 A 
ATOM      8  C   UNL d   1       4.859   4.730   1.714  0.00  0.00     0.048 A 
ATOM      9 CL   UNL d   1       3.914   6.048   1.118  0.00  0.00    -0.083 Cl
ATOM     10  C   UNL d   1       6.241   4.932   1.845  0.00  0.00     0.025 A 
ATOM     11  C   UNL d   1       7.066   3.904   2.303  0.00  0.00     0.005 A 
ATOM     12  C   UNL d   1       6.514   2.668   2.627  0.00  0.00     0.043 A 
ATOM     13  C   UNL d   1       5.143   2.466   2.488  0.00  0.00     0.129 A 
ATOM     14  F   UNL d   1       4.656   1.268   2.845  0.00  0.00    -0.205 F 
ENDBRANCH   5   7
ENDBRANCH   2   4
BRANCH   1  15
ATOM     15  N   UNL d   1       1.095   0.306  -0.066  0.00  0.00    -0.332 N 
ATOM     16  C   UNL d   1       2.203  -0.293   0.202  0.00  0.00     0.179 C 
ATOM     17  HN  UNL d   1       0.672   0.207  -0.989  1.00  0.00     0.168 HD
BRANCH  16  18
ATOM     18  N   UNL d   1       2.887  -1.109  -0.673  0.00  0.00    -0.386 N 
ATOM     19  C   UNL d   1       4.254  -1.530  -0.431  0.00  0.00     0.149 C 
ATOM     20  C   UNL d   1       2.284  -1.566  -1.915  0.00  0.00     0.149 C 
ENDBRANCH  16  18
ENDBRANCH   1  15
BRANCH   1  21
ATOM     21  S   UNL d   1      -1.271   0.857   0.951  0.00  0.00    -0.097 SA
ATOM     22  C   UNL d   1      -1.734   2.012   2.251  0.00  0.00     0.099 C 
ENDBRANCH   1  21
TORSDOF 5
