REMARK  7 active torsions:
REMARK  status: ('A' for Active; 'I' for Inactive)
REMARK    1  A    between atoms: C_6  and  C_1 
REMARK    2  A    between atoms: C_2  and  C_4 
REMARK    3  A    between atoms: C_3  and  C_5 
REMARK    4  A    between atoms: O_7  and  C_6 
REMARK    5  A    between atoms: C_11  and  O_7 
REMARK    6  A    between atoms: C_8  and  C_11 
REMARK    7  A    between atoms: C_9  and  C_8 
ROOT
ATOM      1  C   UNL d   1       1.306  -0.113   0.254  0.00  0.00     0.069 C 
ATOM      2  C   UNL d   1       0.766   1.192   0.368  0.00  0.00     0.065 C 
ATOM      3  C   UNL d   1       0.520  -1.127  -0.350  0.00  0.00     0.065 C 
ATOM      4  C   UNL d   1      -0.666  -0.762  -1.027  0.00  0.00     0.017 C 
ATOM      5  C   UNL d   1      -0.425   1.512  -0.319  0.00  0.00     0.017 C 
ATOM      6  C   UNL d   1      -1.116   0.551  -1.042  0.00  0.00     0.002 C 
ENDROOT
BRANCH   1   7
ATOM      7  C   UNL d   1       2.720  -0.416   0.661  0.00  0.00     0.295 C 
ATOM      8  O   UNL d   1       3.147  -1.528   0.918  0.00  0.00    -0.259 OA
BRANCH   7   9
ATOM      9  O   UNL d   1       3.494   0.685   0.499  0.00  0.00    -0.310 OA
BRANCH   9  10
ATOM     10  C   UNL d   1       4.892   0.503   0.764  0.00  0.00     0.263 C 
BRANCH  10  11
ATOM     11  C   UNL d   1       5.263   0.465   2.251  0.00  0.00     0.183 C 
ATOM     12  O   UNL d   1       4.420   0.544   3.138  0.00  0.00    -0.290 OA
BRANCH  11  13
ATOM     13  C   UNL d   1       6.709   0.352   2.629  0.00  0.00     0.012 A 
ATOM     14  C   UNL d   1       7.740   0.283   1.682  0.00  0.00     0.017 A 
ATOM     15  C   UNL d   1       9.076   0.188   2.095  0.00  0.00     0.025 A 
ATOM     16  C   UNL d   1       9.386   0.162   3.454  0.00  0.00     0.034 A 
ATOM     17  C   UNL d   1       8.373   0.231   4.405  0.00  0.00     0.025 A 
ATOM     18 CL   UNL d   1      11.027   0.046   3.953  0.00  0.00    -0.084 Cl
ATOM     19  C   UNL d   1       7.039   0.328   3.996  0.00  0.00     0.017 A 
ENDBRANCH  11  13
ENDBRANCH  10  11
ENDBRANCH   9  10
ENDBRANCH   7   9
ENDBRANCH   1   7
BRANCH   2  20
ATOM     20  C   UNL d   1       1.365   2.279   1.233  0.00  0.00     0.418 C 
ATOM     21  F   UNL d   1       2.074   1.825   2.295  0.00  0.00    -0.166 F 
ATOM     22  F   UNL d   1       2.171   3.127   0.538  0.00  0.00    -0.166 F 
ATOM     23  F   UNL d   1       0.395   3.073   1.781  0.00  0.00    -0.166 F 
ENDBRANCH   2  20
BRANCH   3  24
ATOM     24  C   UNL d   1       0.864  -2.603  -0.316  0.00  0.00     0.418 C 
ATOM     25  F   UNL d   1       1.255  -3.066   0.898  0.00  0.00    -0.166 F 
ATOM     26  F   UNL d   1      -0.223  -3.380  -0.627  0.00  0.00    -0.166 F 
ATOM     27  F   UNL d   1       1.815  -2.949  -1.223  0.00  0.00    -0.166 F 
ENDBRANCH   3  24
TORSDOF 7
