REMARK  6 active torsions:
REMARK  status: ('A' for Active; 'I' for Inactive)
REMARK    1  A    between atoms: C_7  and  C_1 
REMARK    2  A    between atoms: C_3  and  C_2 
REMARK    3  A    between atoms: N_11  and  C_6 
REMARK    4  A    between atoms: O_19  and  C_7 
REMARK    5  A    between atoms: C_12  and  N_11 
REMARK    6  A    between atoms: C_24  and  O_19 
ROOT
ATOM      1  C   UNL d   1       0.009  -1.550   0.068  0.00  0.00     0.087 A 
ATOM      2  C   UNL d   1       1.187  -0.825   0.072  0.00  0.00     0.150 A 
ATOM      3  N   UNL d   1       1.170   0.550   0.062  0.00  0.00    -0.185 N 
ATOM      4  HN  UNL d   1       2.043   1.078   0.088  1.00  0.00     0.184 HD
ATOM      5  C   UNL d   1      -0.006   1.187   0.018  0.00  0.00     0.683 A 
ATOM      6  N   UNL d   1      -1.175   0.540   0.016  0.00  0.00    -0.201 N 
ATOM      7  HN  UNL d   1      -2.059   1.048  -0.019  1.00  0.00     0.183 HD
ATOM      8  C   UNL d   1      -1.148  -0.804   0.061  0.00  0.00     0.126 A 
ENDROOT
BRANCH   5   9
ATOM      9  N   UNL d   1       0.019   2.577   0.011  0.00  0.00    -0.192 N 
ATOM     10  H   UNL d   1       0.957   2.942   0.117  0.00  0.00     0.184 HD
BRANCH   9  11
ATOM     11  C   UNL d   1      -0.931   3.462  -0.530  0.00  0.00     0.050 A 
ATOM     12  C   UNL d   1      -1.048   4.752  -0.009  0.00  0.00     0.053 A 
ATOM     13  C   UNL d   1      -2.040   5.615  -0.486  0.00  0.00     0.036 A 
ATOM     14 CL   UNL d   1      -2.205   7.188   0.195  0.00  0.00    -0.084 Cl
ATOM     15  C   UNL d   1      -2.910   5.213  -1.497  0.00  0.00     0.024 A 
ATOM     16  C   UNL d   1      -2.795   3.934  -2.031  0.00  0.00     0.004 A 
ATOM     17  C   UNL d   1      -1.818   3.065  -1.541  0.00  0.00     0.030 A 
ENDBRANCH   9  11
ENDBRANCH   5   9
BRANCH   2  18
ATOM     18  C   UNL d   1       2.566  -1.455   0.087  0.00  0.00     0.434 C 
ATOM     19  F   UNL d   1       2.619  -2.780   0.387  0.00  0.00    -0.165 F 
ATOM     20  F   UNL d   1       3.207  -1.314  -1.110  0.00  0.00    -0.165 F 
ATOM     21  F   UNL d   1       3.386  -0.868   1.010  0.00  0.00    -0.165 F 
ENDBRANCH   2  18
BRANCH   1  22
ATOM     22  C   UNL d   1      -0.172  -3.003   0.115  0.00  0.00     0.296 C 
ATOM     23  O   UNL d   1      -1.058  -3.523   0.770  0.00  0.00    -0.259 OA
BRANCH  22  24
ATOM     24  O   UNL d   1       0.664  -3.619  -0.746  0.00  0.00    -0.318 OA
BRANCH  24  25
ATOM     25  C   UNL d   1       0.541  -5.051  -0.786  0.00  0.00     0.174 C 
ATOM     26  C   UNL d   1      -0.423  -5.443  -1.888  0.00  0.00     0.034 C 
ENDBRANCH  24  25
ENDBRANCH  22  24
ENDBRANCH   1  22
TORSDOF 6
