REMARK  4 active torsions:
REMARK  status: ('A' for Active; 'I' for Inactive)
REMARK    1  A    between atoms: C_9  and  C_3 
REMARK    2  A    between atoms: C_10  and  C_4 
REMARK    3  A    between atoms: C_8  and  O_11 
REMARK    4  A    between atoms: O_11  and  C_18 
ROOT
ATOM      1  N   UNL d   1       1.270   0.178  -0.018  0.00  0.00    -0.319 N 
ATOM      2  HN  UNL d   1       2.281   0.316  -0.010  1.00  0.00     0.169 HD
ATOM      3  C   UNL d   1       0.274   1.127  -0.035  0.00  0.00     0.138 A 
ATOM      4  C   UNL d   1       0.599  -0.950  -0.015  0.00  0.00     0.182 A 
ATOM      5  N   UNL d   1      -0.968   0.613  -0.052  0.00  0.00    -0.242 N 
ATOM      6  HN  UNL d   1      -1.857   1.113  -0.068  1.00  0.00     0.196 HD
ATOM      7  O   UNL d   1      -0.753  -0.766  -0.041  0.00  0.00    -0.217 OA
ENDROOT
BRANCH   4   8
ATOM      8  C   UNL d   1       1.099  -2.316   0.037  0.00  0.00     0.017 A 
ATOM      9  C   UNL d   1       2.477  -2.531   0.188  0.00  0.00     0.018 A 
ATOM     10  C   UNL d   1       3.006  -3.825   0.258  0.00  0.00     0.038 A 
ATOM     11  C   UNL d   1       2.167  -4.927   0.133  0.00  0.00     0.078 A 
ATOM     12  C   UNL d   1       0.789  -4.724   0.016  0.00  0.00     0.038 A 
ATOM     13  C   UNL d   1       0.256  -3.431  -0.037  0.00  0.00     0.018 A 
BRANCH  11  14
ATOM     14  O   UNL d   1       2.554  -6.230   0.178  0.00  0.00    -0.255 OA
BRANCH  14  15
ATOM     15  C   UNL d   1       3.817  -6.603  -0.360  0.00  0.00     0.530 C 
ATOM     16  F   UNL d   1       4.481  -5.603  -0.976  0.00  0.00    -0.144 F 
ATOM     17  F   UNL d   1       4.594  -7.092   0.631  0.00  0.00    -0.144 F 
ATOM     18  F   UNL d   1       3.622  -7.587  -1.266  0.00  0.00    -0.144 F 
ENDBRANCH  14  15
ENDBRANCH  11  14
ENDBRANCH   4   8
BRANCH   3  19
ATOM     19  C   UNL d   1       0.577   2.555  -0.021  0.00  0.00     0.010 A 
ATOM     20  C   UNL d   1       1.913   2.986  -0.086  0.00  0.00     0.022 A 
ATOM     21  C   UNL d   1       2.232   4.351  -0.068  0.00  0.00    -0.061 A 
ATOM     22  C   UNL d   1       3.662   4.805  -0.137  0.00  0.00     0.048 C 
ATOM     23  C   UNL d   1       1.202   5.290   0.018  0.00  0.00     0.007 A 
ATOM     24  C   UNL d   1      -0.129   4.874   0.082  0.00  0.00     0.002 A 
ATOM     25  C   UNL d   1      -0.440   3.514   0.061  0.00  0.00     0.015 A 
ENDBRANCH   3  19
TORSDOF 4
