REMARK  10 active torsions:
REMARK  status: ('A' for Active; 'I' for Inactive)
REMARK    1  A    between atoms: N_2  and  C_1 
REMARK    2  A    between atoms: C_3  and  C_1 
REMARK    3  A    between atoms: C_4  and  C_1 
REMARK    4  A    between atoms: O_7  and  C_1 
REMARK       I    between atoms: C_5  and  N_2 
REMARK    5  A    between atoms: O_14  and  C_5 
REMARK    6  A    between atoms: C_16  and  O_7 
REMARK    7  A    between atoms: C_17  and  O_14 
REMARK    8  A    between atoms: O_15  and  C_18 
REMARK    9  A    between atoms: C_19  and  O_15 
REMARK   10  A    between atoms: C_18  and  C_16 
ROOT
ATOM      1  C   UNL d   1       1.036   0.044   0.066  0.00  0.00     0.338 C 
ENDROOT
BRANCH   1   2
ATOM      2  N   UNL d   1       0.667  -0.387   1.441  0.00  0.00    -0.290 N 
ATOM      3  C   UNL d   1       1.032  -1.594   1.952  0.00  0.00     0.363 C 
ATOM      4  O   UNL d   1       1.747  -2.396   1.401  0.00  0.00    -0.238 OA
ATOM      5  H   UNL d   1      -0.038   0.124   1.956  0.00  0.00     0.168 HD
BRANCH   3   6
ATOM      6  O   UNL d   1       0.399  -1.760   3.138  0.00  0.00    -0.304 OA
BRANCH   6   7
ATOM      7  C   UNL d   1       0.371  -3.113   3.612  0.00  0.00     0.176 C 
ATOM      8  C   UNL d   1      -0.863  -3.780   3.029  0.00  0.00     0.034 C 
ENDBRANCH   6   7
ENDBRANCH   3   6
ENDBRANCH   1   2
BRANCH   1   9
ATOM      9  C   UNL d   1       0.337   1.396  -0.291  0.00  0.00     0.447 C 
ATOM     10  F   UNL d   1      -0.240   1.913   0.836  0.00  0.00    -0.166 F 
ATOM     11  F   UNL d   1       1.217   2.335  -0.718  0.00  0.00    -0.166 F 
ATOM     12  F   UNL d   1      -0.652   1.347  -1.201  0.00  0.00    -0.166 F 
ENDBRANCH   1   9
BRANCH   1  13
ATOM     13  C   UNL d   1       0.626  -1.013  -1.026  0.00  0.00     0.447 C 
ATOM     14  F   UNL d   1      -0.174  -1.982  -0.502  0.00  0.00    -0.166 F 
ATOM     15  F   UNL d   1      -0.053  -0.521  -2.083  0.00  0.00    -0.166 F 
ATOM     16  F   UNL d   1       1.704  -1.648  -1.553  0.00  0.00    -0.166 F 
ENDBRANCH   1  13
BRANCH   1  17
ATOM     17  O   UNL d   1       2.494   0.183   0.054  0.00  0.00    -0.344 OA
BRANCH  17  18
ATOM     18  C   UNL d   1       3.055   1.024   1.060  0.00  0.00     0.197 C 
BRANCH  18  19
ATOM     19  C   UNL d   1       4.577   1.000   0.957  0.00  0.00     0.193 C 
BRANCH  19  20
ATOM     20  O   UNL d   1       5.096   1.913   1.921  0.00  0.00    -0.389 OA
BRANCH  20  21
ATOM     21  C   UNL d   1       6.518   1.976   1.889  0.00  0.00     0.163 C 
ATOM     22  C   UNL d   1       6.961   2.983   2.932  0.00  0.00     0.033 C 
ENDBRANCH  20  21
ENDBRANCH  19  20
ENDBRANCH  18  19
ENDBRANCH  17  18
ENDBRANCH   1  17
TORSDOF 10
