REMARK  2 active torsions:
REMARK  status: ('A' for Active; 'I' for Inactive)
REMARK    1  A    between atoms: C_2  and  C_1 
REMARK       I    between atoms: N_9  and  C_2 
REMARK    2  A    between atoms: C_11  and  N_9 
ROOT
ATOM      1  C   UNL d   1      -0.285  -2.444   0.132  0.00  0.00     0.266 C 
ATOM      2  N   UNL d   1       0.784  -3.311  -0.058  0.00  0.00    -0.322 N 
ATOM      3  O   UNL d   1      -0.145  -1.259   0.421  0.00  0.00    -0.267 OA
ATOM      4  H   UNL d   1       0.562  -4.239  -0.396  0.00  0.00     0.169 HD
ENDROOT
BRANCH   1   5
ATOM      5  C   UNL d   1      -1.605  -3.007  -0.072  0.00  0.00     0.114 A 
ATOM      6  C   UNL d   1      -2.842  -2.371  -0.149  0.00  0.00     0.046 A 
ATOM      7  N   UNL d   1      -3.922  -3.231  -0.341  0.00  0.00    -0.298 N 
ATOM      8  C   UNL d   1      -3.151  -0.919  -0.063  0.00  0.00     0.071 C 
ATOM      9  N   UNL d   1      -3.546  -4.494  -0.410  0.00  0.00    -0.269 N 
ATOM     10  HN  UNL d   1      -4.890  -2.921  -0.420  1.00  0.00     0.187 HD
ATOM     11  S   UNL d   1      -1.899  -4.686  -0.244  0.00  0.00     0.009 SA
ATOM     12  HN  UNL d   1      -4.193  -5.269  -0.549  1.00  0.00     0.195 HD
ENDBRANCH   1   5
BRANCH   2  13
ATOM     13  C   UNL d   1       2.159  -2.997   0.046  0.00  0.00     0.036 A 
ATOM     14  C   UNL d   1       2.644  -1.802   0.585  0.00  0.00     0.053 A 
ATOM     15  C   UNL d   1       4.016  -1.543   0.604  0.00  0.00     0.036 A 
ATOM     16 CL   UNL d   1       4.595  -0.059   1.260  0.00  0.00    -0.084 Cl
ATOM     17  C   UNL d   1       4.920  -2.470   0.100  0.00  0.00     0.024 A 
ATOM     18  C   UNL d   1       4.450  -3.678  -0.414  0.00  0.00     0.004 A 
ATOM     19  C   UNL d   1       3.077  -3.943  -0.432  0.00  0.00     0.029 A 
ENDBRANCH   2  13
TORSDOF 2
