REMARK  5 active torsions:
REMARK  status: ('A' for Active; 'I' for Inactive)
REMARK    1  A    between atoms: C_5  and  N_1 
REMARK    2  A    between atoms: N_9  and  C_4 
REMARK    3  A    between atoms: C_12  and  C_16 
REMARK    4  A    between atoms: C_13  and  C_15 
REMARK    5  A    between atoms: C_17  and  N_14 
ROOT
ATOM      1  N   UNL d   1      -1.417   0.522  -0.324  0.00  0.00    -0.216 N 
ATOM      2  C   UNL d   1      -0.107   1.005  -0.335  0.00  0.00     0.291 A 
ATOM      3  C   UNL d   1       0.958  -0.038  -0.227  0.00  0.00     0.131 A 
ATOM      4  C   UNL d   1       0.671  -1.339  -0.070  0.00  0.00     0.075 A 
ATOM      5  N   UNL d   1      -1.755  -0.788  -0.120  0.00  0.00    -0.300 N 
ATOM      6  HN  UNL d   1      -2.729  -1.087  -0.072  1.00  0.00     0.186 HD
ATOM      7  C   UNL d   1      -0.785  -1.628   0.008  0.00  0.00     0.139 A 
ATOM      8  O   UNL d   1       0.182   2.200  -0.385  0.00  0.00    -0.264 OA
ATOM      9 CL   UNL d   1       2.592   0.526  -0.366  0.00  0.00    -0.076 Cl
ENDROOT
BRANCH   4  10
ATOM     10  N   UNL d   1       1.514  -2.436   0.096  0.00  0.00    -0.375 N 
ATOM     11  C   UNL d   1       1.564  -3.555  -0.875  0.00  0.00     0.143 C 
ATOM     12  C   UNL d   1       1.618  -4.915  -0.147  0.00  0.00     0.144 C 
ATOM     13  N   UNL d   1       2.655  -4.919   0.895  0.00  0.00    -0.364 N 
ATOM     14  C   UNL d   1       2.639  -3.792   1.831  0.00  0.00     0.144 C 
ATOM     15  C   UNL d   1       2.640  -2.457   1.050  0.00  0.00     0.143 C 
BRANCH  13  16
ATOM     16  C   UNL d   1       3.540  -5.962   0.978  0.00  0.00     0.103 A 
ATOM     17  N   UNL d   1       3.902  -6.586  -0.164  0.00  0.00    -0.352 N 
ATOM     18  C   UNL d   1       4.751  -7.641  -0.097  0.00  0.00     0.106 A 
ATOM     19  HN  UNL d   1       3.542  -6.269  -1.064  1.00  0.00     0.166 HD
ATOM     20  C   UNL d   1       5.253  -8.156   1.085  0.00  0.00     0.063 A 
ATOM     21  C   UNL d   1       4.899  -7.497   2.259  0.00  0.00     0.021 A 
ATOM     22  C   UNL d   1       4.051  -6.392   2.201  0.00  0.00     0.049 A 
BRANCH  20  23
ATOM     23  C   UNL d   1       6.103  -9.385   1.101  0.00  0.00     0.418 C 
ATOM     24  F   UNL d   1       6.327  -9.915  -0.132  0.00  0.00    -0.166 F 
ATOM     25  F   UNL d   1       7.331  -9.168   1.646  0.00  0.00    -0.166 F 
ATOM     26  F   UNL d   1       5.542 -10.386   1.838  0.00  0.00    -0.166 F 
ENDBRANCH  20  23
ENDBRANCH  13  16
ENDBRANCH   4  10
BRANCH   1  27
ATOM     27  C   UNL d   1      -2.526   1.412  -0.431  0.00  0.00     0.103 A 
ATOM     28  C   UNL d   1      -2.696   2.216  -1.575  0.00  0.00     0.065 A 
ATOM     29  C   UNL d   1      -3.765   3.120  -1.667  0.00  0.00     0.042 A 
ATOM     30 CL   UNL d   1      -1.691   2.058  -2.980  0.00  0.00    -0.082 Cl
ATOM     31  C   UNL d   1      -4.694   3.240  -0.626  0.00  0.00     0.051 A 
ATOM     32  C   UNL d   1      -4.540   2.430   0.506  0.00  0.00     0.042 A 
ATOM     33  C   UNL d   1      -3.471   1.526   0.605  0.00  0.00     0.065 A 
ATOM     34 CL   UNL d   1      -3.334   0.663   2.102  0.00  0.00    -0.082 Cl
BRANCH  31  35
ATOM     35  C   UNL d   1      -5.833   4.226  -0.731  0.00  0.00     0.417 C 
ATOM     36  F   UNL d   1      -6.652   4.224   0.356  0.00  0.00    -0.166 F 
ATOM     37  F   UNL d   1      -5.398   5.507  -0.870  0.00  0.00    -0.166 F 
ATOM     38  F   UNL d   1      -6.633   3.979  -1.803  0.00  0.00    -0.166 F 
ENDBRANCH  31  35
ENDBRANCH   1  27
TORSDOF 5
