REMARK  4 active torsions:
REMARK  status: ('A' for Active; 'I' for Inactive)
REMARK       I    between atoms: N_2  and  C_1 
REMARK    1  A    between atoms: C_4  and  C_1 
REMARK       I    between atoms: C_3  and  N_2 
REMARK       I    between atoms: N_5  and  C_3 
REMARK    2  A    between atoms: C_9  and  N_5 
REMARK    3  A    between atoms: O_6  and  C_10 
REMARK    4  A    between atoms: C_7  and  O_6 
ROOT
ATOM      1  C   UNL d   1       3.123  -1.113   0.727  0.00  0.00     0.070 C 
ATOM      2  C   UNL d   1       2.752   0.182   1.126  0.00  0.00     0.102 C 
ATOM      3  C   UNL d   1       3.481   1.286   0.676  0.00  0.00     0.039 C 
ATOM      4  C   UNL d   1       4.324  -1.297   0.040  0.00  0.00     0.032 C 
ATOM      5  C   UNL d   1       5.064  -0.192  -0.389  0.00  0.00     0.002 C 
ATOM      6  C   UNL d   1       4.626   1.098  -0.097  0.00  0.00     0.003 C 
ENDROOT
BRANCH   1   7
ATOM      7  N   UNL d   1       2.349  -2.260   0.975  0.00  0.00    -0.306 N 
ATOM      8  C   UNL d   1       1.016  -2.479   0.714  0.00  0.00     0.327 C 
ATOM      9  N   UNL d   1       0.340  -1.476   0.072  0.00  0.00    -0.275 N 
ATOM     10  O   UNL d   1       0.556  -3.577   1.016  0.00  0.00    -0.247 OA
ATOM     11  C   UNL d   1      -0.830  -1.637  -0.649  0.00  0.00     0.262 C 
ATOM     12  H   UNL d   1       0.837  -0.610  -0.058  0.00  0.00     0.173 HD
ATOM     13  O   UNL d   1      -1.534  -2.644  -0.630  0.00  0.00    -0.267 OA
ATOM     14  H   UNL d   1       2.832  -3.145   1.085  0.00  0.00     0.171 HD
BRANCH  11  15
ATOM     15  C   UNL d   1      -1.265  -0.489  -1.499  0.00  0.00     0.070 A 
ATOM     16  C   UNL d   1      -0.490   0.655  -1.701  0.00  0.00     0.132 A 
ATOM     17  F   UNL d   1       0.715   0.781  -1.125  0.00  0.00    -0.205 F 
ATOM     18  C   UNL d   1      -0.930   1.694  -2.520  0.00  0.00     0.043 A 
ATOM     19  C   UNL d   1      -2.166   1.600  -3.156  0.00  0.00     0.003 A 
ATOM     20  C   UNL d   1      -2.954   0.466  -2.972  0.00  0.00     0.001 A 
ATOM     21  C   UNL d   1      -2.506  -0.573  -2.150  0.00  0.00     0.020 A 
ENDBRANCH  11  15
ENDBRANCH   1   7
BRANCH   2  22
ATOM     22  O   UNL d   1       1.651   0.470   1.899  0.00  0.00    -0.307 OA
BRANCH  22  23
ATOM     23  C   UNL d   1       1.498  -0.139   3.132  0.00  0.00     0.098 A 
ATOM     24  C   UNL d   1       0.205  -0.143   3.682  0.00  0.00     0.069 A 
ATOM     25  C   UNL d   1      -0.048  -0.744   4.918  0.00  0.00     0.050 A 
ATOM     26 CL   UNL d   1      -1.120   0.594   2.849  0.00  0.00    -0.081 Cl
ATOM     27  C   UNL d   1       0.999  -1.344   5.613  0.00  0.00     0.035 A 
ATOM     28  C   UNL d   1       2.292  -1.331   5.094  0.00  0.00     0.026 A 
ATOM     29 CL   UNL d   1       0.698  -2.096   7.131  0.00  0.00    -0.084 Cl
ATOM     30  C   UNL d   1       2.547  -0.712   3.865  0.00  0.00     0.041 A 
ENDBRANCH  22  23
ENDBRANCH   2  22
TORSDOF 4
