REMARK  5 active torsions:
REMARK  status: ('A' for Active; 'I' for Inactive)
REMARK    1  A    between atoms: C_4  and  S_1 
REMARK    2  A    between atoms: C_7  and  S_1 
REMARK    3  A    between atoms: C_2  and  C_7 
REMARK    4  A    between atoms: C_3  and  N_6 
REMARK    5  A    between atoms: C_5  and  C_4 
REMARK       I    between atoms: N_6  and  C_5 
ROOT
ATOM      1  C   UNL d   1       0.124   1.286   0.707  0.00  0.00     0.243 C 
ENDROOT
BRANCH   1   2
ATOM      2  S   UNL d   1      -1.602   1.426   0.315  0.00  0.00     0.157 S 
ATOM      3  O   UNL d   1      -2.060   2.760   0.656  0.00  0.00    -0.227 OA
ATOM      4  O   UNL d   1      -2.265   0.242   0.822  0.00  0.00    -0.227 OA
BRANCH   2   5
ATOM      5  C   UNL d   1      -1.564   1.315  -1.477  0.00  0.00     0.184 C 
BRANCH   5   6
ATOM      6  C   UNL d   1      -2.958   1.484  -2.022  0.00  0.00     0.016 A 
ATOM      7  C   UNL d   1      -3.838   0.417  -2.248  0.00  0.00     0.044 A 
ATOM      8 CL   UNL d   1      -3.365  -1.225  -1.996  0.00  0.00    -0.084 Cl
ATOM      9  C   UNL d   1      -5.135   0.646  -2.729  0.00  0.00     0.024 A 
ATOM     10  C   UNL d   1      -5.571   1.944  -2.995  0.00  0.00     0.005 A 
ATOM     11  C   UNL d   1      -4.706   3.013  -2.787  0.00  0.00     0.043 A 
ATOM     12  C   UNL d   1      -3.420   2.775  -2.308  0.00  0.00     0.125 A 
ATOM     13  F   UNL d   1      -2.597   3.821  -2.147  0.00  0.00    -0.205 F 
ENDBRANCH   5   6
ENDBRANCH   2   5
ENDBRANCH   1   2
BRANCH   1  14
ATOM     14  C   UNL d   1       0.365   1.346   2.193  0.00  0.00     0.236 C 
ATOM     15  N   UNL d   1       1.517   0.655   2.558  0.00  0.00    -0.325 N 
ATOM     16  H   UNL d   1       2.217   0.548   1.836  0.00  0.00     0.169 HD
ATOM     17  O   UNL d   1      -0.315   2.009   2.966  0.00  0.00    -0.272 OA
BRANCH  15  18
ATOM     18  C   UNL d   1       1.986   0.461   3.884  0.00  0.00     0.046 A 
ATOM     19  C   UNL d   1       1.155   0.033   4.941  0.00  0.00    -0.034 A 
ATOM     20  C   UNL d   1       1.736  -0.266   6.192  0.00  0.00     0.015 A 
ATOM     21  C   UNL d   1      -0.333  -0.182   4.848  0.00  0.00     0.050 C 
ATOM     22  C   UNL d   1       3.115  -0.200   6.401  0.00  0.00    -0.061 A 
ATOM     23  C   UNL d   1       3.924   0.251   5.361  0.00  0.00     0.015 A 
ATOM     24  C   UNL d   1       3.699  -0.595   7.724  0.00  0.00     0.048 C 
ATOM     25  C   UNL d   1       3.378   0.597   4.111  0.00  0.00    -0.034 A 
ATOM     26  C   UNL d   1       4.340   1.120   3.074  0.00  0.00     0.050 C 
ENDBRANCH  15  18
ENDBRANCH   1  14
TORSDOF 5
