REMARK  2 active torsions:
REMARK  status: ('A' for Active; 'I' for Inactive)
REMARK    1  A    between atoms: N_4  and  N_1 
REMARK    2  A    between atoms: C_9  and  C_8 
ROOT
ATOM      1  N   UNL d   1       1.933   0.082  -0.174  0.00  0.00    -0.182 N 
ATOM      2  C   UNL d   1       1.135   1.205  -0.124  0.00  0.00     0.280 A 
ATOM      3  C   UNL d   1       1.189  -1.080  -0.104  0.00  0.00     0.280 A 
ATOM      4  C   UNL d   1      -0.241   0.721  -0.038  0.00  0.00     0.050 A 
ATOM      5  C   UNL d   1      -0.209  -0.661  -0.025  0.00  0.00     0.050 A 
ATOM      6  O   UNL d   1       1.401   2.393  -0.145  0.00  0.00    -0.265 OA
ATOM      7  O   UNL d   1       1.529  -2.249  -0.114  0.00  0.00    -0.265 OA
ATOM      8  C   UNL d   1      -1.429   1.427  -0.003  0.00  0.00     0.018 A 
ATOM      9  C   UNL d   1      -1.366  -1.416   0.025  0.00  0.00     0.018 A 
ATOM     10  C   UNL d   1      -2.582  -0.725   0.058  0.00  0.00     0.001 A 
ATOM     11  C   UNL d   1      -2.613   0.685   0.044  0.00  0.00     0.001 A 
ENDROOT
BRANCH   1  12
ATOM     12  N   UNL d   1       3.295   0.009  -0.318  0.00  0.00    -0.297 N 
ATOM     13  C   UNL d   1       3.989   1.089  -0.464  0.00  0.00     0.145 C 
ATOM     14  HN  UNL d   1       3.760  -0.899  -0.309  1.00  0.00     0.186 HD
BRANCH  13  15
ATOM     15  C   UNL d   1       5.412   1.011  -0.653  0.00  0.00     0.091 A 
ATOM     16  O   UNL d   1       6.101   2.180  -0.819  0.00  0.00    -0.321 OA
ATOM     17  C   UNL d   1       7.407   1.855  -0.994  0.00  0.00     0.142 A 
ATOM     18  C   UNL d   1       7.575   0.492  -0.942  0.00  0.00     0.027 A 
ATOM     19  C   UNL d   1       6.288  -0.055  -0.721  0.00  0.00     0.040 A 
ENDBRANCH  13  15
ENDBRANCH   1  12
TORSDOF 2
