REMARK  5 active torsions:
REMARK  status: ('A' for Active; 'I' for Inactive)
REMARK    1  A    between atoms: N_3  and  C_1 
REMARK    2  A    between atoms: C_7  and  C_2 
REMARK       I    between atoms: C_5  and  N_3 
REMARK    3  A    between atoms: C_8  and  C_5 
REMARK    4  A    between atoms: O_16  and  C_7 
REMARK    5  A    between atoms: C_18  and  O_16 
ROOT
ATOM      1  C   UNL d   1       0.511  -1.130  -0.266  0.00  0.00     0.093 A 
ATOM      2  C   UNL d   1       1.445  -0.102  -0.211  0.00  0.00     0.079 A 
ATOM      3  S   UNL d   1      -1.101  -0.598  -0.304  0.00  0.00    -0.083 SA
ATOM      4  C   UNL d   1       0.745   1.179  -0.063  0.00  0.00    -0.036 A 
ATOM      5  C   UNL d   1      -0.629   1.011  -0.042  0.00  0.00     0.059 A 
ATOM      6  C   UNL d   1       1.359   2.543   0.033  0.00  0.00     0.050 C 
ENDROOT
BRANCH   1   7
ATOM      7  N   UNL d   1       0.591  -2.499  -0.355  0.00  0.00    -0.316 N 
ATOM      8  C   UNL d   1       1.418  -3.254   0.457  0.00  0.00     0.263 C 
ATOM      9  O   UNL d   1       1.936  -2.817   1.486  0.00  0.00    -0.267 OA
ATOM     10  H   UNL d   1      -0.208  -2.987  -0.739  0.00  0.00     0.169 HD
BRANCH   8  11
ATOM     11  C   UNL d   1       1.594  -4.637   0.025  0.00  0.00     0.072 A 
ATOM     12  S   UNL d   1       1.230  -5.135  -1.578  0.00  0.00    -0.097 SA
ATOM     13  C   UNL d   1       1.844  -6.705  -1.304  0.00  0.00     0.050 A 
ATOM     14  C   UNL d   1       2.275  -6.871  -0.008  0.00  0.00     0.009 A 
ATOM     15  C   UNL d   1       2.128  -5.679   0.759  0.00  0.00     0.025 A 
ENDBRANCH   8  11
ENDBRANCH   1   7
BRANCH   2  16
ATOM     16  C   UNL d   1       2.910  -0.260  -0.328  0.00  0.00     0.296 C 
ATOM     17  O   UNL d   1       3.693   0.685  -0.255  0.00  0.00    -0.259 OA
BRANCH  16  18
ATOM     18  O   UNL d   1       3.321  -1.540  -0.531  0.00  0.00    -0.318 OA
BRANCH  18  19
ATOM     19  C   UNL d   1       4.645  -1.851  -0.072  0.00  0.00     0.174 C 
ATOM     20  C   UNL d   1       5.220  -2.960  -0.930  0.00  0.00     0.034 C 
ENDBRANCH  18  19
ENDBRANCH  16  18
ENDBRANCH   2  16
TORSDOF 5
