REMARK  4 active torsions:
REMARK  status: ('A' for Active; 'I' for Inactive)
REMARK    1  A    between atoms: C_4  and  C_1 
REMARK    2  A    between atoms: C_2  and  C_5 
REMARK       I    between atoms: C_3  and  N_6 
REMARK    3  A    between atoms: C_9  and  C_3 
REMARK    4  A    between atoms: N_6  and  C_7 
ROOT
ATOM      1  C   UNL d   1       0.445  -1.322   0.047  0.00  0.00     0.050 A 
ATOM      2  C   UNL d   1       0.893  -3.660  -0.471  0.00  0.00     0.050 A 
ATOM      3  C   UNL d   1      -1.125  -3.050   0.768  0.00  0.00     0.036 A 
ATOM      4  C   UNL d   1       1.261  -2.309  -0.525  0.00  0.00     0.032 A 
ATOM      5  C   UNL d   1      -0.739  -1.709   0.697  0.00  0.00     0.045 A 
ATOM      6  C   UNL d   1      -0.320  -4.014   0.149  0.00  0.00     0.045 A 
ENDROOT
BRANCH   3   7
ATOM      7  N   UNL d   1      -2.253  -3.505   1.489  0.00  0.00    -0.323 N 
ATOM      8  C   UNL d   1      -3.183  -2.724   2.149  0.00  0.00     0.256 C 
ATOM      9  O   UNL d   1      -3.266  -1.500   2.121  0.00  0.00    -0.267 OA
ATOM     10  H   UNL d   1      -2.396  -4.506   1.505  0.00  0.00     0.169 HD
BRANCH   8  11
ATOM     11  C   UNL d   1      -4.207  -3.470   2.932  0.00  0.00     0.032 A 
ATOM     12  C   UNL d   1      -3.891  -4.621   3.669  0.00  0.00     0.020 A 
ATOM     13  C   UNL d   1      -4.893  -5.284   4.380  0.00  0.00     0.043 A 
ATOM     14  C   UNL d   1      -6.198  -4.795   4.359  0.00  0.00     0.116 A 
ATOM     15  C   UNL d   1      -6.514  -3.637   3.658  0.00  0.00     0.043 A 
ATOM     16  F   UNL d   1      -7.157  -5.442   5.032  0.00  0.00    -0.206 F 
ATOM     17  C   UNL d   1      -5.516  -2.968   2.949  0.00  0.00     0.020 A 
ENDBRANCH   8  11
ENDBRANCH   3   7
BRANCH   1  18
ATOM     18  C   UNL d   1       0.832   0.137   0.012  0.00  0.00     0.417 C 
ATOM     19  F   UNL d   1       2.026   0.361  -0.612  0.00  0.00    -0.166 F 
ATOM     20  F   UNL d   1       0.959   0.675   1.255  0.00  0.00    -0.166 F 
ATOM     21  F   UNL d   1      -0.078   0.906  -0.646  0.00  0.00    -0.166 F 
ENDBRANCH   1  18
BRANCH   2  22
ATOM     22  C   UNL d   1       1.799  -4.736  -1.022  0.00  0.00     0.417 C 
ATOM     23  F   UNL d   1       3.033  -4.280  -1.368  0.00  0.00    -0.166 F 
ATOM     24  F   UNL d   1       2.012  -5.735  -0.118  0.00  0.00    -0.166 F 
ATOM     25  F   UNL d   1       1.290  -5.337  -2.130  0.00  0.00    -0.166 F 
ENDBRANCH   2  22
TORSDOF 4
