REMARK  3 active torsions:
REMARK  status: ('A' for Active; 'I' for Inactive)
REMARK       I    between atoms: N_2  and  C_1 
REMARK    1  A    between atoms: C_3  and  C_1 
REMARK    2  A    between atoms: C_9  and  N_2 
REMARK    3  A    between atoms: C_4  and  C_5 
ROOT
ATOM      1  C   UNL d   1      -1.105   1.052   0.226  0.00  0.00     0.256 C 
ATOM      2  N   UNL d   1       0.158   1.165  -0.329  0.00  0.00    -0.323 N 
ATOM      3  O   UNL d   1      -1.906   1.965   0.400  0.00  0.00    -0.267 OA
ATOM      4  H   UNL d   1       0.624   0.316  -0.618  0.00  0.00     0.169 HD
ENDROOT
BRANCH   2   5
ATOM      5  C   UNL d   1       0.792   2.378  -0.683  0.00  0.00     0.035 A 
ATOM      6  C   UNL d   1       0.347   3.625  -0.257  0.00  0.00     0.030 A 
ATOM      7  C   UNL d   1       1.007   4.795  -0.649  0.00  0.00     0.010 A 
ATOM      8  C   UNL d   1       2.138   4.760  -1.479  0.00  0.00    -0.051 A 
ATOM      9  C   UNL d   1       2.587   3.495  -1.890  0.00  0.00     0.010 A 
ATOM     10  C   UNL d   1       1.931   2.319  -1.489  0.00  0.00     0.030 A 
BRANCH   8  11
ATOM     11  C   UNL d   1       2.823   6.073  -1.891  0.00  0.00    -0.024 C 
ATOM     12  C   UNL d   1       4.060   5.868  -2.792  0.00  0.00     0.019 C 
ATOM     13  C   UNL d   1       1.827   6.962  -2.669  0.00  0.00     0.019 C 
ATOM     14  C   UNL d   1       3.294   6.835  -0.632  0.00  0.00     0.019 C 
ENDBRANCH   8  11
ENDBRANCH   2   5
BRANCH   1  15
ATOM     15  C   UNL d   1      -1.545  -0.318   0.601  0.00  0.00     0.032 A 
ATOM     16  C   UNL d   1      -0.651  -1.298   1.055  0.00  0.00     0.018 A 
ATOM     17  C   UNL d   1      -1.138  -2.543   1.465  0.00  0.00     0.025 A 
ATOM     18  C   UNL d   1      -2.509  -2.807   1.431  0.00  0.00     0.034 A 
ATOM     19  C   UNL d   1      -3.402  -1.839   0.982  0.00  0.00     0.025 A 
ATOM     20 CL   UNL d   1      -3.102  -4.330   1.966  0.00  0.00    -0.084 Cl
ATOM     21  C   UNL d   1      -2.920  -0.595   0.570  0.00  0.00     0.018 A 
ENDBRANCH   1  15
TORSDOF 3
