REMARK  6 active torsions:
REMARK  status: ('A' for Active; 'I' for Inactive)
REMARK    1  A    between atoms: C_6  and  N_1 
REMARK    2  A    between atoms: C_3  and  C_2 
REMARK    3  A    between atoms: N_11  and  C_6 
REMARK    4  A    between atoms: O_20  and  C_7 
REMARK    5  A    between atoms: C_10  and  N_11 
REMARK    6  A    between atoms: O_21  and  C_12 
ROOT
ATOM      1  C   UNL d   1      -0.977   6.386  -1.230  0.00  0.00     0.083 A 
ATOM      2  C   UNL d   1      -1.919   6.948  -0.376  0.00  0.00     0.086 A 
ATOM      3  C   UNL d   1      -0.832   4.980  -1.244  0.00  0.00     0.045 A 
ATOM      4  C   UNL d   1      -2.709   6.100   0.402  0.00  0.00     0.076 A 
ATOM      5  C   UNL d   1      -1.545   4.111  -0.388  0.00  0.00     0.044 A 
ATOM      6  C   UNL d   1      -2.543   4.699   0.411  0.00  0.00     0.092 A 
ENDROOT
BRANCH   5   7
ATOM      7  N   UNL d   1      -1.317   2.723  -0.471  0.00  0.00    -0.273 NA
ATOM      8  H   UNL d   1      -1.575   2.260   0.385  0.00  0.00     0.129 HD
BRANCH   7   9
ATOM      9  C   UNL d   1       0.020   2.275  -0.847  0.00  0.00     0.229 C 
BRANCH   9  10
ATOM     10  N   UNL d   1       0.216   0.962  -0.295  0.00  0.00    -0.275 N 
ATOM     11  C   UNL d   1       0.701   0.752   0.960  0.00  0.00     0.227 A 
ATOM     12  C   UNL d   1       0.894  -0.720   1.169  0.00  0.00     0.112 A 
ATOM     13  O   UNL d   1       0.959   1.604   1.797  0.00  0.00    -0.273 OA
ATOM     14  C   UNL d   1       0.469  -1.346  -0.143  0.00  0.00     0.112 A 
ATOM     15  C   UNL d   1       0.127  -0.182  -1.024  0.00  0.00     0.227 A 
ATOM     16  O   UNL d   1      -0.154  -0.284  -2.209  0.00  0.00    -0.273 OA
ENDBRANCH   9  10
ENDBRANCH   7   9
ENDBRANCH   5   7
BRANCH   6  17
ATOM     17  O   UNL d   1      -3.452   4.138   1.268  0.00  0.00    -0.354 OA
ATOM     18  C   UNL d   1      -3.444   2.765   1.589  0.00  0.00     0.210 C 
ENDBRANCH   6  17
BRANCH   1  19
ATOM     19  C   UNL d   1      -0.068   7.189  -2.127  0.00  0.00     0.420 C 
ATOM     20  F   UNL d   1      -0.209   8.540  -2.091  0.00  0.00    -0.166 F 
ATOM     21  F   UNL d   1       1.248   6.955  -1.838  0.00  0.00    -0.166 F 
ATOM     22  F   UNL d   1      -0.208   6.839  -3.439  0.00  0.00    -0.166 F 
ENDBRANCH   1  19
BRANCH   2  23
ATOM     23  O   UNL d   1      -2.040   8.309  -0.378  0.00  0.00    -0.355 OA
ATOM     24  C   UNL d   1      -2.696   8.898   0.740  0.00  0.00     0.210 C 
ENDBRANCH   2  23
TORSDOF 6
