REMARK  2 active torsions:
REMARK  status: ('A' for Active; 'I' for Inactive)
REMARK    1  A    between atoms: C_8  and  C_1 
REMARK    2  A    between atoms: O_17  and  C_12 
ROOT
ATOM      1  C   UNL d   1       1.674  -1.561  -0.040  0.00  0.00     0.162 A 
ATOM      2  N   UNL d   1       1.592  -0.682   0.904  0.00  0.00    -0.335 N 
ATOM      3  HN  UNL d   1       2.244  -0.682   1.688  1.00  0.00     0.168 HD
ATOM      4  O   UNL d   1       0.877  -1.647  -1.127  0.00  0.00    -0.257 OA
ATOM      5  C   UNL d   1      -0.142  -0.774  -1.287  0.00  0.00     0.302 A 
ATOM      6  C   UNL d   1      -0.317   0.257  -0.258  0.00  0.00     0.066 A 
ATOM      7  C   UNL d   1       0.576   0.263   0.804  0.00  0.00     0.050 A 
ATOM      8  O   UNL d   1      -0.898  -0.832  -2.252  0.00  0.00    -0.259 OA
ATOM      9  C   UNL d   1      -1.343   1.204  -0.342  0.00  0.00     0.020 A 
ATOM     10  C   UNL d   1       0.444   1.232   1.798  0.00  0.00     0.030 A 
ATOM     11  C   UNL d   1      -1.469   2.171   0.653  0.00  0.00     0.001 A 
ATOM     12  C   UNL d   1      -0.575   2.187   1.723  0.00  0.00     0.002 A 
ENDROOT
BRANCH   1  13
ATOM     13  C   UNL d   1       2.686  -2.649  -0.036  0.00  0.00     0.015 A 
ATOM     14  C   UNL d   1       3.617  -2.705   1.010  0.00  0.00     0.018 A 
ATOM     15  C   UNL d   1       4.546  -3.750   1.081  0.00  0.00     0.037 A 
ATOM     16  C   UNL d   1       4.550  -4.744   0.104  0.00  0.00     0.068 A 
ATOM     17  C   UNL d   1       3.624  -4.691  -0.939  0.00  0.00     0.037 A 
ATOM     18  C   UNL d   1       2.702  -3.644  -1.020  0.00  0.00     0.018 A 
BRANCH  16  19
ATOM     19  O   UNL d   1       5.371  -5.837   0.090  0.00  0.00    -0.356 OA
ATOM     20  C   UNL d   1       6.644  -5.658   0.697  0.00  0.00     0.210 C 
ENDBRANCH  16  19
ENDBRANCH   1  13
TORSDOF 2
