REMARK  4 active torsions:
REMARK  status: ('A' for Active; 'I' for Inactive)
REMARK    1  A    between atoms: C_10  and  C_1 
REMARK    2  A    between atoms: C_15  and  C_7 
REMARK    3  A    between atoms: C_8  and  C_13 
REMARK    4  A    between atoms: C_9  and  C_12 
ROOT
ATOM      1  C   UNL d   1       5.166  -2.786   1.041  0.00  0.00     0.086 A 
ATOM      2  C   UNL d   1       2.886  -0.115   0.314  0.00  0.00     0.060 C 
ATOM      3  O   UNL d   1       4.502  -1.640   1.377  0.00  0.00    -0.310 OA
ATOM      4  C   UNL d   1       3.694  -1.278   0.325  0.00  0.00     0.077 A 
ATOM      5  C   UNL d   1       4.784  -3.180  -0.223  0.00  0.00     0.041 A 
ATOM      6  C   UNL d   1       3.867  -2.211  -0.687  0.00  0.00     0.040 A 
ENDROOT
BRANCH   1   7
ATOM      7  C   UNL d   1       6.141  -3.289   2.007  0.00  0.00    -0.001 A 
ATOM      8  C   UNL d   1       6.302  -2.695   3.267  0.00  0.00     0.030 A 
ATOM      9  C   UNL d   1       7.319  -3.107   4.148  0.00  0.00     0.049 A 
ATOM     10  C   UNL d   1       8.173  -4.152   3.761  0.00  0.00     0.032 A 
ATOM     11  C   UNL d   1       8.027  -4.774   2.514  0.00  0.00     0.049 A 
ATOM     12  C   UNL d   1       6.998  -4.344   1.657  0.00  0.00     0.030 A 
BRANCH   9  13
ATOM     13  C   UNL d   1       7.505  -2.393   5.465  0.00  0.00     0.417 C 
ATOM     14  F   UNL d   1       8.583  -2.835   6.172  0.00  0.00    -0.166 F 
ATOM     15  F   UNL d   1       7.693  -1.053   5.305  0.00  0.00    -0.166 F 
ATOM     16  F   UNL d   1       6.434  -2.527   6.293  0.00  0.00    -0.166 F 
ENDBRANCH   9  13
BRANCH  11  17
ATOM     17  C   UNL d   1       8.975  -5.856   2.055  0.00  0.00     0.417 C 
ATOM     18  F   UNL d   1       9.998  -6.087   2.922  0.00  0.00    -0.166 F 
ATOM     19  F   UNL d   1       8.355  -7.054   1.876  0.00  0.00    -0.166 F 
ATOM     20  F   UNL d   1       9.559  -5.555   0.862  0.00  0.00    -0.166 F 
ENDBRANCH  11  17
ENDBRANCH   1   7
BRANCH   2  21
ATOM     21  C   UNL d   1       1.621  -0.077   0.773  0.00  0.00     0.102 A 
ATOM     22  C   UNL d   1       0.913   1.220   0.608  0.00  0.00     0.263 A 
ATOM     23  N   UNL d   1      -0.363   1.261   1.103  0.00  0.00    -0.299 N 
ATOM     24  O   UNL d   1       1.401   2.197   0.052  0.00  0.00    -0.267 OA
ATOM     25  C   UNL d   1      -1.020   0.243   1.720  0.00  0.00     0.181 A 
ATOM     26  H   UNL d   1      -0.854   2.139   0.983  0.00  0.00     0.171 HD
ATOM     27  N   UNL d   1      -0.355  -0.936   1.853  0.00  0.00    -0.299 N 
ATOM     28  S   UNL d   1      -2.573   0.430   2.280  0.00  0.00    -0.040 SA
ATOM     29  C   UNL d   1       0.905  -1.220   1.396  0.00  0.00     0.263 A 
ATOM     30  H   UNL d   1      -0.843  -1.710   2.287  0.00  0.00     0.171 HD
ATOM     31  O   UNL d   1       1.350  -2.358   1.501  0.00  0.00    -0.267 OA
ENDBRANCH   2  21
TORSDOF 4
