REMARK  7 active torsions:
REMARK  status: ('A' for Active; 'I' for Inactive)
REMARK    1  A    between atoms: C2_2  and  C1_1 
REMARK       I    between atoms: N_12  and  C1_1 
REMARK    2  A    between atoms: S1_7  and  C3_3 
REMARK    3  A    between atoms: CA_13  and  N_12 
REMARK    4  A    between atoms: CB_16  and  CA_13 
REMARK    5  A    between atoms: CA_13  and  C_14 
REMARK    6  A    between atoms: OXT_17  and  C_14 
REMARK    7  A    between atoms: CG_18  and  CB_16 
ROOT
ATOM      1  C1  <1> d   1      -1.302  -0.279  -2.825  0.00  0.00     0.255 C 
ATOM      2  O1  <1> d   1      -1.344   0.796  -2.225  0.00  0.00    -0.268 OA
ATOM      3  N   LEU d   1      -1.164  -1.465  -2.132  0.00  0.00    -0.342 N 
ATOM      4  H   LEU d   1      -0.878  -2.296  -2.646  0.00  0.00     0.163 HD
ENDROOT
BRANCH   1   5
ATOM      5  C2  <1> d   1      -1.222  -0.272  -4.307  0.00  0.00     0.065 A 
ATOM      6  C3  <1> d   1      -1.798  -1.180  -5.198  0.00  0.00     0.085 A 
ATOM      7  N2  <1> d   1      -1.646  -1.042  -6.544  0.00  0.00    -0.360 N 
ATOM      8  C9  <1> d   1      -0.935   0.002  -7.022  0.00  0.00     0.089 A 
ATOM      9  H2  <1> d   1      -2.063  -1.718  -7.183  1.00  0.00     0.166 HD
ATOM     10  C11 <1> d   1      -0.344   0.948  -6.216  0.00  0.00     0.018 A 
ATOM     11  C7  <1> d   1      -0.495   0.809  -4.845  0.00  0.00     0.021 A 
BRANCH   6  12
ATOM     12  S1  <1> d   1      -2.755  -2.602  -4.688  0.00  0.00    -0.116 SA
ATOM     13  C10 <1> d   1      -3.470  -3.188  -6.265  0.00  0.00     0.097 C 
ENDBRANCH   6  12
ENDBRANCH   1   5
BRANCH   3  14
ATOM     14  CA  LEU d   1      -0.821  -1.387  -0.709  0.00  0.00     0.183 C 
BRANCH  14  15
ATOM     15  CB  LEU d   1      -1.288  -2.607   0.091  0.00  0.00     0.040 C 
BRANCH  15  16
ATOM     16  CG  LEU d   1      -1.011  -2.486   1.610  0.00  0.00    -0.020 C 
ATOM     17  CD1 LEU d   1      -1.862  -1.403   2.280  0.00  0.00     0.009 C 
ATOM     18  CD2 LEU d   1      -1.256  -3.828   2.301  0.00  0.00     0.009 C 
ENDBRANCH  15  16
ENDBRANCH  14  15
BRANCH  14  19
ATOM     19  C   LEU d   1       0.707  -1.224  -0.635  0.00  0.00     0.163 C 
ATOM     20  O   LEU d   1       1.508  -2.139  -0.745  0.00  0.00    -0.648 OA
BRANCH  19  21
ATOM     21  OXT LEU d   1       1.097   0.074  -0.564  0.00  0.00    -0.775 OA
ATOM     22  HXT LEU d   1       0.347   0.699  -0.685  0.00  0.00     0.167 HD
ENDBRANCH  19  21
ENDBRANCH  14  19
ENDBRANCH   3  14
TORSDOF 7
