REMARK  7 active torsions:
REMARK  status: ('A' for Active; 'I' for Inactive)
REMARK    1  A    between atoms: C_5  and  C_1 
REMARK    2  A    between atoms: C_2  and  N_8 
REMARK    3  A    between atoms: C_13  and  C_3 
REMARK       I    between atoms: N_8  and  C_5 
REMARK    4  A    between atoms: O_19  and  C_6 
REMARK    5  A    between atoms: O_20  and  C_9 
REMARK    6  A    between atoms: O_22  and  C_12 
REMARK    7  A    between atoms: O_21  and  C_13 
ROOT
ATOM      1  C   UNL d   1      -1.460  -4.115  -0.083  0.00  0.00     0.088 A 
ATOM      2  C   UNL d   1      -0.561  -3.662   0.917  0.00  0.00     0.071 A 
ATOM      3  C   UNL d   1      -1.089  -5.207  -0.905  0.00  0.00     0.132 A 
ATOM      4  C   UNL d   1       0.227  -5.731  -0.804  0.00  0.00     0.137 A 
ATOM      5  C   UNL d   1       0.714  -4.239   1.035  0.00  0.00     0.059 A 
ATOM      6  C   UNL d   1       1.126  -5.242   0.165  0.00  0.00     0.105 A 
ENDROOT
BRANCH   1   7
ATOM      7  N   UNL d   1      -2.714  -3.493  -0.253  0.00  0.00    -0.319 N 
ATOM      8  C   UNL d   1      -2.824  -2.145  -0.532  0.00  0.00     0.262 C 
ATOM      9  O   UNL d   1      -1.863  -1.383  -0.616  0.00  0.00    -0.267 OA
ATOM     10  H   UNL d   1      -3.525  -4.087  -0.419  0.00  0.00     0.169 HD
BRANCH   8  11
ATOM     11  C   UNL d   1      -4.218  -1.643  -0.769  0.00  0.00     0.108 A 
ATOM     12  C   UNL d   1      -5.400  -2.531  -0.815  0.00  0.00     0.304 A 
ATOM     13  O   UNL d   1      -6.643  -1.948  -1.015  0.00  0.00    -0.274 OA
ATOM     14  O   UNL d   1      -5.287  -3.752  -0.714  0.00  0.00    -0.259 OA
ATOM     15  C   UNL d   1      -6.790  -0.553  -1.048  0.00  0.00     0.089 A 
ATOM     16  C   UNL d   1      -5.678   0.280  -1.007  0.00  0.00    -0.001 A 
ATOM     17  C   UNL d   1      -8.085  -0.045  -1.070  0.00  0.00     0.038 A 
ATOM     18  C   UNL d   1      -4.357  -0.316  -0.919  0.00  0.00     0.037 A 
ATOM     19  C   UNL d   1      -5.868   1.663  -0.977  0.00  0.00     0.014 A 
ATOM     20  C   UNL d   1      -7.164   2.187  -0.969  0.00  0.00     0.001 A 
ATOM     21  C   UNL d   1      -8.270   1.335  -1.019  0.00  0.00     0.003 A 
ENDBRANCH   8  11
ENDBRANCH   1   7
BRANCH   2  22
ATOM     22  C   UNL d   1      -0.875  -2.645   1.970  0.00  0.00     0.295 C 
ATOM     23  O   UNL d   1      -0.008  -2.034   2.582  0.00  0.00    -0.259 OA
BRANCH  22  24
ATOM     24  O   UNL d   1      -2.205  -2.572   2.228  0.00  0.00    -0.322 OA
ATOM     25  C   UNL d   1      -2.586  -1.553   3.155  0.00  0.00     0.213 C 
ENDBRANCH  22  24
ENDBRANCH   2  22
BRANCH   3  26
ATOM     26  O   UNL d   1      -1.893  -5.880  -1.787  0.00  0.00    -0.351 OA
ATOM     27  C   UNL d   1      -3.010  -5.296  -2.428  0.00  0.00     0.210 C 
ENDBRANCH   3  26
BRANCH   4  28
ATOM     28  O   UNL d   1       0.722  -6.761  -1.580  0.00  0.00    -0.351 OA
ATOM     29  C   UNL d   1       0.325  -6.791  -2.947  0.00  0.00     0.210 C 
ENDBRANCH   4  28
BRANCH   6  30
ATOM     30  O   UNL d   1       2.374  -5.819   0.196  0.00  0.00    -0.353 OA
ATOM     31  C   UNL d   1       3.333  -5.279   1.098  0.00  0.00     0.210 C 
ENDBRANCH   6  30
TORSDOF 7
