REMARK  5 active torsions:
REMARK  status: ('A' for Active; 'I' for Inactive)
REMARK    1  A    between atoms: N_2  and  C_1 
REMARK    2  A    between atoms: N_9  and  C_1 
REMARK    3  A    between atoms: C_4  and  N_2 
REMARK    4  A    between atoms: C_5  and  C_13 
REMARK    5  A    between atoms: C_13  and  N_9 
ROOT
ATOM      1  N   UNL d   1       2.425   0.112  -0.050  0.00  0.00    -0.363 N 
ATOM      2  H   UNL d   1       2.701   1.046  -0.335  0.00  0.00     0.162 HD
ENDROOT
BRANCH   1   3
ATOM      3  C   UNL d   1       1.066  -0.056  -0.053  0.00  0.00     0.168 C 
ATOM      4  S   UNL d   1       0.111   1.201  -0.590  0.00  0.00    -0.041 SA
BRANCH   3   5
ATOM      5  N   UNL d   1       0.625  -1.254   0.446  0.00  0.00    -0.363 N 
ATOM      6  H   UNL d   1       1.260  -2.035   0.351  0.00  0.00     0.162 HD
BRANCH   5   7
ATOM      7  C   UNL d   1      -0.726  -1.581   0.780  0.00  0.00     0.084 A 
ATOM      8  C   UNL d   1      -1.350  -1.067   2.047  0.00  0.00     0.027 A 
ATOM      9  C   UNL d   1      -0.985  -2.517   1.932  0.00  0.00     0.027 A 
ENDBRANCH   5   7
ENDBRANCH   3   5
ENDBRANCH   1   3
BRANCH   1  10
ATOM     10  C   UNL d   1       3.319  -0.556   0.877  0.00  0.00     0.168 C 
BRANCH  10  11
ATOM     11  C   UNL d   1       4.695  -0.001   0.724  0.00  0.00     0.000 A 
ATOM     12  S   UNL d   1       5.190   1.344   1.665  0.00  0.00    -0.105 SA
ATOM     13  C   UNL d   1       6.752   1.333   0.975  0.00  0.00     0.050 A 
ATOM     14  C   UNL d   1       6.897   0.332   0.041  0.00  0.00     0.008 A 
ATOM     15  C   UNL d   1       5.707  -0.436  -0.107  0.00  0.00     0.017 A 
ENDBRANCH  10  11
ENDBRANCH   1  10
TORSDOF 5
