REMARK  2 active torsions:
REMARK  status: ('A' for Active; 'I' for Inactive)
REMARK    1  A    between atoms: N_3  and  C_1 
REMARK       I    between atoms: C_7  and  N_3 
REMARK       I    between atoms: N_9  and  C_7 
REMARK    2  A    between atoms: C_12  and  N_9 
ROOT
ATOM      1  N   UNL d   1       1.929  -1.559   0.284  0.00  0.00    -0.292 N 
ATOM      2  C   UNL d   1       2.205  -2.929   0.512  0.00  0.00     0.326 C 
ATOM      3  N   UNL d   1       1.497  -3.834  -0.216  0.00  0.00    -0.309 N 
ATOM      4  O   UNL d   1       3.163  -3.107   1.244  0.00  0.00    -0.247 OA
ATOM      5  H   UNL d   1       2.728  -1.005   0.570  0.00  0.00     0.172 HD
ATOM      6  H   UNL d   1       0.880  -3.480  -0.934  0.00  0.00     0.170 HD
ENDROOT
BRANCH   1   7
ATOM      7  C   UNL d   1       0.763  -0.872  -0.022  0.00  0.00     0.144 A 
ATOM      8  C   UNL d   1      -0.563  -1.250  -0.037  0.00  0.00     0.073 A 
ATOM      9  C   UNL d   1      -1.297  -0.077  -0.295  0.00  0.00     0.130 A 
ATOM     10 BR   UNL d   1      -1.435  -2.866   0.320  0.00  0.00    -0.045 Br
ATOM     11  N   UNL d   1      -0.507   0.983  -0.458  0.00  0.00    -0.307 N 
ATOM     12  N   UNL d   1       0.731   0.488  -0.281  0.00  0.00    -0.280 N 
ATOM     13  HN  UNL d   1      -0.778   1.944  -0.666  1.00  0.00     0.186 HD
ATOM     14  C   UNL d   1       1.842   1.410  -0.363  0.00  0.00     0.179 C 
ENDBRANCH   1   7
BRANCH   3  15
ATOM     15  C   UNL d   1       1.679  -5.235  -0.159  0.00  0.00     0.036 A 
ATOM     16  C   UNL d   1       2.399  -5.872   0.859  0.00  0.00     0.029 A 
ATOM     17  C   UNL d   1       2.588  -7.257   0.843  0.00  0.00     0.002 A 
ATOM     18  C   UNL d   1       2.055  -8.021  -0.189  0.00  0.00     0.000 A 
ATOM     19  C   UNL d   1       1.313  -7.403  -1.193  0.00  0.00     0.002 A 
ATOM     20  C   UNL d   1       1.115  -6.017  -1.173  0.00  0.00     0.029 A 
ENDBRANCH   3  15
TORSDOF 2
