REMARK  3 active torsions:
REMARK  status: ('A' for Active; 'I' for Inactive)
REMARK       I    between atoms: C_6  and  N_1 
REMARK    1  A    between atoms: S_14  and  C_3 
REMARK    2  A    between atoms: C_8  and  C_6 
REMARK    3  A    between atoms: C_9  and  C_7 
ROOT
ATOM      1  N   UNL d   1      -0.049  -1.158  -0.001  0.00  0.00    -0.212 N 
ATOM      2  C   UNL d   1       1.251   0.644   0.006  0.00  0.00     0.109 C 
ATOM      3  C   UNL d   1       1.277  -0.736   0.018  0.00  0.00     0.119 C 
ATOM      4  N   UNL d   1      -0.887  -0.096   0.145  0.00  0.00    -0.288 N 
ATOM      5  HN  UNL d   1      -1.895  -0.125   0.301  1.00  0.00     0.188 HD
ATOM      6  C   UNL d   1      -0.556  -2.467  -0.046  0.00  0.00     0.298 C 
ATOM      7  C   UNL d   1      -0.116   0.997   0.041  0.00  0.00     0.089 C 
ATOM      8  C   UNL d   1       2.391   1.484  -0.096  0.00  0.00     0.105 C 
ATOM      9  N   UNL d   1       3.335   2.160  -0.176  0.00  0.00    -0.191 NA
ATOM     10  O   UNL d   1       0.144  -3.370   0.417  0.00  0.00    -0.266 OA
ENDROOT
BRANCH   3  11
ATOM     11  S   UNL d   1       2.650  -1.793  -0.219  0.00  0.00    -0.113 SA
ATOM     12  C   UNL d   1       2.980  -2.401   1.453  0.00  0.00     0.097 C 
ENDBRANCH   3  11
BRANCH   7  13
ATOM     13  C   UNL d   1      -0.735   2.374  -0.062  0.00  0.00     0.034 A 
ATOM     14  S   UNL d   1       0.135   3.822  -0.337  0.00  0.00    -0.100 SA
ATOM     15  C   UNL d   1      -1.287   4.764  -0.391  0.00  0.00     0.050 A 
ATOM     16  C   UNL d   1      -2.412   4.003  -0.176  0.00  0.00     0.008 A 
ATOM     17  C   UNL d   1      -2.094   2.622   0.013  0.00  0.00     0.022 A 
ENDBRANCH   7  13
BRANCH   6  18
ATOM     18  C   UNL d   1      -1.900  -2.709  -0.709  0.00  0.00     0.271 C 
ATOM     19 CL   UNL d   1      -2.814  -1.387  -1.457  0.00  0.00    -0.073 Cl
ATOM     20 CL   UNL d   1      -1.562  -3.880  -2.059  0.00  0.00    -0.073 Cl
ATOM     21 CL   UNL d   1      -2.951  -3.547   0.481  0.00  0.00    -0.073 Cl
ENDBRANCH   6  18
TORSDOF 3
