REMARK  5 active torsions:
REMARK  status: ('A' for Active; 'I' for Inactive)
REMARK    1  A    between atoms: N_12  and  N_1 
REMARK    2  A    between atoms: N_6  and  C_8 
REMARK    3  A    between atoms: C_18  and  N_12 
REMARK    4  A    between atoms: C_22  and  C_18 
REMARK    5  A    between atoms: O_20  and  C_22 
ROOT
ATOM      1  N   UNL d   1       2.260  -0.132   0.128  0.00  0.00    -0.205 N 
ATOM      2  C   UNL d   1       1.688   1.145   0.082  0.00  0.00     0.276 A 
ATOM      3  C   UNL d   1       1.564  -1.346   0.020  0.00  0.00     0.276 A 
ATOM      4  C   UNL d   1       0.211   1.207   0.020  0.00  0.00     0.048 A 
ATOM      5  C   UNL d   1       0.083  -1.242   0.023  0.00  0.00     0.046 A 
ATOM      6  C   UNL d   1      -0.534   0.018   0.017  0.00  0.00     0.006 A 
ATOM      7  C   UNL d   1      -1.816   2.518  -0.061  0.00  0.00     0.104 A 
ATOM      8  C   UNL d   1      -0.422   2.458  -0.024  0.00  0.00     0.054 A 
ATOM      9  C   UNL d   1      -1.949   0.092   0.000  0.00  0.00    -0.021 A 
ATOM     10  C   UNL d   1      -2.582   1.345  -0.038  0.00  0.00     0.048 A 
ATOM     11  O   UNL d   1       2.080  -2.458  -0.071  0.00  0.00    -0.266 OA
ATOM     12  O   UNL d   1       2.336   2.191   0.087  0.00  0.00    -0.266 OA
ATOM     13  C   UNL d   1      -0.688  -2.413   0.032  0.00  0.00     0.018 A 
ATOM     14  C   UNL d   1      -2.705  -1.091   0.022  0.00  0.00     0.012 A 
ATOM     15  C   UNL d   1      -2.077  -2.336   0.039  0.00  0.00     0.002 A 
ENDROOT
BRANCH   1  16
ATOM     16  N   UNL d   1       3.696  -0.195   0.156  0.00  0.00    -0.226 NA
ATOM     17  H   UNL d   1       4.053   0.689  -0.233  0.00  0.00     0.147 HD
BRANCH  16  18
ATOM     18  C   UNL d   1       4.189  -0.272   1.542  0.00  0.00     0.137 C 
BRANCH  18  19
ATOM     19  C   UNL d   1       5.721  -0.252   1.570  0.00  0.00     0.180 C 
BRANCH  19  20
ATOM     20  O   UNL d   1       6.208   0.976   1.034  0.00  0.00    -0.400 OA
ATOM     21  H   UNL d   1       7.179   0.935   1.074  0.00  0.00     0.209 HD
ENDBRANCH  19  20
ENDBRANCH  18  19
ENDBRANCH  16  18
ENDBRANCH   1  16
BRANCH   7  22
ATOM     22  N   UNL d   1      -2.491   3.822  -0.125  0.00  0.00    -0.116 N 
ATOM     23  O   UNL d   1      -1.781   4.836  -0.162  0.00  0.00    -0.532 OA
ATOM     24  O   UNL d   1      -3.729   3.827  -0.141  0.00  0.00    -0.532 OA
ENDBRANCH   7  22
TORSDOF 5
