REMARK  3 active torsions:
REMARK  status: ('A' for Active; 'I' for Inactive)
REMARK    1  A    between atoms: C_5  and  C_1 
REMARK    2  A    between atoms: N_10  and  N_6 
REMARK    3  A    between atoms: C_9  and  N_10 
ROOT
ATOM      1  C   UNL d   1       4.673   0.943  -0.042  0.00  0.00     0.056 C 
ATOM      2  N   UNL d   1       3.424   0.565  -0.021  0.00  0.00    -0.300 N 
ATOM      3  HN  UNL d   1       2.670   1.251   0.002  1.00  0.00     0.186 HD
ATOM      4  C   UNL d   1       5.843  -0.020  -0.076  0.00  0.00     0.072 C 
ENDROOT
BRANCH   1   5
ATOM      5  C   UNL d   1       4.955   2.366  -0.028  0.00  0.00     0.100 A 
ATOM      6  O   UNL d   1       6.258   2.793  -0.048  0.00  0.00    -0.308 OA
ATOM      7  C   UNL d   1       6.247   4.154  -0.027  0.00  0.00     0.086 A 
ATOM      8  C   UNL d   1       7.375   4.972  -0.036  0.00  0.00     0.040 A 
ATOM      9  C   UNL d   1       4.941   4.624   0.006  0.00  0.00     0.002 A 
ATOM     10  C   UNL d   1       7.145   6.353  -0.007  0.00  0.00     0.026 A 
ATOM     11  C   UNL d   1       5.844   6.861   0.028  0.00  0.00     0.035 A 
ATOM     12  C   UNL d   1       4.726   6.014   0.034  0.00  0.00     0.038 A 
ATOM     13 CL   UNL d   1       5.605   8.567   0.064  0.00  0.00    -0.084 Cl
ATOM     14  C   UNL d   1       4.117   3.468   0.003  0.00  0.00     0.053 A 
ENDBRANCH   1   5
BRANCH   2  15
ATOM     15  N   UNL d   1       3.151  -0.779  -0.033  0.00  0.00    -0.276 N 
ATOM     16  H   UNL d   1       3.894  -1.469  -0.058  0.00  0.00     0.189 HD
BRANCH  15  17
ATOM     17  C   UNL d   1       1.870  -1.254  -0.012  0.00  0.00     0.184 C 
ATOM     18  S   UNL d   1       1.534  -2.878  -0.027  0.00  0.00    -0.040 SA
ATOM     19  N   UNL d   1       0.891  -0.323   0.022  0.00  0.00    -0.375 N 
ATOM     20  H   UNL d   1       1.169   0.650   0.029  0.00  0.00     0.158 HD
ATOM     21  H   UNL d   1      -0.084  -0.585   0.040  0.00  0.00     0.158 HD
ENDBRANCH  15  17
ENDBRANCH   2  15
TORSDOF 3
