REMARK  1 active torsions:
REMARK  status: ('A' for Active; 'I' for Inactive)
REMARK    1  A    between atoms: C_14  and  N_9 
ROOT
ATOM      1  C   UNL d   1       0.852  -2.081  -0.025  0.00  0.00     0.256 C 
ATOM      2  N   UNL d   1      -0.461  -1.939   0.341  0.00  0.00    -0.324 N 
ATOM      3  C   UNL d   1      -1.093  -0.638   0.239  0.00  0.00     0.146 C 
ATOM      4  C   UNL d   1       1.651  -0.844   0.021  0.00  0.00     0.065 A 
ATOM      5  O   UNL d   1      -0.268   0.344   0.902  0.00  0.00    -0.319 OA
ATOM      6  C   UNL d   1       1.047   0.306   0.530  0.00  0.00     0.087 A 
ATOM      7  C   UNL d   1      -2.439  -0.643   0.980  0.00  0.00     0.092 C 
ATOM      8  C   UNL d   1      -1.315  -0.255  -1.240  0.00  0.00     0.092 C 
ATOM      9  N   UNL d   1      -3.398   0.990  -0.684  0.00  0.00     0.088 N 
ATOM     10  O   UNL d   1       1.320  -3.161  -0.364  0.00  0.00    -0.267 OA
ATOM     11  C   UNL d   1      -3.216   0.658   0.740  0.00  0.00     0.277 C 
ATOM     12  C   UNL d   1      -2.092   1.052  -1.350  0.00  0.00     0.277 C 
ATOM     13  C   UNL d   1       2.973  -0.810  -0.424  0.00  0.00     0.020 A 
ATOM     14  C   UNL d   1       1.780   1.482   0.660  0.00  0.00     0.038 A 
ATOM     15  C   UNL d   1       3.696   0.381  -0.329  0.00  0.00     0.001 A 
ATOM     16  C   UNL d   1       3.105   1.520   0.225  0.00  0.00     0.003 A 
ATOM     17  H   UNL d   1      -1.016  -2.771   0.195  0.00  0.00     0.165 HD
ENDROOT
BRANCH   9  18
ATOM     18  C   UNL d   1      -4.372   0.098  -1.334  0.00  0.00     0.268 C 
ATOM     19  C   UNL d   1      -4.691   0.476  -2.777  0.00  0.00     0.037 C 
ENDBRANCH   9  18
TORSDOF 1
