REMARK  3 active torsions:
REMARK  status: ('A' for Active; 'I' for Inactive)
REMARK       I    between atoms: N_2  and  C_1 
REMARK    1  A    between atoms: O_3  and  C_1 
REMARK    2  A    between atoms: C_6  and  N_2 
REMARK    3  A    between atoms: C_5  and  O_3 
ROOT
ATOM      1  C   UNL d   1       1.087   0.151   0.026  0.00  0.00     0.365 C 
ATOM      2  N   UNL d   1       0.525  -1.094   0.136  0.00  0.00    -0.303 N 
ATOM      3  O   UNL d   1       2.268   0.429   0.176  0.00  0.00    -0.238 OA
ATOM      4  H   UNL d   1      -0.428  -1.153  -0.189  0.00  0.00     0.171 HD
ENDROOT
BRANCH   2   5
ATOM      5  C   UNL d   1       1.184  -2.272   0.540  0.00  0.00     0.036 A 
ATOM      6  C   UNL d   1       2.435  -2.265   1.169  0.00  0.00     0.031 A 
ATOM      7  C   UNL d   1       3.059  -3.459   1.538  0.00  0.00     0.026 A 
ATOM      8  C   UNL d   1       2.434  -4.673   1.278  0.00  0.00     0.034 A 
ATOM      9  C   UNL d   1       1.181  -4.698   0.670  0.00  0.00     0.026 A 
ATOM     10 CL   UNL d   1       3.214  -6.143   1.709  0.00  0.00    -0.084 Cl
ATOM     11  C   UNL d   1       0.551  -3.499   0.312  0.00  0.00     0.031 A 
ENDBRANCH   2   5
BRANCH   1  12
ATOM     12  O   UNL d   1       0.127   1.052  -0.316  0.00  0.00    -0.294 OA
BRANCH  12  13
ATOM     13  C   UNL d   1       0.506   2.442  -0.528  0.00  0.00     0.061 C 
ATOM     14  C   UNL d   1       1.395   2.575  -1.772  0.00  0.00     0.046 C 
ATOM     15  C   UNL d   1      -0.810   3.191  -0.791  0.00  0.00     0.046 C 
ATOM     16  C   UNL d   1       1.159   3.062   0.716  0.00  0.00     0.046 C 
ENDBRANCH  12  13
ENDBRANCH   1  12
TORSDOF 3
