REMARK  6 active torsions:
REMARK  status: ('A' for Active; 'I' for Inactive)
REMARK       I    between atoms: N_3  and  C_1 
REMARK    1  A    between atoms: C_5  and  C_1 
REMARK    2  A    between atoms: C_2  and  C_5 
REMARK    3  A    between atoms: C_9  and  C_2 
REMARK    4  A    between atoms: C_11  and  N_3 
REMARK    5  A    between atoms: C_4  and  C_9 
REMARK    6  A    between atoms: O_12  and  C_4 
ROOT
ATOM      1  C   UNL d   1       0.217   0.185   1.118  0.00  0.00     0.113 C 
ENDROOT
BRANCH   1   2
ATOM      2  C   UNL d   1      -1.334   0.102   0.932  0.00  0.00    -0.023 C 
ATOM      3  C   UNL d   1      -1.732  -1.147   0.095  0.00  0.00     0.010 C 
ATOM      4  C   UNL d   1      -1.399  -1.052  -1.393  0.00  0.00     0.001 C 
ATOM      5  C   UNL d   1      -2.008   0.189  -2.026  0.00  0.00     0.000 C 
ATOM      6  C   UNL d   1      -1.575   1.453  -1.301  0.00  0.00     0.001 C 
ATOM      7  C   UNL d   1      -1.835   1.388   0.202  0.00  0.00     0.010 C 
BRANCH   2   8
ATOM      8  C   UNL d   1      -2.091   0.007   2.293  0.00  0.00     0.119 C 
BRANCH   8   9
ATOM      9  C   UNL d   1      -1.754   1.103   3.282  0.00  0.00     0.140 C 
ATOM     10  O   UNL d   1      -2.008   2.283   3.116  0.00  0.00    -0.650 OA
BRANCH   9  11
ATOM     11  O   UNL d   1      -1.114   0.650   4.385  0.00  0.00    -0.776 OA
ATOM     12  H   UNL d   1      -0.947  -0.318   4.383  0.00  0.00     0.167 HD
ENDBRANCH   9  11
ENDBRANCH   8   9
ENDBRANCH   2   8
ENDBRANCH   1   2
BRANCH   1  13
ATOM     13  C   UNL d   1       0.892  -0.877   2.000  0.00  0.00     0.222 C 
ATOM     14  N   UNL d   1       2.275  -0.773   1.976  0.00  0.00    -0.326 N 
ATOM     15  H   UNL d   1       2.675  -0.091   1.343  0.00  0.00     0.169 HD
ATOM     16  O   UNL d   1       0.253  -1.661   2.692  0.00  0.00    -0.273 OA
BRANCH  14  17
ATOM     17  C   UNL d   1       3.198  -1.478   2.786  0.00  0.00     0.050 A 
ATOM     18  C   UNL d   1       2.867  -2.407   3.768  0.00  0.00     0.117 A 
ATOM     19  N   UNL d   1       3.775  -3.041   4.561  0.00  0.00    -0.373 N 
ATOM     20  C   UNL d   1       5.074  -2.742   4.367  0.00  0.00     0.088 A 
ATOM     21  HN  UNL d   1       3.484  -3.713   5.272  1.00  0.00     0.164 HD
ATOM     22  C   UNL d   1       5.512  -1.842   3.408  0.00  0.00     0.019 A 
ATOM     23  C   UNL d   1       4.560  -1.207   2.611  0.00  0.00     0.032 A 
ENDBRANCH  14  17
ENDBRANCH   1  13
TORSDOF 6
