REMARK  7 active torsions:
REMARK  status: ('A' for Active; 'I' for Inactive)
REMARK    1  A    between atoms: O_5  and  C_1 
REMARK       I    between atoms: C_2  and  N_4 
REMARK    2  A    between atoms: C_13  and  C_2 
REMARK    3  A    between atoms: C_3  and  C_14 
REMARK    4  A    between atoms: O_15  and  C_3 
REMARK    5  A    between atoms: N_4  and  C_11 
REMARK    6  A    between atoms: C_12  and  O_5 
REMARK    7  A    between atoms: C_14  and  C_13 
ROOT
ATOM      1  C   UNL d   1       1.874   2.164  -4.396  0.00  0.00     0.034 A 
ATOM      2  C   UNL d   1       0.882   0.539  -2.320  0.00  0.00     0.078 A 
ATOM      3  C   UNL d   1       2.667   1.864  -3.287  0.00  0.00     0.032 A 
ATOM      4  C   UNL d   1       0.556   1.702  -4.426  0.00  0.00     0.032 A 
ATOM      5  C   UNL d   1       0.068   0.890  -3.398  0.00  0.00     0.039 A 
ATOM      6  C   UNL d   1       2.170   1.065  -2.247  0.00  0.00     0.039 A 
ENDROOT
BRANCH   1   7
ATOM      7  N   UNL d   1       2.326   2.900  -5.510  0.00  0.00    -0.327 N 
ATOM      8  C   UNL d   1       3.640   3.129  -5.861  0.00  0.00     0.222 C 
ATOM      9  O   UNL d   1       4.642   2.748  -5.252  0.00  0.00    -0.273 OA
ATOM     10  H   UNL d   1       1.623   3.104  -6.212  0.00  0.00     0.169 HD
BRANCH   8  11
ATOM     11  C   UNL d   1       3.788   3.847  -7.187  0.00  0.00     0.113 C 
BRANCH  11  12
ATOM     12  C   UNL d   1       4.995   3.301  -7.941  0.00  0.00     0.119 C 
BRANCH  12  13
ATOM     13  C   UNL d   1       4.790   1.845  -8.273  0.00  0.00     0.139 C 
ATOM     14  O   UNL d   1       4.289   1.458  -9.318  0.00  0.00    -0.650 OA
BRANCH  13  15
ATOM     15  O   UNL d   1       5.151   1.002  -7.282  0.00  0.00    -0.776 OA
ATOM     16  H   UNL d   1       5.409   1.452  -6.442  0.00  0.00     0.167 HD
ENDBRANCH  13  15
ENDBRANCH  12  13
ENDBRANCH  11  12
ENDBRANCH   8  11
ENDBRANCH   1   7
BRANCH   2  17
ATOM     17  O   UNL d   1       0.302  -0.315  -1.428  0.00  0.00    -0.255 OA
BRANCH  17  18
ATOM     18  C   UNL d   1       1.148  -0.999  -0.520  0.00  0.00     0.530 C 
ATOM     19  F   UNL d   1       2.267  -1.466  -1.113  0.00  0.00    -0.144 F 
ATOM     20  F   UNL d   1       0.473  -2.059  -0.020  0.00  0.00    -0.144 F 
ATOM     21  F   UNL d   1       1.487  -0.191   0.507  0.00  0.00    -0.144 F 
ENDBRANCH  17  18
ENDBRANCH   2  17
TORSDOF 7
