REMARK  3 active torsions:
REMARK  status: ('A' for Active; 'I' for Inactive)
REMARK    1  A    between atoms: C_2  and  C_1 
REMARK    2  A    between atoms: S_5  and  C_2 
REMARK    3  A    between atoms: C_6  and  S_5 
ROOT
ATOM      1  C   UNL d   1      -0.135   2.351   0.022  0.00  0.00     0.123 C 
ENDROOT
BRANCH   1   2
ATOM      2  C   UNL d   1      -0.369   0.861   0.062  0.00  0.00     0.012 A 
ATOM      3  C   UNL d   1      -0.448   0.147  -1.141  0.00  0.00     0.125 A 
ATOM      4  F   UNL d   1      -0.297   0.790  -2.308  0.00  0.00    -0.205 F 
ATOM      5  C   UNL d   1      -0.669  -1.230  -1.171  0.00  0.00     0.043 A 
ATOM      6  C   UNL d   1      -0.823  -1.930   0.020  0.00  0.00     0.005 A 
ATOM      7  C   UNL d   1      -0.758  -1.244   1.232  0.00  0.00     0.024 A 
ATOM      8  C   UNL d   1      -0.538   0.140   1.255  0.00  0.00     0.044 A 
ATOM      9 CL   UNL d   1      -0.475   0.906   2.803  0.00  0.00    -0.084 Cl
ENDBRANCH   1   2
BRANCH   1  10
ATOM     10  S   UNL d   1      -1.711   3.272  -0.010  0.00  0.00    -0.125 SA
BRANCH  10  11
ATOM     11  C   UNL d   1      -1.222   4.989   0.123  0.00  0.00     0.001 A 
ATOM     12  C   UNL d   1       0.095   5.460   0.156  0.00  0.00     0.020 A 
ATOM     13  C   UNL d   1       0.360   6.832   0.275  0.00  0.00     0.020 A 
ATOM     14  C   UNL d   1      -0.691   7.742   0.357  0.00  0.00     0.011 A 
ATOM     15  C   UNL d   1      -2.006   7.295   0.317  0.00  0.00     0.020 A 
ATOM     16 BR   UNL d   1      -0.330   9.590   0.521  0.00  0.00    -0.051 Br
ATOM     17  C   UNL d   1      -2.267   5.926   0.201  0.00  0.00     0.020 A 
ENDBRANCH  10  11
ENDBRANCH   1  10
TORSDOF 3
