REMARK  6 active torsions:
REMARK  status: ('A' for Active; 'I' for Inactive)
REMARK    1  A    between atoms: C_2  and  C_1 
REMARK       I    between atoms: N_6  and  C_1 
REMARK    2  A    between atoms: C_9  and  C_5 
REMARK    3  A    between atoms: C_13  and  N_6 
REMARK    4  A    between atoms: O_22  and  C_9 
REMARK    5  A    between atoms: O_11  and  C_15 
REMARK    6  A    between atoms: C_12  and  O_11 
ROOT
ATOM      1  C   UNL d   1      -0.890   1.042  -0.117  0.00  0.00     0.069 C 
ATOM      2  C   UNL d   1      -1.618   0.523   0.969  0.00  0.00     0.102 C 
ATOM      3  C   UNL d   1      -1.452   2.110  -0.832  0.00  0.00     0.032 C 
ATOM      4  C   UNL d   1      -2.968   0.865   1.137  0.00  0.00     0.039 C 
ATOM      5  C   UNL d   1      -3.548   1.852   0.348  0.00  0.00     0.003 C 
ATOM      6  C   UNL d   1      -2.770   2.518  -0.594  0.00  0.00     0.002 C 
ENDROOT
BRANCH   1   7
ATOM      7  N   UNL d   1       0.370   0.567  -0.575  0.00  0.00    -0.324 N 
ATOM      8  C   UNL d   1       0.748  -0.764  -0.541  0.00  0.00     0.228 C 
ATOM      9  O   UNL d   1       0.046  -1.675  -0.109  0.00  0.00    -0.273 OA
ATOM     10  H   UNL d   1       0.817   1.138  -1.280  0.00  0.00     0.169 HD
BRANCH   8  11
ATOM     11  C   UNL d   1       2.059  -1.133  -1.231  0.00  0.00     0.100 C 
ATOM     12  C   UNL d   1       1.856  -1.445  -2.736  0.00  0.00     0.022 C 
ATOM     13  C   UNL d   1       1.399  -0.204  -3.470  0.00  0.00    -0.025 C 
ATOM     14  C   UNL d   1       3.311  -1.456  -3.215  0.00  0.00     0.018 C 
ATOM     15  C   UNL d   1       2.423   0.659  -3.468  0.00  0.00    -0.025 C 
ATOM     16  C   UNL d   1       3.574  -0.013  -2.753  0.00  0.00     0.023 C 
ATOM     17  C   UNL d   1       3.229  -0.098  -1.240  0.00  0.00     0.105 C 
BRANCH  17  18
ATOM     18  C   UNL d   1       4.442  -0.593  -0.482  0.00  0.00     0.145 C 
ATOM     19  O   UNL d   1       4.551  -1.628   0.152  0.00  0.00    -0.650 OA
BRANCH  18  20
ATOM     20  O   UNL d   1       5.478   0.264  -0.558  0.00  0.00    -0.776 OA
ATOM     21  H   UNL d   1       6.191  -0.174  -0.044  0.00  0.00     0.167 HD
ENDBRANCH  18  20
ENDBRANCH  17  18
ENDBRANCH   8  11
ENDBRANCH   1   7
BRANCH   2  22
ATOM     22  O   UNL d   1      -1.129  -0.276   1.976  0.00  0.00    -0.307 OA
BRANCH  22  23
ATOM     23  C   UNL d   1       0.091   0.007   2.556  0.00  0.00     0.098 A 
ATOM     24  C   UNL d   1       0.677   1.261   2.784  0.00  0.00     0.069 A 
ATOM     25  C   UNL d   1       1.981   1.339   3.291  0.00  0.00     0.050 A 
ATOM     26 CL   UNL d   1      -0.130   2.774   2.559  0.00  0.00    -0.081 Cl
ATOM     27  C   UNL d   1       2.664   0.179   3.648  0.00  0.00     0.035 A 
ATOM     28  C   UNL d   1       2.051  -1.063   3.529  0.00  0.00     0.026 A 
ATOM     29 CL   UNL d   1       4.269   0.287   4.255  0.00  0.00    -0.084 Cl
ATOM     30  C   UNL d   1       0.770  -1.145   2.984  0.00  0.00     0.041 A 
ENDBRANCH  22  23
ENDBRANCH   2  22
TORSDOF 6
