REMARK  4 active torsions:
REMARK  status: ('A' for Active; 'I' for Inactive)
REMARK    1  A    between atoms: N_3  and  S_1 
REMARK    2  A    between atoms: C_8  and  S_1 
REMARK    3  A    between atoms: C_2  and  N_3 
REMARK       I    between atoms: C_12  and  N_13 
REMARK    4  A    between atoms: N_13  and  C_17 
ROOT
ATOM      1  S   UNL d   1       0.900   0.104   0.029  0.00  0.00     0.247 S 
ATOM      2  O   UNL d   1       0.062   0.834   0.956  0.00  0.00    -0.205 OA
ATOM      3  O   UNL d   1       2.340   0.043   0.173  0.00  0.00    -0.205 OA
ENDROOT
BRANCH   1   4
ATOM      4  N   UNL d   1       0.497   0.684  -1.540  0.00  0.00    -0.165 NA
ATOM      5  H   UNL d   1      -0.457   1.042  -1.430  0.00  0.00     0.147 HD
BRANCH   4   6
ATOM      6  C   UNL d   1       1.369   1.761  -1.940  0.00  0.00     0.111 A 
ATOM      7  N   UNL d   1       2.603   1.685  -2.533  0.00  0.00    -0.285 N 
ATOM      8  N   UNL d   1       3.153   2.898  -2.759  0.00  0.00    -0.309 N 
ATOM      9  C   UNL d   1       3.288   0.506  -3.000  0.00  0.00     0.179 C 
ATOM     10  C   UNL d   1       2.242   3.751  -2.285  0.00  0.00     0.110 A 
ATOM     11  HN  UNL d   1       4.052   3.111  -3.191  1.00  0.00     0.186 HD
ATOM     12  C   UNL d   1       1.098   3.100  -1.786  0.00  0.00     0.063 A 
ENDBRANCH   4   6
ENDBRANCH   1   4
BRANCH   1  13
ATOM     13  C   UNL d   1       0.308  -1.571  -0.042  0.00  0.00     0.075 A 
ATOM     14  C   UNL d   1       1.180  -2.595  -0.416  0.00  0.00     0.027 A 
ATOM     15  C   UNL d   1       0.745  -3.924  -0.371  0.00  0.00     0.031 A 
ATOM     16  C   UNL d   1      -0.555  -4.241   0.052  0.00  0.00     0.034 A 
ATOM     17  C   UNL d   1      -1.414  -3.202   0.424  0.00  0.00     0.031 A 
ATOM     18  C   UNL d   1      -0.986  -1.870   0.385  0.00  0.00     0.027 A 
BRANCH  16  19
ATOM     19  N   UNL d   1      -0.906  -5.607   0.095  0.00  0.00    -0.328 N 
ATOM     20  C   UNL d   1      -2.118  -6.151   0.479  0.00  0.00     0.218 C 
ATOM     21  O   UNL d   1      -3.117  -5.535   0.835  0.00  0.00    -0.274 OA
ATOM     22  C   UNL d   1      -2.139  -7.660   0.431  0.00  0.00     0.117 C 
ATOM     23  H   UNL d   1      -0.179  -6.258  -0.180  0.00  0.00     0.169 HD
ENDBRANCH  16  19
ENDBRANCH   1  13
TORSDOF 4
