REMARK  5 active torsions:
REMARK  status: ('A' for Active; 'I' for Inactive)
REMARK    1  A    between atoms: N_8  and  C_2 
REMARK    2  A    between atoms: C_7  and  N_8 
REMARK    3  A    between atoms: N_10  and  N_15 
REMARK    4  A    between atoms: C_12  and  C_18 
REMARK    5  A    between atoms: O_20  and  C_17 
ROOT
ATOM      1  C   UNL d   1       4.758   1.760  -2.022  0.00  0.00     0.186 C 
ATOM      2  S   UNL d   1       5.350   2.079  -3.550  0.00  0.00    -0.040 SA
ATOM      3  N   UNL d   1       5.382   0.844  -1.237  0.00  0.00    -0.277 N 
ATOM      4  H   UNL d   1       6.184   0.392  -1.671  0.00  0.00     0.189 HD
ENDROOT
BRANCH   1   5
ATOM      5  N   UNL d   1       3.685   2.456  -1.578  0.00  0.00    -0.361 N 
ATOM      6  H   UNL d   1       3.415   3.174  -2.239  0.00  0.00     0.162 HD
BRANCH   5   7
ATOM      7  C   UNL d   1       2.676   2.108  -0.560  0.00  0.00     0.089 C 
ATOM      8  C   UNL d   1       1.890   0.810  -0.899  0.00  0.00     0.017 C 
ATOM      9  C   UNL d   1       0.957   0.428   0.286  0.00  0.00     0.018 A 
ATOM     10  C   UNL d   1       0.890   1.342  -1.933  0.00  0.00     0.012 C 
ATOM     11  C   UNL d   1      -0.138   1.526   0.238  0.00  0.00     0.001 A 
ATOM     12  C   UNL d   1       0.176  -0.839   0.097  0.00  0.00    -0.025 A 
ATOM     13  C   UNL d   1      -1.487   0.823   0.011  0.00  0.00     0.032 A 
ATOM     14  C   UNL d   1       0.303   2.380  -0.971  0.00  0.00    -0.007 C 
ATOM     15  C   UNL d   1      -1.138  -0.625  -0.046  0.00  0.00    -0.030 A 
ATOM     16  C   UNL d   1       1.557   3.182  -0.583  0.00  0.00     0.030 C 
ENDBRANCH   5   7
ENDBRANCH   1   5
BRANCH   3  17
ATOM     17  N   UNL d   1       5.418   1.051   0.099  0.00  0.00    -0.309 N 
ATOM     18  C   UNL d   1       6.355   0.451   0.757  0.00  0.00     0.121 C 
ATOM     19  HN  UNL d   1       4.739   1.652   0.565  1.00  0.00     0.186 HD
BRANCH  18  20
ATOM     20  C   UNL d   1       6.513   0.751   2.192  0.00  0.00     0.014 A 
ATOM     21  C   UNL d   1       5.924   1.886   2.756  0.00  0.00     0.077 A 
ATOM     22  C   UNL d   1       6.079   2.154   4.111  0.00  0.00     0.037 A 
ATOM     23  C   UNL d   1       6.827   1.283   4.904  0.00  0.00     0.003 A 
ATOM     24  C   UNL d   1       7.428   0.156   4.338  0.00  0.00     0.001 A 
ATOM     25  C   UNL d   1       7.278  -0.115   2.972  0.00  0.00     0.015 A 
BRANCH  21  26
ATOM     26  O   UNL d   1       5.199   2.798   2.038  0.00  0.00    -0.360 OA
ATOM     27  H   UNL d   1       5.134   2.460   1.118  0.00  0.00     0.217 HD
ENDBRANCH  21  26
ENDBRANCH  18  20
ENDBRANCH   3  17
TORSDOF 5
