REMARK  10 active torsions:
REMARK  status: ('A' for Active; 'I' for Inactive)
REMARK    1  A    between atoms: O_7  and  C_1 
REMARK    2  A    between atoms: C_2  and  N_16 
REMARK    3  A    between atoms: N_6  and  C_2 
REMARK    4  A    between atoms: C_3  and  N_6 
REMARK    5  A    between atoms: C_19  and  O_7 
REMARK    6  A    between atoms: N_16  and  N_9 
REMARK    7  A    between atoms: C_12  and  C_19 
REMARK    8  A    between atoms: O_28  and  C_12 
REMARK    9  A    between atoms: C_20  and  C_17 
REMARK   10  A    between atoms: C_29  and  O_28 
ROOT
ATOM      1  N   UNL d   1      -0.752   4.540  -1.215  0.00  0.00    -0.309 N 
ATOM      2  HN  UNL d   1      -1.241   4.064  -1.974  1.00  0.00     0.186 HD
ATOM      3  C   UNL d   1       0.008   3.911  -0.382  0.00  0.00     0.118 C 
ENDROOT
BRANCH   1   4
ATOM      4  N   UNL d   1      -0.857   5.882  -1.011  0.00  0.00    -0.276 N 
ATOM      5  H   UNL d   1      -0.780   6.237  -0.061  0.00  0.00     0.189 HD
BRANCH   4   6
ATOM      6  C   UNL d   1      -1.218   6.752  -2.018  0.00  0.00     0.191 C 
ATOM      7  S   UNL d   1      -0.915   6.525  -3.648  0.00  0.00    -0.039 SA
BRANCH   6   8
ATOM      8  N   UNL d   1      -1.768   7.937  -1.600  0.00  0.00    -0.331 N 
ATOM      9  H   UNL d   1      -1.664   8.717  -2.244  0.00  0.00     0.168 HD
BRANCH   8  10
ATOM     10  C   UNL d   1      -2.694   8.135  -0.544  0.00  0.00     0.057 A 
ATOM     11  C   UNL d   1      -3.426   7.070  -0.001  0.00  0.00     0.055 A 
ATOM     12  C   UNL d   1      -4.361   7.301   1.009  0.00  0.00     0.036 A 
ATOM     13 CL   UNL d   1      -5.271   5.985   1.643  0.00  0.00    -0.084 Cl
ATOM     14  C   UNL d   1      -4.574   8.586   1.498  0.00  0.00     0.026 A 
ATOM     15  C   UNL d   1      -3.871   9.658   0.949  0.00  0.00     0.028 A 
ATOM     16  C   UNL d   1      -2.951   9.437  -0.082  0.00  0.00     0.060 A 
ATOM     17 CL   UNL d   1      -2.119  10.801  -0.742  0.00  0.00    -0.082 Cl
ENDBRANCH   8  10
ENDBRANCH   6   8
ENDBRANCH   4   6
ENDBRANCH   1   4
BRANCH   3  18
ATOM     18  C   UNL d   1       0.059   2.442  -0.377  0.00  0.00    -0.017 A 
ATOM     19  C   UNL d   1       1.227   1.774  -0.037  0.00  0.00     0.034 A 
ATOM     20  C   UNL d   1       1.214   0.373   0.026  0.00  0.00     0.046 A 
ATOM     21  C   UNL d   1       0.036  -0.375  -0.209  0.00  0.00     0.104 A 
ATOM     22 BR   UNL d   1       2.865  -0.480   0.443  0.00  0.00    -0.048 Br
ATOM     23  C   UNL d   1      -1.140   0.333  -0.521  0.00  0.00     0.046 A 
ATOM     24  C   UNL d   1      -1.111   1.730  -0.637  0.00  0.00     0.034 A 
ATOM     25 BR   UNL d   1      -2.881  -0.422  -0.690  0.00  0.00    -0.048 Br
BRANCH  21  26
ATOM     26  O   UNL d   1       0.166  -1.727  -0.018  0.00  0.00    -0.339 OA
BRANCH  26  27
ATOM     27  C   UNL d   1      -0.618  -2.604  -0.807  0.00  0.00     0.286 C 
BRANCH  27  28
ATOM     28  C   UNL d   1       0.102  -3.892  -1.178  0.00  0.00     0.283 C 
ATOM     29  O   UNL d   1       1.265  -4.173  -0.929  0.00  0.00    -0.263 OA
BRANCH  28  30
ATOM     30  O   UNL d   1      -0.749  -4.644  -1.941  0.00  0.00    -0.320 OA
BRANCH  30  31
ATOM     31  C   UNL d   1      -0.130  -5.646  -2.758  0.00  0.00     0.174 C 
ATOM     32  C   UNL d   1       0.284  -4.992  -4.064  0.00  0.00     0.034 C 
ENDBRANCH  30  31
ENDBRANCH  28  30
ENDBRANCH  27  28
ENDBRANCH  26  27
ENDBRANCH  21  26
ENDBRANCH   3  18
TORSDOF 10
