REMARK  0 active torsions:
REMARK  status: ('A' for Active; 'I' for Inactive)
ROOT
ATOM      1  C   UNL d   1      -0.067   1.135  -0.000  0.00  0.00     0.112 A 
ATOM      2  C   UNL d   1      -0.362  -0.219  -0.001  0.00  0.00     0.075 A 
ATOM      3  N   UNL d   1       1.171   1.652  -0.000  0.00  0.00    -0.349 N 
ATOM      4  HN  UNL d   1       1.359   2.654  -0.000  1.00  0.00     0.166 HD
ATOM      5  N   UNL d   1       0.583  -1.171  -0.001  0.00  0.00    -0.352 N 
ATOM      6  HN  UNL d   1       0.365  -2.168  -0.001  1.00  0.00     0.166 HD
ATOM      7  C   UNL d   1      -1.349   1.873  -0.000  0.00  0.00     0.211 A 
ATOM      8  C   UNL d   1      -1.786  -0.420  -0.001  0.00  0.00     0.007 A 
ATOM      9  C   UNL d   1      -2.413   0.838  -0.000  0.00  0.00     0.029 A 
ATOM     10  C   UNL d   1       1.851  -0.696  -0.001  0.00  0.00     0.061 A 
ATOM     11  C   UNL d   1       2.141   0.715  -0.001  0.00  0.00     0.059 A 
ATOM     12  C   UNL d   1       2.900  -1.601  -0.001  0.00  0.00     0.055 A 
ATOM     13  O   UNL d   1      -1.532   3.072  -0.000  0.00  0.00    -0.285 OA
ATOM     14  C   UNL d   1       3.467   1.124  -0.001  0.00  0.00     0.033 A 
ATOM     15  C   UNL d   1       4.222  -1.161  -0.001  0.00  0.00     0.036 A 
ATOM     16  C   UNL d   1       4.512   0.198  -0.001  0.00  0.00     0.026 A 
ATOM     17 CL   UNL d   1       5.504  -2.308  -0.002  0.00  0.00    -0.084 Cl
ATOM     18  C   UNL d   1      -2.547  -1.574  -0.001  0.00  0.00     0.015 A 
ATOM     19  C   UNL d   1      -3.785   0.993  -0.000  0.00  0.00     0.016 A 
ATOM     20  C   UNL d   1      -4.554  -0.173  -0.000  0.00  0.00     0.001 A 
ATOM     21  C   UNL d   1      -3.942  -1.442  -0.001  0.00  0.00     0.001 A 
ENDROOT
TORSDOF 0
