REMARK  3 active torsions:
REMARK  status: ('A' for Active; 'I' for Inactive)
REMARK       I    between atoms: N_2  and  C_1 
REMARK    1  A    between atoms: C_3  and  C_1 
REMARK       I    between atoms: C_4  and  N_2 
REMARK       I    between atoms: N_8  and  C_4 
REMARK    2  A    between atoms: C_6  and  C_15 
REMARK    3  A    between atoms: C_15  and  N_8 
ROOT
ATOM      1  C   UNL d   1       1.096  -0.095   0.116  0.00  0.00     0.263 C 
ATOM      2  N   UNL d   1       0.598   0.989  -0.602  0.00  0.00    -0.275 N 
ATOM      3  C   UNL d   1       1.189   1.923  -1.399  0.00  0.00     0.323 C 
ATOM      4  O   UNL d   1       2.286  -0.348   0.239  0.00  0.00    -0.267 OA
ATOM      5  N   UNL d   1       2.543   1.968  -1.456  0.00  0.00    -0.338 N 
ATOM      6  O   UNL d   1       0.457   2.680  -2.045  0.00  0.00    -0.247 OA
ATOM      7  H   UNL d   1      -0.405   1.057  -0.707  0.00  0.00     0.173 HD
ATOM      8  H   UNL d   1       3.063   1.483  -0.731  0.00  0.00     0.164 HD
ENDROOT
BRANCH   1   9
ATOM      9  C   UNL d   1       0.023  -0.892   0.804  0.00  0.00     0.075 A 
ATOM     10  C   UNL d   1      -1.177  -1.219   0.139  0.00  0.00     0.051 A 
ATOM     11 CL   UNL d   1      -1.398  -1.014  -1.569  0.00  0.00    -0.083 Cl
ATOM     12  C   UNL d   1      -2.270  -1.744   0.837  0.00  0.00     0.025 A 
ATOM     13  C   UNL d   1      -2.172  -2.002   2.199  0.00  0.00     0.003 A 
ATOM     14  C   UNL d   1      -0.964  -1.768   2.852  0.00  0.00     0.025 A 
ATOM     15  C   UNL d   1       0.130  -1.217   2.166  0.00  0.00     0.051 A 
ATOM     16 CL   UNL d   1       1.547  -0.920   3.111  0.00  0.00    -0.083 Cl
ENDBRANCH   1   9
BRANCH   5  17
ATOM     17  C   UNL d   1       3.139   3.045  -2.214  0.00  0.00     0.170 C 
BRANCH  17  18
ATOM     18  C   UNL d   1       4.633   3.017  -2.226  0.00  0.00     0.000 A 
ATOM     19  S   UNL d   1       5.471   4.513  -2.378  0.00  0.00    -0.105 SA
ATOM     20  C   UNL d   1       6.988   3.738  -2.461  0.00  0.00     0.050 A 
ATOM     21  C   UNL d   1       6.873   2.371  -2.353  0.00  0.00     0.008 A 
ATOM     22  C   UNL d   1       5.515   1.953  -2.216  0.00  0.00     0.017 A 
ENDBRANCH  17  18
ENDBRANCH   5  17
TORSDOF 3
