REMARK  4 active torsions:
REMARK  status: ('A' for Active; 'I' for Inactive)
REMARK       I    between atoms: N_2  and  C_1 
REMARK    1  A    between atoms: C_3  and  C_1 
REMARK       I    between atoms: C_4  and  N_2 
REMARK       I    between atoms: N_5  and  C_4 
REMARK    2  A    between atoms: C_9  and  N_5 
REMARK    3  A    between atoms: O_6  and  C_10 
REMARK    4  A    between atoms: C_7  and  O_6 
ROOT
ATOM      1  C   UNL d   1      -1.030   0.135   1.423  0.00  0.00     0.264 C 
ATOM      2  N   UNL d   1       0.169   0.679   0.992  0.00  0.00    -0.275 N 
ATOM      3  C   UNL d   1       0.785   1.764   1.559  0.00  0.00     0.327 C 
ATOM      4  N   UNL d   1       2.143   1.866   1.376  0.00  0.00    -0.306 N 
ATOM      5  O   UNL d   1      -1.761   0.625   2.271  0.00  0.00    -0.267 OA
ATOM      6  O   UNL d   1       0.242   2.615   2.258  0.00  0.00    -0.247 OA
ATOM      7  H   UNL d   1       0.748   0.102   0.408  0.00  0.00     0.173 HD
ATOM      8  H   UNL d   1       2.556   2.440   2.102  0.00  0.00     0.171 HD
ENDROOT
BRANCH   4   9
ATOM      9  C   UNL d   1       3.005   1.111   0.561  0.00  0.00     0.070 C 
ATOM     10  C   UNL d   1       2.732   0.765  -0.775  0.00  0.00     0.102 C 
ATOM     11  C   UNL d   1       3.574  -0.116  -1.459  0.00  0.00     0.039 C 
ATOM     12  C   UNL d   1       4.737  -0.583  -0.850  0.00  0.00     0.003 C 
ATOM     13  C   UNL d   1       5.073  -0.147   0.431  0.00  0.00     0.002 C 
ATOM     14  C   UNL d   1       4.219   0.711   1.127  0.00  0.00     0.032 C 
BRANCH  10  15
ATOM     15  O   UNL d   1       1.652   1.232  -1.490  0.00  0.00    -0.307 OA
BRANCH  15  16
ATOM     16  C   UNL d   1       1.466   2.599  -1.610  0.00  0.00     0.098 A 
ATOM     17  C   UNL d   1       0.169   3.044  -1.911  0.00  0.00     0.069 A 
ATOM     18  C   UNL d   1      -0.115   4.410  -1.997  0.00  0.00     0.050 A 
ATOM     19 CL   UNL d   1      -1.119   1.921  -2.181  0.00  0.00    -0.081 Cl
ATOM     20  C   UNL d   1       0.903   5.336  -1.791  0.00  0.00     0.035 A 
ATOM     21  C   UNL d   1       2.205   4.911  -1.535  0.00  0.00     0.026 A 
ATOM     22 CL   UNL d   1       0.557   7.020  -1.863  0.00  0.00    -0.084 Cl
ATOM     23  C   UNL d   1       2.492   3.544  -1.464  0.00  0.00     0.041 A 
ENDBRANCH  15  16
ENDBRANCH  10  15
ENDBRANCH   4   9
BRANCH   1  24
ATOM     24  C   UNL d   1      -1.402  -1.175   0.815  0.00  0.00     0.092 A 
ATOM     25  C   UNL d   1      -0.402  -2.115   0.535  0.00  0.00     0.133 A 
ATOM     26  F   UNL d   1       0.891  -1.820   0.746  0.00  0.00    -0.205 F 
ATOM     27  C   UNL d   1      -0.701  -3.381   0.034  0.00  0.00     0.043 A 
ATOM     28  C   UNL d   1      -2.026  -3.734  -0.195  0.00  0.00     0.005 A 
ATOM     29  C   UNL d   1      -3.038  -2.813   0.070  0.00  0.00     0.025 A 
ATOM     30  C   UNL d   1      -2.735  -1.536   0.569  0.00  0.00     0.052 A 
ATOM     31 CL   UNL d   1      -4.074  -0.464   0.783  0.00  0.00    -0.083 Cl
ENDBRANCH   1  24
TORSDOF 4
