REMARK  5 active torsions:
REMARK  status: ('A' for Active; 'I' for Inactive)
REMARK    1  A    between atoms: C_2  and  C_1 
REMARK    2  A    between atoms: O_7  and  C_1 
REMARK    3  A    between atoms: C_6  and  C_2 
REMARK    4  A    between atoms: C_5  and  O_13 
REMARK    5  A    between atoms: O_13  and  C_6 
ROOT
ATOM      1  C   UNL d   1       2.822  -1.371   7.167  0.00  0.00     0.034 A 
ATOM      2  C   UNL d   1       1.231  -1.019   4.890  0.00  0.00     0.068 A 
ATOM      3 CL   UNL d   1       3.795  -1.592   8.568  0.00  0.00    -0.084 Cl
ATOM      4  C   UNL d   1       1.750  -2.226   6.931  0.00  0.00     0.026 A 
ATOM      5  C   UNL d   1       3.108  -0.341   6.274  0.00  0.00     0.026 A 
ATOM      6  C   UNL d   1       0.956  -2.050   5.794  0.00  0.00     0.038 A 
ATOM      7  C   UNL d   1       2.312  -0.167   5.137  0.00  0.00     0.038 A 
ENDROOT
BRANCH   2   8
ATOM      8  O   UNL d   1       0.522  -0.753   3.745  0.00  0.00    -0.351 OA
BRANCH   8   9
ATOM      9  C   UNL d   1      -0.598  -1.610   3.505  0.00  0.00     0.186 C 
BRANCH   9  10
ATOM     10  C   UNL d   1      -1.292  -1.199   2.215  0.00  0.00     0.136 C 
BRANCH  10  11
ATOM     11  C   UNL d   1      -2.475  -2.100   1.976  0.00  0.00     0.141 C 
ATOM     12  O   UNL d   1      -2.818  -3.016   2.705  0.00  0.00    -0.650 OA
BRANCH  11  13
ATOM     13  O   UNL d   1      -3.145  -1.793   0.843  0.00  0.00    -0.776 OA
ATOM     14  H   UNL d   1      -2.769  -1.041   0.349  0.00  0.00     0.167 HD
ENDBRANCH  11  13
ENDBRANCH  10  11
ENDBRANCH   9  10
ENDBRANCH   8   9
ENDBRANCH   2   8
TORSDOF 5
