REMARK  4 active torsions:
REMARK  status: ('A' for Active; 'I' for Inactive)
REMARK    1  A    between atoms: C_7  and  C_1 
REMARK    2  A    between atoms: C_11  and  C_4 
REMARK       I    between atoms: N_10  and  C_7 
REMARK    3  A    between atoms: N_8  and  N_10 
REMARK    4  A    between atoms: C_18  and  C_16 
ROOT
ATOM      1  C   UNL d   1       0.395  -2.839   0.077  0.00  0.00     0.275 C 
ATOM      2  N   UNL d   1      -0.773  -3.594   0.081  0.00  0.00    -0.266 N 
ATOM      3  O   UNL d   1       1.531  -3.305   0.086  0.00  0.00    -0.266 OA
ATOM      4  H   UNL d   1      -1.651  -3.101  -0.029  0.00  0.00     0.190 HD
ENDROOT
BRANCH   1   5
ATOM      5  C   UNL d   1       0.183  -1.400   0.002  0.00  0.00     0.094 A 
ATOM      6  C   UNL d   1       1.066  -0.428  -0.574  0.00  0.00     0.083 A 
ATOM      7  N   UNL d   1       0.571   0.810  -0.423  0.00  0.00    -0.259 N 
ATOM      8  O   UNL d   1      -0.643   0.668   0.201  0.00  0.00    -0.241 OA
ATOM      9  HN  UNL d   1       1.011   1.684  -0.714  1.00  0.00     0.195 HD
ATOM     10  C   UNL d   1      -0.885  -0.644   0.449  0.00  0.00     0.090 A 
ATOM     11  C   UNL d   1      -2.178  -0.916   1.113  0.00  0.00     0.080 C 
BRANCH   6  12
ATOM     12  C   UNL d   1       2.315  -0.630  -1.307  0.00  0.00    -0.006 A 
ATOM     13  C   UNL d   1       3.446   0.139  -1.004  0.00  0.00     0.014 A 
ATOM     14  C   UNL d   1       4.631  -0.033  -1.725  0.00  0.00     0.001 A 
ATOM     15  C   UNL d   1       4.692  -0.968  -2.757  0.00  0.00     0.000 A 
ATOM     16  C   UNL d   1       3.570  -1.733  -3.071  0.00  0.00     0.001 A 
ATOM     17  C   UNL d   1       2.386  -1.563  -2.352  0.00  0.00     0.014 A 
ENDBRANCH   6  12
ENDBRANCH   1   5
BRANCH   2  18
ATOM     18  N   UNL d   1      -0.915  -4.922  -0.221  0.00  0.00    -0.308 N 
ATOM     19  C   UNL d   1       0.103  -5.720  -0.261  0.00  0.00     0.118 C 
ATOM     20  HN  UNL d   1      -1.845  -5.291  -0.420  1.00  0.00     0.186 HD
BRANCH  19  21
ATOM     21  C   UNL d   1      -0.061  -7.084  -0.807  0.00  0.00    -0.018 A 
ATOM     22  C   UNL d   1       1.062  -7.733  -1.326  0.00  0.00     0.025 A 
ATOM     23  C   UNL d   1       0.907  -8.903  -2.087  0.00  0.00    -0.025 A 
ATOM     24  C   UNL d   1       2.005  -9.521  -2.706  0.00  0.00     0.012 A 
ATOM     25  C   UNL d   1      -0.389  -9.439  -2.282  0.00  0.00    -0.026 A 
ATOM     26  C   UNL d   1       1.822 -10.625  -3.540  0.00  0.00     0.001 A 
ATOM     27  C   UNL d   1       0.545 -11.137  -3.751  0.00  0.00     0.001 A 
ATOM     28  C   UNL d   1      -0.553 -10.557  -3.113  0.00  0.00     0.012 A 
ATOM     29  C   UNL d   1      -1.493  -8.822  -1.673  0.00  0.00     0.013 A 
ATOM     30  C   UNL d   1      -1.332  -7.642  -0.949  0.00  0.00     0.014 A 
ENDBRANCH  19  21
ENDBRANCH   2  18
TORSDOF 4
