REMARK  4 active torsions:
REMARK  status: ('A' for Active; 'I' for Inactive)
REMARK    1  A    between atoms: C_6  and  N_1 
REMARK       I    between atoms: C_2  and  N_5 
REMARK    2  A    between atoms: C_3  and  C_2 
REMARK    3  A    between atoms: C_4  and  C_8 
REMARK       I    between atoms: N_7  and  C_4 
REMARK    4  A    between atoms: N_5  and  N_7 
ROOT
ATOM      1  C   UNL d   1       0.329   1.563   4.719  0.00  0.00     0.270 C 
ATOM      2  N   UNL d   1      -0.342   1.429   5.918  0.00  0.00    -0.263 N 
ATOM      3  O   UNL d   1       1.224   2.394   4.575  0.00  0.00    -0.266 OA
ATOM      4  H   UNL d   1      -1.097   0.777   6.114  0.00  0.00     0.190 HD
ENDROOT
BRANCH   1   5
ATOM      5  C   UNL d   1      -0.065   0.672   3.585  0.00  0.00     0.036 A 
ATOM      6  C   UNL d   1       0.669   0.781   2.392  0.00  0.00     0.053 A 
ATOM      7  C   UNL d   1       0.332  -0.011   1.287  0.00  0.00     0.103 A 
ATOM      8  C   UNL d   1      -0.734  -0.916   1.357  0.00  0.00     0.036 A 
ATOM      9  C   UNL d   1      -1.459  -1.028   2.543  0.00  0.00     0.003 A 
ATOM     10  C   UNL d   1      -1.128  -0.241   3.652  0.00  0.00     0.017 A 
BRANCH   7  11
ATOM     11  N   UNL d   1       1.101   0.109   0.041  0.00  0.00    -0.116 N 
ATOM     12  O   UNL d   1       2.072   0.876   0.034  0.00  0.00    -0.532 OA
ATOM     13  O   UNL d   1       0.731  -0.568  -0.929  0.00  0.00    -0.532 OA
ENDBRANCH   7  11
ENDBRANCH   1   5
BRANCH   2  14
ATOM     14  N   UNL d   1       0.011   2.296   6.962  0.00  0.00    -0.260 N 
ATOM     15  C   UNL d   1      -0.767   2.311   8.111  0.00  0.00     0.343 C 
ATOM     16  O   UNL d   1      -1.698   1.512   8.262  0.00  0.00    -0.262 OA
ATOM     17  H   UNL d   1       0.721   3.003   6.755  0.00  0.00     0.190 HD
BRANCH  15  18
ATOM     18  C   UNL d   1      -0.349   3.369   9.144  0.00  0.00     0.473 C 
ATOM     19  F   UNL d   1       0.629   4.194   8.669  0.00  0.00    -0.162 F 
ATOM     20  F   UNL d   1      -1.382   4.176   9.512  0.00  0.00    -0.162 F 
ATOM     21  F   UNL d   1       0.141   2.815  10.286  0.00  0.00    -0.162 F 
ENDBRANCH  15  18
ENDBRANCH   2  14
TORSDOF 4
