REMARK  4 active torsions:
REMARK  status: ('A' for Active; 'I' for Inactive)
REMARK    1  A    between atoms: C_2  and  S_1 
REMARK    2  A    between atoms: O_6  and  S_1 
REMARK    3  A    between atoms: N_3  and  C_11 
REMARK    4  A    between atoms: C_10  and  O_6 
ROOT
ATOM      1  O   UNL d   1       0.126   0.451  -1.561  0.00  0.00    -0.227 OA
ENDROOT
BRANCH   1   2
ATOM      2  S   UNL d   1      -1.435   0.316  -1.165  0.00  0.00     0.304 S 
ATOM      3  O   UNL d   1      -2.238   0.245  -2.368  0.00  0.00    -0.193 OA
ATOM      4  O   UNL d   1      -1.488  -0.773  -0.198  0.00  0.00    -0.193 OA
BRANCH   2   5
ATOM      5  C   UNL d   1      -2.014   1.773  -0.236  0.00  0.00     0.099 C 
ATOM      6  C   UNL d   1      -1.175   2.867   0.101  0.00  0.00    -0.031 C 
ATOM      7  C   UNL d   1      -1.754   4.040   0.658  0.00  0.00    -0.048 C 
ATOM      8  C   UNL d   1       0.321   2.853  -0.047  0.00  0.00     0.050 C 
ATOM      9  C   UNL d   1      -0.929   5.300   0.855  0.00  0.00     0.049 C 
ATOM     10  C   UNL d   1      -3.102   4.037   1.093  0.00  0.00    -0.049 C 
ATOM     11  C   UNL d   1      -3.917   2.902   0.861  0.00  0.00    -0.048 C 
ATOM     12  C   UNL d   1      -3.620   5.239   1.857  0.00  0.00     0.049 C 
ATOM     13  C   UNL d   1      -3.388   1.776   0.166  0.00  0.00    -0.031 C 
ATOM     14  C   UNL d   1      -5.340   2.910   1.383  0.00  0.00     0.049 C 
ATOM     15  C   UNL d   1      -4.315   0.597  -0.063  0.00  0.00     0.050 C 
ENDBRANCH   2   5
ENDBRANCH   1   2
BRANCH   1  16
ATOM     16  C   UNL d   1       0.708   1.163  -2.582  0.00  0.00     0.116 A 
ATOM     17  C   UNL d   1       2.129   1.301  -2.492  0.00  0.00     0.065 A 
ATOM     18  C   UNL d   1       2.712   2.223  -3.385  0.00  0.00     0.032 A 
ATOM     19  C   UNL d   1       1.960   2.969  -4.298  0.00  0.00     0.002 A 
ATOM     20  C   UNL d   1       0.592   2.775  -4.391  0.00  0.00     0.003 A 
ATOM     21  C   UNL d   1      -0.033   1.861  -3.547  0.00  0.00     0.040 A 
BRANCH  17  22
ATOM     22  N   UNL d   1       2.894   0.684  -1.501  0.00  0.00    -0.374 N 
ATOM     23  C   UNL d   1       2.672  -0.716  -1.058  0.00  0.00     0.154 C 
ATOM     24  C   UNL d   1       2.954  -0.802   0.465  0.00  0.00     0.136 C 
ATOM     25  C   UNL d   1       2.798  -2.219   0.995  0.00  0.00     0.041 C 
ATOM     26  O   UNL d   1       4.303  -0.382   0.762  0.00  0.00    -0.378 OA
ATOM     27  C   UNL d   1       4.514   0.975   0.333  0.00  0.00     0.136 C 
ATOM     28  C   UNL d   1       4.270   1.127  -1.186  0.00  0.00     0.154 C 
ATOM     29  C   UNL d   1       5.939   1.367   0.702  0.00  0.00     0.041 C 
ENDBRANCH  17  22
ENDBRANCH   1  16
TORSDOF 4
