REMARK  10 active torsions:
REMARK  status: ('A' for Active; 'I' for Inactive)
REMARK    1  A    between atoms: C_4  and  C_1 
REMARK    2  A    between atoms: C_8  and  C_1 
REMARK    3  A    between atoms: O_7  and  N_2 
REMARK    4  A    between atoms: C_11  and  C_8 
REMARK    5  A    between atoms: C_16  and  C_11 
REMARK    6  A    between atoms: C_12  and  C_13 
REMARK    7  A    between atoms: C_13  and  C_15 
REMARK    8  A    between atoms: C_14  and  C_17 
REMARK    9  A    between atoms: C_15  and  C_14 
REMARK   10  A    between atoms: C_17  and  C_16 
ROOT
ATOM      1  C   UNL d   1       0.960   0.250  -2.442  0.00  0.00     0.058 C 
ATOM      2  N   UNL d   1       0.214   1.240  -2.856  0.00  0.00    -0.271 N 
ATOM      3  HN  UNL d   1      -0.806   1.225  -2.851  1.00  0.00     0.194 HD
ENDROOT
BRANCH   1   4
ATOM      4  C   UNL d   1       0.307  -1.000  -1.940  0.00  0.00     0.056 A 
ATOM      5  N   UNL d   1       1.127  -1.948  -1.422  0.00  0.00    -0.364 N 
ATOM      6  C   UNL d   1       0.551  -3.095  -1.009  0.00  0.00     0.088 A 
ATOM      7  HN  UNL d   1       2.133  -1.800  -1.348  1.00  0.00     0.165 HD
ATOM      8  C   UNL d   1      -0.810  -3.346  -1.089  0.00  0.00     0.017 A 
ATOM      9  C   UNL d   1      -1.633  -2.358  -1.616  0.00  0.00     0.004 A 
ATOM     10  C   UNL d   1      -1.070  -1.160  -2.049  0.00  0.00     0.031 A 
ENDBRANCH   1   4
BRANCH   1  11
ATOM     11  C   UNL d   1       2.483   0.279  -2.456  0.00  0.00     0.061 C 
BRANCH  11  12
ATOM     12  C   UNL d   1       3.052   0.865  -1.161  0.00  0.00     0.006 C 
BRANCH  12  13
ATOM     13  C   UNL d   1       4.586   0.858  -1.135  0.00  0.00     0.000 C 
BRANCH  13  14
ATOM     14  C   UNL d   1       5.187   1.684  -2.271  0.00  0.00     0.000 C 
BRANCH  14  15
ATOM     15  C   UNL d   1       6.713   1.698  -2.250  0.00  0.00     0.000 C 
BRANCH  15  16
ATOM     16  C   UNL d   1       7.238   2.504  -3.439  0.00  0.00     0.000 C 
BRANCH  16  17
ATOM     17  C   UNL d   1       8.761   2.525  -3.478  0.00  0.00    -0.000 C 
BRANCH  17  18
ATOM     18  C   UNL d   1       9.268   3.342  -4.666  0.00  0.00    -0.005 C 
ATOM     19  C   UNL d   1      10.786   3.370  -4.705  0.00  0.00     0.005 C 
ENDBRANCH  17  18
ENDBRANCH  16  17
ENDBRANCH  15  16
ENDBRANCH  14  15
ENDBRANCH  13  14
ENDBRANCH  12  13
ENDBRANCH  11  12
ENDBRANCH   1  11
BRANCH   2  20
ATOM     20  O   UNL d   1       0.978   2.321  -3.308  0.00  0.00    -0.290 OA
ATOM     21  H   UNL d   1       0.301   2.925  -3.664  0.00  0.00     0.244 HD
ENDBRANCH   2  20
TORSDOF 10
