REMARK  5 active torsions:
REMARK  status: ('A' for Active; 'I' for Inactive)
REMARK    1  A    between atoms: C_4  and  C_1 
REMARK       I    between atoms: C_5  and  N_2 
REMARK    2  A    between atoms: N_3  and  C_6 
REMARK    3  A    between atoms: C_9  and  C_5 
REMARK    4  A    between atoms: C_11  and  C_10 
REMARK    5  A    between atoms: O_24  and  C_11 
ROOT
ATOM      1  N   UNL d   1      -1.359  -7.931   1.188  0.00  0.00    -0.346 N 
ATOM      2  N   UNL d   1      -0.687  -5.209   1.835  0.00  0.00    -0.364 N 
ATOM      3  C   UNL d   1      -1.929  -9.119   1.600  0.00  0.00     0.243 C 
ATOM      4  C   UNL d   1       0.023  -7.614   1.582  0.00  0.00     0.146 C 
ATOM      5  C   UNL d   1      -2.010  -6.811   0.490  0.00  0.00     0.146 C 
ATOM      6  C   UNL d   1      -2.044  -5.582   1.406  0.00  0.00     0.144 C 
ATOM      7  C   UNL d   1       0.141  -6.295   2.391  0.00  0.00     0.144 C 
ATOM      8  O   UNL d   1      -1.319  -9.954   2.268  0.00  0.00    -0.268 OA
ENDROOT
BRANCH   2   9
ATOM      9  C   UNL d   1      -0.126  -4.080   1.268  0.00  0.00     0.103 A 
ATOM     10  C   UNL d   1       0.881  -3.371   1.923  0.00  0.00     0.049 A 
ATOM     11  C   UNL d   1       1.326  -2.147   1.412  0.00  0.00     0.021 A 
ATOM     12  C   UNL d   1       0.772  -1.646   0.235  0.00  0.00     0.063 A 
ATOM     13  C   UNL d   1      -0.196  -2.422  -0.375  0.00  0.00     0.106 A 
ATOM     14  N   UNL d   1      -0.646  -3.603   0.115  0.00  0.00    -0.352 N 
ATOM     15  HN  UNL d   1      -1.368  -4.126  -0.381  1.00  0.00     0.166 HD
BRANCH  12  16
ATOM     16  C   UNL d   1       1.173  -0.323  -0.337  0.00  0.00     0.418 C 
ATOM     17  F   UNL d   1       0.539  -0.015  -1.503  0.00  0.00    -0.166 F 
ATOM     18  F   UNL d   1       2.506  -0.252  -0.609  0.00  0.00    -0.166 F 
ATOM     19  F   UNL d   1       0.911   0.712   0.510  0.00  0.00    -0.166 F 
ENDBRANCH  12  16
ENDBRANCH   2   9
BRANCH   3  20
ATOM     20  C   UNL d   1      -3.340  -9.401   1.216  0.00  0.00     0.081 C 
ATOM     21  C   UNL d   1      -3.930 -10.540   1.621  0.00  0.00     0.086 C 
BRANCH  21  22
ATOM     22  C   UNL d   1      -5.326 -10.789   1.222  0.00  0.00     0.165 C 
ATOM     23  O   UNL d   1      -6.001 -10.020   0.562  0.00  0.00    -0.647 OA
BRANCH  22  24
ATOM     24  O   UNL d   1      -5.785 -11.973   1.675  0.00  0.00    -0.773 OA
ATOM     25  H   UNL d   1      -5.153 -12.505   2.189  0.00  0.00     0.167 HD
ENDBRANCH  22  24
ENDBRANCH  21  22
ENDBRANCH   3  20
TORSDOF 5
