REMARK  8 active torsions:
REMARK  status: ('A' for Active; 'I' for Inactive)
REMARK    1  A    between atoms: C_7  and  C_1 
REMARK    2  A    between atoms: N_4  and  C_2 
REMARK       I    between atoms: C_3  and  N_4 
REMARK    3  A    between atoms: C_5  and  C_3 
REMARK    4  A    between atoms: O_17  and  C_7 
REMARK    5  A    between atoms: C_10  and  C_8 
REMARK    6  A    between atoms: O_16  and  C_10 
REMARK    7  A    between atoms: O_18  and  C_11 
REMARK    8  A    between atoms: O_19  and  C_12 
ROOT
ATOM      1  C   UNL d   1       1.233  -0.401  -0.122  0.00  0.00     0.069 A 
ATOM      2  C   UNL d   1       0.582  -1.502  -0.714  0.00  0.00     0.054 A 
ATOM      3  C   UNL d   1       0.486   0.743   0.222  0.00  0.00     0.059 A 
ATOM      4  C   UNL d   1      -0.817  -1.419  -0.904  0.00  0.00     0.070 A 
ATOM      5  C   UNL d   1      -0.885   0.837  -0.017  0.00  0.00     0.102 A 
ATOM      6  C   UNL d   1      -1.553  -0.265  -0.553  0.00  0.00     0.103 A 
ENDROOT
BRANCH   2   7
ATOM      7  N   UNL d   1       1.348  -2.631  -1.133  0.00  0.00    -0.322 N 
ATOM      8  C   UNL d   1       0.972  -3.639  -2.000  0.00  0.00     0.257 C 
ATOM      9  O   UNL d   1      -0.156  -3.809  -2.455  0.00  0.00    -0.267 OA
ATOM     10  H   UNL d   1       2.329  -2.638  -0.831  0.00  0.00     0.169 HD
BRANCH   8  11
ATOM     11  C   UNL d   1       2.064  -4.499  -2.561  0.00  0.00     0.049 A 
ATOM     12  C   UNL d   1       3.018  -5.237  -1.844  0.00  0.00     0.053 A 
ATOM     13  C   UNL d   1       3.946  -6.050  -2.525  0.00  0.00     0.019 A 
ATOM     14  C   UNL d   1       3.955  -6.109  -3.916  0.00  0.00     0.001 A 
ATOM     15  C   UNL d   1       3.025  -5.373  -4.638  0.00  0.00     0.001 A 
ATOM     16  C   UNL d   1       2.080  -4.587  -3.969  0.00  0.00     0.018 A 
BRANCH  12  17
ATOM     17  C   UNL d   1       3.215  -5.203  -0.385  0.00  0.00     0.177 C 
ATOM     18  O   UNL d   1       3.558  -6.118   0.337  0.00  0.00    -0.646 OA
BRANCH  17  19
ATOM     19  O   UNL d   1       3.317  -3.916  -0.023  0.00  0.00    -0.773 OA
ATOM     20  H   UNL d   1       3.832  -3.874   0.808  0.00  0.00     0.167 HD
ENDBRANCH  17  19
ENDBRANCH  12  17
ENDBRANCH   8  11
ENDBRANCH   2   7
BRANCH   1  21
ATOM     21  C   UNL d   1       2.714  -0.371   0.113  0.00  0.00     0.295 C 
ATOM     22  O   UNL d   1       3.459  -1.328   0.011  0.00  0.00    -0.259 OA
BRANCH  21  23
ATOM     23  O   UNL d   1       3.107   0.885   0.445  0.00  0.00    -0.322 OA
ATOM     24  C   UNL d   1       4.494   1.031   0.759  0.00  0.00     0.213 C 
ENDBRANCH  21  23
ENDBRANCH   1  21
BRANCH   6  25
ATOM     25  O   UNL d   1      -2.898  -0.160  -0.789  0.00  0.00    -0.353 OA
ATOM     26  C   UNL d   1      -3.674  -1.321  -0.514  0.00  0.00     0.210 C 
ENDBRANCH   6  25
BRANCH   5  27
ATOM     27  O   UNL d   1      -1.384   2.056   0.359  0.00  0.00    -0.353 OA
ATOM     28  C   UNL d   1      -2.705   2.413  -0.013  0.00  0.00     0.210 C 
ENDBRANCH   5  27
TORSDOF 8
