REMARK  4 active torsions:
REMARK  status: ('A' for Active; 'I' for Inactive)
REMARK    1  A    between atoms: C_7  and  N_1 
REMARK    2  A    between atoms: C_8  and  C_4 
REMARK    3  A    between atoms: C_9  and  C_6 
REMARK    4  A    between atoms: N_13  and  C_12 
ROOT
ATOM      1  N   UNL d   1       0.968  -0.732  -0.024  0.00  0.00    -0.260 N 
ATOM      2  N   UNL d   1       0.966   0.608   0.214  0.00  0.00    -0.297 N 
ATOM      3  HN  UNL d   1       1.755   1.179   0.518  1.00  0.00     0.187 HD
ATOM      4  C   UNL d   1      -0.343  -1.223  -0.147  0.00  0.00     0.044 C 
ATOM      5  C   UNL d   1      -1.123  -0.079  -0.268  0.00  0.00     0.055 C 
ATOM      6  C   UNL d   1      -0.279   1.023  -0.031  0.00  0.00     0.036 C 
ENDROOT
BRANCH   1   7
ATOM      7  C   UNL d   1       2.232  -1.391  -0.074  0.00  0.00     0.056 A 
ATOM      8  C   UNL d   1       3.277  -0.930   0.741  0.00  0.00     0.033 A 
ATOM      9  C   UNL d   1       4.473  -1.657   0.827  0.00  0.00     0.025 A 
ATOM     10  C   UNL d   1       4.672  -2.804   0.060  0.00  0.00     0.005 A 
ATOM     11  C   UNL d   1       3.652  -3.220  -0.792  0.00  0.00     0.025 A 
ATOM     12  C   UNL d   1       2.463  -2.492  -0.892  0.00  0.00     0.033 A 
BRANCH  10  13
ATOM     13  N   UNL d   1       5.756  -3.651   0.312  0.00  0.00    -0.303 NA
ATOM     14  H   UNL d   1       5.974  -4.294  -0.441  0.00  0.00     0.124 HD
ATOM     15  H   UNL d   1       6.573  -3.175   0.665  0.00  0.00     0.124 HD
ENDBRANCH  10  13
ENDBRANCH   1   7
BRANCH   4  16
ATOM     16  C   UNL d   1      -0.856  -2.670  -0.055  0.00  0.00    -0.007 C 
ATOM     17  C   UNL d   1      -0.062  -3.554   0.926  0.00  0.00     0.021 C 
ATOM     18  C   UNL d   1      -2.306  -2.673   0.521  0.00  0.00     0.021 C 
ATOM     19  C   UNL d   1      -0.978  -3.312  -1.448  0.00  0.00     0.021 C 
ENDBRANCH   4  16
BRANCH   6  20
ATOM     20  C   UNL d   1      -0.672   2.494   0.018  0.00  0.00    -0.007 C 
ATOM     21  C   UNL d   1       0.541   3.422   0.239  0.00  0.00     0.021 C 
ATOM     22  C   UNL d   1      -1.341   2.901  -1.312  0.00  0.00     0.021 C 
ATOM     23  C   UNL d   1      -1.671   2.738   1.168  0.00  0.00     0.021 C 
ENDBRANCH   6  20
TORSDOF 4
