REMARK  4 active torsions:
REMARK  status: ('A' for Active; 'I' for Inactive)
REMARK    1  A    between atoms: C_6  and  S_1 
REMARK    2  A    between atoms: N_8  and  S_1 
REMARK    3  A    between atoms: N_11  and  N_8 
REMARK    4  A    between atoms: C_10  and  N_11 
ROOT
ATOM      1  N   UNL d   1       0.804   2.412  -1.081  0.00  0.00    -0.275 N 
ATOM      2  H   UNL d   1       1.444   2.000  -1.756  0.00  0.00     0.189 HD
ENDROOT
BRANCH   1   3
ATOM      3  C   UNL d   1       0.341   3.712  -1.294  0.00  0.00     0.137 A 
ATOM      4  C   UNL d   1       0.716   4.488  -2.399  0.00  0.00     0.072 A 
ATOM      5  C   UNL d   1       0.210   5.777  -2.480  0.00  0.00     0.138 A 
ATOM      6  C   UNL d   1       1.519   4.363  -3.554  0.00  0.00     0.126 A 
ATOM      7  N   UNL d   1       0.738   6.324  -3.617  0.00  0.00    -0.281 N 
ATOM      8  N   UNL d   1      -0.621   6.361  -1.602  0.00  0.00    -0.337 N 
ATOM      9  C   UNL d   1       0.536   7.662  -4.116  0.00  0.00     0.179 C 
ATOM     10  N   UNL d   1       1.538   5.472  -4.302  0.00  0.00    -0.307 N 
ATOM     11  HN  UNL d   1       2.035   5.636  -5.177  1.00  0.00     0.186 HD
ATOM     12  C   UNL d   1      -0.934   5.535  -0.593  0.00  0.00     0.183 A 
ATOM     13  HN  UNL d   1      -0.972   7.315  -1.692  1.00  0.00     0.168 HD
ATOM     14  N   UNL d   1      -0.509   4.271  -0.387  0.00  0.00    -0.337 N 
ATOM     15  HN  UNL d   1      -0.817   3.745   0.431  1.00  0.00     0.168 HD
ENDBRANCH   1   3
BRANCH   1  16
ATOM     16  N   UNL d   1       0.451   1.596   0.086  0.00  0.00    -0.221 N 
ATOM     17  H   UNL d   1      -0.221   1.963   0.765  0.00  0.00     0.200 HD
BRANCH  16  18
ATOM     18  S   UNL d   1       1.047   0.020   0.220  0.00  0.00     0.276 S 
ATOM     19  O   UNL d   1       0.522  -0.730  -0.904  0.00  0.00    -0.199 OA
ATOM     20  O   UNL d   1       2.477   0.098   0.426  0.00  0.00    -0.199 OA
BRANCH  18  21
ATOM     21  C   UNL d   1       0.261  -0.597   1.706  0.00  0.00     0.087 A 
ATOM     22  C   UNL d   1      -0.970  -1.262   1.542  0.00  0.00     0.034 A 
ATOM     23  C   UNL d   1      -1.617  -1.880   2.624  0.00  0.00    -0.039 A 
ATOM     24  C   UNL d   1      -2.967  -2.510   2.425  0.00  0.00     0.050 C 
ATOM     25  C   UNL d   1      -0.984  -1.872   3.872  0.00  0.00     0.040 A 
ATOM     26  C   UNL d   1       0.238  -1.215   4.041  0.00  0.00     0.032 A 
ATOM     27 CL   UNL d   1      -1.678  -2.654   5.247  0.00  0.00    -0.084 Cl
ATOM     28  C   UNL d   1       0.862  -0.534   2.976  0.00  0.00    -0.037 A 
ATOM     29  C   UNL d   1       2.147   0.184   3.277  0.00  0.00     0.050 C 
ENDBRANCH  18  21
ENDBRANCH  16  18
ENDBRANCH   1  16
TORSDOF 4
