REMARK  8 active torsions:
REMARK  status: ('A' for Active; 'I' for Inactive)
REMARK    1  A    between atoms: N_2  and  C_1 
REMARK    2  A    between atoms: C_3  and  C_1 
REMARK    3  A    between atoms: N_4  and  C_1 
REMARK    4  A    between atoms: C_6  and  C_1 
REMARK       I    between atoms: C_5  and  N_2 
REMARK    5  A    between atoms: C_7  and  N_4 
REMARK    6  A    between atoms: C_9  and  C_5 
REMARK    7  A    between atoms: O_15  and  C_6 
REMARK    8  A    between atoms: C_21  and  O_15 
ROOT
ATOM      1  C   UNL d   1       1.187   0.213  -0.039  0.00  0.00     0.280 C 
ENDROOT
BRANCH   1   2
ATOM      2  N   UNL d   1       0.845   0.790   1.288  0.00  0.00    -0.319 N 
ATOM      3  C   UNL d   1       0.184   1.953   1.580  0.00  0.00     0.253 C 
ATOM      4  O   UNL d   1      -0.287   2.729   0.762  0.00  0.00    -0.268 OA
ATOM      5  H   UNL d   1       1.287   0.326   2.064  0.00  0.00     0.165 HD
BRANCH   3   6
ATOM      6  C   UNL d   1       0.046   2.318   3.015  0.00  0.00     0.032 A 
ATOM      7  C   UNL d   1       0.139   3.676   3.365  0.00  0.00     0.017 A 
ATOM      8  C   UNL d   1      -0.037   4.083   4.688  0.00  0.00     0.001 A 
ATOM      9  C   UNL d   1      -0.324   3.138   5.670  0.00  0.00     0.000 A 
ATOM     10  C   UNL d   1      -0.438   1.785   5.325  0.00  0.00     0.001 A 
ATOM     11  C   UNL d   1      -0.252   1.373   4.003  0.00  0.00     0.017 A 
ENDBRANCH   3   6
ENDBRANCH   1   2
BRANCH   1  12
ATOM     12  C   UNL d   1       0.858   0.992  -1.405  0.00  0.00     0.436 C 
ATOM     13  F   UNL d   1       0.117   2.106  -1.338  0.00  0.00    -0.166 F 
ATOM     14  F   UNL d   1       1.967   1.347  -2.108  0.00  0.00    -0.166 F 
ATOM     15  F   UNL d   1       0.158   0.148  -2.229  0.00  0.00    -0.166 F 
ENDBRANCH   1  12
BRANCH   1  16
ATOM     16  N   UNL d   1       0.503  -1.155  -0.007  0.00  0.00    -0.250 NA
ATOM     17  H   UNL d   1       0.063  -1.298  -0.915  0.00  0.00     0.131 HD
BRANCH  16  18
ATOM     18  C   UNL d   1       1.098  -2.337   0.465  0.00  0.00     0.017 A 
ATOM     19  C   UNL d   1       0.788  -3.603  -0.101  0.00  0.00    -0.041 A 
ATOM     20  C   UNL d   1      -0.064  -3.813  -1.326  0.00  0.00     0.050 C 
ATOM     21  C   UNL d   1       1.292  -4.787   0.485  0.00  0.00     0.008 A 
ATOM     22  C   UNL d   1       2.133  -4.750   1.589  0.00  0.00     0.001 A 
ATOM     23  C   UNL d   1       2.468  -3.522   2.135  0.00  0.00     0.002 A 
ATOM     24  C   UNL d   1       1.939  -2.345   1.593  0.00  0.00     0.024 A 
ENDBRANCH  16  18
ENDBRANCH   1  16
BRANCH   1  25
ATOM     25  C   UNL d   1       2.728   0.037  -0.167  0.00  0.00     0.312 C 
ATOM     26  O   UNL d   1       3.555   0.500   0.622  0.00  0.00    -0.260 OA
BRANCH  25  27
ATOM     27  O   UNL d   1       3.042  -0.751  -1.243  0.00  0.00    -0.319 OA
BRANCH  27  28
ATOM     28  C   UNL d   1       4.430  -1.017  -1.486  0.00  0.00     0.174 C 
ATOM     29  C   UNL d   1       5.102   0.175  -2.142  0.00  0.00     0.034 C 
ENDBRANCH  27  28
ENDBRANCH  25  27
ENDBRANCH   1  25
TORSDOF 8
