REMARK  3 active torsions:
REMARK  status: ('A' for Active; 'I' for Inactive)
REMARK    1  A    between atoms: N_3  and  C_1 
REMARK    2  A    between atoms: N_10  and  C_2 
REMARK    3  A    between atoms: C_11  and  C_9 
ROOT
ATOM      1  C   UNL d   1       0.537   1.174   0.093  0.00  0.00     0.145 C 
ATOM      2  C   UNL d   1      -0.540   0.579   0.667  0.00  0.00     0.125 C 
ATOM      3  C   UNL d   1       1.537   0.362  -0.554  0.00  0.00     0.120 C 
ATOM      4  C   UNL d   1      -0.724  -0.844   0.641  0.00  0.00     0.114 C 
ATOM      5  N   UNL d   1       2.368  -0.277  -1.052  0.00  0.00    -0.190 NA
ATOM      6  N   UNL d   1      -0.911  -1.991   0.619  0.00  0.00    -0.190 NA
ENDROOT
BRANCH   1   7
ATOM      7  N   UNL d   1       0.612   2.565   0.118  0.00  0.00    -0.355 N 
ATOM      8  C   UNL d   1       1.782   3.127   0.127  0.00  0.00     0.100 C 
ATOM      9  HN  UNL d   1      -0.236   3.131   0.129  1.00  0.00     0.166 HD
BRANCH   8  10
ATOM     10  C   UNL d   1       1.932   4.600   0.207  0.00  0.00    -0.021 A 
ATOM     11  C   UNL d   1       0.811   5.430   0.280  0.00  0.00     0.013 A 
ATOM     12  C   UNL d   1       0.974   6.814   0.380  0.00  0.00     0.007 A 
ATOM     13  C   UNL d   1       2.256   7.379   0.410  0.00  0.00    -0.062 A 
ATOM     14  C   UNL d   1       3.374   6.540   0.333  0.00  0.00     0.007 A 
ATOM     15  C   UNL d   1       2.410   8.868   0.531  0.00  0.00     0.048 C 
ATOM     16  C   UNL d   1       3.215   5.153   0.233  0.00  0.00     0.013 A 
ENDBRANCH   8  10
ENDBRANCH   1   7
BRANCH   2  17
ATOM     17  N   UNL d   1      -1.559   1.268   1.330  0.00  0.00    -0.291 NA
ATOM     18  H   UNL d   1      -1.574   2.254   1.064  0.00  0.00     0.125 HD
ATOM     19  H   UNL d   1      -2.471   0.817   1.291  0.00  0.00     0.125 HD
ENDBRANCH   2  17
TORSDOF 3
