REMARK  5 active torsions:
REMARK  status: ('A' for Active; 'I' for Inactive)
REMARK    1  A    between atoms: C_8  and  S_1 
REMARK    2  A    between atoms: C_10  and  S_1 
REMARK    3  A    between atoms: C_2  and  C_10 
REMARK    4  A    between atoms: C_9  and  C_8 
REMARK       I    between atoms: N_13  and  C_9 
REMARK    5  A    between atoms: C_16  and  N_13 
ROOT
ATOM      1  S   UNL d   1      -1.511   1.416   0.509  0.00  0.00     0.157 S 
ATOM      2  O   UNL d   1      -2.323   0.380  -0.104  0.00  0.00    -0.227 OA
ATOM      3  O   UNL d   1      -2.150   2.386   1.388  0.00  0.00    -0.227 OA
ENDROOT
BRANCH   1   4
ATOM      4  C   UNL d   1      -0.817   2.404  -0.786  0.00  0.00     0.243 C 
BRANCH   4   5
ATOM      5  C   UNL d   1      -0.154   1.618  -1.880  0.00  0.00     0.236 C 
ATOM      6  N   UNL d   1       0.049   2.402  -3.018  0.00  0.00    -0.326 N 
ATOM      7  H   UNL d   1      -0.068   3.404  -2.917  0.00  0.00     0.169 HD
ATOM      8  O   UNL d   1       0.241   0.469  -1.740  0.00  0.00    -0.272 OA
BRANCH   6   9
ATOM      9  C   UNL d   1       0.520   1.968  -4.277  0.00  0.00     0.036 A 
ATOM     10  C   UNL d   1       0.503   0.631  -4.687  0.00  0.00     0.056 A 
ATOM     11  C   UNL d   1       0.946   0.286  -5.969  0.00  0.00     0.074 A 
ATOM     12 CL   UNL d   1       0.872  -1.358  -6.479  0.00  0.00    -0.081 Cl
ATOM     13  C   UNL d   1       1.422   1.268  -6.835  0.00  0.00     0.138 A 
ATOM     14  C   UNL d   1       1.444   2.600  -6.439  0.00  0.00     0.046 A 
ATOM     15  F   UNL d   1       1.860   0.953  -8.063  0.00  0.00    -0.204 F 
ATOM     16  C   UNL d   1       0.979   2.951  -5.168  0.00  0.00     0.032 A 
ENDBRANCH   6   9
ENDBRANCH   4   5
ENDBRANCH   1   4
BRANCH   1  17
ATOM     17  C   UNL d   1      -0.088   0.708   1.364  0.00  0.00     0.180 C 
BRANCH  17  18
ATOM     18  C   UNL d   1      -0.515   0.015   2.658  0.00  0.00    -0.031 A 
ATOM     19  C   UNL d   1      -0.746  -1.391   2.663  0.00  0.00    -0.048 A 
ATOM     20  C   UNL d   1      -1.029  -2.065   3.883  0.00  0.00    -0.049 A 
ATOM     21  C   UNL d   1      -0.646  -2.211   1.392  0.00  0.00     0.049 C 
ATOM     22  C   UNL d   1      -1.175  -3.574   3.919  0.00  0.00     0.049 C 
ATOM     23  C   UNL d   1      -1.223  -1.329   5.078  0.00  0.00    -0.049 A 
ATOM     24  C   UNL d   1      -1.022   0.073   5.080  0.00  0.00    -0.049 A 
ATOM     25  C   UNL d   1      -1.637  -2.067   6.336  0.00  0.00     0.049 C 
ATOM     26  C   UNL d   1      -0.649   0.744   3.878  0.00  0.00    -0.048 A 
ATOM     27  C   UNL d   1      -1.220   0.834   6.377  0.00  0.00     0.049 C 
ATOM     28  C   UNL d   1      -0.420   2.240   3.946  0.00  0.00     0.049 C 
ENDBRANCH  17  18
ENDBRANCH   1  17
TORSDOF 5
