REMARK  4 active torsions:
REMARK  status: ('A' for Active; 'I' for Inactive)
REMARK    1  A    between atoms: N_2  and  S_1 
REMARK    2  A    between atoms: C_5  and  S_1 
REMARK    3  A    between atoms: C_6  and  C_10 
REMARK    4  A    between atoms: C_7  and  C_11 
ROOT
ATOM      1  S   UNL d   1       0.961   0.024   0.008  0.00  0.00     0.278 S 
ATOM      2  O   UNL d   1       0.571  -1.181   0.709  0.00  0.00    -0.200 OA
ATOM      3  O   UNL d   1       0.845   1.304   0.680  0.00  0.00    -0.200 OA
ENDROOT
BRANCH   1   4
ATOM      4  N   UNL d   1       0.192   0.141  -1.480  0.00  0.00    -0.103 N 
ATOM      5  C   UNL d   1       0.041  -0.771  -2.540  0.00  0.00     0.688 C 
ATOM      6  N   UNL d   1      -0.016  -2.116  -2.337  0.00  0.00    -0.212 N 
ATOM      7  N   UNL d   1      -0.006  -0.223  -3.714  0.00  0.00    -0.224 N 
ATOM      8  C   UNL d   1      -0.748  -2.802  -1.266  0.00  0.00     0.172 C 
ATOM      9  C   UNL d   1       0.162  -3.032  -3.480  0.00  0.00     0.172 C 
ATOM     10  C   UNL d   1       0.152  -3.965  -0.790  0.00  0.00     0.136 C 
ATOM     11  C   UNL d   1      -0.468  -4.735   0.360  0.00  0.00     0.041 C 
ATOM     12  O   UNL d   1       0.402  -4.886  -1.882  0.00  0.00    -0.378 OA
ATOM     13  C   UNL d   1       1.027  -4.211  -2.998  0.00  0.00     0.136 C 
ATOM     14  C   UNL d   1       1.252  -5.219  -4.114  0.00  0.00     0.041 C 
ATOM     15  C   UNL d   1       0.173   1.230  -3.531  0.00  0.00     0.159 C 
ATOM     16  HN  UNL d   1      -0.142  -0.708  -4.601  1.00  0.00     0.177 HD
ATOM     17  C   UNL d   1       0.088   1.506  -2.037  0.00  0.00     0.181 C 
ENDBRANCH   1   4
BRANCH   1  18
ATOM     18  C   UNL d   1       2.701  -0.166  -0.375  0.00  0.00     0.082 A 
ATOM     19  C   UNL d   1       3.463   0.945  -0.752  0.00  0.00     0.041 A 
ATOM     20  C   UNL d   1       4.853   0.823  -0.919  0.00  0.00     0.050 A 
ATOM     21  C   UNL d   1       5.467  -0.417  -0.664  0.00  0.00     0.032 A 
ATOM     22  C   UNL d   1       4.717  -1.528  -0.246  0.00  0.00     0.050 A 
ATOM     23  C   UNL d   1       3.328  -1.391  -0.110  0.00  0.00     0.041 A 
BRANCH  20  24
ATOM     24  C   UNL d   1       5.701   2.000  -1.346  0.00  0.00     0.417 C 
ATOM     25  F   UNL d   1       4.984   3.138  -1.553  0.00  0.00    -0.166 F 
ATOM     26  F   UNL d   1       6.656   2.314  -0.429  0.00  0.00    -0.166 F 
ATOM     27  F   UNL d   1       6.364   1.757  -2.510  0.00  0.00    -0.166 F 
ENDBRANCH  20  24
BRANCH  22  28
ATOM     28  C   UNL d   1       5.414  -2.830   0.086  0.00  0.00     0.417 C 
ATOM     29  F   UNL d   1       4.563  -3.819   0.472  0.00  0.00    -0.166 F 
ATOM     30  F   UNL d   1       6.111  -3.325  -0.973  0.00  0.00    -0.166 F 
ATOM     31  F   UNL d   1       6.313  -2.690   1.097  0.00  0.00    -0.166 F 
ENDBRANCH  22  28
ENDBRANCH   1  18
TORSDOF 4
