REMARK  6 active torsions:
REMARK  status: ('A' for Active; 'I' for Inactive)
REMARK    1  A    between atoms: C_2  and  N_1 
REMARK    2  A    between atoms: N_6  and  C_2 
REMARK    3  A    between atoms: C_12  and  C_4 
REMARK    4  A    between atoms: C_14  and  N_6 
REMARK    5  A    between atoms: O_25  and  C_17 
REMARK    6  A    between atoms: O_26  and  C_18 
ROOT
ATOM      1  N   UNL d   1      -2.601   0.336  -0.275  0.00  0.00    -0.345 N 
ATOM      2  C   UNL d   1      -0.222   0.806   0.127  0.00  0.00    -0.017 A 
ATOM      3  C   UNL d   1      -1.634   1.324   0.271  0.00  0.00     0.154 C 
ATOM      4  C   UNL d   1       0.063  -0.529  -0.089  0.00  0.00    -0.007 A 
ATOM      5  C   UNL d   1      -2.360  -1.073   0.135  0.00  0.00     0.131 C 
ATOM      6  S   UNL d   1       1.728  -0.856  -0.165  0.00  0.00    -0.106 SA
ATOM      7  C   UNL d   1      -0.967  -1.594  -0.259  0.00  0.00     0.067 C 
ATOM      8  C   UNL d   1       0.984   1.577   0.196  0.00  0.00     0.018 A 
ATOM      9  C   UNL d   1       2.111   0.795   0.068  0.00  0.00     0.051 A 
ENDROOT
BRANCH   1  10
ATOM     10  C   UNL d   1      -3.463   0.648  -1.321  0.00  0.00     0.175 C 
ATOM     11  S   UNL d   1      -3.207   1.853  -2.464  0.00  0.00    -0.041 SA
BRANCH  10  12
ATOM     12  N   UNL d   1      -4.572  -0.132  -1.523  0.00  0.00    -0.333 N 
ATOM     13  H   UNL d   1      -4.929  -0.110  -2.472  0.00  0.00     0.168 HD
BRANCH  12  14
ATOM     14  C   UNL d   1      -5.344  -0.841  -0.585  0.00  0.00     0.034 A 
ATOM     15  C   UNL d   1      -5.394  -0.488   0.764  0.00  0.00     0.032 A 
ATOM     16  C   UNL d   1      -6.028  -1.322   1.689  0.00  0.00     0.039 A 
ATOM     17  C   UNL d   1      -6.608  -2.517   1.266  0.00  0.00     0.068 A 
ATOM     18  C   UNL d   1      -6.642  -2.816  -0.099  0.00  0.00     0.039 A 
ATOM     19  C   UNL d   1      -6.036  -1.968  -1.029  0.00  0.00     0.032 A 
BRANCH  17  20
ATOM     20  O   UNL d   1      -7.159  -3.467   2.079  0.00  0.00    -0.356 OA
ATOM     21  C   UNL d   1      -6.926  -3.316   3.475  0.00  0.00     0.210 C 
ENDBRANCH  17  20
ENDBRANCH  12  14
ENDBRANCH  10  12
ENDBRANCH   1  10
BRANCH   3  22
ATOM     22  C   UNL d   1      -1.878   1.609   1.755  0.00  0.00    -0.031 A 
ATOM     23  C   UNL d   1      -2.740   2.664   2.103  0.00  0.00     0.012 A 
ATOM     24  C   UNL d   1      -3.004   2.980   3.441  0.00  0.00     0.037 A 
ATOM     25  C   UNL d   1      -2.413   2.238   4.466  0.00  0.00     0.068 A 
ATOM     26  C   UNL d   1      -1.589   1.165   4.139  0.00  0.00     0.037 A 
ATOM     27  C   UNL d   1      -1.321   0.854   2.807  0.00  0.00     0.012 A 
BRANCH  25  28
ATOM     28  O   UNL d   1      -2.607   2.441   5.801  0.00  0.00    -0.356 OA
ATOM     29  C   UNL d   1      -2.859   3.788   6.186  0.00  0.00     0.210 C 
ENDBRANCH  25  28
ENDBRANCH   3  22
TORSDOF 6
