REMARK  3 active torsions:
REMARK  status: ('A' for Active; 'I' for Inactive)
REMARK    1  A    between atoms: C_2  and  C_1 
REMARK       I    between atoms: N_7  and  C_1 
REMARK    2  A    between atoms: N_4  and  C_3 
REMARK    3  A    between atoms: C_12  and  N_7 
ROOT
ATOM      1  C   UNL d   1      -4.095  -1.166  -0.892  0.00  0.00     0.103 A 
ATOM      2  N   UNL d   1      -3.429  -2.312  -0.646  0.00  0.00    -0.350 N 
ATOM      3  HN  UNL d   1      -3.934  -3.180  -0.471  1.00  0.00     0.166 HD
ATOM      4  C   UNL d   1      -3.391   0.014  -1.134  0.00  0.00     0.051 A 
ATOM      5  C   UNL d   1      -1.300  -1.146  -0.835  0.00  0.00     0.050 A 
ATOM      6  C   UNL d   1      -2.066  -2.287  -0.636  0.00  0.00     0.119 A 
ATOM      7  C   UNL d   1      -1.994   0.029  -1.090  0.00  0.00     0.035 A 
ENDROOT
BRANCH   5   8
ATOM      8  N   UNL d   1       0.107  -1.080  -0.743  0.00  0.00    -0.322 N 
ATOM      9  C   UNL d   1       0.971  -2.151  -0.649  0.00  0.00     0.257 C 
ATOM     10  O   UNL d   1       0.636  -3.325  -0.772  0.00  0.00    -0.267 OA
ATOM     11  H   UNL d   1       0.510  -0.150  -0.763  0.00  0.00     0.169 HD
BRANCH   9  12
ATOM     12  C   UNL d   1       2.410  -1.858  -0.340  0.00  0.00     0.054 A 
ATOM     13  C   UNL d   1       3.075  -0.638  -0.539  0.00  0.00     0.049 A 
ATOM     14 CL   UNL d   1       2.349   0.754  -1.267  0.00  0.00    -0.083 Cl
ATOM     15  C   UNL d   1       4.420  -0.500  -0.163  0.00  0.00     0.025 A 
ATOM     16  C   UNL d   1       5.117  -1.568   0.403  0.00  0.00     0.002 A 
ATOM     17  C   UNL d   1       4.474  -2.787   0.589  0.00  0.00     0.001 A 
ATOM     18  C   UNL d   1       3.136  -2.929   0.219  0.00  0.00     0.019 A 
ENDBRANCH   9  12
ENDBRANCH   5   8
BRANCH   1  19
ATOM     19  N   UNL d   1      -5.472  -1.158  -0.821  0.00  0.00    -0.363 N 
ATOM     20  C   UNL d   1      -6.164  -2.213  -0.069  0.00  0.00     0.150 C 
ATOM     21  C   UNL d   1      -7.012  -3.100  -0.989  0.00  0.00     0.187 C 
ATOM     22  O   UNL d   1      -7.893  -2.315  -1.810  0.00  0.00    -0.388 OA
ATOM     23  C   UNL d   1      -7.123  -1.437  -2.644  0.00  0.00     0.187 C 
ATOM     24  C   UNL d   1      -6.286  -0.450  -1.814  0.00  0.00     0.150 C 
ENDBRANCH   1  19
TORSDOF 3
