REMARK  3 active torsions:
REMARK  status: ('A' for Active; 'I' for Inactive)
REMARK    1  A    between atoms: C_4  and  C_1 
REMARK    2  A    between atoms: C_8  and  C_3 
REMARK       I    between atoms: N_7  and  C_4 
REMARK    3  A    between atoms: C_10  and  N_7 
ROOT
ATOM      1  C   UNL d   1      -1.464  -0.610   0.192  0.00  0.00     0.064 A 
ATOM      2  C   UNL d   1      -0.189  -1.199  -0.081  0.00  0.00     0.053 A 
ATOM      3  C   UNL d   1       0.767  -0.221   0.061  0.00  0.00     0.062 A 
ATOM      4  C   UNL d   1      -1.189   0.718   0.486  0.00  0.00     0.065 A 
ATOM      5  O   UNL d   1       0.153   0.953   0.383  0.00  0.00    -0.318 OA
ATOM      6  C   UNL d   1      -1.970   1.898   0.914  0.00  0.00     0.077 C 
ENDROOT
BRANCH   1   7
ATOM      7  C   UNL d   1      -2.715  -1.367   0.192  0.00  0.00     0.258 C 
ATOM      8  N   UNL d   1      -3.880  -0.635   0.067  0.00  0.00    -0.323 N 
ATOM      9  H   UNL d   1      -3.787   0.347  -0.142  0.00  0.00     0.169 HD
ATOM     10  O   UNL d   1      -2.660  -2.593   0.246  0.00  0.00    -0.267 OA
BRANCH   8  11
ATOM     11  C   UNL d   1      -5.196  -1.159   0.025  0.00  0.00     0.035 A 
ATOM     12  C   UNL d   1      -5.512  -2.491   0.311  0.00  0.00     0.029 A 
ATOM     13  C   UNL d   1      -6.824  -2.958   0.198  0.00  0.00     0.002 A 
ATOM     14  C   UNL d   1      -7.842  -2.094  -0.192  0.00  0.00     0.000 A 
ATOM     15  C   UNL d   1      -7.548  -0.757  -0.449  0.00  0.00     0.002 A 
ATOM     16  C   UNL d   1      -6.234  -0.290  -0.335  0.00  0.00     0.029 A 
ENDBRANCH   8  11
ENDBRANCH   1   7
BRANCH   3  17
ATOM     17  C   UNL d   1       2.270  -0.203  -0.037  0.00  0.00    -0.002 C 
ATOM     18  C   UNL d   1       2.820  -1.617  -0.308  0.00  0.00     0.021 C 
ATOM     19  C   UNL d   1       2.706   0.721  -1.185  0.00  0.00     0.021 C 
ATOM     20  C   UNL d   1       2.869   0.302   1.288  0.00  0.00     0.021 C 
ENDBRANCH   3  17
TORSDOF 3
