REMARK  5 active torsions:
REMARK  status: ('A' for Active; 'I' for Inactive)
REMARK    1  A    between atoms: C_2  and  S_1 
REMARK    2  A    between atoms: N_5  and  S_1 
REMARK    3  A    between atoms: C_15  and  N_5 
REMARK    4  A    between atoms: C_12  and  C_20 
REMARK    5  A    between atoms: C_20  and  C_15 
ROOT
ATOM      1  N   UNL d   1       2.525  -0.077  -0.107  0.00  0.00    -0.215 NA
ATOM      2  H   UNL d   1       2.904  -0.127   0.838  0.00  0.00     0.139 HD
ENDROOT
BRANCH   1   3
ATOM      3  S   UNL d   1       0.835   0.026  -0.053  0.00  0.00     0.241 S 
ATOM      4  O   UNL d   1       0.294  -1.229  -0.527  0.00  0.00    -0.206 OA
ATOM      5  O   UNL d   1       0.508   0.560   1.247  0.00  0.00    -0.206 OA
BRANCH   3   6
ATOM      6  C   UNL d   1       0.485   1.291  -1.249  0.00  0.00     0.074 A 
ATOM      7  C   UNL d   1      -0.302   0.996  -2.367  0.00  0.00     0.026 A 
ATOM      8  C   UNL d   1      -0.592   2.003  -3.290  0.00  0.00     0.025 A 
ATOM      9  C   UNL d   1      -0.097   3.293  -3.089  0.00  0.00     0.034 A 
ATOM     10  C   UNL d   1       0.680   3.588  -1.968  0.00  0.00     0.025 A 
ATOM     11 CL   UNL d   1      -0.450   4.529  -4.231  0.00  0.00    -0.084 Cl
ATOM     12  C   UNL d   1       0.973   2.586  -1.039  0.00  0.00     0.026 A 
ENDBRANCH   3   6
ENDBRANCH   1   3
BRANCH   1  13
ATOM     13  C   UNL d   1       3.087  -0.985  -1.118  0.00  0.00     0.109 C 
BRANCH  13  14
ATOM     14  C   UNL d   1       4.618  -0.967  -1.092  0.00  0.00     0.054 C 
BRANCH  14  15
ATOM     15  C   UNL d   1       5.146  -1.949  -2.112  0.00  0.00    -0.057 A 
ATOM     16  C   UNL d   1       5.399  -1.538  -3.428  0.00  0.00     0.009 A 
ATOM     17  C   UNL d   1       5.750  -2.474  -4.403  0.00  0.00     0.024 A 
ATOM     18  C   UNL d   1       5.851  -3.823  -4.066  0.00  0.00     0.034 A 
ATOM     19  C   UNL d   1       5.623  -4.242  -2.757  0.00  0.00     0.024 A 
ATOM     20 CL   UNL d   1       6.238  -4.980  -5.278  0.00  0.00    -0.084 Cl
ATOM     21  C   UNL d   1       5.275  -3.306  -1.781  0.00  0.00     0.009 A 
ENDBRANCH  14  15
ENDBRANCH  13  14
ENDBRANCH   1  13
TORSDOF 5
