REMARK  8 active torsions:
REMARK  status: ('A' for Active; 'I' for Inactive)
REMARK    1  A    between atoms: N_2  and  S_1 
REMARK    2  A    between atoms: C_8  and  S_1 
REMARK    3  A    between atoms: C_3  and  N_2 
REMARK       I    between atoms: C_12  and  N_14 
REMARK    4  A    between atoms: C_20  and  C_12 
REMARK    5  A    between atoms: C_13  and  C_21 
REMARK    6  A    between atoms: O_22  and  C_13 
REMARK    7  A    between atoms: N_14  and  C_19 
REMARK    8  A    between atoms: C_21  and  C_20 
ROOT
ATOM      1  C   UNL d   1       0.497  -0.975  -1.424  0.00  0.00     0.075 A 
ATOM      2  C   UNL d   1       0.821  -2.333  -1.482  0.00  0.00     0.027 A 
ATOM      3  C   UNL d   1      -0.277  -0.393  -2.426  0.00  0.00     0.027 A 
ATOM      4  C   UNL d   1      -0.369  -2.526  -3.596  0.00  0.00     0.034 A 
ATOM      5  C   UNL d   1      -0.704  -1.171  -3.508  0.00  0.00     0.031 A 
ATOM      6  C   UNL d   1       0.389  -3.103  -2.568  0.00  0.00     0.031 A 
ENDROOT
BRANCH   1   7
ATOM      7  S   UNL d   1       0.954  -0.028   0.007  0.00  0.00     0.247 S 
ATOM      8  O   UNL d   1       0.087   1.134   0.059  0.00  0.00    -0.205 OA
ATOM      9  O   UNL d   1       1.044  -0.955   1.120  0.00  0.00    -0.205 OA
BRANCH   7  10
ATOM     10  N   UNL d   1       2.488   0.553  -0.421  0.00  0.00    -0.165 NA
ATOM     11  H   UNL d   1       2.391   1.571  -0.415  0.00  0.00     0.147 HD
BRANCH  10  12
ATOM     12  C   UNL d   1       3.541   0.166   0.403  0.00  0.00     0.117 A 
ATOM     13  N   UNL d   1       3.970   0.939   1.401  0.00  0.00    -0.249 N 
ATOM     14  O   UNL d   1       4.988   0.220   2.009  0.00  0.00    -0.241 OA
ATOM     15  HN  UNL d   1       3.624   1.862   1.661  1.00  0.00     0.196 HD
ATOM     16  C   UNL d   1       5.199  -0.935   1.319  0.00  0.00     0.075 A 
ATOM     17  C   UNL d   1       4.318  -0.999   0.267  0.00  0.00     0.079 A 
ATOM     18  C   UNL d   1       6.265  -1.817   1.825  0.00  0.00     0.079 C 
ENDBRANCH  10  12
ENDBRANCH   7  10
ENDBRANCH   1   7
BRANCH   4  19
ATOM     19  N   UNL d   1      -0.754  -3.358  -4.671  0.00  0.00    -0.327 N 
ATOM     20  C   UNL d   1      -1.330  -2.949  -5.857  0.00  0.00     0.222 C 
ATOM     21  O   UNL d   1      -1.605  -1.793  -6.177  0.00  0.00    -0.273 OA
ATOM     22  H   UNL d   1      -0.468  -4.328  -4.603  0.00  0.00     0.169 HD
BRANCH  20  23
ATOM     23  C   UNL d   1      -1.510  -4.058  -6.873  0.00  0.00     0.113 C 
BRANCH  23  24
ATOM     24  C   UNL d   1      -0.953  -3.584  -8.210  0.00  0.00     0.119 C 
BRANCH  24  25
ATOM     25  C   UNL d   1       0.528  -3.334  -8.085  0.00  0.00     0.139 C 
ATOM     26  O   UNL d   1       1.371  -4.208  -8.229  0.00  0.00    -0.650 OA
BRANCH  25  27
ATOM     27  O   UNL d   1       0.840  -2.074  -7.712  0.00  0.00    -0.776 OA
ATOM     28  H   UNL d   1       0.061  -1.508  -7.508  0.00  0.00     0.167 HD
ENDBRANCH  25  27
ENDBRANCH  24  25
ENDBRANCH  23  24
ENDBRANCH  20  23
ENDBRANCH   4  19
TORSDOF 8
