REMARK  2 active torsions:
REMARK  status: ('A' for Active; 'I' for Inactive)
REMARK    1  A    between atoms: O_13  and  C_2 
REMARK    2  A    between atoms: C_14  and  C_9 
ROOT
ATOM      1  C   UNL d   1      -0.119  -0.824   0.191  0.00  0.00     0.010 A 
ATOM      2  C   UNL d   1      -1.219  -1.608  -0.177  0.00  0.00     0.096 A 
ATOM      3  O   UNL d   1       2.142  -0.745  -0.640  0.00  0.00    -0.356 OA
ATOM      4  N   UNL d   1      -2.681   0.320  -0.107  0.00  0.00    -0.367 N 
ATOM      5  HN  UNL d   1      -3.605   0.739  -0.215  1.00  0.00     0.165 HD
ATOM      6  O   UNL d   1       1.731   1.568  -0.218  0.00  0.00    -0.356 OA
ATOM      7  C   UNL d   1      -0.335   0.549   0.425  0.00  0.00    -0.008 A 
ATOM      8  C   UNL d   1       1.293  -1.340   0.337  0.00  0.00     0.213 C 
ATOM      9  C   UNL d   1       2.691   0.514  -0.250  0.00  0.00     0.263 C 
ATOM     10  C   UNL d   1      -2.477  -1.004  -0.323  0.00  0.00     0.039 A 
ATOM     11  C   UNL d   1      -1.617   1.058   0.254  0.00  0.00     0.098 A 
ATOM     12  C   UNL d   1       0.787   1.461   0.833  0.00  0.00     0.211 C 
ATOM     13  C   UNL d   1      -3.689  -1.767  -0.770  0.00  0.00     0.071 C 
ENDROOT
BRANCH   9  14
ATOM     14  C   UNL d   1       3.763   0.929  -1.285  0.00  0.00     0.033 C 
ATOM     15  C   UNL d   1       4.889  -0.101  -1.374  0.00  0.00     0.014 C 
ATOM     16  C   UNL d   1       3.160   1.155  -2.678  0.00  0.00     0.014 C 
ENDBRANCH   9  14
BRANCH   2  17
ATOM     17  O   UNL d   1      -1.140  -2.957  -0.394  0.00  0.00    -0.358 OA
ATOM     18  H   UNL d   1      -0.218  -3.239  -0.505  0.00  0.00     0.217 HD
ENDBRANCH   2  17
TORSDOF 2
