REMARK  4 active torsions:
REMARK  status: ('A' for Active; 'I' for Inactive)
REMARK    1  A    between atoms: N_6  and  C_1 
REMARK    2  A    between atoms: N_5  and  C_2 
REMARK       I    between atoms: C_11  and  N_6 
REMARK    3  A    between atoms: C_10  and  C_11 
REMARK    4  A    between atoms: O_19  and  C_17 
ROOT
ATOM      1  C   UNL d   1      -2.015  -0.777   0.199  0.00  0.00     0.152 A 
ATOM      2  N   UNL d   1      -0.996  -1.581   0.012  0.00  0.00    -0.333 N 
ATOM      3  HN  UNL d   1      -1.066  -2.586  -0.142  1.00  0.00     0.168 HD
ATOM      4  C   UNL d   1       0.205  -0.859   0.052  0.00  0.00     0.085 A 
ATOM      5  S   UNL d   1      -1.631   0.862   0.438  0.00  0.00    -0.052 SA
ATOM      6  C   UNL d   1       0.037   0.517   0.227  0.00  0.00     0.038 A 
ATOM      7  C   UNL d   1       1.527  -1.372  -0.083  0.00  0.00     0.096 A 
ATOM      8  C   UNL d   1       1.111   1.419   0.219  0.00  0.00     0.021 A 
ATOM      9  C   UNL d   1       2.393   0.909   0.031  0.00  0.00     0.004 A 
ATOM     10  C   UNL d   1       2.600  -0.461  -0.105  0.00  0.00     0.039 A 
ENDROOT
BRANCH   1  11
ATOM     11  N   UNL d   1      -3.316  -1.220   0.144  0.00  0.00    -0.301 N 
ATOM     12  C   UNL d   1      -4.434  -0.524   0.553  0.00  0.00     0.281 C 
ATOM     13  O   UNL d   1      -4.437   0.590   1.066  0.00  0.00    -0.265 OA
ATOM     14  H   UNL d   1      -3.420  -2.181  -0.156  0.00  0.00     0.171 HD
BRANCH  12  15
ATOM     15  C   UNL d   1      -5.682  -1.250   0.378  0.00  0.00     0.146 A 
ATOM     16  O   UNL d   1      -5.705  -2.460  -0.271  0.00  0.00    -0.283 OA
ATOM     17  C   UNL d   1      -7.009  -2.874  -0.250  0.00  0.00     0.215 A 
ATOM     18  C   UNL d   1      -7.820  -1.972   0.394  0.00  0.00     0.066 A 
ATOM     19  C   UNL d   1      -6.965  -0.916   0.788  0.00  0.00     0.047 A 
BRANCH  17  20
ATOM     20  N   UNL d   1      -7.298  -4.128  -0.870  0.00  0.00    -0.090 N 
ATOM     21  O   UNL d   1      -8.465  -4.529  -0.781  0.00  0.00    -0.530 OA
ATOM     22  O   UNL d   1      -6.370  -4.712  -1.445  0.00  0.00    -0.530 OA
ENDBRANCH  17  20
ENDBRANCH  12  15
ENDBRANCH   1  11
BRANCH   7  23
ATOM     23  O   UNL d   1       1.676  -2.734  -0.190  0.00  0.00    -0.354 OA
ATOM     24  C   UNL d   1       3.004  -3.241  -0.252  0.00  0.00     0.210 C 
ENDBRANCH   7  23
TORSDOF 4
