REMARK  2 active torsions:
REMARK  status: ('A' for Active; 'I' for Inactive)
REMARK    1  A    between atoms: C_6  and  N_1 
REMARK    2  A    between atoms: C_14  and  C_9 
ROOT
ATOM      1  C   UNL d   1      -2.493  -0.030  -0.572  0.00  0.00     0.045 A 
ATOM      2  C   UNL d   1      -5.191  -0.120  -1.490  0.00  0.00    -0.054 A 
ATOM      3  C   UNL d   1      -2.902   0.717  -1.679  0.00  0.00     0.031 A 
ATOM      4  C   UNL d   1      -3.459  -0.778   0.106  0.00  0.00     0.031 A 
ATOM      5  C   UNL d   1      -4.223   0.661  -2.137  0.00  0.00     0.010 A 
ATOM      6  C   UNL d   1      -4.792  -0.798  -0.331  0.00  0.00     0.010 A 
ENDROOT
BRANCH   1   7
ATOM      7  N   UNL d   1      -1.125  -0.074  -0.203  0.00  0.00    -0.245 N 
ATOM      8  C   UNL d   1      -0.207   0.901  -0.473  0.00  0.00     0.255 A 
ATOM      9  C   UNL d   1       1.114   0.366  -0.135  0.00  0.00     0.087 A 
ATOM     10  O   UNL d   1      -0.344   2.033  -0.903  0.00  0.00    -0.268 OA
ATOM     11  C   UNL d   1       0.950  -0.881   0.307  0.00  0.00     0.012 A 
ATOM     12  C   UNL d   1      -0.497  -1.158   0.348  0.00  0.00     0.261 A 
ATOM     13  C   UNL d   1       1.992  -1.890   0.602  0.00  0.00     0.054 C 
ATOM     14  O   UNL d   1      -0.950  -2.219   0.752  0.00  0.00    -0.267 OA
ENDBRANCH   1   7
BRANCH   2  15
ATOM     15  C   UNL d   1      -6.612  -0.151  -2.050  0.00  0.00     0.018 C 
ATOM     16  C   UNL d   1      -7.657  -0.948  -1.241  0.00  0.00     0.009 C 
ATOM     17  C   UNL d   1      -7.529  -2.466  -1.394  0.00  0.00     0.001 C 
ATOM     18  C   UNL d   1      -7.501  -2.906  -2.853  0.00  0.00     0.000 C 
ATOM     19  C   UNL d   1      -6.485  -2.124  -3.677  0.00  0.00     0.001 C 
ATOM     20  C   UNL d   1      -6.670  -0.616  -3.523  0.00  0.00     0.009 C 
ENDBRANCH   2  15
TORSDOF 2
