REMARK  4 active torsions:
REMARK  status: ('A' for Active; 'I' for Inactive)
REMARK    1  A    between atoms: C_10  and  C_1 
REMARK    2  A    between atoms: C_12  and  N_6 
REMARK    3  A    between atoms: C_8  and  C_12 
REMARK    4  A    between atoms: C_9  and  C_11 
ROOT
ATOM      1  C   UNL d   1      -0.147  -1.254   0.022  0.00  0.00     0.145 A 
ATOM      2  N   UNL d   1       1.128  -0.843  -0.096  0.00  0.00    -0.268 N 
ATOM      3  HN  UNL d   1       1.985  -1.389  -0.192  1.00  0.00     0.190 HD
ATOM      4  N   UNL d   1      -1.022  -0.212   0.198  0.00  0.00    -0.266 N 
ATOM      5  HN  UNL d   1      -2.028  -0.282   0.348  1.00  0.00     0.186 HD
ATOM      6  N   UNL d   1       0.956   0.492  -0.051  0.00  0.00    -0.212 N 
ATOM      7  N   UNL d   1      -0.306   0.905   0.136  0.00  0.00    -0.002 NA
ENDROOT
BRANCH   1   8
ATOM      8  C   UNL d   1      -0.538  -2.656   0.093  0.00  0.00     0.025 A 
ATOM      9  C   UNL d   1      -1.700  -3.180  -0.507  0.00  0.00     0.061 A 
ATOM     10  C   UNL d   1      -2.005  -4.548  -0.309  0.00  0.00     0.017 A 
ATOM     11  C   UNL d   1      -1.173  -5.385   0.433  0.00  0.00     0.001 A 
ATOM     12  C   UNL d   1      -0.012  -4.873   0.993  0.00  0.00     0.001 A 
ATOM     13  C   UNL d   1       0.300  -3.523   0.825  0.00  0.00     0.016 A 
BRANCH   9  14
ATOM     14  C   UNL d   1      -2.655  -2.404  -1.385  0.00  0.00     0.418 C 
ATOM     15  F   UNL d   1      -2.266  -1.162  -1.760  0.00  0.00    -0.166 F 
ATOM     16  F   UNL d   1      -2.889  -3.062  -2.562  0.00  0.00    -0.166 F 
ATOM     17  F   UNL d   1      -3.881  -2.266  -0.806  0.00  0.00    -0.166 F 
ENDBRANCH   9  14
ENDBRANCH   1   8
BRANCH   6  18
ATOM     18  C   UNL d   1       2.074   1.423  -0.117  0.00  0.00     0.210 C 
BRANCH  18  19
ATOM     19  C   UNL d   1       2.449   1.717  -1.542  0.00  0.00     0.023 A 
ATOM     20  C   UNL d   1       1.823   2.782  -2.196  0.00  0.00     0.126 A 
ATOM     21  F   UNL d   1       0.975   3.570  -1.519  0.00  0.00    -0.205 F 
ATOM     22  C   UNL d   1       2.055   3.063  -3.542  0.00  0.00     0.043 A 
ATOM     23  C   UNL d   1       2.932   2.266  -4.268  0.00  0.00     0.005 A 
ATOM     24  C   UNL d   1       3.585   1.208  -3.636  0.00  0.00     0.024 A 
ATOM     25  C   UNL d   1       3.348   0.936  -2.281  0.00  0.00     0.045 A 
ATOM     26 CL   UNL d   1       4.223  -0.374  -1.573  0.00  0.00    -0.084 Cl
ENDBRANCH  18  19
ENDBRANCH   6  18
TORSDOF 4
