REMARK  2 active torsions:
REMARK  status: ('A' for Active; 'I' for Inactive)
REMARK    1  A    between atoms: C_9  and  N_6 
REMARK    2  A    between atoms: O_19  and  C_15 
ROOT
ATOM      1  N   UNL d   1       0.412   0.374  -0.370  0.00  0.00    -0.317 N 
ATOM      2  C   UNL d   1       0.796  -0.948  -0.304  0.00  0.00     0.095 A 
ATOM      3  N   UNL d   1      -0.251  -1.729  -0.117  0.00  0.00    -0.343 N 
ATOM      4  HN  UNL d   1      -0.255  -2.747  -0.052  1.00  0.00     0.167 HD
ATOM      5  C   UNL d   1       1.318   1.499  -0.570  0.00  0.00     0.257 C 
ATOM      6  N   UNL d   1       2.354   1.689   0.451  0.00  0.00    -0.355 N 
ATOM      7  C   UNL d   1      -0.957   0.434  -0.221  0.00  0.00     0.064 A 
ATOM      8  C   UNL d   1      -1.332  -0.892  -0.028  0.00  0.00     0.060 A 
ATOM      9  S   UNL d   1       3.264  -0.840   0.910  0.00  0.00    -0.142 SA
ATOM     10  C   UNL d   1       3.548   0.859   0.360  0.00  0.00     0.199 C 
ATOM     11  C   UNL d   1       2.205  -1.408  -0.448  0.00  0.00     0.152 C 
ATOM     12  C   UNL d   1      -1.883   1.487  -0.201  0.00  0.00     0.032 A 
ATOM     13  C   UNL d   1      -2.678  -1.201   0.219  0.00  0.00     0.032 A 
ATOM     14  C   UNL d   1      -3.219   1.161   0.061  0.00  0.00     0.002 A 
ATOM     15  C   UNL d   1      -3.613  -0.161   0.271  0.00  0.00     0.002 A 
ENDROOT
BRANCH   6  16
ATOM     16  C   UNL d   1       2.119   2.489   1.563  0.00  0.00     0.032 A 
ATOM     17  C   UNL d   1       0.839   2.676   2.096  0.00  0.00     0.032 A 
ATOM     18  C   UNL d   1       0.596   3.523   3.183  0.00  0.00     0.039 A 
ATOM     19  C   UNL d   1       1.638   4.218   3.789  0.00  0.00     0.068 A 
ATOM     20  C   UNL d   1       2.924   4.041   3.296  0.00  0.00     0.039 A 
ATOM     21  C   UNL d   1       3.155   3.192   2.199  0.00  0.00     0.032 A 
BRANCH  19  22
ATOM     22  O   UNL d   1       1.265   5.025   4.824  0.00  0.00    -0.356 OA
ATOM     23  C   UNL d   1       2.300   5.740   5.483  0.00  0.00     0.210 C 
ENDBRANCH  19  22
ENDBRANCH   6  16
TORSDOF 2
