REMARK  4 active torsions:
REMARK  status: ('A' for Active; 'I' for Inactive)
REMARK    1  A    between atoms: C_13  and  C_1 
REMARK    2  A    between atoms: N_11  and  C_6 
REMARK    3  A    between atoms: N_12  and  C_7 
REMARK    4  A    between atoms: C_10  and  C_14 
REMARK       I    between atoms: C_15  and  N_11 
REMARK       I    between atoms: C_16  and  N_12 
ROOT
ATOM      1  C   UNL d   1      -1.283  -0.142  -0.193  0.00  0.00     0.147 A 
ATOM      2  N   UNL d   1      -0.529  -1.233  -0.062  0.00  0.00    -0.174 N 
ATOM      3  HN  UNL d   1      -0.925  -2.169   0.016  1.00  0.00     0.186 HD
ATOM      4  N   UNL d   1      -0.808   1.079  -0.352  0.00  0.00    -0.174 N 
ATOM      5  HN  UNL d   1      -1.411   1.870  -0.577  1.00  0.00     0.186 HD
ATOM      6  C   UNL d   1       0.776  -1.006  -0.042  0.00  0.00     0.701 A 
ATOM      7  C   UNL d   1       0.494   1.213  -0.201  0.00  0.00     0.701 A 
ATOM      8  N   UNL d   1       1.331   0.202  -0.041  0.00  0.00    -0.022 N 
ATOM      9  HN  UNL d   1       2.335   0.339   0.074  1.00  0.00     0.203 HD
ENDROOT
BRANCH   1  10
ATOM     10  C   UNL d   1      -2.746  -0.265  -0.163  0.00  0.00     0.024 A 
ATOM     11  C   UNL d   1      -3.598   0.660   0.495  0.00  0.00     0.061 A 
ATOM     12  C   UNL d   1      -4.999   0.486   0.411  0.00  0.00     0.017 A 
ATOM     13  C   UNL d   1      -5.561  -0.585  -0.277  0.00  0.00     0.001 A 
ATOM     14  C   UNL d   1      -4.734  -1.505  -0.903  0.00  0.00     0.001 A 
ATOM     15  C   UNL d   1      -3.348  -1.347  -0.847  0.00  0.00     0.016 A 
BRANCH  11  16
ATOM     16  C   UNL d   1      -3.139   1.851   1.322  0.00  0.00     0.418 C 
ATOM     17  F   UNL d   1      -1.834   1.893   1.695  0.00  0.00    -0.166 F 
ATOM     18  F   UNL d   1      -3.429   3.042   0.730  0.00  0.00    -0.166 F 
ATOM     19  F   UNL d   1      -3.812   1.887   2.517  0.00  0.00    -0.166 F 
ENDBRANCH  11  16
ENDBRANCH   1  10
BRANCH   6  20
ATOM     20  N   UNL d   1       1.560  -2.154  -0.001  0.00  0.00    -0.159 N 
ATOM     21  C   UNL d   1       2.922  -2.190  -0.147  0.00  0.00     0.231 C 
ATOM     22  O   UNL d   1       3.661  -1.232  -0.355  0.00  0.00    -0.273 OA
ATOM     23  C   UNL d   1       3.499  -3.582  -0.061  0.00  0.00     0.118 C 
ATOM     24  H   UNL d   1       1.024  -3.008   0.044  0.00  0.00     0.187 HD
ENDBRANCH   6  20
BRANCH   7  25
ATOM     25  N   UNL d   1       1.054   2.483  -0.115  0.00  0.00    -0.159 N 
ATOM     26  C   UNL d   1       0.358   3.649  -0.330  0.00  0.00     0.231 C 
ATOM     27  O   UNL d   1      -0.794   3.749  -0.738  0.00  0.00    -0.273 OA
ATOM     28  C   UNL d   1       1.156   4.892  -0.039  0.00  0.00     0.118 C 
ATOM     29  H   UNL d   1       2.028   2.484   0.142  0.00  0.00     0.187 HD
ENDBRANCH   7  25
TORSDOF 4
