REMARK  4 active torsions:
REMARK  status: ('A' for Active; 'I' for Inactive)
REMARK    1  A    between atoms: O_2  and  C_1 
REMARK    2  A    between atoms: C_4  and  C_1 
REMARK    3  A    between atoms: C_3  and  O_2 
REMARK    4  A    between atoms: O_15  and  C_10 
ROOT
ATOM      1  C   UNL d   1       3.257  -0.164  -0.998  0.00  0.00     0.298 C 
ATOM      2  O   UNL d   1       4.183  -0.481  -1.720  0.00  0.00    -0.259 OA
ENDROOT
BRANCH   1   3
ATOM      3  O   UNL d   1       2.635  -0.950  -0.049  0.00  0.00    -0.272 OA
BRANCH   3   4
ATOM      4  C   UNL d   1       2.453  -2.328  -0.302  0.00  0.00     0.118 A 
ATOM      5  C   UNL d   1       2.894  -3.227   0.682  0.00  0.00     0.102 A 
ATOM      6  C   UNL d   1       2.401  -4.533   0.689  0.00  0.00     0.040 A 
ATOM      7  C   UNL d   1       1.496  -4.951  -0.283  0.00  0.00     0.003 A 
ATOM      8  C   UNL d   1       1.097  -4.068  -1.286  0.00  0.00     0.010 A 
ATOM      9  C   UNL d   1       1.575  -2.748  -1.324  0.00  0.00    -0.025 A 
ATOM     10  C   UNL d   1       1.009  -1.859  -2.395  0.00  0.00     0.051 C 
BRANCH   5  11
ATOM     11  O   UNL d   1       3.699  -2.905   1.742  0.00  0.00    -0.353 OA
ATOM     12  C   UNL d   1       4.900  -2.231   1.373  0.00  0.00     0.210 C 
ENDBRANCH   5  11
ENDBRANCH   3   4
ENDBRANCH   1   3
BRANCH   1  13
ATOM     13  C   UNL d   1       2.469   1.105  -1.105  0.00  0.00     0.044 A 
ATOM     14  C   UNL d   1       2.697   1.932  -2.211  0.00  0.00     0.060 A 
ATOM     15  C   UNL d   1       1.844   3.008  -2.444  0.00  0.00     0.119 A 
ATOM     16  F   UNL d   1       2.035   3.775  -3.525  0.00  0.00    -0.206 F 
ATOM     17  C   UNL d   1       0.774   3.280  -1.600  0.00  0.00     0.066 A 
ATOM     18  C   UNL d   1       0.567   2.472  -0.490  0.00  0.00     0.037 A 
ATOM     19  C   UNL d   1       1.411   1.392  -0.232  0.00  0.00     0.041 A 
ATOM     20 CL   UNL d   1      -0.773   2.766   0.548  0.00  0.00    -0.084 Cl
ENDBRANCH   1  13
TORSDOF 4
