REMARK  5 active torsions:
REMARK  status: ('A' for Active; 'I' for Inactive)
REMARK    1  A    between atoms: N_2  and  C_1 
REMARK    2  A    between atoms: N_3  and  C_1 
REMARK    3  A    between atoms: C_6  and  N_2 
REMARK    4  A    between atoms: N_5  and  N_3 
REMARK    5  A    between atoms: C_8  and  N_5 
ROOT
ATOM      1  C   UNL d   1       1.046  -0.019  -0.117  0.00  0.00     0.186 C 
ATOM      2  S   UNL d   1       2.700  -0.130  -0.340  0.00  0.00    -0.040 SA
ENDROOT
BRANCH   1   3
ATOM      3  N   UNL d   1       0.367   0.588   0.914  0.00  0.00    -0.332 N 
ATOM      4  H   UNL d   1      -0.553   0.912   0.636  0.00  0.00     0.168 HD
BRANCH   3   5
ATOM      5  C   UNL d   1       0.825   0.912   2.204  0.00  0.00     0.037 A 
ATOM      6  C   UNL d   1       1.734   0.101   2.887  0.00  0.00     0.071 A 
ATOM      7  C   UNL d   1       2.106   0.418   4.190  0.00  0.00     0.118 A 
ATOM      8  F   UNL d   1       2.948  -0.389   4.848  0.00  0.00    -0.206 F 
ATOM      9  C   UNL d   1       1.599   1.543   4.826  0.00  0.00     0.042 A 
ATOM     10  C   UNL d   1       0.684   2.356   4.154  0.00  0.00     0.005 A 
ATOM     11  C   UNL d   1       0.283   2.027   2.852  0.00  0.00     0.029 A 
ENDBRANCH   3   5
ENDBRANCH   1   3
BRANCH   1  12
ATOM     12  N   UNL d   1       0.239  -0.547  -1.104  0.00  0.00    -0.297 N 
ATOM     13  H   UNL d   1       0.731  -1.007  -1.869  0.00  0.00     0.183 HD
BRANCH  12  14
ATOM     14  N   UNL d   1      -1.160  -0.677  -0.973  0.00  0.00    -0.230 NA
ATOM     15  H   UNL d   1      -1.588  -0.270  -1.810  0.00  0.00     0.147 HD
BRANCH  14  16
ATOM     16  C   UNL d   1      -1.600  -2.093  -0.852  0.00  0.00     0.019 C 
ATOM     17  C   UNL d   1      -1.165  -2.683   0.499  0.00  0.00     0.033 C 
ATOM     18  C   UNL d   1      -3.139  -2.095  -0.915  0.00  0.00     0.033 C 
ATOM     19  C   UNL d   1      -1.076  -2.970  -2.006  0.00  0.00     0.033 C 
ENDBRANCH  14  16
ENDBRANCH  12  14
ENDBRANCH   1  12
TORSDOF 5
