REMARK  3 active torsions:
REMARK  status: ('A' for Active; 'I' for Inactive)
REMARK    1  A    between atoms: C_5  and  N_1 
REMARK    2  A    between atoms: C_7  and  C_2 
REMARK    3  A    between atoms: C_6  and  C_5 
ROOT
ATOM      1  N   UNL d   1      -0.530  -1.170   0.313  0.00  0.00    -0.330 N 
ATOM      2  C   UNL d   1       0.855  -1.291  -0.107  0.00  0.00     0.184 C 
ATOM      3  S   UNL d   1       1.518   0.388  -0.178  0.00  0.00    -0.129 SA
ATOM      4  C   UNL d   1      -1.119   0.060   0.030  0.00  0.00     0.230 C 
ATOM      5  C   UNL d   1      -0.112   1.140  -0.290  0.00  0.00     0.179 C 
ATOM      6  O   UNL d   1      -2.328   0.269   0.039  0.00  0.00    -0.272 OA
ENDROOT
BRANCH   1   7
ATOM      7  C   UNL d   1      -1.371  -2.366   0.377  0.00  0.00     0.167 C 
BRANCH   7   8
ATOM      8  C   UNL d   1      -2.001  -2.673   1.727  0.00  0.00    -0.018 A 
ATOM      9  C   UNL d   1      -2.441  -3.977   2.035  0.00  0.00     0.043 A 
ATOM     10  C   UNL d   1      -3.146  -4.249   3.212  0.00  0.00     0.048 A 
ATOM     11 CL   UNL d   1      -2.159  -5.312   0.970  0.00  0.00    -0.084 Cl
ATOM     12  C   UNL d   1      -3.427  -3.219   4.102  0.00  0.00     0.035 A 
ATOM     13  C   UNL d   1      -2.987  -1.927   3.839  0.00  0.00     0.024 A 
ATOM     14 CL   UNL d   1      -4.344  -3.538   5.522  0.00  0.00    -0.084 Cl
ATOM     15  C   UNL d   1      -2.282  -1.658   2.661  0.00  0.00     0.012 A 
ENDBRANCH   7   8
ENDBRANCH   1   7
BRANCH   2  16
ATOM     16  C   UNL d   1       1.722  -2.195   0.729  0.00  0.00    -0.010 A 
ATOM     17  C   UNL d   1       2.778  -2.883   0.132  0.00  0.00     0.097 A 
ATOM     18  N   UNL d   1       3.602  -3.736   0.782  0.00  0.00    -0.375 N 
ATOM     19  C   UNL d   1       3.382  -3.904   2.101  0.00  0.00     0.087 A 
ATOM     20  HN  UNL d   1       4.353  -4.229   0.298  1.00  0.00     0.164 HD
ATOM     21  C   UNL d   1       2.383  -3.250   2.800  0.00  0.00     0.018 A 
ATOM     22  C   UNL d   1       1.552  -2.373   2.107  0.00  0.00     0.013 A 
ENDBRANCH   2  16
TORSDOF 3
