REMARK  5 active torsions:
REMARK  status: ('A' for Active; 'I' for Inactive)
REMARK    1  A    between atoms: C_9  and  C_1 
REMARK    2  A    between atoms: C_11  and  N_4 
REMARK    3  A    between atoms: C_8  and  C_10 
REMARK    4  A    between atoms: C_12  and  C_11 
REMARK       I    between atoms: N_14  and  C_12 
REMARK    5  A    between atoms: N_18  and  N_14 
ROOT
ATOM      1  C   UNL d   1      -0.106  -1.318   0.035  0.00  0.00     0.145 A 
ATOM      2  N   UNL d   1       1.130  -0.887  -0.264  0.00  0.00    -0.268 N 
ATOM      3  HN  UNL d   1       1.948  -1.413  -0.572  1.00  0.00     0.190 HD
ATOM      4  N   UNL d   1       0.989   0.431  -0.043  0.00  0.00    -0.207 N 
ATOM      5  N   UNL d   1      -0.936  -0.297   0.433  0.00  0.00    -0.266 N 
ATOM      6  HN  UNL d   1      -1.912  -0.383   0.717  1.00  0.00     0.186 HD
ATOM      7  N   UNL d   1      -0.227   0.820   0.377  0.00  0.00    -0.002 NA
ENDROOT
BRANCH   1   8
ATOM      8  C   UNL d   1      -0.491  -2.722   0.063  0.00  0.00     0.025 A 
ATOM      9  C   UNL d   1      -1.780  -3.176  -0.282  0.00  0.00     0.061 A 
ATOM     10  C   UNL d   1      -2.076  -4.549  -0.139  0.00  0.00     0.017 A 
ATOM     11  C   UNL d   1      -1.114  -5.457   0.300  0.00  0.00     0.001 A 
ATOM     12  C   UNL d   1       0.167  -5.014   0.604  0.00  0.00     0.001 A 
ATOM     13  C   UNL d   1       0.475  -3.659   0.486  0.00  0.00     0.016 A 
BRANCH   9  14
ATOM     14  C   UNL d   1      -2.864  -2.257  -0.792  0.00  0.00     0.418 C 
ATOM     15  F   UNL d   1      -2.417  -1.267  -1.610  0.00  0.00    -0.166 F 
ATOM     16  F   UNL d   1      -3.802  -2.923  -1.533  0.00  0.00    -0.166 F 
ATOM     17  F   UNL d   1      -3.558  -1.659   0.212  0.00  0.00    -0.166 F 
ENDBRANCH   9  14
ENDBRANCH   1   8
BRANCH   4  18
ATOM     18  C   UNL d   1       2.108   1.337  -0.039  0.00  0.00     0.271 C 
BRANCH  18  19
ATOM     19  C   UNL d   1       2.779   1.342   1.309  0.00  0.00     0.252 C 
ATOM     20  O   UNL d   1       3.987   1.139   1.446  0.00  0.00    -0.270 OA
ATOM     21  N   UNL d   1       1.954   1.665   2.384  0.00  0.00    -0.292 N 
ATOM     22  H   UNL d   1       0.954   1.839   2.258  0.00  0.00     0.183 HD
BRANCH  21  23
ATOM     23  N   UNL d   1       2.494   1.709   3.685  0.00  0.00    -0.247 NA
ATOM     24  H   UNL d   1       3.517   1.783   3.589  0.00  0.00     0.143 HD
ATOM     25  H   UNL d   1       2.355   0.791   4.118  0.00  0.00     0.143 HD
ENDBRANCH  21  23
ENDBRANCH  18  19
ENDBRANCH   4  18
TORSDOF 5
