REMARK  4 active torsions:
REMARK  status: ('A' for Active; 'I' for Inactive)
REMARK    1  A    between atoms: C_11  and  C_1 
REMARK    2  A    between atoms: C_13  and  C_2 
REMARK    3  A    between atoms: C_7  and  C_10 
REMARK       I    between atoms: C_10  and  N_16 
REMARK       I    between atoms: N_17  and  C_13 
REMARK    4  A    between atoms: N_16  and  N_17 
ROOT
ATOM      1  C   UNL d   1      -0.350  -4.349   1.309  0.00  0.00     0.275 C 
ATOM      2  N   UNL d   1      -0.548  -3.753   0.062  0.00  0.00    -0.263 N 
ATOM      3  O   UNL d   1      -1.264  -4.775   2.008  0.00  0.00    -0.266 OA
ATOM      4  H   UNL d   1       0.229  -3.654  -0.582  0.00  0.00     0.190 HD
ENDROOT
BRANCH   2   5
ATOM      5  N   UNL d   1      -1.844  -3.657  -0.497  0.00  0.00    -0.263 N 
ATOM      6  C   UNL d   1      -2.548  -4.809  -0.839  0.00  0.00     0.277 C 
ATOM      7  O   UNL d   1      -2.001  -5.914  -0.837  0.00  0.00    -0.265 OA
ATOM      8  H   UNL d   1      -2.344  -2.782  -0.384  0.00  0.00     0.190 HD
BRANCH   6   9
ATOM      9  C   UNL d   1      -3.957  -4.627  -1.174  0.00  0.00     0.075 A 
ATOM     10  S   UNL d   1      -4.629  -3.136  -1.708  0.00  0.00    -0.083 SA
ATOM     11  C   UNL d   1      -6.194  -3.800  -1.886  0.00  0.00     0.023 A 
ATOM     12  C   UNL d   1      -7.399  -3.089  -2.360  0.00  0.00    -0.012 A 
ATOM     13  C   UNL d   1      -6.217  -5.134  -1.511  0.00  0.00    -0.038 A 
ATOM     14  C   UNL d   1      -8.546  -3.879  -2.648  0.00  0.00    -0.046 A 
ATOM     15  C   UNL d   1      -7.492  -1.700  -2.508  0.00  0.00     0.013 A 
ATOM     16  C   UNL d   1      -9.740  -3.273  -3.066  0.00  0.00     0.008 A 
ATOM     17  C   UNL d   1      -8.464  -5.396  -2.589  0.00  0.00     0.044 C 
ATOM     18  C   UNL d   1      -9.816  -1.889  -3.191  0.00  0.00     0.001 A 
ATOM     19  C   UNL d   1      -8.693  -1.107  -2.919  0.00  0.00     0.001 A 
ATOM     20  C   UNL d   1      -7.499  -5.908  -1.510  0.00  0.00     0.044 C 
ATOM     21  C   UNL d   1      -4.932  -5.612  -1.131  0.00  0.00     0.033 A 
ENDBRANCH   6   9
ENDBRANCH   2   5
BRANCH   1  22
ATOM     22  C   UNL d   1       1.040  -4.403   1.733  0.00  0.00     0.094 A 
ATOM     23  C   UNL d   1       1.745  -5.423   2.467  0.00  0.00     0.085 A 
ATOM     24  N   UNL d   1       3.026  -5.053   2.641  0.00  0.00    -0.259 N 
ATOM     25  O   UNL d   1       3.159  -3.801   2.116  0.00  0.00    -0.241 OA
ATOM     26  HN  UNL d   1       3.760  -5.606   3.083  1.00  0.00     0.195 HD
ATOM     27  C   UNL d   1       1.986  -3.405   1.571  0.00  0.00     0.090 A 
ATOM     28  C   UNL d   1       2.020  -2.045   0.997  0.00  0.00     0.080 C 
BRANCH  23  29
ATOM     29  C   UNL d   1       1.335  -6.766   2.903  0.00  0.00     0.015 A 
ATOM     30  C   UNL d   1       1.746  -7.330   4.130  0.00  0.00     0.046 A 
ATOM     31 CL   UNL d   1       2.558  -6.431   5.370  0.00  0.00    -0.083 Cl
ATOM     32  C   UNL d   1       1.489  -8.679   4.419  0.00  0.00     0.025 A 
ATOM     33  C   UNL d   1       0.802  -9.476   3.509  0.00  0.00     0.002 A 
ATOM     34  C   UNL d   1       0.350  -8.922   2.315  0.00  0.00     0.001 A 
ATOM     35  C   UNL d   1       0.615  -7.581   2.013  0.00  0.00     0.015 A 
ENDBRANCH  23  29
ENDBRANCH   1  22
TORSDOF 4
