REMARK  3 active torsions:
REMARK  status: ('A' for Active; 'I' for Inactive)
REMARK    1  A    between atoms: C_7  and  C_1 
REMARK    2  A    between atoms: C_9  and  C_2 
REMARK    3  A    between atoms: C_13  and  C_7 
ROOT
ATOM      1  C   UNL d   1      -2.316  -0.294   0.019  0.00  0.00     0.032 A 
ATOM      2  C   UNL d   1      -1.847  -1.548  -0.193  0.00  0.00     0.097 A 
ATOM      3  C   UNL d   1      -1.314   0.810   0.104  0.00  0.00     0.194 A 
ATOM      4  O   UNL d   1      -0.493  -1.871  -0.249  0.00  0.00    -0.308 OA
ATOM      5  C   UNL d   1       0.106   0.450   0.026  0.00  0.00     0.048 A 
ATOM      6  C   UNL d   1       0.444  -0.885  -0.121  0.00  0.00     0.090 A 
ATOM      7  O   UNL d   1      -1.633   1.985   0.234  0.00  0.00    -0.287 OA
ATOM      8  C   UNL d   1       1.102   1.431   0.103  0.00  0.00     0.018 A 
ATOM      9  C   UNL d   1       1.786  -1.261  -0.156  0.00  0.00     0.038 A 
ATOM     10  C   UNL d   1       2.445   1.061   0.049  0.00  0.00     0.001 A 
ATOM     11  C   UNL d   1       2.786  -0.288  -0.069  0.00  0.00     0.003 A 
ENDROOT
BRANCH   1  12
ATOM     12  C   UNL d   1      -3.750   0.172   0.163  0.00  0.00     0.084 C 
BRANCH  12  13
ATOM     13  C   UNL d   1      -4.602  -0.425   1.269  0.00  0.00    -0.052 A 
ATOM     14  C   UNL d   1      -5.989  -0.184   1.232  0.00  0.00     0.033 A 
ATOM     15  C   UNL d   1      -6.835  -0.658   2.239  0.00  0.00     0.056 A 
ATOM     16 CL   UNL d   1      -8.518  -0.291   2.116  0.00  0.00    -0.083 Cl
ATOM     17  C   UNL d   1      -6.302  -1.389   3.305  0.00  0.00     0.055 A 
ATOM     18  C   UNL d   1      -4.928  -1.631   3.356  0.00  0.00     0.026 A 
ATOM     19 CL   UNL d   1      -7.280  -2.011   4.585  0.00  0.00    -0.083 Cl
ATOM     20  C   UNL d   1      -4.082  -1.137   2.359  0.00  0.00     0.009 A 
ENDBRANCH  12  13
ENDBRANCH   1  12
BRANCH   2  21
ATOM     21  C   UNL d   1      -2.698  -2.763  -0.329  0.00  0.00    -0.002 A 
ATOM     22  C   UNL d   1      -3.870  -2.789  -1.097  0.00  0.00     0.014 A 
ATOM     23  C   UNL d   1      -4.667  -3.938  -1.158  0.00  0.00     0.001 A 
ATOM     24  C   UNL d   1      -4.278  -5.096  -0.492  0.00  0.00     0.000 A 
ATOM     25  C   UNL d   1      -3.088  -5.110   0.228  0.00  0.00     0.001 A 
ATOM     26  C   UNL d   1      -2.310  -3.951   0.314  0.00  0.00     0.014 A 
ENDBRANCH   2  21
TORSDOF 3
