REMARK  7 active torsions:
REMARK  status: ('A' for Active; 'I' for Inactive)
REMARK    1  A    between atoms: C_3  and  C_1 
REMARK    2  A    between atoms: S_18  and  C_6 
REMARK    3  A    between atoms: C_11  and  C_15 
REMARK    4  A    between atoms: C_12  and  C_14 
REMARK    5  A    between atoms: C_32  and  S_18 
REMARK    6  A    between atoms: C_20  and  N_22 
REMARK    7  A    between atoms: C_21  and  C_32 
REMARK       I    between atoms: N_22  and  C_21 
ROOT
ATOM      1  C   UNL d   1       2.933  -4.204  -0.041  0.00  0.00     0.231 C 
ATOM      2  N   UNL d   1       2.142  -5.188   0.527  0.00  0.00    -0.326 N 
ATOM      3  O   UNL d   1       3.974  -4.410  -0.665  0.00  0.00    -0.272 OA
ATOM      4  H   UNL d   1       1.292  -4.865   0.978  0.00  0.00     0.169 HD
ENDROOT
BRANCH   1   5
ATOM      5  C   UNL d   1       2.396  -2.783   0.027  0.00  0.00     0.185 C 
BRANCH   5   6
ATOM      6  S   UNL d   1       1.198  -2.481   1.359  0.00  0.00    -0.083 SA
BRANCH   6   7
ATOM      7  C   UNL d   1       0.724  -0.866   0.942  0.00  0.00     0.163 A 
ATOM      8  N   UNL d   1      -0.214  -0.135   1.623  0.00  0.00    -0.314 N 
ATOM      9  C   UNL d   1      -0.342   1.040   0.917  0.00  0.00     0.151 A 
ATOM     10  C   UNL d   1      -0.888  -0.538   2.828  0.00  0.00     0.160 C 
ATOM     11  N   UNL d   1       0.511   1.023  -0.092  0.00  0.00    -0.281 N 
ATOM     12  N   UNL d   1       1.177  -0.174  -0.076  0.00  0.00    -0.278 N 
ATOM     13  HN  UNL d   1       0.649   1.774  -0.768  1.00  0.00     0.188 HD
ATOM     14  HN  UNL d   1       1.896  -0.474  -0.736  1.00  0.00     0.189 HD
BRANCH   9  15
ATOM     15  C   UNL d   1      -1.280   2.175   1.169  0.00  0.00     0.085 A 
ATOM     16  N   UNL d   1      -2.190   2.179   2.209  0.00  0.00    -0.351 N 
ATOM     17  C   UNL d   1      -2.914   3.278   2.170  0.00  0.00     0.047 A 
ATOM     18  HN  UNL d   1      -2.287   1.439   2.904  1.00  0.00     0.166 HD
ATOM     19  C   UNL d   1      -4.010   3.589   3.126  0.00  0.00     0.076 C 
ATOM     20  S   UNL d   1      -2.535   4.369   0.898  0.00  0.00    -0.087 SA
ATOM     21  C   UNL d   1      -1.316   3.293   0.357  0.00  0.00     0.084 A 
ENDBRANCH   9  15
ENDBRANCH   6   7
ENDBRANCH   5   6
ENDBRANCH   1   5
BRANCH   2  22
ATOM     22  C   UNL d   1       2.348  -6.585   0.466  0.00  0.00     0.036 A 
ATOM     23  C   UNL d   1       3.497  -7.170  -0.073  0.00  0.00     0.045 A 
ATOM     24  C   UNL d   1       3.625  -8.564  -0.189  0.00  0.00     0.050 A 
ATOM     25  C   UNL d   1       2.583  -9.383   0.265  0.00  0.00     0.032 A 
ATOM     26  C   UNL d   1       1.427  -8.821   0.830  0.00  0.00     0.050 A 
ATOM     27  C   UNL d   1       1.330  -7.420   0.940  0.00  0.00     0.045 A 
BRANCH  24  28
ATOM     28  C   UNL d   1       4.874  -9.142  -0.810  0.00  0.00     0.417 C 
ATOM     29  F   UNL d   1       4.813 -10.493  -0.983  0.00  0.00    -0.166 F 
ATOM     30  F   UNL d   1       5.138  -8.624  -2.040  0.00  0.00    -0.166 F 
ATOM     31  F   UNL d   1       5.985  -8.914  -0.056  0.00  0.00    -0.166 F 
ENDBRANCH  24  28
BRANCH  26  32
ATOM     32  C   UNL d   1       0.292  -9.700   1.302  0.00  0.00     0.417 C 
ATOM     33  F   UNL d   1       0.443 -11.012   0.973  0.00  0.00    -0.166 F 
ATOM     34  F   UNL d   1       0.138  -9.665   2.654  0.00  0.00    -0.166 F 
ATOM     35  F   UNL d   1      -0.907  -9.319   0.780  0.00  0.00    -0.166 F 
ENDBRANCH  26  32
ENDBRANCH   2  22
TORSDOF 7
