REMARK  6 active torsions:
REMARK  status: ('A' for Active; 'I' for Inactive)
REMARK    1  A    between atoms: C_2  and  N_1 
REMARK    2  A    between atoms: C_3  and  C_2 
REMARK    3  A    between atoms: S_4  and  C_3 
REMARK    4  A    between atoms: C_7  and  C_3 
REMARK    5  A    between atoms: C_5  and  S_4 
REMARK    6  A    between atoms: N_12  and  C_9 
ROOT
ATOM      1  C   UNL d   1      -0.658   0.779   1.402  0.00  0.00     0.114 C 
ENDROOT
BRANCH   1   2
ATOM      2  C   UNL d   1       0.307   1.163   0.255  0.00  0.00     0.170 C 
ATOM      3  C   UNL d   1       1.331   2.261   0.559  0.00  0.00     0.040 C 
BRANCH   2   4
ATOM      4  N   UNL d   1       1.125  -0.056  -0.122  0.00  0.00    -0.149 N 
ATOM      5  O   UNL d   1       1.218  -0.307  -1.331  0.00  0.00    -0.536 OA
ATOM      6  O   UNL d   1       1.685  -0.688   0.786  0.00  0.00    -0.536 OA
ENDBRANCH   2   4
ENDBRANCH   1   2
BRANCH   1   7
ATOM      7  S   UNL d   1      -1.404   2.292   2.231  0.00  0.00    -0.116 SA
BRANCH   7   8
ATOM      8  C   UNL d   1      -2.687   2.783   1.076  0.00  0.00     0.022 A 
ATOM      9  C   UNL d   1      -4.049   2.674   1.429  0.00  0.00     0.022 A 
ATOM     10  C   UNL d   1      -5.022   3.028   0.485  0.00  0.00     0.024 A 
ATOM     11  C   UNL d   1      -4.659   3.594  -0.738  0.00  0.00     0.002 A 
ATOM     12  C   UNL d   1      -3.317   3.788  -1.042  0.00  0.00     0.001 A 
ATOM     13  C   UNL d   1      -2.334   3.387  -0.137  0.00  0.00     0.020 A 
BRANCH   9  14
ATOM     14  N   UNL d   1      -4.460   2.038   2.618  0.00  0.00    -0.302 NA
ATOM     15  H   UNL d   1      -3.739   2.090   3.335  0.00  0.00     0.124 HD
ATOM     16  H   UNL d   1      -5.367   2.346   2.953  0.00  0.00     0.124 HD
ENDBRANCH   9  14
ENDBRANCH   7   8
ENDBRANCH   1   7
BRANCH   1  17
ATOM     17  C   UNL d   1      -1.730  -0.281   1.108  0.00  0.00    -0.042 A 
ATOM     18  C   UNL d   1      -1.981  -0.794  -0.178  0.00  0.00     0.011 A 
ATOM     19  C   UNL d   1      -2.927  -1.804  -0.381  0.00  0.00     0.043 A 
ATOM     20  C   UNL d   1      -3.660  -2.288   0.692  0.00  0.00     0.116 A 
ATOM     21  C   UNL d   1      -3.455  -1.792   1.969  0.00  0.00     0.043 A 
ATOM     22  F   UNL d   1      -4.573  -3.247   0.490  0.00  0.00    -0.206 F 
ATOM     23  C   UNL d   1      -2.486  -0.808   2.178  0.00  0.00     0.011 A 
ENDBRANCH   1  17
TORSDOF 6
