REMARK  8 active torsions:
REMARK  status: ('A' for Active; 'I' for Inactive)
REMARK    1  A    between atoms: C_6  and  C_1 
REMARK    2  A    between atoms: N_3  and  C_4 
REMARK    3  A    between atoms: O_14  and  C_6 
REMARK    4  A    between atoms: C_8  and  C_10 
REMARK    5  A    between atoms: C_13  and  N_16 
REMARK    6  A    between atoms: C_26  and  O_14 
REMARK    7  A    between atoms: N_16  and  C_25 
REMARK    8  A    between atoms: C_25  and  C_26 
ROOT
ATOM      1  C   UNL d   1      -1.126  -4.008   1.340  0.00  0.00     0.152 C 
ENDROOT
BRANCH   1   2
ATOM      2  N   UNL d   1      -0.851  -2.594   1.610  0.00  0.00    -0.385 N 
ATOM      3  H   UNL d   1      -1.462  -1.942   1.098  0.00  0.00     0.159 HD
BRANCH   2   4
ATOM      4  C   UNL d   1      -0.429  -2.150   2.862  0.00  0.00     0.061 A 
ATOM      5  C   UNL d   1      -0.077  -0.810   3.127  0.00  0.00     0.130 A 
ATOM      6  C   UNL d   1       0.513  -0.395   4.339  0.00  0.00     0.054 A 
ATOM      7  C   UNL d   1       0.773  -1.333   5.347  0.00  0.00     0.050 A 
ATOM      8  C   UNL d   1       0.377  -2.656   5.133  0.00  0.00     0.018 A 
ATOM      9  C   UNL d   1      -0.192  -3.053   3.915  0.00  0.00     0.032 A 
BRANCH   5  10
ATOM     10  N   UNL d   1      -0.296   0.234   2.136  0.00  0.00    -0.113 N 
ATOM     11  O   UNL d   1      -1.021   1.180   2.479  0.00  0.00    -0.532 OA
ATOM     12  O   UNL d   1       0.318   0.152   1.065  0.00  0.00    -0.532 OA
ENDBRANCH   5  10
BRANCH   7  13
ATOM     13  C   UNL d   1       1.495  -0.960   6.618  0.00  0.00     0.417 C 
ATOM     14  F   UNL d   1       1.915   0.334   6.645  0.00  0.00    -0.166 F 
ATOM     15  F   UNL d   1       0.727  -1.133   7.727  0.00  0.00    -0.166 F 
ATOM     16  F   UNL d   1       2.611  -1.718   6.814  0.00  0.00    -0.166 F 
ENDBRANCH   7  13
ENDBRANCH   2   4
ENDBRANCH   1   2
BRANCH   1  17
ATOM     17  C   UNL d   1      -1.499  -4.231  -0.140  0.00  0.00     0.145 C 
ATOM     18  C   UNL d   1      -1.629  -5.719  -0.458  0.00  0.00     0.042 C 
BRANCH  17  19
ATOM     19  O   UNL d   1      -2.659  -3.429  -0.478  0.00  0.00    -0.311 OA
BRANCH  19  20
ATOM     20  C   UNL d   1      -3.904  -3.804  -0.114  0.00  0.00     0.299 C 
ATOM     21  O   UNL d   1      -4.262  -4.934   0.176  0.00  0.00    -0.259 OA
BRANCH  20  22
ATOM     22  C   UNL d   1      -4.814  -2.637  -0.109  0.00  0.00     0.115 A 
ATOM     23  C   UNL d   1      -4.343  -1.300   0.317  0.00  0.00     0.304 A 
ATOM     24  O   UNL d   1      -5.309  -0.296   0.396  0.00  0.00    -0.274 OA
ATOM     25  O   UNL d   1      -3.187  -1.079   0.649  0.00  0.00    -0.259 OA
ATOM     26  C   UNL d   1      -6.634  -0.508  -0.024  0.00  0.00     0.089 A 
ATOM     27  C   UNL d   1      -7.046  -1.760  -0.469  0.00  0.00    -0.001 A 
ATOM     28  C   UNL d   1      -7.495   0.586  -0.011  0.00  0.00     0.038 A 
ATOM     29  C   UNL d   1      -6.094  -2.860  -0.447  0.00  0.00     0.038 A 
ATOM     30  C   UNL d   1      -8.352  -1.911  -0.941  0.00  0.00     0.014 A 
ATOM     31  C   UNL d   1      -9.218  -0.812  -0.965  0.00  0.00     0.001 A 
ATOM     32  C   UNL d   1      -8.793   0.432  -0.492  0.00  0.00     0.003 A 
ENDBRANCH  20  22
ENDBRANCH  19  20
ENDBRANCH  17  19
ENDBRANCH   1  17
TORSDOF 8
