REMARK  4 active torsions:
REMARK  status: ('A' for Active; 'I' for Inactive)
REMARK    1  A    between atoms: N_3  and  C_1 
REMARK    2  A    between atoms: N_4  and  C_1 
REMARK    3  A    between atoms: C_5  and  N_3 
REMARK    4  A    between atoms: C_6  and  N_4 
ROOT
ATOM      1  C   UNL d   1       1.039   1.658  -1.214  0.00  0.00     0.176 C 
ATOM      2  S   UNL d   1       2.465   0.855  -1.553  0.00  0.00    -0.041 SA
ENDROOT
BRANCH   1   3
ATOM      3  N   UNL d   1       0.714   2.942  -1.582  0.00  0.00    -0.332 N 
ATOM      4  H   UNL d   1       0.284   3.480  -0.834  0.00  0.00     0.168 HD
BRANCH   3   5
ATOM      5  C   UNL d   1       1.102   3.685  -2.719  0.00  0.00     0.058 A 
ATOM      6  C   UNL d   1       1.134   5.092  -2.650  0.00  0.00     0.082 A 
ATOM      7  C   UNL d   1       1.423   5.841  -3.800  0.00  0.00     0.058 A 
ATOM      8 CL   UNL d   1       0.838   5.873  -1.125  0.00  0.00    -0.080 Cl
ATOM      9 CL   UNL d   1       1.511   7.568  -3.789  0.00  0.00    -0.082 Cl
ATOM     10  C   UNL d   1       1.643   5.194  -5.019  0.00  0.00     0.026 A 
ATOM     11  C   UNL d   1       1.590   3.804  -5.093  0.00  0.00     0.004 A 
ATOM     12  C   UNL d   1       1.328   3.052  -3.947  0.00  0.00     0.031 A 
ENDBRANCH   3   5
ENDBRANCH   1   3
BRANCH   1  13
ATOM     13  N   UNL d   1       0.143   1.066  -0.354  0.00  0.00    -0.333 N 
ATOM     14  H   UNL d   1       0.521   0.291   0.182  0.00  0.00     0.168 HD
BRANCH  13  15
ATOM     15  C   UNL d   1      -1.269   1.183  -0.364  0.00  0.00     0.040 A 
ATOM     16  C   UNL d   1      -2.010   0.765   0.756  0.00  0.00    -0.035 A 
ATOM     17  C   UNL d   1      -3.415   0.778   0.683  0.00  0.00     0.009 A 
ATOM     18  C   UNL d   1      -1.385   0.309   2.047  0.00  0.00     0.050 C 
ATOM     19  C   UNL d   1      -4.077   1.203  -0.473  0.00  0.00     0.007 A 
ATOM     20  C   UNL d   1      -3.346   1.620  -1.583  0.00  0.00    -0.060 A 
ATOM     21  C   UNL d   1      -1.947   1.609  -1.517  0.00  0.00     0.037 A 
ATOM     22  C   UNL d   1      -4.054   2.038  -2.836  0.00  0.00     0.048 C 
ENDBRANCH  13  15
ENDBRANCH   1  13
TORSDOF 4
