REMARK  3 active torsions:
REMARK  status: ('A' for Active; 'I' for Inactive)
REMARK    1  A    between atoms: N_2  and  C_1 
REMARK    2  A    between atoms: N_4  and  C_10 
REMARK    3  A    between atoms: C_6  and  N_4 
ROOT
ATOM      1  N   UNL d   1       0.783  -3.582  -0.100  0.00  0.00    -0.360 N 
ATOM      2  HN  UNL d   1       1.755  -3.297  -0.219  1.00  0.00     0.165 HD
ENDROOT
BRANCH   1   3
ATOM      3  C   UNL d   1      -0.141  -2.688   0.042  0.00  0.00     0.107 C 
ATOM      4  C   UNL d   1       0.216  -1.289   0.029  0.00  0.00     0.022 A 
ATOM      5  S   UNL d   1      -1.014  -0.100   0.055  0.00  0.00    -0.065 SA
ATOM      6  C   UNL d   1       1.475  -0.719  -0.004  0.00  0.00     0.023 A 
ATOM      7  C   UNL d   1       0.125   1.162   0.013  0.00  0.00     0.144 A 
ATOM      8  C   UNL d   1       1.426   0.707  -0.008  0.00  0.00     0.045 A 
BRANCH   7   9
ATOM      9  N   UNL d   1      -0.301   2.539   0.006  0.00  0.00    -0.108 N 
ATOM     10  O   UNL d   1       0.597   3.391  -0.006  0.00  0.00    -0.531 OA
ATOM     11  O   UNL d   1      -1.516   2.777   0.012  0.00  0.00    -0.531 OA
ENDBRANCH   7   9
ENDBRANCH   1   3
BRANCH   1  12
ATOM     12  C   UNL d   1       0.445  -4.953  -0.091  0.00  0.00     0.110 A 
ATOM     13  C   UNL d   1      -0.700  -5.494  -0.697  0.00  0.00     0.146 A 
ATOM     14  F   UNL d   1      -1.589  -4.691  -1.303  0.00  0.00    -0.204 F 
ATOM     15  C   UNL d   1      -0.953  -6.868  -0.702  0.00  0.00     0.045 A 
ATOM     16  C   UNL d   1      -0.047  -7.745  -0.110  0.00  0.00     0.006 A 
ATOM     17  C   UNL d   1       1.105  -7.239   0.486  0.00  0.00     0.045 A 
ATOM     18  C   UNL d   1       1.339  -5.862   0.491  0.00  0.00     0.146 A 
ATOM     19  F   UNL d   1       2.465  -5.416   1.071  0.00  0.00    -0.204 F 
ENDBRANCH   1  12
TORSDOF 3
