REMARK  5 active torsions:
REMARK  status: ('A' for Active; 'I' for Inactive)
REMARK    1  A    between atoms: C_9  and  N_6 
REMARK    2  A    between atoms: C_10  and  C_9 
REMARK       I    between atoms: N_13  and  C_10 
REMARK       I    between atoms: C_11  and  N_14 
REMARK    3  A    between atoms: C_15  and  C_11 
REMARK    4  A    between atoms: N_12  and  C_15 
REMARK    5  A    between atoms: N_14  and  N_13 
ROOT
ATOM      1  C   UNL d   1       2.514   0.793   0.430  0.00  0.00     0.257 C 
ATOM      2  N   UNL d   1       2.547  -0.569   0.618  0.00  0.00    -0.266 N 
ATOM      3  O   UNL d   1       1.920   1.282  -0.544  0.00  0.00    -0.270 OA
ATOM      4  H   UNL d   1       3.252  -0.994   1.234  0.00  0.00     0.190 HD
ENDROOT
BRANCH   1   5
ATOM      5  C   UNL d   1       3.092   1.700   1.490  0.00  0.00     0.272 C 
BRANCH   5   6
ATOM      6  N   UNL d   1       4.093   1.141   2.372  0.00  0.00    -0.194 N 
ATOM      7  N   UNL d   1       4.580  -0.104   2.250  0.00  0.00    -0.115 N 
ATOM      8  C   UNL d   1       5.200  -0.242   3.426  0.00  0.00     0.709 A 
ATOM      9  HN  UNL d   1       4.498  -0.762   1.475  1.00  0.00     0.207 HD
ATOM     10  N   UNL d   1       5.147   0.900   4.185  0.00  0.00    -0.113 N 
ATOM     11  N   UNL d   1       5.796  -1.359   3.870  0.00  0.00    -0.215 N 
ATOM     12  N   UNL d   1       4.447   1.790   3.495  0.00  0.00     0.011 NA
ATOM     13  HN  UNL d   1       5.567   1.039   5.104  1.00  0.00     0.203 HD
ATOM     14  C   UNL d   1       6.104  -1.582   5.269  0.00  0.00     0.141 C 
ATOM     15  C   UNL d   1       5.825  -2.587   3.093  0.00  0.00     0.141 C 
ATOM     16  C   UNL d   1       6.844  -2.914   5.246  0.00  0.00     0.022 C 
ATOM     17  C   UNL d   1       6.164  -3.672   4.114  0.00  0.00     0.022 C 
ENDBRANCH   5   6
ENDBRANCH   1   5
BRANCH   2  18
ATOM     18  N   UNL d   1       2.041  -1.388  -0.403  0.00  0.00    -0.266 N 
ATOM     19  C   UNL d   1       2.109  -2.759  -0.274  0.00  0.00     0.264 C 
ATOM     20  O   UNL d   1       2.703  -3.316   0.651  0.00  0.00    -0.270 OA
ATOM     21  H   UNL d   1       1.581  -0.922  -1.185  0.00  0.00     0.190 HD
BRANCH  19  22
ATOM     22  C   UNL d   1       1.354  -3.536  -1.359  0.00  0.00     0.376 C 
BRANCH  22  23
ATOM     23  N   UNL d   1       2.192  -3.886  -2.536  0.00  0.00     0.097 N 
ATOM     24  C   UNL d   1       1.365  -4.678  -3.474  0.00  0.00     0.273 C 
ATOM     25  C   UNL d   1       2.134  -5.197  -4.692  0.00  0.00     0.030 C 
ATOM     26  C   UNL d   1       3.400  -5.938  -4.287  0.00  0.00     0.003 C 
ATOM     27  C   UNL d   1       4.222  -5.075  -3.342  0.00  0.00     0.030 C 
ATOM     28  C   UNL d   1       3.389  -4.647  -2.132  0.00  0.00     0.273 C 
ENDBRANCH  22  23
ENDBRANCH  19  22
ENDBRANCH   2  18
TORSDOF 5
