REMARK  6 active torsions:
REMARK  status: ('A' for Active; 'I' for Inactive)
REMARK    1  A    between atoms: C_2  and  N_1 
REMARK    2  A    between atoms: N_7  and  C_3 
REMARK    3  A    between atoms: C_4  and  N_5 
REMARK    4  A    between atoms: N_6  and  C_4 
REMARK    5  A    between atoms: C_8  and  N_6 
REMARK    6  A    between atoms: O_26  and  C_15 
ROOT
ATOM      1  N   UNL d   1      -2.518   1.732   4.068  0.00  0.00    -0.356 N 
ATOM      2  N   UNL d   1      -1.222   1.200   1.470  0.00  0.00    -0.364 N 
ATOM      3  C   UNL d   1      -3.265   1.370   2.851  0.00  0.00     0.145 C 
ATOM      4  C   UNL d   1      -2.490   0.539   1.817  0.00  0.00     0.144 C 
ATOM      5  C   UNL d   1      -0.093   2.175   3.417  0.00  0.00     0.040 C 
ATOM      6  C   UNL d   1      -1.436   2.718   3.925  0.00  0.00     0.127 C 
ATOM      7  C   UNL d   1      -0.160   0.990   2.454  0.00  0.00     0.126 C 
ENDROOT
BRANCH   1   8
ATOM      8  C   UNL d   1      -2.746   1.086   5.251  0.00  0.00     0.174 C 
ATOM      9  S   UNL d   1      -2.671  -0.583   5.420  0.00  0.00    -0.041 SA
BRANCH   8  10
ATOM     10  N   UNL d   1      -3.020   1.803   6.374  0.00  0.00    -0.331 N 
ATOM     11  H   UNL d   1      -2.907   1.244   7.207  0.00  0.00     0.168 HD
BRANCH  10  12
ATOM     12  C   UNL d   1      -3.593   3.081   6.582  0.00  0.00     0.069 A 
ATOM     13  C   UNL d   1      -3.985   3.918   5.531  0.00  0.00     0.056 A 
ATOM     14  C   UNL d   1      -4.412   5.225   5.772  0.00  0.00     0.036 A 
ATOM     15 CL   UNL d   1      -4.753   6.267   4.444  0.00  0.00    -0.084 Cl
ATOM     16  C   UNL d   1      -4.528   5.700   7.072  0.00  0.00     0.026 A 
ATOM     17  C   UNL d   1      -4.229   4.851   8.137  0.00  0.00     0.041 A 
ATOM     18  C   UNL d   1      -3.776   3.544   7.902  0.00  0.00     0.095 A 
BRANCH  18  19
ATOM     19  O   UNL d   1      -3.399   2.851   9.027  0.00  0.00    -0.354 OA
ATOM     20  C   UNL d   1      -4.087   1.621   9.255  0.00  0.00     0.210 C 
ENDBRANCH  18  19
ENDBRANCH  10  12
ENDBRANCH   8  10
ENDBRANCH   1   8
BRANCH   2  21
ATOM     21  C   UNL d   1      -0.891   1.506   0.161  0.00  0.00     0.137 A 
ATOM     22  C   UNL d   1      -1.733   2.132  -0.762  0.00  0.00     0.146 A 
ATOM     23  C   UNL d   1      -1.335   2.404  -2.076  0.00  0.00     0.041 A 
ATOM     24  C   UNL d   1      -0.049   2.049  -2.462  0.00  0.00     0.020 A 
ATOM     25  C   UNL d   1       0.761   1.454  -1.514  0.00  0.00     0.090 A 
ATOM     26  N   UNL d   1       0.365   1.190  -0.242  0.00  0.00    -0.350 N 
ATOM     27  HN  UNL d   1       1.014   0.753   0.412  1.00  0.00     0.166 HD
BRANCH  22  28
ATOM     28  N   UNL d   1      -3.014   2.652  -0.374  0.00  0.00    -0.112 N 
ATOM     29  O   UNL d   1      -3.029   3.691   0.301  0.00  0.00    -0.532 OA
ATOM     30  O   UNL d   1      -4.013   2.052  -0.792  0.00  0.00    -0.532 OA
ENDBRANCH  22  28
ENDBRANCH   2  21
TORSDOF 6
