REMARK  5 active torsions:
REMARK  status: ('A' for Active; 'I' for Inactive)
REMARK    1  A    between atoms: N_2  and  C_1 
REMARK       I    between atoms: N_3  and  C_6 
REMARK       I    between atoms: C_4  and  N_3 
REMARK       I    between atoms: N_9  and  C_4 
REMARK    2  A    between atoms: C_5  and  C_10 
REMARK    3  A    between atoms: C_6  and  C_13 
REMARK    4  A    between atoms: O_12  and  C_8 
REMARK    5  A    between atoms: C_25  and  O_12 
ROOT
ATOM      1  C   UNL d   1       5.832   1.983  -1.395  0.00  0.00     0.032 A 
ATOM      2  C   UNL d   1       4.980   0.993  -1.896  0.00  0.00     0.020 A 
ATOM      3  C   UNL d   1       5.265   3.121  -0.800  0.00  0.00     0.020 A 
ATOM      4  C   UNL d   1       3.032   2.248  -1.113  0.00  0.00     0.076 A 
ATOM      5  C   UNL d   1       3.883   3.243  -0.634  0.00  0.00     0.038 A 
ATOM      6  C   UNL d   1       3.587   1.136  -1.760  0.00  0.00     0.038 A 
ENDROOT
BRANCH   4   7
ATOM      7  O   UNL d   1       1.656   2.234  -0.978  0.00  0.00    -0.308 OA
BRANCH   7   8
ATOM      8  C   UNL d   1       1.014   3.321  -0.434  0.00  0.00     0.109 A 
ATOM      9  C   UNL d   1       0.953   4.582  -1.030  0.00  0.00     0.137 A 
ATOM     10  C   UNL d   1       0.307   5.660  -0.406  0.00  0.00     0.055 A 
ATOM     11  C   UNL d   1      -0.358   5.465   0.815  0.00  0.00     0.050 A 
ATOM     12  C   UNL d   1      -0.368   4.176   1.377  0.00  0.00     0.019 A 
ATOM     13  C   UNL d   1       0.315   3.116   0.761  0.00  0.00     0.040 A 
BRANCH   9  14
ATOM     14  N   UNL d   1       1.555   4.812  -2.330  0.00  0.00    -0.113 N 
ATOM     15  O   UNL d   1       2.338   5.767  -2.420  0.00  0.00    -0.532 OA
ATOM     16  O   UNL d   1       1.220   4.064  -3.257  0.00  0.00    -0.532 OA
ENDBRANCH   9  14
BRANCH  11  17
ATOM     17  C   UNL d   1      -1.073   6.607   1.504  0.00  0.00     0.417 C 
ATOM     18  F   UNL d   1      -0.894   7.805   0.882  0.00  0.00    -0.166 F 
ATOM     19  F   UNL d   1      -2.418   6.414   1.567  0.00  0.00    -0.166 F 
ATOM     20  F   UNL d   1      -0.654   6.785   2.786  0.00  0.00    -0.166 F 
ENDBRANCH  11  17
ENDBRANCH   7   8
ENDBRANCH   4   7
BRANCH   1  21
ATOM     21  C   UNL d   1       7.316   1.843  -1.299  0.00  0.00     0.259 C 
ATOM     22  N   UNL d   1       7.941   0.976  -2.176  0.00  0.00    -0.275 N 
ATOM     23  C   UNL d   1       9.226   0.510  -1.980  0.00  0.00     0.325 C 
ATOM     24  H   UNL d   1       7.417   0.658  -2.962  0.00  0.00     0.173 HD
ATOM     25  N   UNL d   1       9.685  -0.474  -2.872  0.00  0.00    -0.332 N 
ATOM     26  O   UNL d   1       9.948   0.903  -1.066  0.00  0.00    -0.247 OA
ATOM     27  C   UNL d   1       8.810  -1.238  -3.777  0.00  0.00     0.137 C 
ATOM     28  C   UNL d   1      10.919  -1.155  -2.426  0.00  0.00     0.137 C 
ATOM     29  C   UNL d   1       9.504  -1.895  -4.973  0.00  0.00     0.093 C 
ATOM     30  S   UNL d   1      10.854  -2.996  -4.483  0.00  0.00    -0.166 SA
ATOM     31  C   UNL d   1      11.780  -1.764  -3.528  0.00  0.00     0.093 C 
ATOM     32  O   UNL d   1       7.889   2.537  -0.460  0.00  0.00    -0.267 OA
ENDBRANCH   1  21
TORSDOF 5
