REMARK  0 active torsions:
REMARK  status: ('A' for Active; 'I' for Inactive)
ROOT
ATOM      1  N   UNL d   1      -2.358  -0.020   0.000  0.00  0.00    -0.022 NA
ATOM      2  C   UNL d   1      -0.275  -0.673   0.000  0.00  0.00     0.077 A 
ATOM      3  N   UNL d   1      -1.577  -1.093   0.000  0.00  0.00    -0.282 N 
ATOM      4  HN  UNL d   1      -1.893  -2.063  -0.000  1.00  0.00     0.184 HD
ATOM      5  C   UNL d   1      -0.238   0.716   0.001  0.00  0.00     0.075 A 
ATOM      6  N   UNL d   1      -1.562   1.060   0.001  0.00  0.00    -0.282 N 
ATOM      7  C   UNL d   1       0.922  -1.399  -0.001  0.00  0.00     0.077 A 
ATOM      8  C   UNL d   1       0.946   1.458   0.002  0.00  0.00     0.060 A 
ATOM      9  C   UNL d   1       2.119  -0.679   0.000  0.00  0.00     0.140 A 
ATOM     10  C   UNL d   1       2.135   0.719   0.003  0.00  0.00     0.074 A 
ATOM     11 CL   UNL d   1       3.635   1.570   0.006  0.00  0.00    -0.081 Cl
ATOM     12  F   UNL d   1       3.271  -1.368  -0.001  0.00  0.00    -0.204 F 
ATOM     13  H   UNL d   1      -1.988   1.979   0.000  0.00  0.00     0.184 HD
ENDROOT
TORSDOF 0
