REMARK  3 active torsions:
REMARK  status: ('A' for Active; 'I' for Inactive)
REMARK    1  A    between atoms: C_4  and  N_1 
REMARK    2  A    between atoms: C_14  and  C_13 
REMARK    3  A    between atoms: C_15  and  C_14 
ROOT
ATOM      1  C   UNL d   1       0.063   2.239  -0.137  0.00  0.00     0.045 A 
ATOM      2  C   UNL d   1      -0.647   3.001   0.803  0.00  0.00     0.031 A 
ATOM      3  C   UNL d   1       0.801   2.937  -1.104  0.00  0.00     0.031 A 
ATOM      4  C   UNL d   1      -0.607   4.401   0.789  0.00  0.00     0.009 A 
ATOM      5  C   UNL d   1       0.834   4.336  -1.129  0.00  0.00     0.009 A 
ATOM      6  C   UNL d   1       0.129   5.082  -0.182  0.00  0.00    -0.058 A 
ENDROOT
BRANCH   1   7
ATOM      7  N   UNL d   1       0.043   0.813  -0.106  0.00  0.00    -0.252 N 
ATOM      8  C   UNL d   1      -0.941   0.060   0.496  0.00  0.00     0.231 A 
ATOM      9  C   UNL d   1      -0.638  -1.396   0.301  0.00  0.00     0.113 A 
ATOM     10  O   UNL d   1      -1.959   0.425   1.068  0.00  0.00    -0.273 OA
ATOM     11  C   UNL d   1       0.699  -1.422  -0.391  0.00  0.00     0.113 A 
ATOM     12  C   UNL d   1       1.022   0.015  -0.658  0.00  0.00     0.231 A 
ATOM     13  O   UNL d   1       2.056   0.339  -1.231  0.00  0.00    -0.273 OA
ENDBRANCH   1   7
BRANCH   6  14
ATOM     14  C   UNL d   1       0.158   6.590  -0.206  0.00  0.00     0.038 C 
BRANCH  14  15
ATOM     15  C   UNL d   1      -0.399   7.202  -1.496  0.00  0.00     0.000 C 
ATOM     16  C   UNL d   1      -1.867   6.873  -1.730  0.00  0.00     0.005 C 
ENDBRANCH  14  15
ENDBRANCH   6  14
TORSDOF 3
