REMARK  6 active torsions:
REMARK  status: ('A' for Active; 'I' for Inactive)
REMARK    1  A    between atoms: C_17  and  C_3 
REMARK    2  A    between atoms: C_10  and  C_4 
REMARK    3  A    between atoms: C_14  and  C_5 
REMARK    4  A    between atoms: C_15  and  C_6 
REMARK    5  A    between atoms: O_25  and  C_7 
REMARK    6  A    between atoms: C_9  and  C_16 
ROOT
ATOM      1  N   UNL d   1       0.713   0.351  -1.168  0.00  0.00    -0.349 N 
ATOM      2  HN  UNL d   1       1.035   0.574  -2.110  1.00  0.00     0.166 HD
ATOM      3  C   UNL d   1      -0.298  -0.451  -0.889  0.00  0.00     0.084 A 
ATOM      4  C   UNL d   1       1.280   0.850  -0.001  0.00  0.00     0.050 A 
ATOM      5  S   UNL d   1      -0.647  -0.602   0.795  0.00  0.00    -0.081 SA
ATOM      6  C   UNL d   1       0.671   0.420   1.161  0.00  0.00     0.082 A 
ENDROOT
BRANCH   4   7
ATOM      7  C   UNL d   1       2.460   1.712  -0.026  0.00  0.00    -0.008 A 
ATOM      8  C   UNL d   1       2.726   2.623   1.004  0.00  0.00     0.024 A 
ATOM      9  C   UNL d   1       3.892   3.413   1.029  0.00  0.00    -0.016 A 
ATOM     10  C   UNL d   1       4.816   3.200  -0.021  0.00  0.00     0.079 A 
ATOM     11  C   UNL d   1       4.563   2.354  -1.131  0.00  0.00    -0.016 A 
ATOM     12  C   UNL d   1       3.361   1.619  -1.093  0.00  0.00     0.024 A 
BRANCH   9  13
ATOM     13  C   UNL d   1       4.111   4.411   2.196  0.00  0.00    -0.021 C 
ATOM     14  C   UNL d   1       4.857   3.686   3.331  0.00  0.00     0.019 C 
ATOM     15  C   UNL d   1       4.906   5.678   1.799  0.00  0.00     0.019 C 
ATOM     16  C   UNL d   1       2.773   4.953   2.775  0.00  0.00     0.019 C 
ENDBRANCH   9  13
BRANCH  10  17
ATOM     17  O   UNL d   1       6.042   3.794   0.080  0.00  0.00    -0.360 OA
ATOM     18  H   UNL d   1       6.028   4.555  -0.524  0.00  0.00     0.217 HD
ENDBRANCH  10  17
BRANCH  11  19
ATOM     19  C   UNL d   1       5.513   2.229  -2.350  0.00  0.00    -0.021 C 
ATOM     20  C   UNL d   1       5.027   1.207  -3.414  0.00  0.00     0.019 C 
ATOM     21  C   UNL d   1       5.601   3.586  -3.087  0.00  0.00     0.019 C 
ATOM     22  C   UNL d   1       6.929   1.769  -1.942  0.00  0.00     0.019 C 
ENDBRANCH  11  19
ENDBRANCH   4   7
BRANCH   3  23
ATOM     23  C   UNL d   1      -1.120  -1.148  -1.896  0.00  0.00    -0.002 A 
ATOM     24  C   UNL d   1      -1.776  -2.360  -1.626  0.00  0.00     0.015 A 
ATOM     25  C   UNL d   1      -2.563  -2.990  -2.597  0.00  0.00     0.017 A 
ATOM     26  C   UNL d   1      -2.711  -2.426  -3.870  0.00  0.00     0.048 A 
ATOM     27  C   UNL d   1      -2.044  -1.227  -4.155  0.00  0.00     0.017 A 
ATOM     28  C   UNL d   1      -1.254  -0.600  -3.181  0.00  0.00     0.015 A 
BRANCH  26  29
ATOM     29  C   UNL d   1      -3.571  -3.089  -4.918  0.00  0.00     0.417 C 
ATOM     30  F   UNL d   1      -4.152  -4.246  -4.493  0.00  0.00    -0.166 F 
ATOM     31  F   UNL d   1      -4.595  -2.291  -5.332  0.00  0.00    -0.166 F 
ATOM     32  F   UNL d   1      -2.872  -3.415  -6.040  0.00  0.00    -0.166 F 
ENDBRANCH  26  29
ENDBRANCH   3  23
TORSDOF 6
