REMARK  3 active torsions:
REMARK  status: ('A' for Active; 'I' for Inactive)
REMARK    1  A    between atoms: C_8  and  N_1 
REMARK    2  A    between atoms: C_10  and  C_5 
REMARK    3  A    between atoms: N_9  and  C_8 
ROOT
ATOM      1  N   UNL d   1       2.315  -0.585  -0.296  0.00  0.00    -0.238 N 
ATOM      2  N   UNL d   1       2.255   0.796  -0.247  0.00  0.00    -0.293 N 
ATOM      3  HN  UNL d   1       3.114   1.343  -0.300  1.00  0.00     0.187 HD
ATOM      4  C   UNL d   1       1.207  -1.406  -0.085  0.00  0.00     0.274 C 
ATOM      5  C   UNL d   1       1.106   1.400  -0.134  0.00  0.00     0.070 C 
ATOM      6  C   UNL d   1      -0.108  -0.736  -0.063  0.00  0.00     0.046 A 
ATOM      7  C   UNL d   1      -0.178   0.654  -0.146  0.00  0.00     0.009 A 
ATOM      8  O   UNL d   1       1.255  -2.623   0.048  0.00  0.00    -0.266 OA
ATOM      9  C   UNL d   1      -1.276  -1.506  -0.001  0.00  0.00     0.018 A 
ATOM     10  C   UNL d   1      -1.440   1.259  -0.255  0.00  0.00     0.015 A 
ATOM     11  C   UNL d   1      -2.607   0.492  -0.183  0.00  0.00     0.001 A 
ATOM     12  C   UNL d   1      -2.526  -0.889  -0.042  0.00  0.00     0.001 A 
ENDROOT
BRANCH   1  13
ATOM     13  C   UNL d   1       3.649  -1.170  -0.180  0.00  0.00     0.271 C 
BRANCH  13  14
ATOM     14  N   UNL d   1       4.279  -1.549  -1.436  0.00  0.00    -0.391 N 
ATOM     15  C   UNL d   1       4.511  -0.477  -2.406  0.00  0.00     0.145 C 
ATOM     16  C   UNL d   1       3.486  -0.374  -3.550  0.00  0.00     0.187 C 
ATOM     17  O   UNL d   1       3.212  -1.645  -4.148  0.00  0.00    -0.388 OA
ATOM     18  C   UNL d   1       2.725  -2.555  -3.156  0.00  0.00     0.187 C 
ATOM     19  C   UNL d   1       3.777  -2.777  -2.063  0.00  0.00     0.145 C 
ENDBRANCH  13  14
ENDBRANCH   1  13
BRANCH   5  20
ATOM     20  C   UNL d   1       1.156   2.892   0.037  0.00  0.00    -0.007 A 
ATOM     21  C   UNL d   1       2.147   3.615  -0.642  0.00  0.00     0.015 A 
ATOM     22  C   UNL d   1       2.234   5.004  -0.506  0.00  0.00     0.024 A 
ATOM     23  C   UNL d   1       1.326   5.679   0.308  0.00  0.00     0.034 A 
ATOM     24  C   UNL d   1       0.358   4.971   1.016  0.00  0.00     0.024 A 
ATOM     25 CL   UNL d   1       1.411   7.390   0.455  0.00  0.00    -0.084 Cl
ATOM     26  C   UNL d   1       0.294   3.577   0.906  0.00  0.00     0.015 A 
ENDBRANCH   5  20
TORSDOF 3
