REMARK  6 active torsions:
REMARK  status: ('A' for Active; 'I' for Inactive)
REMARK    1  A    between atoms: N_2  and  S_1 
REMARK    2  A    between atoms: C_6  and  S_1 
REMARK    3  A    between atoms: C_3  and  N_2 
REMARK       I    between atoms: C_4  and  N_7 
REMARK    4  A    between atoms: C_12  and  C_4 
REMARK    5  A    between atoms: O_22  and  C_5 
REMARK    6  A    between atoms: N_7  and  C_20 
ROOT
ATOM      1  C   UNL d   1       0.378   0.206   1.405  0.00  0.00     0.075 A 
ATOM      2  C   UNL d   1      -0.116  -0.937   2.043  0.00  0.00     0.027 A 
ATOM      3  C   UNL d   1       0.440   1.412   2.104  0.00  0.00     0.027 A 
ATOM      4  C   UNL d   1      -0.463   0.335   4.098  0.00  0.00     0.035 A 
ATOM      5  C   UNL d   1      -0.543  -0.866   3.379  0.00  0.00     0.031 A 
ATOM      6  C   UNL d   1       0.014   1.474   3.441  0.00  0.00     0.031 A 
ENDROOT
BRANCH   1   7
ATOM      7  S   UNL d   1       1.119   0.072  -0.222  0.00  0.00     0.247 S 
ATOM      8  O   UNL d   1       2.101   1.123  -0.355  0.00  0.00    -0.205 OA
ATOM      9  O   UNL d   1       1.497  -1.323  -0.367  0.00  0.00    -0.205 OA
BRANCH   7  10
ATOM     10  N   UNL d   1      -0.168   0.329  -1.289  0.00  0.00    -0.163 NA
ATOM     11  H   UNL d   1      -1.009  -0.117  -0.932  0.00  0.00     0.147 HD
BRANCH  10  12
ATOM     12  C   UNL d   1      -0.440   1.698  -1.540  0.00  0.00     0.146 A 
ATOM     13  C   UNL d   1       0.076   2.411  -2.632  0.00  0.00     0.182 A 
ATOM     14  N   UNL d   1      -0.225   3.720  -2.832  0.00  0.00    -0.343 N 
ATOM     15  C   UNL d   1      -1.021   4.280  -1.894  0.00  0.00     0.107 A 
ATOM     16  HN  UNL d   1       0.125   4.244  -3.634  1.00  0.00     0.167 HD
ATOM     17  C   UNL d   1      -1.515   3.567  -0.811  0.00  0.00     0.106 A 
ATOM     18  N   UNL d   1      -1.250   2.253  -0.614  0.00  0.00    -0.351 N 
ATOM     19  HN  UNL d   1      -1.631   1.726   0.172  1.00  0.00     0.166 HD
BRANCH  13  20
ATOM     20  O   UNL d   1       0.847   1.744  -3.565  0.00  0.00    -0.338 OA
ATOM     21  C   UNL d   1       1.220   2.558  -4.674  0.00  0.00     0.211 C 
ENDBRANCH  13  20
ENDBRANCH  10  12
ENDBRANCH   7  10
ENDBRANCH   1   7
BRANCH   4  22
ATOM     22  N   UNL d   1      -0.854   0.310   5.459  0.00  0.00    -0.323 N 
ATOM     23  C   UNL d   1      -0.789   1.357   6.368  0.00  0.00     0.256 C 
ATOM     24  O   UNL d   1      -0.393   2.494   6.142  0.00  0.00    -0.267 OA
ATOM     25  H   UNL d   1      -1.239  -0.565   5.787  0.00  0.00     0.169 HD
BRANCH  23  26
ATOM     26  C   UNL d   1      -1.300   1.060   7.740  0.00  0.00     0.032 A 
ATOM     27  C   UNL d   1      -1.165  -0.196   8.348  0.00  0.00     0.018 A 
ATOM     28  C   UNL d   1      -1.706  -0.420   9.621  0.00  0.00     0.020 A 
ATOM     29  C   UNL d   1      -2.369   0.611  10.288  0.00  0.00     0.011 A 
ATOM     30  C   UNL d   1      -2.473   1.874   9.710  0.00  0.00     0.020 A 
ATOM     31 BR   UNL d   1      -3.138   0.293  11.986  0.00  0.00    -0.051 Br
ATOM     32  C   UNL d   1      -1.932   2.098   8.441  0.00  0.00     0.018 A 
ENDBRANCH  23  26
ENDBRANCH   4  22
TORSDOF 6
