REMARK  4 active torsions:
REMARK  status: ('A' for Active; 'I' for Inactive)
REMARK    1  A    between atoms: N_2  and  C_1 
REMARK       I    between atoms: C_3  and  N_6 
REMARK       I    between atoms: N_10  and  C_3 
REMARK    2  A    between atoms: N_8  and  C_4 
REMARK    3  A    between atoms: C_5  and  C_9 
REMARK    4  A    between atoms: C_21  and  N_10 
ROOT
ATOM      1  C   UNL d   1       2.835  -6.171   0.708  0.00  0.00     0.322 C 
ATOM      2  N   UNL d   1       1.594  -5.525   0.708  0.00  0.00    -0.332 N 
ATOM      3  N   UNL d   1       1.085  -2.644   0.090  0.00  0.00    -0.377 N 
ATOM      4  N   UNL d   1       3.313  -6.549   1.941  0.00  0.00    -0.309 N 
ATOM      5  O   UNL d   1       3.413  -6.374  -0.356  0.00  0.00    -0.247 OA
ATOM      6  C   UNL d   1       1.068  -5.073  -0.589  0.00  0.00     0.147 C 
ATOM      7  C   UNL d   1       1.439  -3.623  -0.972  0.00  0.00     0.143 C 
ATOM      8  C   UNL d   1       1.304  -3.660   2.354  0.00  0.00     0.040 C 
ATOM      9  C   UNL d   1       0.855  -5.035   1.868  0.00  0.00     0.129 C 
ATOM     10  C   UNL d   1       1.953  -2.777   1.293  0.00  0.00     0.124 C 
ATOM     11  H   UNL d   1       2.763  -6.308   2.746  0.00  0.00     0.170 HD
ENDROOT
BRANCH   3  12
ATOM     12  C   UNL d   1       0.805  -1.292  -0.192  0.00  0.00     0.063 C 
ATOM     13  C   UNL d   1       1.164  -0.514  -1.307  0.00  0.00     0.130 C 
ATOM     14  C   UNL d   1       0.992   0.889  -1.345  0.00  0.00     0.054 C 
ATOM     15  C   UNL d   1       0.425   1.565  -0.261  0.00  0.00     0.050 C 
ATOM     16  C   UNL d   1      -0.064   0.805   0.802  0.00  0.00     0.018 C 
ATOM     17  C   UNL d   1       0.109  -0.585   0.819  0.00  0.00     0.032 C 
BRANCH  13  18
ATOM     18  N   UNL d   1       1.798  -1.065  -2.483  0.00  0.00    -0.113 N 
ATOM     19  O   UNL d   1       2.995  -1.371  -2.393  0.00  0.00    -0.532 OA
ATOM     20  O   UNL d   1       1.113  -1.122  -3.514  0.00  0.00    -0.532 OA
ENDBRANCH  13  18
BRANCH  15  21
ATOM     21  C   UNL d   1       0.379   3.071  -0.202  0.00  0.00     0.417 C 
ATOM     22  F   UNL d   1       0.941   3.672  -1.286  0.00  0.00    -0.166 F 
ATOM     23  F   UNL d   1      -0.888   3.557  -0.111  0.00  0.00    -0.166 F 
ATOM     24  F   UNL d   1       1.047   3.558   0.881  0.00  0.00    -0.166 F 
ENDBRANCH  15  21
ENDBRANCH   3  12
BRANCH   4  25
ATOM     25  C   UNL d   1       4.436  -7.378   2.205  0.00  0.00     0.036 A 
ATOM     26  C   UNL d   1       5.281  -7.889   1.215  0.00  0.00     0.031 A 
ATOM     27  C   UNL d   1       6.282  -8.815   1.534  0.00  0.00     0.026 A 
ATOM     28  C   UNL d   1       6.458  -9.222   2.851  0.00  0.00     0.034 A 
ATOM     29  C   UNL d   1       5.671  -8.673   3.860  0.00  0.00     0.026 A 
ATOM     30 CL   UNL d   1       7.630 -10.421   3.230  0.00  0.00    -0.084 Cl
ATOM     31  C   UNL d   1       4.668  -7.750   3.538  0.00  0.00     0.031 A 
ENDBRANCH   4  25
TORSDOF 4
