REMARK  2 active torsions:
REMARK  status: ('A' for Active; 'I' for Inactive)
REMARK    1  A    between atoms: S_8  and  C_3 
REMARK    2  A    between atoms: C_7  and  N_4 
ROOT
ATOM      1  N   UNL d   1       1.095   0.662   0.071  0.00  0.00    -0.347 N 
ATOM      2  HN  UNL d   1       1.925   1.255   0.077  1.00  0.00     0.163 HD
ATOM      3  C   UNL d   1       1.004  -0.633  -0.056  0.00  0.00     0.156 A 
ATOM      4  N   UNL d   1      -0.250  -1.197  -0.111  0.00  0.00    -0.254 N 
ATOM      5  N   UNL d   1      -1.192  -0.137  -0.022  0.00  0.00    -0.203 NA
ATOM      6  C   UNL d   1      -0.332   1.041   0.206  0.00  0.00     0.096 A 
ATOM      7  C   UNL d   1      -0.630   2.143  -0.813  0.00  0.00     0.057 C 
ATOM      8  C   UNL d   1      -0.554   1.557   1.631  0.00  0.00     0.057 C 
ATOM      9  H   UNL d   1      -1.637  -0.046  -0.935  0.00  0.00     0.150 HD
ENDROOT
BRANCH   4  10
ATOM     10  C   UNL d   1      -0.665  -2.453   0.400  0.00  0.00     0.053 A 
ATOM     11  C   UNL d   1       0.001  -3.103   1.450  0.00  0.00     0.031 A 
ATOM     12  C   UNL d   1      -0.445  -4.339   1.931  0.00  0.00     0.002 A 
ATOM     13  C   UNL d   1      -1.565  -4.946   1.371  0.00  0.00     0.000 A 
ATOM     14  C   UNL d   1      -2.247  -4.315   0.335  0.00  0.00     0.002 A 
ATOM     15  C   UNL d   1      -1.804  -3.077  -0.140  0.00  0.00     0.031 A 
ENDBRANCH   4  10
BRANCH   3  16
ATOM     16  S   UNL d   1       2.477  -1.534  -0.280  0.00  0.00    -0.106 SA
ATOM     17  H   UNL d   1       3.268  -0.455  -0.237  0.00  0.00     0.110 HD
ENDBRANCH   3  16
TORSDOF 2
