REMARK  3 active torsions:
REMARK  status: ('A' for Active; 'I' for Inactive)
REMARK    1  A    between atoms: C_9  and  C_3 
REMARK    2  A    between atoms: C_11  and  C_4 
REMARK    3  A    between atoms: C_8  and  C_14 
ROOT
ATOM      1  N   UNL d   1       5.998   5.131   2.781  0.00  0.00    -0.191 NA
ATOM      2  C   UNL d   1       5.228   4.383   2.348  0.00  0.00     0.099 C 
ATOM      3  C   UNL d   1       2.312   1.712   0.795  0.00  0.00    -0.009 A 
ATOM      4  C   UNL d   1       2.569   2.938   0.162  0.00  0.00     0.015 A 
ATOM      5  C   UNL d   1       3.067   1.362   1.922  0.00  0.00     0.015 A 
ATOM      6  C   UNL d   1       4.261   3.469   1.810  0.00  0.00     0.044 A 
ATOM      7  C   UNL d   1       3.534   3.814   0.668  0.00  0.00     0.023 A 
ATOM      8  C   UNL d   1       4.033   2.237   2.431  0.00  0.00     0.023 A 
ENDROOT
BRANCH   3   9
ATOM      9  C   UNL d   1       1.269   0.814   0.314  0.00  0.00     0.050 A 
ATOM     10  N   UNL d   1       1.338  -0.562   0.498  0.00  0.00    -0.349 N 
ATOM     11  C   UNL d   1       0.288  -1.151  -0.047  0.00  0.00     0.084 A 
ATOM     12  HN  UNL d   1       2.091  -1.048   0.984  1.00  0.00     0.166 HD
ATOM     13  S   UNL d   1      -0.875  -0.061  -0.719  0.00  0.00    -0.081 SA
ATOM     14  C   UNL d   1       0.122   1.259  -0.312  0.00  0.00     0.082 A 
BRANCH  11  15
ATOM     15  C   UNL d   1       0.035  -2.603  -0.071  0.00  0.00    -0.002 A 
ATOM     16  C   UNL d   1       0.542  -3.432   0.940  0.00  0.00     0.015 A 
ATOM     17  C   UNL d   1       0.273  -4.811   0.946  0.00  0.00     0.010 A 
ATOM     18  C   UNL d   1      -0.507  -5.400  -0.064  0.00  0.00    -0.035 A 
ATOM     19  C   UNL d   1      -0.997  -4.570  -1.082  0.00  0.00     0.010 A 
ATOM     20  C   UNL d   1      -0.718  -3.201  -1.092  0.00  0.00     0.015 A 
BRANCH  18  21
ATOM     21  C   UNL d   1      -0.810  -6.885  -0.045  0.00  0.00     0.141 C 
ATOM     22  S   UNL d   1      -0.346  -7.726  -1.591  0.00  0.00    -0.148 SA
ATOM     23  C   UNL d   1      -1.421  -9.150  -1.331  0.00  0.00     0.085 C 
ATOM     24  C   UNL d   1      -2.763  -8.661  -0.819  0.00  0.00     0.085 C 
ATOM     25  S   UNL d   1      -2.567  -7.239   0.300  0.00  0.00    -0.148 SA
ENDBRANCH  18  21
ENDBRANCH  11  15
ENDBRANCH   3   9
TORSDOF 3
