REMARK  2 active torsions:
REMARK  status: ('A' for Active; 'I' for Inactive)
REMARK    1  A    between atoms: C_8  and  C_3 
REMARK    2  A    between atoms: S_13  and  C_6 
ROOT
ATOM      1  N   UNL d   1       1.166   0.289  -0.312  0.00  0.00    -0.319 N 
ATOM      2  HN  UNL d   1       2.084   0.607  -0.624  1.00  0.00     0.169 HD
ATOM      3  C   UNL d   1       0.061   1.045   0.017  0.00  0.00     0.156 A 
ATOM      4  N   UNL d   1      -1.016   0.329   0.386  0.00  0.00    -0.281 N 
ATOM      5  HN  UNL d   1      -1.940   0.652   0.673  1.00  0.00     0.188 HD
ATOM      6  C   UNL d   1       0.747  -0.936  -0.124  0.00  0.00     0.160 A 
ATOM      7  N   UNL d   1      -0.549  -0.927   0.276  0.00  0.00    -0.278 N 
ATOM      8  H   UNL d   1      -1.147  -1.714   0.495  0.00  0.00     0.189 HD
ENDROOT
BRANCH   3   9
ATOM      9  C   UNL d   1       0.066   2.539  -0.022  0.00  0.00     0.120 A 
ATOM     10  O   UNL d   1       1.122   3.311  -0.429  0.00  0.00    -0.319 OA
ATOM     11  C   UNL d   1       0.742   4.609  -0.320  0.00  0.00     0.142 A 
ATOM     12  C   UNL d   1      -0.543   4.698   0.160  0.00  0.00     0.027 A 
ATOM     13  C   UNL d   1      -0.981   3.364   0.349  0.00  0.00     0.043 A 
ENDBRANCH   3   9
BRANCH   6  14
ATOM     14  S   UNL d   1       1.609  -2.413  -0.296  0.00  0.00    -0.097 SA
ATOM     15  C   UNL d   1       3.243  -1.794  -0.758  0.00  0.00     0.099 C 
ENDBRANCH   6  14
TORSDOF 2
