REMARK  4 active torsions:
REMARK  status: ('A' for Active; 'I' for Inactive)
REMARK    1  A    between atoms: S_6  and  C_1 
REMARK    2  A    between atoms: C_12  and  N_2 
REMARK    3  A    between atoms: C_3  and  C_7 
REMARK    4  A    between atoms: C_7  and  S_6 
ROOT
ATOM      1  C   UNL d   1       1.013  -0.735   0.084  0.00  0.00     0.151 A 
ATOM      2  N   UNL d   1       0.982   0.653   0.018  0.00  0.00    -0.300 N 
ATOM      3  N   UNL d   1      -0.191  -1.263   0.061  0.00  0.00    -0.345 N 
ATOM      4  HN  UNL d   1      -0.433  -2.254   0.046  1.00  0.00     0.167 HD
ATOM      5  C   UNL d   1      -1.049  -0.199   0.062  0.00  0.00     0.108 A 
ATOM      6  C   UNL d   1      -0.358   0.988   0.086  0.00  0.00     0.116 A 
ENDROOT
BRANCH   1   7
ATOM      7  S   UNL d   1       2.458  -1.634   0.421  0.00  0.00    -0.089 SA
BRANCH   7   8
ATOM      8  C   UNL d   1       1.941  -3.342   0.091  0.00  0.00     0.126 C 
BRANCH   8   9
ATOM      9  C   UNL d   1       3.149  -4.244   0.115  0.00  0.00     0.012 A 
ATOM     10  C   UNL d   1       3.825  -4.505  -1.085  0.00  0.00     0.125 A 
ATOM     11  F   UNL d   1       3.352  -4.008  -2.237  0.00  0.00    -0.205 F 
ATOM     12  C   UNL d   1       4.997  -5.256  -1.123  0.00  0.00     0.043 A 
ATOM     13  C   UNL d   1       5.528  -5.766   0.057  0.00  0.00     0.005 A 
ATOM     14  C   UNL d   1       4.876  -5.523   1.265  0.00  0.00     0.024 A 
ATOM     15  C   UNL d   1       3.696  -4.768   1.296  0.00  0.00     0.044 A 
ATOM     16 CL   UNL d   1       2.967  -4.500   2.840  0.00  0.00    -0.084 Cl
ENDBRANCH   8   9
ENDBRANCH   7   8
ENDBRANCH   1   7
BRANCH   2  17
ATOM     17  C   UNL d   1       2.053   1.578  -0.086  0.00  0.00     0.056 A 
ATOM     18  C   UNL d   1       3.216   1.263  -0.782  0.00  0.00     0.117 A 
ATOM     19  N   UNL d   1       4.280   2.095  -0.888  0.00  0.00    -0.373 N 
ATOM     20  C   UNL d   1       4.182   3.290  -0.273  0.00  0.00     0.088 A 
ATOM     21  HN  UNL d   1       5.116   1.829  -1.408  1.00  0.00     0.164 HD
ATOM     22  C   UNL d   1       3.056   3.708   0.417  0.00  0.00     0.019 A 
ATOM     23  C   UNL d   1       1.964   2.843   0.498  0.00  0.00     0.033 A 
ENDBRANCH   2  17
TORSDOF 4
