REMARK  6 active torsions:
REMARK  status: ('A' for Active; 'I' for Inactive)
REMARK    1  A    between atoms: C_2  and  C_1 
REMARK       I    between atoms: N_8  and  C_2 
REMARK    2  A    between atoms: O_13  and  C_3 
REMARK    3  A    between atoms: O_15  and  C_5 
REMARK    4  A    between atoms: C_16  and  N_8 
REMARK    5  A    between atoms: C_10  and  C_17 
REMARK    6  A    between atoms: C_17  and  C_16 
ROOT
ATOM      1  C   UNL d   1      -1.859  -3.759  -0.020  0.00  0.00     0.127 C 
ENDROOT
BRANCH   1   2
ATOM      2  N   UNL d   1      -1.109  -2.516  -0.068  0.00  0.00    -0.357 N 
ATOM      3  C   UNL d   1      -0.816  -1.893  -1.260  0.00  0.00     0.253 C 
ATOM      4  O   UNL d   1      -1.121  -2.370  -2.348  0.00  0.00    -0.268 OA
ATOM      5  H   UNL d   1      -0.883  -2.056   0.805  0.00  0.00     0.162 HD
BRANCH   3   6
ATOM      6  C   UNL d   1      -0.038  -0.619  -1.204  0.00  0.00     0.049 A 
ATOM      7  C   UNL d   1      -0.132   0.360  -0.204  0.00  0.00     0.026 A 
ATOM      8 BR   UNL d   1      -1.331   0.273   1.269  0.00  0.00    -0.050 Br
ATOM      9  C   UNL d   1       0.656   1.519  -0.284  0.00  0.00     0.020 A 
ATOM     10  C   UNL d   1       1.531   1.714  -1.353  0.00  0.00     0.001 A 
ATOM     11  C   UNL d   1       1.624   0.754  -2.355  0.00  0.00     0.001 A 
ATOM     12  C   UNL d   1       0.844  -0.401  -2.281  0.00  0.00     0.018 A 
ENDBRANCH   3   6
ENDBRANCH   1   2
BRANCH   1  13
ATOM     13  C   UNL d   1      -3.374  -3.527  -0.075  0.00  0.00     0.058 C 
BRANCH  13  14
ATOM     14  C   UNL d   1      -4.166  -4.815  -0.062  0.00  0.00    -0.054 A 
ATOM     15  C   UNL d   1      -4.032  -5.742  -1.111  0.00  0.00     0.046 A 
ATOM     16  C   UNL d   1      -4.768  -6.937  -1.141  0.00  0.00     0.102 A 
ATOM     17  C   UNL d   1      -5.657  -7.207  -0.087  0.00  0.00     0.101 A 
ATOM     18  C   UNL d   1      -5.814  -6.271   0.944  0.00  0.00     0.040 A 
ATOM     19  C   UNL d   1      -5.074  -5.088   0.962  0.00  0.00     0.010 A 
BRANCH  16  20
ATOM     20  O   UNL d   1      -4.693  -7.841  -2.167  0.00  0.00    -0.353 OA
ATOM     21  C   UNL d   1      -3.804  -7.561  -3.241  0.00  0.00     0.210 C 
ENDBRANCH  16  20
BRANCH  17  22
ATOM     22  O   UNL d   1      -6.478  -8.299   0.047  0.00  0.00    -0.353 OA
ATOM     23  C   UNL d   1      -5.989  -9.532  -0.464  0.00  0.00     0.210 C 
ENDBRANCH  17  22
ENDBRANCH  13  14
ENDBRANCH   1  13
TORSDOF 6
