REMARK  2 active torsions:
REMARK  status: ('A' for Active; 'I' for Inactive)
REMARK    1  A    between atoms: C_6  and  C_1 
REMARK    2  A    between atoms: C_10  and  C_6 
ROOT
ATOM      1  C   UNL d   1       2.352  -0.123   0.006  0.00  0.00     0.133 A 
ATOM      2  C   UNL d   1       1.556  -1.258   0.108  0.00  0.00    -0.011 A 
ATOM      3  O   UNL d   1       1.561   0.993  -0.037  0.00  0.00    -0.303 OA
ATOM      4  C   UNL d   1       0.202  -0.798   0.065  0.00  0.00     0.010 A 
ATOM      5  C   UNL d   1       0.263   0.588   0.000  0.00  0.00     0.108 A 
ATOM      6  C   UNL d   1      -0.865   1.410  -0.033  0.00  0.00     0.070 A 
ATOM      7  C   UNL d   1      -2.115   0.789  -0.020  0.00  0.00     0.050 A 
ATOM      8  C   UNL d   1      -1.065  -1.413   0.073  0.00  0.00     0.038 A 
ATOM      9  C   UNL d   1      -2.207  -0.602   0.025  0.00  0.00     0.036 A 
ATOM     10 CL   UNL d   1      -0.733   3.119  -0.099  0.00  0.00    -0.081 Cl
ATOM     11  C   UNL d   1       1.992  -2.676   0.193  0.00  0.00     0.052 C 
ATOM     12 CL   UNL d   1      -3.761  -1.345   0.019  0.00  0.00    -0.084 Cl
ENDROOT
BRANCH   1  13
ATOM     13  C   UNL d   1       3.791   0.050  -0.036  0.00  0.00     0.216 C 
ATOM     14  O   UNL d   1       4.575  -0.705   0.539  0.00  0.00    -0.284 OA
BRANCH  13  15
ATOM     15  C   UNL d   1       4.371   1.161  -0.856  0.00  0.00     0.017 A 
ATOM     16  C   UNL d   1       3.717   1.657  -1.995  0.00  0.00     0.017 A 
ATOM     17  C   UNL d   1       4.326   2.632  -2.792  0.00  0.00     0.025 A 
ATOM     18  C   UNL d   1       5.592   3.109  -2.458  0.00  0.00     0.034 A 
ATOM     19  C   UNL d   1       6.249   2.631  -1.326  0.00  0.00     0.025 A 
ATOM     20 CL   UNL d   1       6.354   4.277  -3.464  0.00  0.00    -0.084 Cl
ATOM     21  C   UNL d   1       5.642   1.656  -0.527  0.00  0.00     0.017 A 
ENDBRANCH  13  15
ENDBRANCH   1  13
TORSDOF 2
