REMARK  2 active torsions:
REMARK  status: ('A' for Active; 'I' for Inactive)
REMARK    1  A    between atoms: C_6  and  C_3 
REMARK       I    between atoms: N_8  and  C_6 
REMARK    2  A    between atoms: C_15  and  N_8 
ROOT
ATOM      1  C   UNL d   1      -0.717   0.184  -0.108  0.00  0.00     0.023 A 
ATOM      2  S   UNL d   1      -1.911   1.374   0.139  0.00  0.00    -0.084 SA
ATOM      3  C   UNL d   1      -3.186   0.251  -0.098  0.00  0.00     0.074 A 
ATOM      4  C   UNL d   1      -1.276  -1.054  -0.376  0.00  0.00    -0.038 A 
ATOM      5  C   UNL d   1      -2.692  -1.001  -0.419  0.00  0.00     0.033 A 
ATOM      6  C   UNL d   1       0.738   0.383  -0.008  0.00  0.00    -0.012 A 
ATOM      7  C   UNL d   1      -0.408  -2.258  -0.573  0.00  0.00     0.044 C 
ATOM      8  C   UNL d   1       1.535  -0.784   0.141  0.00  0.00    -0.046 A 
ATOM      9  C   UNL d   1       0.868  -2.144   0.280  0.00  0.00     0.044 C 
ATOM     10  C   UNL d   1       1.368   1.627  -0.105  0.00  0.00     0.013 A 
ATOM     11  C   UNL d   1       2.929  -0.679   0.217  0.00  0.00     0.008 A 
ATOM     12  C   UNL d   1       2.763   1.715  -0.051  0.00  0.00     0.001 A 
ATOM     13  C   UNL d   1       3.539   0.568   0.111  0.00  0.00     0.001 A 
ENDROOT
BRANCH   3  14
ATOM     14  C   UNL d   1      -4.601   0.571   0.063  0.00  0.00     0.263 C 
ATOM     15  N   UNL d   1      -4.891   1.831   0.556  0.00  0.00    -0.321 N 
ATOM     16  H   UNL d   1      -4.121   2.482   0.610  0.00  0.00     0.169 HD
ATOM     17  O   UNL d   1      -5.464  -0.260  -0.209  0.00  0.00    -0.267 OA
BRANCH  15  18
ATOM     18  C   UNL d   1      -6.149   2.266   1.032  0.00  0.00     0.050 A 
ATOM     19  C   UNL d   1      -7.257   1.437   1.225  0.00  0.00     0.117 A 
ATOM     20  N   UNL d   1      -8.446   1.853   1.736  0.00  0.00    -0.373 N 
ATOM     21  C   UNL d   1      -8.544   3.154   2.064  0.00  0.00     0.088 A 
ATOM     22  HN  UNL d   1      -9.227   1.210   1.864  1.00  0.00     0.164 HD
ATOM     23  C   UNL d   1      -7.510   4.062   1.907  0.00  0.00     0.019 A 
ATOM     24  C   UNL d   1      -6.296   3.607   1.389  0.00  0.00     0.032 A 
ENDBRANCH  15  18
ENDBRANCH   3  14
TORSDOF 2
