REMARK  5 active torsions:
REMARK  status: ('A' for Active; 'I' for Inactive)
REMARK    1  A    between atoms: C_6  and  C_1 
REMARK    2  A    between atoms: C_4  and  C_2 
REMARK    3  A    between atoms: C_3  and  N_5 
REMARK    4  A    between atoms: O_13  and  C_4 
REMARK    5  A    between atoms: N_5  and  C_7 
ROOT
ATOM      1  N   UNL d   1      -0.430  -2.770  -3.839  0.00  0.00    -0.355 N 
ATOM      2  H   UNL d   1      -0.300  -2.923  -4.847  0.00  0.00     0.166 HD
ENDROOT
BRANCH   1   3
ATOM      3  C   UNL d   1      -0.347  -3.975  -3.096  0.00  0.00     0.049 A 
ATOM      4  C   UNL d   1      -0.092  -5.225  -3.705  0.00  0.00     0.064 A 
ATOM      5  C   UNL d   1      -0.155  -6.409  -2.946  0.00  0.00     0.020 A 
ATOM      6  C   UNL d   1      -0.410  -6.356  -1.576  0.00  0.00     0.001 A 
ATOM      7  C   UNL d   1      -0.616  -5.126  -0.958  0.00  0.00     0.002 A 
ATOM      8  C   UNL d   1      -0.594  -3.951  -1.713  0.00  0.00     0.030 A 
BRANCH   4   9
ATOM      9  C   UNL d   1       0.235  -5.290  -5.155  0.00  0.00     0.178 C 
ATOM     10  O   UNL d   1      -0.156  -4.460  -5.962  0.00  0.00    -0.646 OA
BRANCH   9  11
ATOM     11  O   UNL d   1       1.061  -6.304  -5.500  0.00  0.00    -0.773 OA
ATOM     12  H   UNL d   1       1.480  -6.776  -4.757  0.00  0.00     0.167 HD
ENDBRANCH   9  11
ENDBRANCH   4   9
ENDBRANCH   1   3
BRANCH   1  13
ATOM     13  C   UNL d   1       0.004  -1.484  -3.460  0.00  0.00     0.033 A 
ATOM     14  C   UNL d   1      -0.700  -0.365  -3.925  0.00  0.00     0.045 A 
ATOM     15  C   UNL d   1      -0.268   0.940  -3.634  0.00  0.00     0.050 A 
ATOM     16  C   UNL d   1       0.904   1.113  -2.882  0.00  0.00     0.016 A 
ATOM     17  C   UNL d   1       1.621   0.007  -2.428  0.00  0.00     0.003 A 
ATOM     18  C   UNL d   1       1.174  -1.282  -2.719  0.00  0.00     0.029 A 
BRANCH  15  19
ATOM     19  C   UNL d   1      -1.024   2.145  -4.132  0.00  0.00     0.417 C 
ATOM     20  F   UNL d   1      -2.176   1.840  -4.793  0.00  0.00    -0.166 F 
ATOM     21  F   UNL d   1      -0.287   2.899  -4.996  0.00  0.00    -0.166 F 
ATOM     22  F   UNL d   1      -1.387   2.987  -3.123  0.00  0.00    -0.166 F 
ENDBRANCH  15  19
ENDBRANCH   1  13
TORSDOF 5
