REMARK  6 active torsions:
REMARK  status: ('A' for Active; 'I' for Inactive)
REMARK    1  A    between atoms: S_11  and  C_3 
REMARK    2  A    between atoms: C_6  and  C_10 
REMARK    3  A    between atoms: C_14  and  C_7 
REMARK    4  A    between atoms: O_17  and  C_9 
REMARK    5  A    between atoms: C_10  and  S_11 
REMARK    6  A    between atoms: C_23  and  O_17 
ROOT
ATOM      1  N   UNL d   1      -1.153   0.772  -0.027  0.00  0.00    -0.317 N 
ATOM      2  HN  UNL d   1      -1.978   1.372  -0.035  1.00  0.00     0.170 HD
ATOM      3  C   UNL d   1       0.086   1.268  -0.098  0.00  0.00     0.146 A 
ATOM      4  N   UNL d   1       1.208   0.532  -0.062  0.00  0.00    -0.336 N 
ATOM      5  HN  UNL d   1       2.128   0.972  -0.087  1.00  0.00     0.168 HD
ATOM      6  C   UNL d   1       1.077  -0.808   0.007  0.00  0.00     0.048 A 
ATOM      7  C   UNL d   1      -0.164  -1.410   0.060  0.00  0.00     0.086 A 
ATOM      8  C   UNL d   1      -1.245  -0.564   0.057  0.00  0.00     0.146 A 
ENDROOT
BRANCH   3   9
ATOM      9  S   UNL d   1       0.242   3.029  -0.265  0.00  0.00    -0.089 SA
BRANCH   9  10
ATOM     10  C   UNL d   1       1.888   3.104  -1.043  0.00  0.00     0.126 C 
BRANCH  10  11
ATOM     11  C   UNL d   1       2.297   4.515  -1.374  0.00  0.00     0.012 A 
ATOM     12  C   UNL d   1       3.047   5.242  -0.439  0.00  0.00     0.125 A 
ATOM     13  F   UNL d   1       3.385   4.675   0.729  0.00  0.00    -0.205 F 
ATOM     14  C   UNL d   1       3.473   6.546  -0.685  0.00  0.00     0.043 A 
ATOM     15  C   UNL d   1       3.150   7.159  -1.890  0.00  0.00     0.005 A 
ATOM     16  C   UNL d   1       2.394   6.465  -2.833  0.00  0.00     0.024 A 
ATOM     17  C   UNL d   1       1.967   5.155  -2.577  0.00  0.00     0.044 A 
ATOM     18 CL   UNL d   1       1.037   4.370  -3.804  0.00  0.00    -0.084 Cl
ENDBRANCH  10  11
ENDBRANCH   9  10
ENDBRANCH   3   9
BRANCH   8  19
ATOM     19  O   UNL d   1      -2.491  -1.165   0.072  0.00  0.00    -0.336 OA
BRANCH  19  20
ATOM     20  C   UNL d   1      -3.517  -0.299   0.562  0.00  0.00     0.173 C 
ATOM     21  C   UNL d   1      -4.848  -1.023   0.461  0.00  0.00     0.034 C 
ENDBRANCH  19  20
ENDBRANCH   8  19
BRANCH   6  22
ATOM     22  C   UNL d   1       2.341  -1.570  -0.008  0.00  0.00    -0.009 A 
ATOM     23  C   UNL d   1       2.446  -2.819  -0.647  0.00  0.00     0.013 A 
ATOM     24  C   UNL d   1       3.655  -3.521  -0.680  0.00  0.00     0.001 A 
ATOM     25  C   UNL d   1       4.789  -2.987  -0.076  0.00  0.00     0.000 A 
ATOM     26  C   UNL d   1       4.716  -1.752   0.563  0.00  0.00     0.001 A 
ATOM     27  C   UNL d   1       3.505  -1.053   0.593  0.00  0.00     0.013 A 
ENDBRANCH   6  22
TORSDOF 6
