REMARK  5 active torsions:
REMARK  status: ('A' for Active; 'I' for Inactive)
REMARK    1  A    between atoms: C_2  and  N_1 
REMARK       I    between atoms: C_5  and  N_1 
REMARK    2  A    between atoms: S_11  and  C_2 
REMARK    3  A    between atoms: C_6  and  N_3 
REMARK    4  A    between atoms: C_7  and  C_5 
REMARK    5  A    between atoms: O_17  and  C_14 
ROOT
ATOM      1  C   UNL d   1       0.263   0.733  -1.124  0.00  0.00     0.147 C 
ATOM      2  N   UNL d   1       1.083   0.589  -2.105  0.00  0.00    -0.336 N 
ATOM      3  HN  UNL d   1       0.659   0.371  -3.006  1.00  0.00     0.168 HD
ENDROOT
BRANCH   1   4
ATOM      4  N   UNL d   1      -1.105   0.722  -1.301  0.00  0.00    -0.303 N 
ATOM      5  C   UNL d   1      -1.793   0.474  -2.477  0.00  0.00     0.257 C 
ATOM      6  O   UNL d   1      -1.299   0.120  -3.538  0.00  0.00    -0.267 OA
ATOM      7  H   UNL d   1      -1.631   0.911  -0.466  0.00  0.00     0.171 HD
BRANCH   5   8
ATOM      8  C   UNL d   1      -3.279   0.571  -2.391  0.00  0.00     0.032 A 
ATOM      9  C   UNL d   1      -3.942   1.468  -1.550  0.00  0.00     0.020 A 
ATOM     10  C   UNL d   1      -5.348   1.522  -1.539  0.00  0.00     0.038 A 
ATOM     11  C   UNL d   1      -6.089   0.684  -2.375  0.00  0.00     0.068 A 
ATOM     12  C   UNL d   1      -5.423  -0.196  -3.225  0.00  0.00     0.038 A 
ATOM     13  C   UNL d   1      -4.031  -0.259  -3.238  0.00  0.00     0.020 A 
BRANCH  11  14
ATOM     14  O   UNL d   1      -7.451   0.661  -2.488  0.00  0.00    -0.356 OA
ATOM     15  C   UNL d   1      -8.195   1.233  -1.422  0.00  0.00     0.210 C 
ENDBRANCH  11  14
ENDBRANCH   5   8
ENDBRANCH   1   4
BRANCH   1  16
ATOM     16  S   UNL d   1       0.610   0.985   0.567  0.00  0.00    -0.098 SA
ATOM     17  C   UNL d   1      -0.053  -0.588   1.208  0.00  0.00     0.099 C 
ENDBRANCH   1  16
BRANCH   2  18
ATOM     18  C   UNL d   1       2.486   0.693  -2.099  0.00  0.00     0.046 A 
ATOM     19  C   UNL d   1       3.353  -0.189  -1.415  0.00  0.00    -0.035 A 
ATOM     20  C   UNL d   1       4.748  -0.101  -1.608  0.00  0.00     0.009 A 
ATOM     21  C   UNL d   1       2.881  -1.260  -0.476  0.00  0.00     0.050 C 
ATOM     22  C   UNL d   1       5.294   0.787  -2.524  0.00  0.00     0.001 A 
ATOM     23  C   UNL d   1       4.454   1.632  -3.233  0.00  0.00     0.009 A 
ATOM     24  C   UNL d   1       3.062   1.607  -3.020  0.00  0.00    -0.035 A 
ATOM     25  C   UNL d   1       2.227   2.514  -3.889  0.00  0.00     0.050 C 
ENDBRANCH   2  18
TORSDOF 5
