REMARK  8 active torsions:
REMARK  status: ('A' for Active; 'I' for Inactive)
REMARK    1  A    between atoms: C_2  and  S_1 
REMARK    2  A    between atoms: N_16  and  S_1 
REMARK    3  A    between atoms: C_3  and  C_7 
REMARK       I    between atoms: C_13  and  N_20 
REMARK    4  A    between atoms: O_17  and  C_13 
REMARK    5  A    between atoms: C_21  and  N_16 
REMARK    6  A    between atoms: C_19  and  O_17 
REMARK    7  A    between atoms: N_20  and  C_23 
REMARK    8  A    between atoms: C_23  and  C_21 
ROOT
ATOM      1  S   UNL d   1       0.575   0.155  -0.247  0.00  0.00     0.248 S 
ATOM      2  O   UNL d   1       0.227  -1.183   0.189  0.00  0.00    -0.205 OA
ATOM      3  O   UNL d   1       0.101   1.338   0.436  0.00  0.00    -0.205 OA
ENDROOT
BRANCH   1   4
ATOM      4  C   UNL d   1      -0.045   0.303  -1.903  0.00  0.00     0.115 C 
ATOM      5  S   UNL d   1       0.587  -0.807  -3.040  0.00  0.00    -0.075 SA
ATOM      6  C   UNL d   1      -0.106   0.044  -4.348  0.00  0.00     0.033 C 
ATOM      7  C   UNL d   1      -0.930   1.062  -3.916  0.00  0.00     0.023 C 
ATOM      8  C   UNL d   1      -0.910   1.201  -2.496  0.00  0.00     0.034 C 
BRANCH   6   9
ATOM      9  C   UNL d   1       0.168  -0.244  -5.794  0.00  0.00     0.056 A 
ATOM     10  N   UNL d   1      -0.344   0.564  -6.797  0.00  0.00    -0.353 N 
ATOM     11  C   UNL d   1       0.101   0.158  -7.968  0.00  0.00     0.047 A 
ATOM     12  HN  UNL d   1      -0.972   1.355  -6.651  1.00  0.00     0.166 HD
ATOM     13  C   UNL d   1      -0.198   0.823  -9.265  0.00  0.00     0.076 C 
ATOM     14  S   UNL d   1       1.102  -1.239  -7.939  0.00  0.00    -0.087 SA
ATOM     15  C   UNL d   1       0.967  -1.279  -6.233  0.00  0.00     0.082 A 
ENDBRANCH   6   9
ENDBRANCH   1   4
BRANCH   1  16
ATOM     16  N   UNL d   1       2.259   0.229  -0.323  0.00  0.00    -0.214 NA
ATOM     17  H   UNL d   1       2.638  -0.670  -0.632  0.00  0.00     0.140 HD
BRANCH  16  18
ATOM     18  C   UNL d   1       2.859   1.383  -1.029  0.00  0.00     0.124 C 
BRANCH  18  19
ATOM     19  C   UNL d   1       4.393   1.272  -0.951  0.00  0.00     0.140 C 
BRANCH  19  20
ATOM     20  N   UNL d   1       4.913  -0.006  -1.418  0.00  0.00    -0.336 N 
ATOM     21  C   UNL d   1       4.933  -0.395  -2.728  0.00  0.00     0.361 C 
ATOM     22  O   UNL d   1       4.467   0.264  -3.633  0.00  0.00    -0.238 OA
ATOM     23  H   UNL d   1       5.457  -0.582  -0.784  0.00  0.00     0.164 HD
BRANCH  21  24
ATOM     24  O   UNL d   1       5.534  -1.599  -2.849  0.00  0.00    -0.294 OA
BRANCH  24  25
ATOM     25  C   UNL d   1       5.717  -2.236  -4.157  0.00  0.00     0.061 C 
ATOM     26  C   UNL d   1       6.572  -1.361  -5.088  0.00  0.00     0.046 C 
ATOM     27  C   UNL d   1       6.420  -3.584  -3.872  0.00  0.00     0.046 C 
ATOM     28  C   UNL d   1       4.375  -2.554  -4.821  0.00  0.00     0.046 C 
ENDBRANCH  24  25
ENDBRANCH  21  24
ENDBRANCH  19  20
ENDBRANCH  18  19
ENDBRANCH  16  18
ENDBRANCH   1  16
TORSDOF 8
