REMARK  10 active torsions:
REMARK  status: ('A' for Active; 'I' for Inactive)
REMARK    1  A    between atoms: C_3  and  C_1 
REMARK    2  A    between atoms: N_2  and  C_4 
REMARK    3  A    between atoms: C_9  and  N_7 
REMARK    4  A    between atoms: C_10  and  C_9 
REMARK    5  A    between atoms: C_11  and  C_10 
REMARK    6  A    between atoms: O_26  and  C_10 
REMARK    7  A    between atoms: C_27  and  C_25 
REMARK    8  A    between atoms: C_28  and  C_27 
REMARK    9  A    between atoms: C_30  and  C_28 
REMARK   10  A    between atoms: C_29  and  C_30 
ROOT
ATOM      1  N   UNL d   1      -2.111   8.663  -2.869  0.00  0.00    -0.266 NA
ATOM      2  N   UNL d   1      -1.721   7.943  -0.019  0.00  0.00     0.093 N 
ATOM      3  C   UNL d   1      -0.813   8.120  -2.415  0.00  0.00     0.127 C 
ATOM      4  C   UNL d   1      -2.826   9.399  -1.807  0.00  0.00     0.127 C 
ATOM      5  C   UNL d   1      -2.978   8.511  -0.548  0.00  0.00     0.287 C 
ATOM      6  C   UNL d   1      -0.998   7.278  -1.129  0.00  0.00     0.287 C 
ENDROOT
BRANCH   2   7
ATOM      7  C   UNL d   1      -0.876   8.934   0.675  0.00  0.00     0.309 C 
BRANCH   7   8
ATOM      8  C   UNL d   1      -1.449   9.516   2.005  0.00  0.00     0.179 C 
BRANCH   8   9
ATOM      9  C   UNL d   1      -1.941   8.505   3.027  0.00  0.00    -0.028 A 
ATOM     10  C   UNL d   1      -1.354   7.241   3.170  0.00  0.00     0.010 A 
ATOM     11  C   UNL d   1      -1.901   6.294   4.038  0.00  0.00     0.007 A 
ATOM     12  C   UNL d   1      -3.039   6.593   4.794  0.00  0.00    -0.058 A 
ATOM     13  C   UNL d   1      -3.564   7.889   4.736  0.00  0.00     0.007 A 
ATOM     14  C   UNL d   1      -3.021   8.834   3.859  0.00  0.00     0.010 A 
BRANCH  12  15
ATOM     15  C   UNL d   1      -3.714   5.513   5.604  0.00  0.00     0.038 C 
BRANCH  15  16
ATOM     16  C   UNL d   1      -5.171   5.249   5.189  0.00  0.00     0.005 C 
BRANCH  16  17
ATOM     17  C   UNL d   1      -5.325   4.840   3.718  0.00  0.00    -0.000 C 
BRANCH  17  18
ATOM     18  C   UNL d   1      -6.790   4.582   3.364  0.00  0.00    -0.005 C 
ATOM     19  C   UNL d   1      -6.956   4.228   1.895  0.00  0.00     0.005 C 
ENDBRANCH  17  18
ENDBRANCH  16  17
ENDBRANCH  15  16
ENDBRANCH  12  15
ENDBRANCH   8   9
BRANCH   8  20
ATOM     20  O   UNL d   1      -0.441  10.340   2.602  0.00  0.00    -0.389 OA
ATOM     21  H   UNL d   1      -0.182   9.920   3.442  0.00  0.00     0.210 HD
ENDBRANCH   8  20
ENDBRANCH   7   8
ENDBRANCH   2   7
BRANCH   1  22
ATOM     22  C   UNL d   1      -2.047   9.316  -4.110  0.00  0.00     0.082 A 
ATOM     23  C   UNL d   1      -3.213   9.806  -4.708  0.00  0.00     0.043 A 
ATOM     24  C   UNL d   1      -3.153  10.458  -5.940  0.00  0.00     0.021 A 
ATOM     25  C   UNL d   1      -1.928  10.598  -6.585  0.00  0.00     0.063 A 
ATOM     26  C   UNL d   1      -0.824  10.052  -5.955  0.00  0.00     0.105 A 
ATOM     27  N   UNL d   1      -0.865   9.426  -4.753  0.00  0.00    -0.356 N 
ATOM     28  HN  UNL d   1      -0.014   9.044  -4.339  1.00  0.00     0.166 HD
BRANCH  25  29
ATOM     29  C   UNL d   1      -1.806  11.305  -7.896  0.00  0.00     0.418 C 
ATOM     30  F   UNL d   1      -0.537  11.331  -8.390  0.00  0.00    -0.166 F 
ATOM     31  F   UNL d   1      -2.200  12.607  -7.821  0.00  0.00    -0.166 F 
ATOM     32  F   UNL d   1      -2.573  10.742  -8.871  0.00  0.00    -0.166 F 
ENDBRANCH  25  29
ENDBRANCH   1  22
TORSDOF 10
