REMARK  2 active torsions:
REMARK  status: ('A' for Active; 'I' for Inactive)
REMARK    1  A    between atoms: C_3  and  N_1 
REMARK    2  A    between atoms: C_4  and  C_2 
ROOT
ATOM      1  C   UNL d   1      -1.808  -0.000  -0.042  0.00  0.00     0.008 A 
ATOM      2  C   UNL d   1      -2.298  -1.077   0.676  0.00  0.00     0.038 A 
ATOM      3  S   UNL d   1      -2.278   1.491   0.679  0.00  0.00    -0.101 SA
ATOM      4  C   UNL d   1      -3.019  -0.664   1.824  0.00  0.00     0.018 A 
ATOM      5  C   UNL d   1      -3.090   0.698   1.960  0.00  0.00     0.069 A 
ATOM      6 BR   UNL d   1      -3.791  -1.905   3.015  0.00  0.00    -0.051 Br
ENDROOT
BRANCH   1   7
ATOM      7  C   UNL d   1      -1.051  -0.007  -1.244  0.00  0.00     0.050 C 
ATOM      8  C   UNL d   1       0.295  -0.049  -1.232  0.00  0.00     0.078 C 
ATOM      9  C   UNL d   1       1.231  -0.081  -0.066  0.00  0.00     0.075 C 
BRANCH   8  10
ATOM     10  N   UNL d   1       0.965  -0.071  -2.539  0.00  0.00    -0.120 N 
ATOM     11  O   UNL d   1       0.266  -0.084  -3.562  0.00  0.00    -0.532 OA
ATOM     12  O   UNL d   1       2.203  -0.084  -2.541  0.00  0.00    -0.532 OA
ENDBRANCH   8  10
ENDBRANCH   1   7
TORSDOF 2
