REMARK  6 active torsions:
REMARK  status: ('A' for Active; 'I' for Inactive)
REMARK    1  A    between atoms: C_9  and  C_1 
REMARK    2  A    between atoms: C_10  and  C_1 
REMARK    3  A    between atoms: N_11  and  C_6 
REMARK    4  A    between atoms: C_12  and  C_8 
REMARK    5  A    between atoms: O_18  and  C_10 
REMARK    6  A    between atoms: C_25  and  O_18 
ROOT
ATOM      1  C   UNL d   1       1.359  -0.226   0.280  0.00  0.00     0.298 C 
ATOM      2  N   UNL d   1       0.732   1.100   0.154  0.00  0.00    -0.314 N 
ATOM      3  HN  UNL d   1       1.222   1.937   0.471  1.00  0.00     0.166 HD
ATOM      4  N   UNL d   1       0.399  -1.334   0.178  0.00  0.00    -0.328 N 
ATOM      5  HN  UNL d   1       0.658  -2.280   0.455  1.00  0.00     0.165 HD
ATOM      6  C   UNL d   1      -0.436   1.187  -0.358  0.00  0.00     0.226 C 
ATOM      7  O   UNL d   1      -1.211   0.125  -0.653  0.00  0.00    -0.262 OA
ATOM      8  C   UNL d   1      -0.768  -1.076  -0.269  0.00  0.00     0.160 C 
ENDROOT
BRANCH   1   9
ATOM      9  C   UNL d   1       2.540  -0.393  -0.719  0.00  0.00     0.442 C 
ATOM     10  F   UNL d   1       2.813   0.763  -1.383  0.00  0.00    -0.166 F 
ATOM     11  F   UNL d   1       3.701  -0.786  -0.146  0.00  0.00    -0.166 F 
ATOM     12  F   UNL d   1       2.255  -1.308  -1.686  0.00  0.00    -0.166 F 
ENDBRANCH   1   9
BRANCH   1  13
ATOM     13  C   UNL d   1       1.984  -0.353   1.683  0.00  0.00     0.318 C 
ATOM     14  O   UNL d   1       2.133  -1.414   2.285  0.00  0.00    -0.260 OA
BRANCH  13  15
ATOM     15  O   UNL d   1       2.277   0.866   2.224  0.00  0.00    -0.318 OA
BRANCH  15  16
ATOM     16  C   UNL d   1       2.321   0.889   3.656  0.00  0.00     0.174 C 
ATOM     17  C   UNL d   1       0.909   1.136   4.165  0.00  0.00     0.034 C 
ENDBRANCH  15  16
ENDBRANCH  13  15
ENDBRANCH   1  13
BRANCH   6  18
ATOM     18  N   UNL d   1      -1.069   2.375  -0.655  0.00  0.00    -0.347 N 
ATOM     19  C   UNL d   1      -1.709   2.496  -1.972  0.00  0.00     0.126 C 
ATOM     20  C   UNL d   1      -2.837   3.517  -1.916  0.00  0.00     0.020 C 
ATOM     21  C   UNL d   1      -2.321   4.867  -1.432  0.00  0.00     0.003 C 
ATOM     22  C   UNL d   1      -1.573   4.721  -0.109  0.00  0.00     0.020 C 
ATOM     23  C   UNL d   1      -0.492   3.638  -0.173  0.00  0.00     0.126 C 
ENDBRANCH   6  18
BRANCH   8  24
ATOM     24  C   UNL d   1      -1.802  -2.119  -0.457  0.00  0.00     0.016 A 
ATOM     25  C   UNL d   1      -3.155  -1.807  -0.656  0.00  0.00     0.022 A 
ATOM     26  C   UNL d   1      -4.094  -2.829  -0.865  0.00  0.00    -0.061 A 
ATOM     27  C   UNL d   1      -5.542  -2.516  -1.103  0.00  0.00     0.048 C 
ATOM     28  C   UNL d   1      -3.666  -4.163  -0.864  0.00  0.00     0.007 A 
ATOM     29  C   UNL d   1      -2.327  -4.478  -0.643  0.00  0.00     0.002 A 
ATOM     30  C   UNL d   1      -1.397  -3.460  -0.436  0.00  0.00     0.016 A 
ENDBRANCH   8  24
TORSDOF 6
