REMARK  3 active torsions:
REMARK  status: ('A' for Active; 'I' for Inactive)
REMARK    1  A    between atoms: C_16  and  C_3 
REMARK    2  A    between atoms: C_12  and  C_4 
REMARK    3  A    between atoms: C_7  and  C_17 
ROOT
ATOM      1  N   UNL d   1       1.427  -0.599  -0.015  0.00  0.00    -0.349 N 
ATOM      2  HN  UNL d   1       2.306  -1.118  -0.017  1.00  0.00     0.166 HD
ATOM      3  C   UNL d   1       0.227  -1.148  -0.046  0.00  0.00     0.084 A 
ATOM      4  C   UNL d   1       1.326   0.784   0.020  0.00  0.00     0.050 A 
ATOM      5  S   UNL d   1      -1.081  -0.022  -0.013  0.00  0.00    -0.081 SA
ATOM      6  C   UNL d   1       0.034   1.270   0.013  0.00  0.00     0.082 A 
ENDROOT
BRANCH   3   7
ATOM      7  C   UNL d   1      -0.033  -2.596  -0.060  0.00  0.00    -0.002 A 
ATOM      8  C   UNL d   1       0.863  -3.469   0.571  0.00  0.00     0.015 A 
ATOM      9  C   UNL d   1       0.639  -4.853   0.578  0.00  0.00     0.014 A 
ATOM     10  C   UNL d   1      -0.482  -5.395  -0.062  0.00  0.00    -0.008 A 
ATOM     11  C   UNL d   1      -1.375  -4.528  -0.702  0.00  0.00     0.014 A 
ATOM     12  C   UNL d   1      -1.154  -3.147  -0.702  0.00  0.00     0.015 A 
BRANCH  10  13
ATOM     13  C   UNL d   1      -0.721  -6.828  -0.114  0.00  0.00     0.063 A 
ATOM     14  N   UNL d   1      -1.362  -7.408  -1.206  0.00  0.00    -0.292 N 
ATOM     15  N   UNL d   1      -1.473  -8.719  -1.077  0.00  0.00    -0.061 NA
ATOM     16  HN  UNL d   1      -1.706  -6.883  -2.010  1.00  0.00     0.183 HD
ATOM     17  S   UNL d   1      -0.832  -9.286   0.359  0.00  0.00    -0.010 SA
ATOM     18  C   UNL d   1      -0.363  -7.720   0.882  0.00  0.00     0.096 A 
ENDBRANCH  10  13
ENDBRANCH   3   7
BRANCH   4  19
ATOM     19  C   UNL d   1       2.504   1.642   0.037  0.00  0.00    -0.006 A 
ATOM     20  C   UNL d   1       2.485   2.890   0.675  0.00  0.00     0.053 A 
ATOM     21  C   UNL d   1       3.606   3.725   0.653  0.00  0.00     0.102 A 
ATOM     22  O   UNL d   1       3.427   4.939   1.269  0.00  0.00    -0.348 OA
ATOM     23  C   UNL d   1       4.788   3.291   0.040  0.00  0.00     0.102 A 
ATOM     24  C   UNL d   1       4.085   6.011   0.594  0.00  0.00     0.178 C 
ATOM     25  C   UNL d   1       5.528   6.139   1.049  0.00  0.00     0.053 C 
ATOM     26  C   UNL d   1       6.210   4.785   1.156  0.00  0.00     0.178 C 
ATOM     27  O   UNL d   1       5.967   3.990  -0.005  0.00  0.00    -0.348 OA
ATOM     28  C   UNL d   1       4.811   2.053  -0.607  0.00  0.00     0.040 A 
ATOM     29  C   UNL d   1       3.679   1.230  -0.603  0.00  0.00     0.017 A 
ENDBRANCH   4  19
TORSDOF 3
