REMARK  3 active torsions:
REMARK  status: ('A' for Active; 'I' for Inactive)
REMARK    1  A    between atoms: C_4  and  C_1 
REMARK    2  A    between atoms: C_6  and  C_4 
REMARK    3  A    between atoms: O_19  and  C_16 
ROOT
ATOM      1  C   UNL d   1      -2.328  -0.204  -0.052  0.00  0.00     0.127 A 
ATOM      2  O   UNL d   1      -1.538   0.916  -0.029  0.00  0.00    -0.306 OA
ATOM      3  C   UNL d   1      -1.527  -1.331  -0.010  0.00  0.00     0.055 A 
ATOM      4  C   UNL d   1      -0.241   0.508  -0.009  0.00  0.00     0.089 A 
ATOM      5  C   UNL d   1      -0.185  -0.879   0.003  0.00  0.00     0.001 A 
ATOM      6  C   UNL d   1       0.880   1.336  -0.013  0.00  0.00     0.074 A 
ATOM      7  C   UNL d   1       1.074  -1.497   0.015  0.00  0.00     0.017 A 
ATOM      8  C   UNL d   1       2.132   0.706  -0.011  0.00  0.00     0.070 A 
ATOM      9  C   UNL d   1       2.222  -0.690   0.009  0.00  0.00     0.038 A 
ENDROOT
BRANCH   1  10
ATOM     10  C   UNL d   1      -3.770  -0.065  -0.105  0.00  0.00     0.215 C 
ATOM     11  O   UNL d   1      -4.549  -0.914   0.324  0.00  0.00    -0.284 OA
BRANCH  10  12
ATOM     12  C   UNL d   1      -4.328   1.167  -0.731  0.00  0.00     0.017 A 
ATOM     13  C   UNL d   1      -3.679   1.794  -1.810  0.00  0.00     0.024 A 
ATOM     14  C   UNL d   1      -4.166   2.995  -2.350  0.00  0.00    -0.039 A 
ATOM     15  C   UNL d   1      -3.412   3.657  -3.469  0.00  0.00     0.050 C 
ATOM     16  C   UNL d   1      -5.337   3.544  -1.809  0.00  0.00     0.040 A 
ATOM     17  C   UNL d   1      -6.014   2.898  -0.767  0.00  0.00     0.025 A 
ATOM     18 CL   UNL d   1      -5.987   5.032  -2.397  0.00  0.00    -0.084 Cl
ATOM     19  C   UNL d   1      -5.518   1.708  -0.233  0.00  0.00     0.017 A 
ENDBRANCH  10  12
ENDBRANCH   1  10
BRANCH   8  20
ATOM     20  O   UNL d   1       3.205   1.560  -0.034  0.00  0.00    -0.356 OA
ATOM     21  C   UNL d   1       4.497   0.958  -0.038  0.00  0.00     0.210 C 
ENDBRANCH   8  20
TORSDOF 3
