REMARK  0 active torsions:
REMARK  status: ('A' for Active; 'I' for Inactive)
ROOT
ATOM      1  C   UNL d   1       0.943  -0.441  -0.056  0.00  0.00     0.057 A 
ATOM      2  C   UNL d   1       1.651   0.748  -0.013  0.00  0.00     0.072 A 
ATOM      3  C   UNL d   1      -0.451  -0.419  -0.049  0.00  0.00     0.021 A 
ATOM      4  N   UNL d   1       1.805  -1.568  -0.142  0.00  0.00    -0.201 NA
ATOM      5  C   UNL d   1      -1.065   0.861   0.000  0.00  0.00     0.083 A 
ATOM      6  N   UNL d   1       3.097  -0.987   0.035  0.00  0.00    -0.282 N 
ATOM      7  C   UNL d   1       3.058   0.397  -0.001  0.00  0.00     0.269 C 
ATOM      8  N   UNL d   1      -0.339   2.014   0.036  0.00  0.00    -0.362 N 
ATOM      9  HN  UNL d   1      -0.811   2.918   0.068  1.00  0.00     0.165 HD
ATOM     10  C   UNL d   1       1.012   1.950   0.029  0.00  0.00     0.107 A 
ATOM     11  C   UNL d   1      -2.462   0.892   0.014  0.00  0.00     0.146 A 
ATOM     12  C   UNL d   1      -3.245  -0.260  -0.010  0.00  0.00     0.086 A 
ATOM     13  C   UNL d   1      -1.238  -1.589  -0.084  0.00  0.00     0.058 A 
ATOM     14  C   UNL d   1      -2.622  -1.493  -0.057  0.00  0.00     0.120 A 
ATOM     15  O   UNL d   1       3.987   1.177  -0.034  0.00  0.00    -0.266 OA
ATOM     16  F   UNL d   1      -3.099   2.074   0.056  0.00  0.00    -0.204 F 
ATOM     17  F   UNL d   1      -3.360  -2.610  -0.072  0.00  0.00    -0.206 F 
ATOM     18  H   UNL d   1       1.580  -2.251   0.585  0.00  0.00     0.153 HD
ATOM     19  H   UNL d   1       3.927  -1.497  -0.248  0.00  0.00     0.184 HD
ENDROOT
TORSDOF 0
