REMARK  6 active torsions:
REMARK  status: ('A' for Active; 'I' for Inactive)
REMARK    1  A    between atoms: N_2  and  C_1 
REMARK    2  A    between atoms: C_4  and  C_1 
REMARK    3  A    between atoms: N_3  and  C_6 
REMARK    4  A    between atoms: O_15  and  C_4 
REMARK    5  A    between atoms: C_12  and  C_5 
REMARK    6  A    between atoms: C_18  and  O_15 
ROOT
ATOM      1  C   UNL d   1       0.998  -0.021  -0.314  0.00  0.00     0.178 C 
ATOM      2  C   UNL d   1       2.330   0.099  -0.170  0.00  0.00     0.053 C 
ENDROOT
BRANCH   2   3
ATOM      3  C   UNL d   1       3.227   0.660  -1.182  0.00  0.00    -0.034 A 
ATOM      4  C   UNL d   1       3.543   2.024  -1.156  0.00  0.00     0.014 A 
ATOM      5  C   UNL d   1       4.401   2.567  -2.116  0.00  0.00     0.037 A 
ATOM      6  C   UNL d   1       4.945   1.739  -3.106  0.00  0.00     0.102 A 
ATOM      7  C   UNL d   1       4.634   0.373  -3.139  0.00  0.00     0.037 A 
ATOM      8  C   UNL d   1       3.775  -0.162  -2.174  0.00  0.00     0.014 A 
BRANCH   6   9
ATOM      9  N   UNL d   1       5.853   2.301  -4.114  0.00  0.00    -0.116 N 
ATOM     10  O   UNL d   1       6.098   3.516  -4.050  0.00  0.00    -0.532 OA
ATOM     11  O   UNL d   1       6.326   1.533  -4.959  0.00  0.00    -0.532 OA
ENDBRANCH   6   9
ENDBRANCH   2   3
BRANCH   1  12
ATOM     12  N   UNL d   1       0.287  -0.531   0.828  0.00  0.00    -0.109 N 
ATOM     13  O   UNL d   1       0.487   0.024   1.921  0.00  0.00    -0.532 OA
ATOM     14  O   UNL d   1      -0.442  -1.512   0.647  0.00  0.00    -0.532 OA
ENDBRANCH   1  12
BRANCH   1  15
ATOM     15  C   UNL d   1       0.185   0.367  -1.479  0.00  0.00     0.316 C 
ATOM     16  O   UNL d   1       0.578   0.308  -2.636  0.00  0.00    -0.257 OA
BRANCH  15  17
ATOM     17  O   UNL d   1      -0.981   0.937  -1.079  0.00  0.00    -0.317 OA
BRANCH  17  18
ATOM     18  C   UNL d   1      -1.672   1.728  -2.059  0.00  0.00     0.175 C 
ATOM     19  C   UNL d   1      -2.778   0.946  -2.737  0.00  0.00     0.034 C 
ENDBRANCH  17  18
ENDBRANCH  15  17
ENDBRANCH   1  15
TORSDOF 6
