REMARK  2 active torsions:
REMARK  status: ('A' for Active; 'I' for Inactive)
REMARK    1  A    between atoms: C_7  and  N_1 
REMARK    2  A    between atoms: C_10  and  C_11 
ROOT
ATOM      1  N   UNL d   1       2.385  -0.603   0.118  0.00  0.00    -0.254 N 
ATOM      2  C   UNL d   1       1.198  -1.320   0.329  0.00  0.00     0.186 A 
ATOM      3  C   UNL d   1       2.433   0.805   0.025  0.00  0.00     0.267 A 
ATOM      4  C   UNL d   1       1.164   1.530   0.202  0.00  0.00     0.059 A 
ATOM      5  N   UNL d   1       0.047  -0.583   0.452  0.00  0.00    -0.332 N 
ATOM      6  C   UNL d   1       0.003   0.807   0.421  0.00  0.00     0.050 A 
ATOM      7  S   UNL d   1       1.008  -2.981   0.529  0.00  0.00    -0.040 SA
ATOM      8  O   UNL d   1       3.440   1.471  -0.224  0.00  0.00    -0.267 OA
ATOM      9  C   UNL d   1       1.124   2.929   0.162  0.00  0.00     0.019 A 
ATOM     10  C   UNL d   1      -1.209   1.468   0.630  0.00  0.00     0.030 A 
ATOM     11  C   UNL d   1      -0.083   3.594   0.373  0.00  0.00     0.001 A 
ATOM     12  C   UNL d   1      -1.248   2.864   0.611  0.00  0.00     0.002 A 
ATOM     13  H   UNL d   1      -0.801  -1.107   0.627  0.00  0.00     0.168 HD
ENDROOT
BRANCH   1  14
ATOM     14  C   UNL d   1       3.641  -1.272  -0.032  0.00  0.00     0.045 A 
ATOM     15  C   UNL d   1       4.693  -0.985   0.843  0.00  0.00     0.031 A 
ATOM     16  C   UNL d   1       5.957  -1.544   0.640  0.00  0.00     0.010 A 
ATOM     17  C   UNL d   1       6.222  -2.376  -0.463  0.00  0.00    -0.051 A 
ATOM     18  C   UNL d   1       5.141  -2.688  -1.307  0.00  0.00     0.010 A 
ATOM     19  C   UNL d   1       3.868  -2.146  -1.096  0.00  0.00     0.031 A 
BRANCH  17  20
ATOM     20  C   UNL d   1       7.659  -2.848  -0.747  0.00  0.00    -0.024 C 
ATOM     21  C   UNL d   1       7.786  -3.679  -2.043  0.00  0.00     0.019 C 
ATOM     22  C   UNL d   1       8.578  -1.614  -0.906  0.00  0.00     0.019 C 
ATOM     23  C   UNL d   1       8.185  -3.716   0.413  0.00  0.00     0.019 C 
ENDBRANCH  17  20
ENDBRANCH   1  14
TORSDOF 2
