REMARK  3 active torsions:
REMARK  status: ('A' for Active; 'I' for Inactive)
REMARK    1  A    between atoms: C_12  and  C_3 
REMARK    2  A    between atoms: C_8  and  C_4 
REMARK    3  A    between atoms: C_6  and  C_11 
ROOT
ATOM      1  N   UNL d   1       1.432  -0.596  -0.088  0.00  0.00    -0.349 N 
ATOM      2  HN  UNL d   1       2.313  -1.106  -0.151  1.00  0.00     0.166 HD
ATOM      3  C   UNL d   1       0.237  -1.158  -0.045  0.00  0.00     0.084 A 
ATOM      4  C   UNL d   1       1.318   0.785  -0.035  0.00  0.00     0.050 A 
ATOM      5  S   UNL d   1      -1.080  -0.041  -0.055  0.00  0.00    -0.081 SA
ATOM      6  C   UNL d   1       0.023   1.262  -0.027  0.00  0.00     0.082 A 
ENDROOT
BRANCH   3   7
ATOM      7  C   UNL d   1      -0.008  -2.611  -0.024  0.00  0.00    -0.002 A 
ATOM      8  C   UNL d   1      -1.158  -3.162   0.564  0.00  0.00     0.015 A 
ATOM      9  C   UNL d   1      -1.377  -4.542   0.568  0.00  0.00     0.017 A 
ATOM     10  C   UNL d   1      -0.447  -5.412  -0.011  0.00  0.00     0.048 A 
ATOM     11  C   UNL d   1       0.716  -4.872  -0.583  0.00  0.00     0.017 A 
ATOM     12  C   UNL d   1       0.932  -3.489  -0.584  0.00  0.00     0.015 A 
BRANCH  10  13
ATOM     13  C   UNL d   1      -0.691  -6.901  -0.024  0.00  0.00     0.417 C 
ATOM     14  F   UNL d   1      -1.864  -7.262   0.568  0.00  0.00    -0.166 F 
ATOM     15  F   UNL d   1      -0.741  -7.410  -1.286  0.00  0.00    -0.166 F 
ATOM     16  F   UNL d   1       0.283  -7.598   0.625  0.00  0.00    -0.166 F 
ENDBRANCH  10  13
ENDBRANCH   3   7
BRANCH   4  17
ATOM     17  C   UNL d   1       2.493   1.645  -0.012  0.00  0.00    -0.007 A 
ATOM     18  C   UNL d   1       3.674   1.223  -0.640  0.00  0.00     0.039 A 
ATOM     19  C   UNL d   1       4.809   2.041  -0.646  0.00  0.00     0.056 A 
ATOM     20 CL   UNL d   1       6.216   1.460  -1.464  0.00  0.00    -0.083 Cl
ATOM     21  C   UNL d   1       4.776   3.287  -0.009  0.00  0.00     0.055 A 
ATOM     22  C   UNL d   1       3.609   3.707   0.632  0.00  0.00     0.026 A 
ATOM     23 CL   UNL d   1       6.136   4.350   0.028  0.00  0.00    -0.083 Cl
ATOM     24  C   UNL d   1       2.475   2.891   0.631  0.00  0.00     0.015 A 
ENDBRANCH   4  17
TORSDOF 3
