REMARK  4 active torsions:
REMARK  status: ('A' for Active; 'I' for Inactive)
REMARK    1  A    between atoms: N_5  and  S_1 
REMARK    2  A    between atoms: C_7  and  S_1 
REMARK    3  A    between atoms: C_2  and  C_11 
REMARK    4  A    between atoms: C_11  and  N_5 
ROOT
ATOM      1  N   UNL d   1       0.489   0.871   1.400  0.00  0.00    -0.211 NA
ATOM      2  H   UNL d   1      -0.513   1.050   1.361  0.00  0.00     0.140 HD
ENDROOT
BRANCH   1   3
ATOM      3  S   UNL d   1       1.055   0.084   0.020  0.00  0.00     0.241 S 
ATOM      4  O   UNL d   1       2.350  -0.489   0.309  0.00  0.00    -0.206 OA
ATOM      5  O   UNL d   1       0.852   0.992  -1.089  0.00  0.00    -0.206 OA
BRANCH   3   6
ATOM      6  C   UNL d   1      -0.104  -1.255  -0.181  0.00  0.00     0.074 A 
ATOM      7  C   UNL d   1      -1.181  -1.099  -1.059  0.00  0.00     0.025 A 
ATOM      8  C   UNL d   1      -2.027  -2.180  -1.315  0.00  0.00     0.008 A 
ATOM      9  C   UNL d   1      -1.802  -3.420  -0.701  0.00  0.00    -0.062 A 
ATOM     10  C   UNL d   1      -0.723  -3.562   0.181  0.00  0.00     0.008 A 
ATOM     11  C   UNL d   1      -2.689  -4.585  -1.034  0.00  0.00     0.048 C 
ATOM     12  C   UNL d   1       0.133  -2.486   0.435  0.00  0.00     0.025 A 
ENDBRANCH   3   6
ENDBRANCH   1   3
BRANCH   1  13
ATOM     13  C   UNL d   1       0.956   0.327   2.675  0.00  0.00     0.144 C 
BRANCH  13  14
ATOM     14  C   UNL d   1       0.413   1.181   3.784  0.00  0.00    -0.026 A 
ATOM     15  C   UNL d   1       1.020   2.341   4.227  0.00  0.00     0.059 A 
ATOM     16  S   UNL d   1       0.239   3.027   5.574  0.00  0.00    -0.101 SA
ATOM     17  C   UNL d   1      -0.962   1.797   5.595  0.00  0.00     0.015 A 
ATOM     18  C   UNL d   1      -0.779   0.883   4.553  0.00  0.00    -0.011 A 
ATOM     19  C   UNL d   1      -2.020   1.669   6.518  0.00  0.00     0.019 A 
ATOM     20  C   UNL d   1      -1.725  -0.168   4.426  0.00  0.00     0.013 A 
ATOM     21  C   UNL d   1      -2.784  -0.290   5.331  0.00  0.00     0.001 A 
ATOM     22  C   UNL d   1      -2.922   0.614   6.373  0.00  0.00     0.001 A 
ENDBRANCH  13  14
ENDBRANCH   1  13
TORSDOF 4
