REMARK  8 active torsions:
REMARK  status: ('A' for Active; 'I' for Inactive)
REMARK    1  A    between atoms: C_8  and  N_1 
REMARK       I    between atoms: C_9  and  N_1 
REMARK    2  A    between atoms: C_2  and  C_10 
REMARK    3  A    between atoms: C_3  and  C_11 
REMARK    4  A    between atoms: C_4  and  C_12 
REMARK    5  A    between atoms: C_5  and  C_13 
REMARK    6  A    between atoms: C_6  and  C_8 
REMARK    7  A    between atoms: C_7  and  C_8 
REMARK    8  A    between atoms: C_20  and  C_9 
ROOT
ATOM      1  C   UNL d   1       0.404  -0.426   1.127  0.00  0.00     0.151 C 
ENDROOT
BRANCH   1   2
ATOM      2  C   UNL d   1       0.846   0.423   2.317  0.00  0.00    -0.029 A 
ATOM      3  C   UNL d   1       0.862  -0.147   3.603  0.00  0.00     0.025 A 
ATOM      4  C   UNL d   1       1.383   0.549   4.706  0.00  0.00     0.049 A 
ATOM      5  C   UNL d   1       1.866   1.855   4.520  0.00  0.00     0.032 A 
ATOM      6  C   UNL d   1       1.840   2.460   3.254  0.00  0.00     0.049 A 
ATOM      7  C   UNL d   1       1.316   1.740   2.168  0.00  0.00     0.025 A 
BRANCH   4   8
ATOM      8  C   UNL d   1       1.483  -0.105   6.066  0.00  0.00     0.417 C 
ATOM      9  F   UNL d   1       1.004  -1.380   6.094  0.00  0.00    -0.166 F 
ATOM     10  F   UNL d   1       2.768  -0.178   6.508  0.00  0.00    -0.166 F 
ATOM     11  F   UNL d   1       0.795   0.576   7.023  0.00  0.00    -0.166 F 
ENDBRANCH   4   8
BRANCH   6  12
ATOM     12  C   UNL d   1       2.417   3.843   3.057  0.00  0.00     0.417 C 
ATOM     13  F   UNL d   1       2.360   4.269   1.763  0.00  0.00    -0.166 F 
ATOM     14  F   UNL d   1       1.773   4.789   3.791  0.00  0.00    -0.166 F 
ATOM     15  F   UNL d   1       3.728   3.913   3.413  0.00  0.00    -0.166 F 
ENDBRANCH   6  12
ENDBRANCH   1   2
BRANCH   1  16
ATOM     16  C   UNL d   1      -1.084  -0.382   0.806  0.00  0.00    -0.029 A 
ATOM     17  C   UNL d   1      -1.759   0.822   0.547  0.00  0.00     0.025 A 
ATOM     18  C   UNL d   1      -3.098   0.828   0.120  0.00  0.00     0.049 A 
ATOM     19  C   UNL d   1      -3.769  -0.396  -0.037  0.00  0.00     0.032 A 
ATOM     20  C   UNL d   1      -3.120  -1.614   0.215  0.00  0.00     0.049 A 
ATOM     21  C   UNL d   1      -1.783  -1.592   0.639  0.00  0.00     0.025 A 
BRANCH  18  22
ATOM     22  C   UNL d   1      -3.803   2.124  -0.210  0.00  0.00     0.417 C 
ATOM     23  F   UNL d   1      -3.010   3.222  -0.064  0.00  0.00    -0.166 F 
ATOM     24  F   UNL d   1      -4.246   2.156  -1.498  0.00  0.00    -0.166 F 
ATOM     25  F   UNL d   1      -4.895   2.340   0.571  0.00  0.00    -0.166 F 
ENDBRANCH  18  22
BRANCH  20  26
ATOM     26  C   UNL d   1      -3.842  -2.922  -0.019  0.00  0.00     0.417 C 
ATOM     27  F   UNL d   1      -3.086  -4.020   0.257  0.00  0.00    -0.166 F 
ATOM     28  F   UNL d   1      -4.966  -3.039   0.739  0.00  0.00    -0.166 F 
ATOM     29  F   UNL d   1      -4.245  -3.061  -1.312  0.00  0.00    -0.166 F 
ENDBRANCH  20  26
ENDBRANCH   1  16
BRANCH   1  30
ATOM     30  N   UNL d   1       1.156  -0.085  -0.071  0.00  0.00    -0.344 N 
ATOM     31  C   UNL d   1       2.068  -0.944  -0.630  0.00  0.00     0.252 C 
ATOM     32  O   UNL d   1       2.285  -2.076  -0.217  0.00  0.00    -0.268 OA
ATOM     33  H   UNL d   1       0.894   0.753  -0.568  0.00  0.00     0.163 HD
BRANCH  31  34
ATOM     34  C   UNL d   1       2.792  -0.437  -1.827  0.00  0.00     0.032 A 
ATOM     35  C   UNL d   1       3.113   0.920  -1.974  0.00  0.00     0.018 A 
ATOM     36  C   UNL d   1       3.814   1.352  -3.102  0.00  0.00     0.025 A 
ATOM     37  C   UNL d   1       4.200   0.430  -4.077  0.00  0.00     0.034 A 
ATOM     38  C   UNL d   1       3.895  -0.922  -3.931  0.00  0.00     0.025 A 
ATOM     39 CL   UNL d   1       5.071   0.966  -5.460  0.00  0.00    -0.084 Cl
ATOM     40  C   UNL d   1       3.195  -1.357  -2.804  0.00  0.00     0.018 A 
ENDBRANCH  31  34
ENDBRANCH   1  30
TORSDOF 8
