REMARK  10 active torsions:
REMARK  status: ('A' for Active; 'I' for Inactive)
REMARK    1  A    between atoms: C_7  and  C_1 
REMARK    2  A    between atoms: C_10  and  C_2 
REMARK    3  A    between atoms: O_18  and  C_7 
REMARK    4  A    between atoms: C_9  and  C_8 
REMARK    5  A    between atoms: O_19  and  C_9 
REMARK    6  A    between atoms: C_17  and  C_10 
REMARK    7  A    between atoms: C_11  and  C_17 
REMARK    8  A    between atoms: O_20  and  C_11 
REMARK    9  A    between atoms: C_21  and  O_18 
REMARK   10  A    between atoms: C_22  and  O_19 
ROOT
ATOM      1  C   UNL d   1      -2.427  -0.221  -0.061  0.00  0.00     0.116 A 
ATOM      2  C   UNL d   1      -1.583  -1.329  -0.074  0.00  0.00    -0.012 A 
ATOM      3  N   UNL d   1      -1.619   0.895   0.004  0.00  0.00    -0.350 N 
ATOM      4  C   UNL d   1      -0.236  -0.835  -0.061  0.00  0.00     0.000 A 
ATOM      5  C   UNL d   1      -0.293   0.555  -0.015  0.00  0.00     0.043 A 
ATOM      6  C   UNL d   1       1.030  -1.451  -0.076  0.00  0.00     0.032 A 
ATOM      7  C   UNL d   1       2.191  -0.663  -0.022  0.00  0.00     0.040 A 
ATOM      8  C   UNL d   1       0.846   1.367   0.004  0.00  0.00     0.031 A 
ATOM      9  C   UNL d   1       2.093   0.732   0.003  0.00  0.00     0.020 A 
ATOM     10  H   UNL d   1      -1.977   1.841   0.032  0.00  0.00     0.166 HD
ENDROOT
BRANCH   2  11
ATOM     11  C   UNL d   1      -1.972  -2.783  -0.111  0.00  0.00     0.052 C 
BRANCH  11  12
ATOM     12  C   UNL d   1      -1.654  -3.498   1.202  0.00  0.00     0.115 C 
BRANCH  12  13
ATOM     13  C   UNL d   1      -2.076  -4.945   1.157  0.00  0.00     0.139 C 
ATOM     14  O   UNL d   1      -2.650  -5.488   0.229  0.00  0.00    -0.650 OA
BRANCH  13  15
ATOM     15  O   UNL d   1      -1.739  -5.610   2.288  0.00  0.00    -0.776 OA
ATOM     16  H   UNL d   1      -1.271  -5.062   2.945  0.00  0.00     0.167 HD
ENDBRANCH  13  15
ENDBRANCH  12  13
ENDBRANCH  11  12
ENDBRANCH   2  11
BRANCH   1  17
ATOM     17  C   UNL d   1      -3.869  -0.135  -0.137  0.00  0.00     0.310 C 
ATOM     18  O   UNL d   1      -4.636  -1.057  -0.366  0.00  0.00    -0.258 OA
BRANCH  17  19
ATOM     19  O   UNL d   1      -4.239   1.166   0.048  0.00  0.00    -0.317 OA
BRANCH  19  20
ATOM     20  C   UNL d   1      -5.610   1.482  -0.233  0.00  0.00     0.175 C 
ATOM     21  C   UNL d   1      -5.647   2.218  -1.558  0.00  0.00     0.034 C 
ENDBRANCH  19  20
ENDBRANCH  17  19
ENDBRANCH   1  17
BRANCH   7  22
ATOM     22  C   UNL d   1       3.491  -1.376   0.083  0.00  0.00     0.293 C 
ATOM     23  O   UNL d   1       3.584  -2.594   0.137  0.00  0.00    -0.259 OA
BRANCH  22  24
ATOM     24  O   UNL d   1       4.510  -0.492   0.211  0.00  0.00    -0.318 OA
BRANCH  24  25
ATOM     25  C   UNL d   1       5.765  -1.056   0.615  0.00  0.00     0.174 C 
ATOM     26  C   UNL d   1       5.834  -1.045   2.132  0.00  0.00     0.034 C 
ENDBRANCH  24  25
ENDBRANCH  22  24
ENDBRANCH   7  22
TORSDOF 10
