REMARK  3 active torsions:
REMARK  status: ('A' for Active; 'I' for Inactive)
REMARK    1  A    between atoms: C_7  and  C_1 
REMARK    2  A    between atoms: C_8  and  C_4 
REMARK    3  A    between atoms: S_9  and  C_5 
REMARK       I    between atoms: N_13  and  C_7 
ROOT
ATOM      1  C   UNL d   1       1.507  -0.798   0.011  0.00  0.00     0.095 A 
ATOM      2  N   UNL d   1       0.139   1.037   0.026  0.00  0.00    -0.296 N 
ATOM      3  HN  UNL d   1      -0.210   1.994   0.081  1.00  0.00     0.187 HD
ATOM      4  C   UNL d   1       1.417   0.635  -0.024  0.00  0.00     0.077 A 
ATOM      5  C   UNL d   1       0.188  -1.229  -0.015  0.00  0.00     0.104 A 
ATOM      6  N   UNL d   1      -0.585  -0.098  -0.014  0.00  0.00    -0.289 N 
ATOM      7  C   UNL d   1      -2.023   0.041  -0.052  0.00  0.00     0.178 C 
ENDROOT
BRANCH   4   8
ATOM      8  C   UNL d   1       2.490   1.635  -0.105  0.00  0.00    -0.007 A 
ATOM      9  C   UNL d   1       2.363   2.857   0.574  0.00  0.00     0.015 A 
ATOM     10  C   UNL d   1       3.405   3.790   0.570  0.00  0.00     0.024 A 
ATOM     11  C   UNL d   1       4.584   3.506  -0.114  0.00  0.00     0.034 A 
ATOM     12  C   UNL d   1       4.713   2.318  -0.829  0.00  0.00     0.024 A 
ATOM     13 CL   UNL d   1       5.890   4.624  -0.073  0.00  0.00    -0.084 Cl
ATOM     14  C   UNL d   1       3.660   1.397  -0.843  0.00  0.00     0.015 A 
ENDBRANCH   4   8
BRANCH   1  15
ATOM     15  C   UNL d   1       2.685  -1.644   0.019  0.00  0.00     0.254 C 
ATOM     16  O   UNL d   1       2.780  -2.700  -0.600  0.00  0.00    -0.268 OA
ATOM     17  N   UNL d   1       3.727  -1.218   0.791  0.00  0.00    -0.366 N 
ATOM     18  H   UNL d   1       3.720  -0.350   1.309  0.00  0.00     0.159 HD
ATOM     19  H   UNL d   1       4.575  -1.767   0.769  0.00  0.00     0.159 HD
ENDBRANCH   1  15
BRANCH   5  20
ATOM     20  S   UNL d   1      -0.529  -2.815  -0.109  0.00  0.00    -0.114 SA
ATOM     21  C   UNL d   1       0.181  -3.667   1.317  0.00  0.00     0.097 C 
ENDBRANCH   5  20
TORSDOF 3
