REMARK  2 active torsions:
REMARK  status: ('A' for Active; 'I' for Inactive)
REMARK    1  A    between atoms: C_11  and  C_9 
REMARK    2  A    between atoms: C_13  and  C_10 
ROOT
ATOM      1  N   UNL d   1      -0.288  -0.567  -0.012  0.00  0.00    -0.204 N 
ATOM      2  C   UNL d   1      -0.250   0.815  -0.005  0.00  0.00     0.133 A 
ATOM      3  N   UNL d   1      -1.559  -1.042  -0.016  0.00  0.00    -0.293 N 
ATOM      4  HN  UNL d   1      -1.860  -2.016  -0.025  1.00  0.00     0.187 HD
ATOM      5  C   UNL d   1       0.848  -1.394  -0.010  0.00  0.00     0.270 A 
ATOM      6  C   UNL d   1      -1.551   1.245  -0.003  0.00  0.00     0.077 A 
ATOM      7  C   UNL d   1       2.138  -0.654   0.003  0.00  0.00     0.106 A 
ATOM      8  N   UNL d   1       0.955   1.430   0.003  0.00  0.00    -0.340 N 
ATOM      9  C   UNL d   1      -2.333   0.054  -0.005  0.00  0.00     0.037 A 
ATOM     10  C   UNL d   1       2.124   0.691   0.010  0.00  0.00     0.049 A 
ATOM     11  O   UNL d   1       0.775  -2.616  -0.015  0.00  0.00    -0.266 OA
ATOM     12  H   UNL d   1       1.058   2.443   0.015  0.00  0.00     0.167 HD
ENDROOT
BRANCH  10  13
ATOM     13  C   UNL d   1       3.402   1.413   0.024  0.00  0.00    -0.009 A 
ATOM     14  C   UNL d   1       4.016   1.782  -1.179  0.00  0.00     0.013 A 
ATOM     15  C   UNL d   1       5.264   2.407  -1.168  0.00  0.00     0.001 A 
ATOM     16  C   UNL d   1       5.905   2.666   0.043  0.00  0.00     0.000 A 
ATOM     17  C   UNL d   1       5.293   2.312   1.245  0.00  0.00     0.001 A 
ATOM     18  C   UNL d   1       4.044   1.689   1.237  0.00  0.00     0.013 A 
ENDBRANCH  10  13
BRANCH   9  19
ATOM     19  C   UNL d   1      -3.852  -0.059   0.017  0.00  0.00    -0.007 C 
ATOM     20  C   UNL d   1      -4.327  -1.529  -0.000  0.00  0.00     0.021 C 
ATOM     21  C   UNL d   1      -4.407   0.605   1.293  0.00  0.00     0.021 C 
ATOM     22  C   UNL d   1      -4.456   0.646  -1.214  0.00  0.00     0.021 C 
ENDBRANCH   9  19
TORSDOF 2
