REMARK  9 active torsions:
REMARK  status: ('A' for Active; 'I' for Inactive)
REMARK    1  A    between atoms: N_2  and  C_1 
REMARK    2  A    between atoms: C_3  and  C_1 
REMARK    3  A    between atoms: N_4  and  C_1 
REMARK    4  A    between atoms: C_6  and  C_1 
REMARK       I    between atoms: C_5  and  N_2 
REMARK    5  A    between atoms: C_7  and  N_4 
REMARK       I    between atoms: N_8  and  C_5 
REMARK    6  A    between atoms: O_15  and  C_6 
REMARK    7  A    between atoms: C_16  and  N_8 
REMARK    8  A    between atoms: O_17  and  C_11 
REMARK    9  A    between atoms: C_20  and  O_15 
ROOT
ATOM      1  C   UNL d   1       1.382  -0.284  -0.302  0.00  0.00     0.298 C 
ENDROOT
BRANCH   1   2
ATOM      2  N   UNL d   1       1.021   0.789  -1.257  0.00  0.00    -0.300 N 
ATOM      3  C   UNL d   1       1.243   2.108  -1.079  0.00  0.00     0.323 C 
ATOM      4  N   UNL d   1       0.927   2.933  -2.124  0.00  0.00    -0.309 N 
ATOM      5  O   UNL d   1       1.786   2.586  -0.087  0.00  0.00    -0.247 OA
ATOM      6  H   UNL d   1       1.266   3.873  -1.948  0.00  0.00     0.170 HD
ATOM      7  H   UNL d   1       1.230   0.530  -2.210  0.00  0.00     0.167 HD
BRANCH   4   8
ATOM      8  C   UNL d   1       0.322   2.713  -3.381  0.00  0.00     0.036 A 
ATOM      9  C   UNL d   1      -0.413   1.576  -3.729  0.00  0.00     0.029 A 
ATOM     10  C   UNL d   1      -0.891   1.405  -5.033  0.00  0.00     0.002 A 
ATOM     11  C   UNL d   1      -0.675   2.388  -5.994  0.00  0.00     0.000 A 
ATOM     12  C   UNL d   1      -0.003   3.555  -5.644  0.00  0.00     0.002 A 
ATOM     13  C   UNL d   1       0.485   3.719  -4.344  0.00  0.00     0.029 A 
ENDBRANCH   4   8
ENDBRANCH   1   2
BRANCH   1  14
ATOM     14  C   UNL d   1       0.968  -1.680  -0.956  0.00  0.00     0.442 C 
ATOM     15  F   UNL d   1       0.269  -1.485  -2.111  0.00  0.00    -0.166 F 
ATOM     16  F   UNL d   1       1.997  -2.491  -1.286  0.00  0.00    -0.166 F 
ATOM     17  F   UNL d   1       0.151  -2.389  -0.132  0.00  0.00    -0.166 F 
ENDBRANCH   1  14
BRANCH   1  18
ATOM     18  N   UNL d   1       0.571  -0.091   0.938  0.00  0.00    -0.346 N 
ATOM     19  H   UNL d   1       0.205  -0.991   1.261  0.00  0.00     0.163 HD
BRANCH  18  20
ATOM     20  C   UNL d   1       0.828   0.666   2.081  0.00  0.00     0.064 A 
ATOM     21  C   UNL d   1      -0.259   1.162   2.845  0.00  0.00     0.094 A 
ATOM     22  C   UNL d   1      -0.062   1.730   4.115  0.00  0.00     0.039 A 
ATOM     23  C   UNL d   1       1.210   1.817   4.663  0.00  0.00     0.003 A 
ATOM     24  C   UNL d   1       2.289   1.334   3.939  0.00  0.00     0.002 A 
ATOM     25  C   UNL d   1       2.096   0.769   2.669  0.00  0.00     0.032 A 
BRANCH  21  26
ATOM     26  O   UNL d   1      -1.590   1.074   2.502  0.00  0.00    -0.354 OA
ATOM     27  C   UNL d   1      -1.893   1.298   1.130  0.00  0.00     0.210 C 
ENDBRANCH  21  26
ENDBRANCH  18  20
ENDBRANCH   1  18
BRANCH   1  28
ATOM     28  C   UNL d   1       2.900  -0.502  -0.169  0.00  0.00     0.318 C 
ATOM     29  O   UNL d   1       3.443  -1.237   0.648  0.00  0.00    -0.260 OA
BRANCH  28  30
ATOM     30  O   UNL d   1       3.563   0.090  -1.217  0.00  0.00    -0.318 OA
BRANCH  30  31
ATOM     31  C   UNL d   1       4.967  -0.187  -1.332  0.00  0.00     0.174 C 
ATOM     32  C   UNL d   1       5.169  -1.445  -2.159  0.00  0.00     0.034 C 
ENDBRANCH  30  31
ENDBRANCH  28  30
ENDBRANCH   1  28
TORSDOF 9
