REMARK  4 active torsions:
REMARK  status: ('A' for Active; 'I' for Inactive)
REMARK    1  A    between atoms: N_10  and  C_2 
REMARK    2  A    between atoms: C_6  and  C_5 
REMARK    3  A    between atoms: C_7  and  C_6 
REMARK       I    between atoms: N_8  and  C_7 
REMARK    4  A    between atoms: C_9  and  N_8 
ROOT
ATOM      1  C   UNL d   1      -2.673  -1.873  -1.287  0.00  0.00     0.223 C 
ATOM      2  N   UNL d   1      -3.526  -1.493  -0.260  0.00  0.00    -0.326 N 
ATOM      3  O   UNL d   1      -1.449  -1.903  -1.215  0.00  0.00    -0.273 OA
ATOM      4  H   UNL d   1      -4.496  -1.792  -0.312  0.00  0.00     0.169 HD
ENDROOT
BRANCH   1   5
ATOM      5  C   UNL d   1      -3.359  -2.239  -2.584  0.00  0.00     0.128 C 
BRANCH   5   6
ATOM      6  C   UNL d   1      -4.031  -3.596  -2.656  0.00  0.00     0.156 C 
ATOM      7  C   UNL d   1      -5.195  -3.786  -1.703  0.00  0.00     0.238 C 
ATOM      8  N   UNL d   1      -5.415  -5.112  -1.467  0.00  0.00    -0.307 N 
ATOM      9  O   UNL d   1      -5.850  -2.884  -1.203  0.00  0.00    -0.272 OA
ATOM     10  C   UNL d   1      -4.392  -5.944  -1.754  0.00  0.00     0.141 C 
ATOM     11  H   UNL d   1      -6.200  -5.404  -0.907  0.00  0.00     0.171 HD
ATOM     12  S   UNL d   1      -3.025  -5.089  -2.393  0.00  0.00    -0.079 SA
BRANCH  10  13
ATOM     13  N   UNL d   1      -4.426  -7.207  -1.572  0.00  0.00    -0.380 N 
ATOM     14  H   UNL d   1      -5.330  -7.504  -1.205  0.00  0.00     0.158 HD
ATOM     15  HN  UNL d   1      -3.649  -7.838  -1.767  1.00  0.00     0.158 HD
ENDBRANCH  10  13
ENDBRANCH   5   6
ENDBRANCH   1   5
BRANCH   2  16
ATOM     16  C   UNL d   1      -3.064  -0.988   0.985  0.00  0.00     0.045 A 
ATOM     17  C   UNL d   1      -3.719  -1.330   2.202  0.00  0.00     0.001 A 
ATOM     18  C   UNL d   1      -3.133  -0.893   3.421  0.00  0.00    -0.024 A 
ATOM     19  C   UNL d   1      -4.887  -2.127   2.296  0.00  0.00     0.014 A 
ATOM     20  C   UNL d   1      -3.677  -1.294   4.652  0.00  0.00     0.012 A 
ATOM     21  C   UNL d   1      -1.996  -0.073   3.406  0.00  0.00     0.012 A 
ATOM     22  C   UNL d   1      -4.811  -2.100   4.707  0.00  0.00     0.001 A 
ATOM     23  C   UNL d   1      -5.426  -2.503   3.530  0.00  0.00     0.001 A 
ATOM     24  C   UNL d   1      -1.417   0.320   2.205  0.00  0.00     0.003 A 
ATOM     25  C   UNL d   1      -1.941  -0.147   1.005  0.00  0.00     0.030 A 
ENDBRANCH   2  16
TORSDOF 4
