REMARK  7 active torsions:
REMARK  status: ('A' for Active; 'I' for Inactive)
REMARK    1  A    between atoms: CA_3  and  C_1 
REMARK    2  A    between atoms: OXT_11  and  C_1 
REMARK    3  A    between atoms: O_13  and  C_2 
REMARK    4  A    between atoms: C_7  and  CA_3 
REMARK    5  A    between atoms: N_10  and  CA_3 
REMARK    6  A    between atoms: O_14  and  C_4 
REMARK    7  A    between atoms: C_6  and  C_7 
ROOT
ATOM      1  C   UNL d   1      -2.067  -1.966   1.526  0.00  0.00     0.101 A 
ATOM      2  C   UNL d   1      -3.413  -1.645   1.735  0.00  0.00     0.099 A 
ATOM      3  C   UNL d   1      -1.149  -0.934   1.302  0.00  0.00     0.046 A 
ATOM      4  C   UNL d   1      -1.573   0.405   1.258  0.00  0.00    -0.053 A 
ATOM      5  C   UNL d   1      -3.846  -0.320   1.698  0.00  0.00     0.040 A 
ATOM      6  C   UNL d   1      -2.927   0.702   1.459  0.00  0.00     0.010 A 
ENDROOT
BRANCH   4   7
ATOM      7  C   UNL d   1      -0.573   1.502   0.975  0.00  0.00     0.085 C 
BRANCH   7   8
ATOM      8  CA  UNL d   1      -0.316   1.705  -0.527  0.00  0.00     0.318 C 
BRANCH   8   9
ATOM      9  C   UNL d   1       0.779   2.764  -0.721  0.00  0.00     0.174 C 
ATOM     10  O   UNL d   1       1.854   2.784  -0.140  0.00  0.00    -0.648 OA
BRANCH   9  11
ATOM     11  OXT UNL d   1       0.411   3.689  -1.646  0.00  0.00    -0.775 OA
ATOM     12  HXT UNL d   1      -0.485   3.405  -1.960  0.00  0.00     0.167 HD
ENDBRANCH   9  11
ENDBRANCH   8   9
BRANCH   8  13
ATOM     13  N   UNL d   1      -1.537   2.150  -1.280  0.00  0.00     0.093 N 
ATOM     14  H1  UNL d   1      -2.113   2.712  -0.645  0.00  0.00     0.314 HD
ATOM     15  H2  UNL d   1      -2.108   1.311  -1.435  0.00  0.00     0.314 HD
ENDBRANCH   8  13
ENDBRANCH   7   8
ENDBRANCH   4   7
BRANCH   1  16
ATOM     16  O   UNL d   1      -1.724  -3.291   1.600  0.00  0.00    -0.353 OA
ATOM     17  C   UNL d   1      -0.602  -3.683   0.819  0.00  0.00     0.210 C 
ENDBRANCH   1  16
BRANCH   2  18
ATOM     18  O   UNL d   1      -4.314  -2.650   1.962  0.00  0.00    -0.358 OA
ATOM     19  H   UNL d   1      -5.182  -2.264   2.152  0.00  0.00     0.217 HD
ENDBRANCH   2  18
TORSDOF 7
