REMARK  5 active torsions:
REMARK  status: ('A' for Active; 'I' for Inactive)
REMARK    1  A    between atoms: C_13  and  C_5 
REMARK    2  A    between atoms: N_7  and  C_9 
REMARK    3  A    between atoms: N_8  and  C_14 
REMARK       I    between atoms: N_23  and  C_13 
REMARK    4  A    between atoms: C_26  and  N_23 
REMARK    5  A    between atoms: C_24  and  C_26 
ROOT
ATOM      1  C   UNL d   1      -0.751   0.770   0.040  0.00  0.00     0.005 A 
ATOM      2  C   UNL d   1      -1.174  -0.580  -0.016  0.00  0.00     0.029 A 
ATOM      3  C   UNL d   1       1.180  -0.545  -0.148  0.00  0.00     0.028 A 
ATOM      4  C   UNL d   1       0.711   0.782  -0.058  0.00  0.00    -0.010 A 
ATOM      5  C   UNL d   1      -1.737   1.747   0.184  0.00  0.00     0.046 A 
ATOM      6  C   UNL d   1       0.014  -1.439  -0.143  0.00  0.00     0.194 A 
ATOM      7  C   UNL d   1      -3.449  -0.021   0.232  0.00  0.00     0.104 A 
ATOM      8  C   UNL d   1      -2.489  -1.009   0.050  0.00  0.00     0.052 A 
ATOM      9  C   UNL d   1      -3.079   1.336   0.338  0.00  0.00     0.054 A 
ATOM     10  C   UNL d   1       2.513  -0.914  -0.215  0.00  0.00     0.052 A 
ATOM     11  C   UNL d   1       3.442   0.125  -0.194  0.00  0.00     0.103 A 
ATOM     12  C   UNL d   1       1.652   1.800  -0.059  0.00  0.00     0.016 A 
ATOM     13  O   UNL d   1       0.024  -2.647  -0.225  0.00  0.00    -0.287 OA
ATOM     14  C   UNL d   1       3.021   1.471  -0.123  0.00  0.00     0.037 A 
ENDROOT
BRANCH   5  15
ATOM     15  C   UNL d   1      -1.444   3.197   0.269  0.00  0.00     0.252 C 
ATOM     16  O   UNL d   1      -0.592   3.593   1.056  0.00  0.00    -0.268 OA
ATOM     17  N   UNL d   1      -2.142   4.096  -0.504  0.00  0.00    -0.353 N 
ATOM     18  H   UNL d   1      -1.925   5.061  -0.280  0.00  0.00     0.163 HD
BRANCH  17  19
ATOM     19  C   UNL d   1      -3.244   3.858  -1.414  0.00  0.00     0.149 C 
BRANCH  19  20
ATOM     20  C   UNL d   1      -3.428   5.055  -2.286  0.00  0.00    -0.018 C 
ATOM     21  C   UNL d   1      -4.551   5.787  -2.324  0.00  0.00     0.008 C 
ENDBRANCH  19  20
ENDBRANCH  17  19
ENDBRANCH   5  15
BRANCH   7  22
ATOM     22  N   UNL d   1      -4.870  -0.382   0.290  0.00  0.00    -0.116 N 
ATOM     23  O   UNL d   1      -5.155  -1.585   0.340  0.00  0.00    -0.532 OA
ATOM     24  O   UNL d   1      -5.694   0.542   0.267  0.00  0.00    -0.532 OA
ENDBRANCH   7  22
BRANCH  11  25
ATOM     25  N   UNL d   1       4.876  -0.191  -0.242  0.00  0.00    -0.116 N 
ATOM     26  O   UNL d   1       5.202  -1.384  -0.285  0.00  0.00    -0.532 OA
ATOM     27  O   UNL d   1       5.674   0.759  -0.237  0.00  0.00    -0.532 OA
ENDBRANCH  11  25
TORSDOF 5
