REMARK  4 active torsions:
REMARK  status: ('A' for Active; 'I' for Inactive)
REMARK    1  A    between atoms: C_8  and  N_3 
REMARK    2  A    between atoms: C_10  and  C_4 
REMARK    3  A    between atoms: C_7  and  C_5 
REMARK    4  A    between atoms: N_11  and  C_9 
ROOT
ATOM      1  N   UNL d   1       1.155  -0.190   0.074  0.00  0.00    -0.301 N 
ATOM      2  HN  UNL d   1       2.153  -0.382   0.159  1.00  0.00     0.187 HD
ATOM      3  N   UNL d   1       0.150  -1.116   0.050  0.00  0.00    -0.283 N 
ATOM      4  C   UNL d   1       0.601   0.980  -0.030  0.00  0.00     0.038 A 
ATOM      5  C   UNL d   1      -1.187  -0.528  -0.047  0.00  0.00     0.147 A 
ATOM      6  C   UNL d   1      -0.902   0.973  -0.103  0.00  0.00     0.091 A 
ENDROOT
BRANCH   5   7
ATOM      7  C   UNL d   1      -2.079  -0.877   1.134  0.00  0.00    -0.033 A 
ATOM      8  C   UNL d   1      -1.567  -1.092   2.418  0.00  0.00     0.011 A 
ATOM      9  C   UNL d   1      -2.415  -1.381   3.497  0.00  0.00     0.030 A 
ATOM     10  C   UNL d   1      -3.811  -1.442   3.360  0.00  0.00     0.029 A 
ATOM     11  C   UNL d   1      -4.304  -1.220   2.062  0.00  0.00     0.030 A 
ATOM     12  C   UNL d   1      -3.465  -0.948   0.969  0.00  0.00     0.011 A 
BRANCH  10  13
ATOM     13  N   UNL d   1      -4.667  -1.626   4.441  0.00  0.00    -0.390 N 
ATOM     14  C   UNL d   1      -5.914  -2.371   4.282  0.00  0.00     0.149 C 
ATOM     15  C   UNL d   1      -4.167  -1.575   5.813  0.00  0.00     0.149 C 
ENDBRANCH  10  13
ENDBRANCH   5   7
BRANCH   3  16
ATOM     16  C   UNL d   1       0.425  -2.480   0.028  0.00  0.00     0.051 A 
ATOM     17  C   UNL d   1       1.622  -2.978   0.569  0.00  0.00     0.031 A 
ATOM     18  C   UNL d   1       1.896  -4.349   0.606  0.00  0.00     0.002 A 
ATOM     19  C   UNL d   1       0.987  -5.254   0.073  0.00  0.00     0.000 A 
ATOM     20  C   UNL d   1      -0.196  -4.789  -0.492  0.00  0.00     0.002 A 
ATOM     21  C   UNL d   1      -0.472  -3.418  -0.507  0.00  0.00     0.031 A 
ENDBRANCH   3  16
BRANCH   4  22
ATOM     22  C   UNL d   1       1.373   2.242  -0.107  0.00  0.00    -0.012 A 
ATOM     23  C   UNL d   1       2.770   2.193  -0.067  0.00  0.00     0.013 A 
ATOM     24  C   UNL d   1       3.523   3.365  -0.175  0.00  0.00     0.001 A 
ATOM     25  C   UNL d   1       2.878   4.595  -0.322  0.00  0.00     0.000 A 
ATOM     26  C   UNL d   1       1.488   4.652  -0.360  0.00  0.00     0.001 A 
ATOM     27  C   UNL d   1       0.732   3.482  -0.250  0.00  0.00     0.013 A 
ENDBRANCH   4  22
TORSDOF 4
