REMARK  11 active torsions:
REMARK  status: ('A' for Active; 'I' for Inactive)
REMARK    1  A    between atoms: C_4  and  C_1 
REMARK    2  A    between atoms: C_2  and  C_6 
REMARK       I    between atoms: C_3  and  N_5 
REMARK    3  A    between atoms: C_9  and  C_3 
REMARK    4  A    between atoms: N_5  and  C_10 
REMARK    5  A    between atoms: O_24  and  C_12 
REMARK    6  A    between atoms: S_13  and  C_25 
REMARK    7  A    between atoms: C_15  and  S_13 
REMARK    8  A    between atoms: C_28  and  O_24 
REMARK    9  A    between atoms: C_25  and  C_26 
REMARK   10  A    between atoms: C_26  and  C_28 
REMARK   11  A    between atoms: O_29  and  C_26 
ROOT
ATOM      1  C   UNL d   1      -1.745   9.069   2.013  0.00  0.00     0.051 A 
ATOM      2  C   UNL d   1      -2.568   8.018   2.472  0.00  0.00     0.027 A 
ATOM      3  C   UNL d   1      -2.153   9.823   0.897  0.00  0.00     0.031 A 
ATOM      4  C   UNL d   1      -3.718   7.690   1.730  0.00  0.00     0.021 A 
ATOM      5  C   UNL d   1      -3.301   9.488   0.180  0.00  0.00     0.002 A 
ATOM      6  C   UNL d   1      -4.074   8.408   0.586  0.00  0.00     0.002 A 
ENDROOT
BRANCH   2   7
ATOM      7  S   UNL d   1      -2.333   7.112   4.006  0.00  0.00    -0.125 SA
BRANCH   7   8
ATOM      8  C   UNL d   1      -3.559   7.949   5.088  0.00  0.00     0.113 C 
BRANCH   8   9
ATOM      9  C   UNL d   1      -2.918   8.596   6.332  0.00  0.00     0.152 C 
BRANCH   9  10
ATOM     10  C   UNL d   1      -1.863   9.687   6.063  0.00  0.00     0.209 C 
BRANCH  10  11
ATOM     11  O   UNL d   1      -2.311  11.009   6.405  0.00  0.00    -0.333 OA
BRANCH  11  12
ATOM     12  C   UNL d   1      -2.988  11.656   5.398  0.00  0.00     0.141 A 
ATOM     13  C   UNL d   1      -3.130  13.029   5.506  0.00  0.00     0.057 A 
ATOM     14  C   UNL d   1      -3.867  13.695   4.527  0.00  0.00     0.022 A 
ATOM     15  C   UNL d   1      -4.460  12.970   3.487  0.00  0.00     0.063 A 
ATOM     16  C   UNL d   1      -4.251  11.601   3.471  0.00  0.00     0.106 A 
ATOM     17  N   UNL d   1      -3.527  10.937   4.398  0.00  0.00    -0.346 N 
ATOM     18  HN  UNL d   1      -3.393   9.927   4.340  1.00  0.00     0.167 HD
BRANCH  15  19
ATOM     19  C   UNL d   1      -5.271  13.624   2.414  0.00  0.00     0.418 C 
ATOM     20  F   UNL d   1      -6.057  12.750   1.723  0.00  0.00    -0.166 F 
ATOM     21  F   UNL d   1      -4.493  14.239   1.481  0.00  0.00    -0.166 F 
ATOM     22  F   UNL d   1      -6.111  14.580   2.893  0.00  0.00    -0.166 F 
ENDBRANCH  15  19
ENDBRANCH  11  12
ENDBRANCH  10  11
ENDBRANCH   9  10
BRANCH   9  23
ATOM     23  O   UNL d   1      -2.318   7.548   7.123  0.00  0.00    -0.393 OA
ATOM     24  H   UNL d   1      -1.768   7.021   6.510  0.00  0.00     0.210 HD
ENDBRANCH   9  23
ENDBRANCH   8   9
ENDBRANCH   7   8
ENDBRANCH   2   7
BRANCH   1  25
ATOM     25  N   UNL d   1      -0.514   9.478   2.585  0.00  0.00    -0.322 N 
ATOM     26  C   UNL d   1       0.493   8.620   2.990  0.00  0.00     0.256 C 
ATOM     27  O   UNL d   1       0.483   7.398   2.923  0.00  0.00    -0.267 OA
ATOM     28  H   UNL d   1      -0.203  10.402   2.317  0.00  0.00     0.169 HD
BRANCH  26  29
ATOM     29  C   UNL d   1       1.759   9.294   3.405  0.00  0.00     0.033 A 
ATOM     30  C   UNL d   1       1.778  10.557   4.014  0.00  0.00     0.033 A 
ATOM     31  C   UNL d   1       3.003  11.170   4.336  0.00  0.00     0.048 A 
ATOM     32  C   UNL d   1       4.201  10.497   4.042  0.00  0.00     0.016 A 
ATOM     33  C   UNL d   1       4.181   9.231   3.458  0.00  0.00     0.002 A 
ATOM     34  C   UNL d   1       2.964   8.630   3.145  0.00  0.00     0.017 A 
BRANCH  31  35
ATOM     35  C   UNL d   1       3.054  12.544   4.961  0.00  0.00     0.417 C 
ATOM     36  F   UNL d   1       1.840  12.989   5.387  0.00  0.00    -0.166 F 
ATOM     37  F   UNL d   1       3.877  12.603   6.043  0.00  0.00    -0.166 F 
ATOM     38  F   UNL d   1       3.510  13.486   4.090  0.00  0.00    -0.166 F 
ENDBRANCH  31  35
ENDBRANCH  26  29
ENDBRANCH   1  25
TORSDOF 11
