REMARK  7 active torsions:
REMARK  status: ('A' for Active; 'I' for Inactive)
REMARK    1  A    between atoms: C_2  and  C_1 
REMARK    2  A    between atoms: N_4  and  C_2 
REMARK       I    between atoms: C_3  and  N_4 
REMARK    3  A    between atoms: C_14  and  C_3 
REMARK    4  A    between atoms: C_7  and  C_15 
REMARK    5  A    between atoms: O_13  and  C_7 
REMARK    6  A    between atoms: O_12  and  C_14 
REMARK    7  A    between atoms: C_15  and  O_12 
ROOT
ATOM      1  C   UNL d   1      -1.129   4.534  -0.009  0.00  0.00     0.241 C 
ATOM      2  N   UNL d   1      -1.170   3.169   0.017  0.00  0.00    -0.355 N 
ATOM      3  O   UNL d   1      -2.184   5.157  -0.128  0.00  0.00    -0.271 OA
ATOM      4  H   UNL d   1      -2.109   2.789  -0.047  0.00  0.00     0.162 HD
ENDROOT
BRANCH   2   5
ATOM      5  C   UNL d   1      -0.073   2.225   0.100  0.00  0.00     0.166 C 
BRANCH   5   6
ATOM      6  C   UNL d   1       0.020   1.371  -1.135  0.00  0.00     0.020 A 
ATOM      7  C   UNL d   1      -0.939   0.402  -1.465  0.00  0.00     0.044 A 
ATOM      8 CL   UNL d   1      -2.327   0.122  -0.472  0.00  0.00    -0.084 Cl
ATOM      9  C   UNL d   1      -0.801  -0.380  -2.618  0.00  0.00     0.024 A 
ATOM     10  C   UNL d   1       0.296  -0.208  -3.459  0.00  0.00     0.005 A 
ATOM     11  C   UNL d   1       1.255   0.755  -3.148  0.00  0.00     0.043 A 
ATOM     12  C   UNL d   1       1.108   1.530  -2.003  0.00  0.00     0.126 A 
ATOM     13  F   UNL d   1       2.046   2.450  -1.729  0.00  0.00    -0.205 F 
ENDBRANCH   5   6
ENDBRANCH   2   5
BRANCH   1  14
ATOM     14  C   UNL d   1       0.241   5.226   0.130  0.00  0.00     0.271 C 
BRANCH  14  15
ATOM     15  O   UNL d   1       0.294   6.645   0.264  0.00  0.00    -0.372 OA
BRANCH  15  16
ATOM     16  C   UNL d   1      -0.374   7.127   1.428  0.00  0.00     0.277 C 
BRANCH  16  17
ATOM     17  C   UNL d   1       0.309   6.704   2.722  0.00  0.00     0.164 C 
ATOM     18  O   UNL d   1      -0.254   6.191   3.676  0.00  0.00    -0.648 OA
BRANCH  17  19
ATOM     19  O   UNL d   1       1.647   6.934   2.691  0.00  0.00    -0.775 OA
ATOM     20  H   UNL d   1       1.915   7.305   1.824  0.00  0.00     0.167 HD
ENDBRANCH  17  19
ENDBRANCH  16  17
ENDBRANCH  15  16
ENDBRANCH  14  15
ENDBRANCH   1  14
TORSDOF 7
