REMARK  4 active torsions:
REMARK  status: ('A' for Active; 'I' for Inactive)
REMARK    1  A    between atoms: C_2  and  C_1 
REMARK       I    between atoms: N_4  and  C_1 
REMARK    2  A    between atoms: C_3  and  C_12 
REMARK       I    between atoms: N_11  and  C_3 
REMARK    3  A    between atoms: C_12  and  N_4 
REMARK    4  A    between atoms: N_13  and  N_11 
ROOT
ATOM      1  C   UNL d   1       0.952   0.110  -0.023  0.00  0.00     0.275 C 
ATOM      2  N   UNL d   1       0.286   1.278  -0.300  0.00  0.00    -0.346 N 
ATOM      3  O   UNL d   1       0.354  -0.908   0.317  0.00  0.00    -0.265 OA
ATOM      4  H   UNL d   1       0.822   2.105  -0.553  0.00  0.00     0.163 HD
ENDROOT
BRANCH   2   5
ATOM      5  C   UNL d   1      -1.155   1.369  -0.229  0.00  0.00     0.227 C 
BRANCH   5   6
ATOM      6  C   UNL d   1      -1.636   2.769  -0.600  0.00  0.00     0.249 C 
ATOM      7  O   UNL d   1      -0.872   3.693  -0.884  0.00  0.00    -0.270 OA
ATOM      8  N   UNL d   1      -3.019   2.912  -0.555  0.00  0.00    -0.293 N 
ATOM      9  H   UNL d   1      -3.619   2.089  -0.518  0.00  0.00     0.183 HD
BRANCH   8  10
ATOM     10  N   UNL d   1      -3.596   4.148  -0.924  0.00  0.00    -0.247 NA
ATOM     11  H   UNL d   1      -2.827   4.757  -1.244  0.00  0.00     0.143 HD
ATOM     12  H   UNL d   1      -3.937   4.607  -0.075  0.00  0.00     0.143 HD
ENDBRANCH   8  10
ENDBRANCH   5   6
ENDBRANCH   2   5
BRANCH   1  13
ATOM     13  C   UNL d   1       2.393   0.182  -0.163  0.00  0.00     0.142 A 
ATOM     14  O   UNL d   1       2.976   1.341  -0.611  0.00  0.00    -0.317 OA
ATOM     15  C   UNL d   1       4.316   1.119  -0.662  0.00  0.00     0.143 A 
ATOM     16  C   UNL d   1       4.612  -0.158  -0.247  0.00  0.00     0.027 A 
ATOM     17  C   UNL d   1       3.373  -0.762   0.075  0.00  0.00     0.045 A 
ENDBRANCH   1  13
TORSDOF 4
