REMARK  6 active torsions:
REMARK  status: ('A' for Active; 'I' for Inactive)
REMARK    1  A    between atoms: C_13  and  N_1 
REMARK    2  A    between atoms: S_11  and  C_2 
REMARK    3  A    between atoms: C_4  and  S_11 
REMARK    4  A    between atoms: N_9  and  C_5 
REMARK    5  A    between atoms: N_10  and  C_6 
REMARK    6  A    between atoms: C_14  and  C_16 
ROOT
ATOM      1  N   UNL d   1       2.372  -0.699  -0.055  0.00  0.00    -0.258 N 
ATOM      2  C   UNL d   1       2.318   0.696  -0.078  0.00  0.00     0.160 A 
ATOM      3  C   UNL d   1       1.182  -1.447  -0.033  0.00  0.00     0.266 A 
ATOM      4  N   UNL d   1       1.221   1.378  -0.092  0.00  0.00    -0.335 N 
ATOM      5  HN  UNL d   1       1.246   2.398  -0.114  1.00  0.00     0.168 HD
ATOM      6  C   UNL d   1      -0.079  -0.687  -0.044  0.00  0.00     0.059 A 
ATOM      7  C   UNL d   1      -0.001   0.700  -0.078  0.00  0.00     0.050 A 
ATOM      8  O   UNL d   1       1.113  -2.676   0.029  0.00  0.00    -0.267 OA
ATOM      9  C   UNL d   1      -1.321  -1.338  -0.010  0.00  0.00     0.019 A 
ATOM     10  C   UNL d   1      -1.184   1.442  -0.088  0.00  0.00     0.030 A 
ATOM     11  C   UNL d   1      -2.496  -0.589  -0.025  0.00  0.00     0.001 A 
ATOM     12  C   UNL d   1      -2.427   0.803  -0.066  0.00  0.00     0.002 A 
ENDROOT
BRANCH   2  13
ATOM     13  S   UNL d   1       3.778   1.683  -0.073  0.00  0.00    -0.048 SA
BRANCH  13  14
ATOM     14  C   UNL d   1       4.200   1.971  -1.793  0.00  0.00     0.074 A 
ATOM     15  C   UNL d   1       3.372   2.607  -2.737  0.00  0.00     0.123 A 
ATOM     16  C   UNL d   1       3.742   2.775  -4.096  0.00  0.00     0.053 A 
ATOM     17  C   UNL d   1       4.986   2.332  -4.561  0.00  0.00     0.052 A 
ATOM     18  C   UNL d   1       5.867   1.774  -3.632  0.00  0.00     0.053 A 
ATOM     19  C   UNL d   1       5.474   1.608  -2.285  0.00  0.00     0.123 A 
BRANCH  15  20
ATOM     20  N   UNL d   1       2.100   3.207  -2.365  0.00  0.00    -0.114 N 
ATOM     21  O   UNL d   1       2.133   4.133  -1.547  0.00  0.00    -0.532 OA
ATOM     22  O   UNL d   1       1.103   2.808  -2.981  0.00  0.00    -0.532 OA
ENDBRANCH  15  20
BRANCH  17  23
ATOM     23  C   UNL d   1       5.353   2.446  -6.026  0.00  0.00     0.417 C 
ATOM     24  F   UNL d   1       6.590   1.957  -6.307  0.00  0.00    -0.166 F 
ATOM     25  F   UNL d   1       4.487   1.762  -6.819  0.00  0.00    -0.166 F 
ATOM     26  F   UNL d   1       5.343   3.731  -6.466  0.00  0.00    -0.166 F 
ENDBRANCH  17  23
BRANCH  19  27
ATOM     27  N   UNL d   1       6.488   1.035  -1.413  0.00  0.00    -0.114 N 
ATOM     28  O   UNL d   1       6.928   1.747  -0.504  0.00  0.00    -0.532 OA
ATOM     29  O   UNL d   1       6.872  -0.107  -1.694  0.00  0.00    -0.532 OA
ENDBRANCH  19  27
ENDBRANCH  13  14
ENDBRANCH   2  13
BRANCH   1  30
ATOM     30  C   UNL d   1       3.592  -1.450  -0.011  0.00  0.00     0.046 A 
ATOM     31  C   UNL d   1       3.801  -2.477  -0.946  0.00  0.00     0.055 A 
ATOM     32  C   UNL d   1       4.965  -3.250  -0.916  0.00  0.00     0.058 A 
ATOM     33 CL   UNL d   1       5.142  -4.474  -2.123  0.00  0.00    -0.082 Cl
ATOM     34  C   UNL d   1       5.931  -3.015   0.065  0.00  0.00     0.055 A 
ATOM     35  C   UNL d   1       5.716  -2.017   1.019  0.00  0.00     0.028 A 
ATOM     36 CL   UNL d   1       7.394  -3.925   0.161  0.00  0.00    -0.083 Cl
ATOM     37  C   UNL d   1       4.552  -1.240   0.986  0.00  0.00     0.032 A 
ENDBRANCH   1  30
TORSDOF 6
