REMARK  4 active torsions:
REMARK  status: ('A' for Active; 'I' for Inactive)
REMARK    1  A    between atoms: C_2  and  C_1 
REMARK       I    between atoms: N_4  and  C_2 
REMARK    2  A    between atoms: C_11  and  C_6 
REMARK    3  A    between atoms: S_9  and  C_11 
REMARK    4  A    between atoms: C_12  and  S_9 
ROOT
ATOM      1  C   UNL d   1      -0.151   1.141  -0.017  0.00  0.00     0.143 A 
ATOM      2  O   UNL d   1      -0.959   0.028   0.000  0.00  0.00    -0.309 OA
ATOM      3  C   UNL d   1       1.172   0.737  -0.002  0.00  0.00     0.045 A 
ATOM      4  C   UNL d   1      -0.143  -1.073   0.060  0.00  0.00     0.063 A 
ATOM      5  C   UNL d   1       1.178  -0.669   0.042  0.00  0.00     0.036 A 
ENDROOT
BRANCH   4   6
ATOM      6  C   UNL d   1      -0.798  -2.419   0.099  0.00  0.00     0.144 C 
BRANCH   6   7
ATOM      7  S   UNL d   1       0.205  -3.575   1.115  0.00  0.00    -0.123 SA
BRANCH   7   8
ATOM      8  C   UNL d   1      -0.524  -5.173   0.811  0.00  0.00     0.001 A 
ATOM      9  C   UNL d   1       0.343  -6.277   0.785  0.00  0.00     0.020 A 
ATOM     10  C   UNL d   1      -0.154  -7.580   0.683  0.00  0.00     0.025 A 
ATOM     11  C   UNL d   1      -1.528  -7.786   0.609  0.00  0.00     0.034 A 
ATOM     12  C   UNL d   1      -2.401  -6.700   0.620  0.00  0.00     0.025 A 
ATOM     13 CL   UNL d   1      -2.149  -9.388   0.531  0.00  0.00    -0.084 Cl
ATOM     14  C   UNL d   1      -1.901  -5.395   0.722  0.00  0.00     0.020 A 
ENDBRANCH   7   8
ENDBRANCH   6   7
ENDBRANCH   4   6
BRANCH   1  15
ATOM     15  C   UNL d   1      -0.676   2.492  -0.159  0.00  0.00     0.277 C 
ATOM     16  N   UNL d   1      -1.954   2.806   0.287  0.00  0.00    -0.342 N 
ATOM     17  C   UNL d   1      -2.527   4.115  -0.035  0.00  0.00     0.152 C 
ATOM     18  C   UNL d   1      -2.788   2.026   1.202  0.00  0.00     0.152 C 
ATOM     19  C   UNL d   1      -3.953   3.937  -0.567  0.00  0.00     0.187 C 
ATOM     20  O   UNL d   1      -4.767   3.201   0.365  0.00  0.00    -0.388 OA
ATOM     21  C   UNL d   1      -4.204   1.904   0.631  0.00  0.00     0.187 C 
ATOM     22  O   UNL d   1       0.019   3.367  -0.686  0.00  0.00    -0.265 OA
ENDBRANCH   1  15
TORSDOF 4
