REMARK  6 active torsions:
REMARK  status: ('A' for Active; 'I' for Inactive)
REMARK    1  A    between atoms: C_3  and  C_1 
REMARK    2  A    between atoms: C_2  and  N_5 
REMARK    3  A    between atoms: N_6  and  C_2 
REMARK    4  A    between atoms: N_5  and  C_4 
REMARK    5  A    between atoms: C_15  and  N_6 
REMARK    6  A    between atoms: O_22  and  C_11 
ROOT
ATOM      1  N   UNL d   1       0.434  -3.713  -2.934  0.00  0.00    -0.333 N 
ATOM      2  H   UNL d   1      -0.055  -4.246  -3.644  0.00  0.00     0.168 HD
ENDROOT
BRANCH   1   3
ATOM      3  C   UNL d   1       0.647  -4.425  -1.778  0.00  0.00     0.176 C 
ATOM      4  S   UNL d   1       0.324  -3.908  -0.209  0.00  0.00    -0.041 SA
BRANCH   3   5
ATOM      5  N   UNL d   1       1.052  -5.723  -1.884  0.00  0.00    -0.333 N 
ATOM      6  H   UNL d   1       0.993  -6.194  -0.987  0.00  0.00     0.168 HD
BRANCH   5   7
ATOM      7  C   UNL d   1       1.639  -6.475  -2.915  0.00  0.00     0.034 A 
ATOM      8  C   UNL d   1       2.097  -5.956  -4.126  0.00  0.00     0.031 A 
ATOM      9  C   UNL d   1       2.694  -6.800  -5.072  0.00  0.00     0.026 A 
ATOM     10  C   UNL d   1       2.842  -8.161  -4.804  0.00  0.00     0.034 A 
ATOM     11  C   UNL d   1       2.412  -8.685  -3.591  0.00  0.00     0.026 A 
ATOM     12 CL   UNL d   1       3.572  -9.193  -5.970  0.00  0.00    -0.084 Cl
ATOM     13  C   UNL d   1       1.818  -7.842  -2.650  0.00  0.00     0.031 A 
ENDBRANCH   5   7
ENDBRANCH   3   5
ENDBRANCH   1   3
BRANCH   1  14
ATOM     14  C   UNL d   1       0.342  -2.301  -3.022  0.00  0.00     0.037 A 
ATOM     15  C   UNL d   1       1.212  -1.490  -2.287  0.00  0.00     0.046 A 
ATOM     16  C   UNL d   1       1.072  -0.098  -2.285  0.00  0.00     0.052 A 
ATOM     17  C   UNL d   1       0.071   0.473  -3.079  0.00  0.00     0.053 A 
ATOM     18  C   UNL d   1      -0.766  -0.322  -3.868  0.00  0.00     0.071 A 
ATOM     19  C   UNL d   1      -0.616  -1.714  -3.856  0.00  0.00     0.066 A 
BRANCH  16  20
ATOM     20  C   UNL d   1       1.945   0.764  -1.413  0.00  0.00     0.417 C 
ATOM     21  F   UNL d   1       2.901   0.068  -0.737  0.00  0.00    -0.166 F 
ATOM     22  F   UNL d   1       1.232   1.433  -0.465  0.00  0.00    -0.166 F 
ATOM     23  F   UNL d   1       2.613   1.717  -2.121  0.00  0.00    -0.166 F 
ENDBRANCH  16  20
BRANCH  18  24
ATOM     24  O   UNL d   1      -1.694   0.389  -4.580  0.00  0.00    -0.356 OA
ATOM     25  C   UNL d   1      -2.666  -0.345  -5.310  0.00  0.00     0.210 C 
ENDBRANCH  18  24
ENDBRANCH   1  14
TORSDOF 6
