REMARK  8 active torsions:
REMARK  status: ('A' for Active; 'I' for Inactive)
REMARK    1  A    between atoms: N_3  and  C_1 
REMARK    2  A    between atoms: N_4  and  C_2 
REMARK    3  A    between atoms: C_16  and  N_3 
REMARK    4  A    between atoms: C_17  and  N_3 
REMARK    5  A    between atoms: C_18  and  N_4 
REMARK    6  A    between atoms: C_19  and  N_4 
REMARK    7  A    between atoms: C_11  and  C_9 
REMARK    8  A    between atoms: C_10  and  C_11 
ROOT
ATOM      1  C   UNL d   1      -2.863   0.419   0.036  0.00  0.00     0.077 C 
ENDROOT
BRANCH   1   2
ATOM      2  C   UNL d   1      -3.783  -0.774  -0.010  0.00  0.00    -0.054 A 
ATOM      3  C   UNL d   1      -4.143  -1.456   1.154  0.00  0.00     0.010 A 
ATOM      4  C   UNL d   1      -5.084  -2.496   1.112  0.00  0.00     0.030 A 
ATOM      5  C   UNL d   1      -5.709  -2.883  -0.082  0.00  0.00     0.030 A 
ATOM      6  C   UNL d   1      -5.285  -2.226  -1.247  0.00  0.00     0.030 A 
ATOM      7  C   UNL d   1      -4.337  -1.196  -1.219  0.00  0.00     0.010 A 
BRANCH   5   8
ATOM      8  N   UNL d   1      -6.733  -3.826  -0.094  0.00  0.00    -0.382 N 
BRANCH   8   9
ATOM      9  C   UNL d   1      -6.631  -5.029   0.737  0.00  0.00     0.118 C 
ATOM     10  C   UNL d   1      -7.556  -4.951   1.943  0.00  0.00     0.026 C 
ENDBRANCH   8   9
BRANCH   8  11
ATOM     11  C   UNL d   1      -7.768  -3.808  -1.134  0.00  0.00     0.118 C 
ATOM     12  C   UNL d   1      -8.641  -2.563  -1.023  0.00  0.00     0.026 C 
ENDBRANCH   8  11
ENDBRANCH   5   8
ENDBRANCH   1   2
BRANCH   1  13
ATOM     13  C   UNL d   1      -1.393   0.111  -0.100  0.00  0.00    -0.054 A 
ATOM     14  C   UNL d   1      -0.785   0.054  -1.357  0.00  0.00     0.010 A 
ATOM     15  C   UNL d   1       0.599  -0.137  -1.470  0.00  0.00     0.030 A 
ATOM     16  C   UNL d   1       1.426  -0.257  -0.346  0.00  0.00     0.030 A 
ATOM     17  C   UNL d   1       0.787  -0.252   0.904  0.00  0.00     0.030 A 
ATOM     18  C   UNL d   1      -0.597  -0.079   1.029  0.00  0.00     0.010 A 
BRANCH  16  19
ATOM     19  N   UNL d   1       2.809  -0.338  -0.461  0.00  0.00    -0.382 N 
BRANCH  19  20
ATOM     20  C   UNL d   1       3.427  -1.107  -1.544  0.00  0.00     0.118 C 
ATOM     21  C   UNL d   1       3.975  -0.204  -2.638  0.00  0.00     0.026 C 
ENDBRANCH  19  20
BRANCH  19  22
ATOM     22  C   UNL d   1       3.687   0.272   0.541  0.00  0.00     0.118 C 
ATOM     23  C   UNL d   1       3.564   1.793   0.529  0.00  0.00     0.026 C 
ENDBRANCH  19  22
ENDBRANCH  16  19
ENDBRANCH   1  13
TORSDOF 8
