REMARK  7 active torsions:
REMARK  status: ('A' for Active; 'I' for Inactive)
REMARK    1  A    between atoms: N_3  and  C_1 
REMARK    2  A    between atoms: C_10  and  N_3 
REMARK    3  A    between atoms: C_11  and  N_3 
REMARK    4  A    between atoms: O_7  and  C_13 
REMARK    5  A    between atoms: O_8  and  C_14 
REMARK    6  A    between atoms: C_14  and  C_10 
REMARK    7  A    between atoms: C_13  and  C_11 
ROOT
ATOM      1  N   UNL d   1       2.457   2.352   0.053  0.00  0.00    -0.377 N 
ENDROOT
BRANCH   1   2
ATOM      2  C   UNL d   1       1.749   1.158  -0.025  0.00  0.00     0.031 A 
ATOM      3  C   UNL d   1       2.232  -0.039   0.531  0.00  0.00     0.053 A 
ATOM      4  C   UNL d   1       1.475  -1.217   0.518  0.00  0.00     0.036 A 
ATOM      5 CL   UNL d   1       2.104  -2.640   1.256  0.00  0.00    -0.084 Cl
ATOM      6  C   UNL d   1       0.213  -1.246  -0.059  0.00  0.00     0.024 A 
ATOM      7  C   UNL d   1      -0.287  -0.089  -0.638  0.00  0.00     0.004 A 
ATOM      8  C   UNL d   1       0.474   1.087  -0.620  0.00  0.00     0.029 A 
ENDBRANCH   1   2
BRANCH   1   9
ATOM      9  C   UNL d   1       3.930   2.409   0.131  0.00  0.00     0.149 C 
BRANCH   9  10
ATOM     10  C   UNL d   1       4.583   2.419  -1.260  0.00  0.00     0.183 C 
BRANCH  10  11
ATOM     11  O   UNL d   1       4.338   3.650  -1.941  0.00  0.00    -0.399 OA
ATOM     12  H   UNL d   1       4.642   3.530  -2.857  0.00  0.00     0.209 HD
ENDBRANCH  10  11
ENDBRANCH   9  10
ENDBRANCH   1   9
BRANCH   1  13
ATOM     13  C   UNL d   1       1.777   3.655  -0.091  0.00  0.00     0.149 C 
BRANCH  13  14
ATOM     14  C   UNL d   1       0.864   3.941   1.110  0.00  0.00     0.183 C 
BRANCH  14  15
ATOM     15  O   UNL d   1       0.251   5.222   0.981  0.00  0.00    -0.399 OA
ATOM     16  H   UNL d   1      -0.319   5.333   1.761  0.00  0.00     0.209 HD
ENDBRANCH  14  15
ENDBRANCH  13  14
ENDBRANCH   1  13
TORSDOF 7
