REMARK  2 active torsions:
REMARK  status: ('A' for Active; 'I' for Inactive)
REMARK    1  A    between atoms: N_14  and  C_3 
REMARK    2  A    between atoms: C_15  and  N_14 
ROOT
ATOM      1  C   UNL d   1       3.325   4.613  -0.390  0.00  0.00    -0.103 C 
ATOM      2  C   UNL d   1       3.447   5.806  -0.307  0.00  0.00     0.013 C 
ATOM      3  C   UNL d   1       3.161   3.152  -0.483  0.00  0.00     0.186 C 
ENDROOT
BRANCH   3   4
ATOM      4  N   UNL d   1       1.900   2.792   0.136  0.00  0.00    -0.267 NA
ATOM      5  H   UNL d   1       1.137   3.409  -0.109  0.00  0.00     0.130 HD
BRANCH   4   6
ATOM      6  C   UNL d   1       1.559   1.443   0.052  0.00  0.00     0.095 A 
ATOM      7  C   UNL d   1       0.214   1.016   0.040  0.00  0.00     0.036 A 
ATOM      8  C   UNL d   1       0.004  -0.354  -0.028  0.00  0.00     0.088 A 
ATOM      9  C   UNL d   1      -1.040   1.719   0.078  0.00  0.00     0.025 A 
ATOM     10  N   UNL d   1       0.949  -1.305  -0.075  0.00  0.00    -0.346 N 
ATOM     11  S   UNL d   1      -1.650  -0.767  -0.052  0.00  0.00    -0.083 SA
ATOM     12  C   UNL d   1       2.181  -0.792  -0.053  0.00  0.00     0.182 A 
ATOM     13  HN  UNL d   1       0.749  -2.305  -0.123  1.00  0.00     0.167 HD
ATOM     14  N   UNL d   1       2.530   0.504  -0.003  0.00  0.00    -0.342 N 
ATOM     15  HN  UNL d   1       3.513   0.775  -0.006  1.00  0.00     0.167 HD
ATOM     16  C   UNL d   1      -2.126   0.873   0.028  0.00  0.00     0.053 A 
ENDBRANCH   4   6
ENDBRANCH   3   4
TORSDOF 2
