REMARK  4 active torsions:
REMARK  status: ('A' for Active; 'I' for Inactive)
REMARK    1  A    between atoms: O_9  and  N_4 
REMARK    2  A    between atoms: C_7  and  O_9 
REMARK    3  A    between atoms: C_10  and  C_7 
REMARK    4  A    between atoms: C_12  and  C_13 
ROOT
ATOM      1  O   UNL d   1       7.046  -3.158  -0.145  0.00  0.00    -0.195 OA
ENDROOT
BRANCH   1   2
ATOM      2  C   UNL d   1       6.756  -3.829  -1.304  0.00  0.00     0.315 C 
ATOM      3  O   UNL d   1       7.176  -4.917  -1.667  0.00  0.00    -0.257 OA
BRANCH   2   4
ATOM      4  C   UNL d   1       5.795  -3.024  -2.110  0.00  0.00     0.041 A 
ATOM      5  C   UNL d   1       5.122  -3.631  -3.175  0.00  0.00     0.018 A 
ATOM      6  C   UNL d   1       4.265  -2.878  -3.993  0.00  0.00     0.009 A 
ATOM      7  C   UNL d   1       4.066  -1.500  -3.778  0.00  0.00    -0.051 A 
ATOM      8  C   UNL d   1       4.741  -0.916  -2.693  0.00  0.00     0.009 A 
ATOM      9  C   UNL d   1       5.594  -1.663  -1.873  0.00  0.00     0.018 A 
BRANCH   7  10
ATOM     10  C   UNL d   1       3.170  -0.676  -4.723  0.00  0.00    -0.024 C 
ATOM     11  C   UNL d   1       3.091   0.823  -4.349  0.00  0.00     0.019 C 
ATOM     12  C   UNL d   1       3.724  -0.754  -6.162  0.00  0.00     0.019 C 
ATOM     13  C   UNL d   1       1.729  -1.226  -4.707  0.00  0.00     0.019 C 
ENDBRANCH   7  10
ENDBRANCH   2   4
ENDBRANCH   1   2
BRANCH   1  14
ATOM     14  N   UNL d   1       8.181  -3.709   0.464  0.00  0.00    -0.264 N 
ATOM     15  C   UNL d   1       8.292  -3.369   1.709  0.00  0.00     0.027 C 
ATOM     16  C   UNL d   1       9.474  -3.852   2.554  0.00  0.00    -0.002 C 
ATOM     17  C   UNL d   1       7.333  -2.557   2.587  0.00  0.00    -0.003 C 
ATOM     18  C   UNL d   1       9.555  -2.717   3.578  0.00  0.00     0.021 C 
ATOM     19  C   UNL d   1       8.916  -5.013   3.392  0.00  0.00     0.015 C 
ATOM     20  C   UNL d   1      10.757  -4.128   1.808  0.00  0.00     0.021 C 
ATOM     21  C   UNL d   1       8.071  -2.805   3.955  0.00  0.00     0.000 C 
ATOM     22  C   UNL d   1       8.002  -4.287   4.401  0.00  0.00     0.007 C 
ATOM     23  C   UNL d   1       7.343  -1.070   2.215  0.00  0.00     0.021 C 
ATOM     24  C   UNL d   1       5.898  -3.084   2.602  0.00  0.00     0.021 C 
ATOM     25  HN  UNL d   1       8.847  -4.312  -0.019  1.00  0.00     0.194 HD
ENDBRANCH   1  14
TORSDOF 4
