REMARK  4 active torsions:
REMARK  status: ('A' for Active; 'I' for Inactive)
REMARK    1  A    between atoms: N_3  and  C_1 
REMARK    2  A    between atoms: C_2  and  N_3 
REMARK    3  A    between atoms: N_9  and  C_2 
REMARK    4  A    between atoms: C_11  and  N_9 
ROOT
ATOM      1  C   UNL d   1      -2.289  -2.793   0.111  0.00  0.00     0.177 C 
ATOM      2  S   UNL d   1      -2.362  -1.562   1.248  0.00  0.00    -0.040 SA
ENDROOT
BRANCH   1   3
ATOM      3  N   UNL d   1      -3.440  -3.070  -0.568  0.00  0.00    -0.318 N 
ATOM      4  H   UNL d   1      -4.261  -2.558  -0.268  0.00  0.00     0.170 HD
BRANCH   3   5
ATOM      5  C   UNL d   1      -3.638  -3.739  -1.759  0.00  0.00     0.130 A 
ATOM      6  N   UNL d   1      -4.875  -3.794  -2.264  0.00  0.00    -0.245 N 
ATOM      7  O   UNL d   1      -4.773  -4.444  -3.475  0.00  0.00    -0.241 OA
ATOM      8  HN  UNL d   1      -5.725  -3.427  -1.837  1.00  0.00     0.196 HD
ATOM      9  C   UNL d   1      -3.477  -4.775  -3.701  0.00  0.00     0.076 A 
ATOM     10  C   UNL d   1      -2.716  -4.365  -2.630  0.00  0.00     0.084 A 
ATOM     11  C   UNL d   1      -3.178  -5.444  -4.980  0.00  0.00     0.079 C 
ENDBRANCH   3   5
ENDBRANCH   1   3
BRANCH   1  12
ATOM     12  N   UNL d   1      -1.213  -3.609  -0.126  0.00  0.00    -0.333 N 
ATOM     13  H   UNL d   1      -1.451  -4.592  -0.177  0.00  0.00     0.168 HD
BRANCH  12  14
ATOM     14  C   UNL d   1       0.163  -3.313  -0.022  0.00  0.00     0.034 A 
ATOM     15  C   UNL d   1       1.052  -4.373   0.178  0.00  0.00     0.030 A 
ATOM     16  C   UNL d   1       2.433  -4.148   0.203  0.00  0.00     0.009 A 
ATOM     17  C   UNL d   1       2.946  -2.863  -0.002  0.00  0.00    -0.062 A 
ATOM     18  C   UNL d   1       2.055  -1.804  -0.200  0.00  0.00     0.009 A 
ATOM     19  C   UNL d   1       4.428  -2.635  -0.012  0.00  0.00     0.048 C 
ATOM     20  C   UNL d   1       0.675  -2.029  -0.214  0.00  0.00     0.030 A 
ENDBRANCH  12  14
ENDBRANCH   1  12
TORSDOF 4
