REMARK  3 active torsions:
REMARK  status: ('A' for Active; 'I' for Inactive)
REMARK    1  A    between atoms: C_4  and  C_1 
REMARK       I    between atoms: N_12  and  C_4 
REMARK    2  A    between atoms: C_7  and  C_11 
REMARK    3  A    between atoms: N_8  and  N_12 
ROOT
ATOM      1  C   UNL d   1       3.963  -0.100   0.121  0.00  0.00     0.278 C 
ATOM      2  N   UNL d   1       4.598  -1.324  -0.086  0.00  0.00    -0.266 N 
ATOM      3  O   UNL d   1       4.617   0.933   0.284  0.00  0.00    -0.265 OA
ATOM      4  H   UNL d   1       4.068  -2.178  -0.212  0.00  0.00     0.190 HD
ENDROOT
BRANCH   1   5
ATOM      5  C   UNL d   1       2.500  -0.105   0.117  0.00  0.00     0.097 A 
ATOM      6  S   UNL d   1       1.724   1.417   0.323  0.00  0.00    -0.082 SA
ATOM      7  C   UNL d   1       0.152   0.756   0.196  0.00  0.00     0.017 A 
ATOM      8  C   UNL d   1      -1.062   1.466   0.286  0.00  0.00     0.020 A 
ATOM      9  C   UNL d   1       0.192  -0.622  -0.020  0.00  0.00     0.004 A 
ATOM     10  C   UNL d   1      -2.264   0.777   0.133  0.00  0.00     0.001 A 
ATOM     11  C   UNL d   1      -2.261  -0.587  -0.111  0.00  0.00     0.001 A 
ATOM     12  C   UNL d   1      -1.052  -1.290  -0.184  0.00  0.00     0.014 A 
ATOM     13  C   UNL d   1       1.558  -1.108  -0.021  0.00  0.00     0.068 A 
ATOM     14 CL   UNL d   1       1.896  -2.789  -0.190  0.00  0.00    -0.082 Cl
ENDBRANCH   1   5
BRANCH   2  15
ATOM     15  N   UNL d   1       5.968  -1.347  -0.149  0.00  0.00    -0.308 N 
ATOM     16  C   UNL d   1       6.550  -2.490  -0.311  0.00  0.00     0.126 C 
ATOM     17  HN  UNL d   1       6.511  -0.488  -0.070  1.00  0.00     0.186 HD
BRANCH  16  18
ATOM     18  C   UNL d   1       7.991  -2.550  -0.390  0.00  0.00     0.021 A 
ATOM     19  S   UNL d   1       8.771  -4.064  -0.540  0.00  0.00    -0.101 SA
ATOM     20  C   UNL d   1      10.322  -3.338  -0.544  0.00  0.00     0.050 A 
ATOM     21  C   UNL d   1      10.250  -1.966  -0.446  0.00  0.00     0.008 A 
ATOM     22  C   UNL d   1       8.902  -1.510  -0.359  0.00  0.00     0.021 A 
ENDBRANCH  16  18
ENDBRANCH   2  15
TORSDOF 3
