REMARK  3 active torsions:
REMARK  status: ('A' for Active; 'I' for Inactive)
REMARK    1  A    between atoms: N_10  and  C_3 
REMARK    2  A    between atoms: N_11  and  C_6 
REMARK    3  A    between atoms: C_12  and  N_10 
ROOT
ATOM      1  N   UNL d   1      -0.082  -1.230   0.043  0.00  0.00    -0.166 N 
ATOM      2  HN  UNL d   1      -0.518  -2.152   0.063  1.00  0.00     0.187 HD
ATOM      3  C   UNL d   1      -0.807  -0.115  -0.025  0.00  0.00     0.685 A 
ATOM      4  N   UNL d   1      -0.275   1.102  -0.082  0.00  0.00    -0.188 N 
ATOM      5  HN  UNL d   1      -0.841   1.947  -0.154  1.00  0.00     0.185 HD
ATOM      6  C   UNL d   1       1.229  -1.081   0.084  0.00  0.00     0.170 A 
ATOM      7  N   UNL d   1       1.862   0.076   0.033  0.00  0.00    -0.328 N 
ATOM      8  HN  UNL d   1       2.878   0.155   0.047  1.00  0.00     0.169 HD
ATOM      9  C   UNL d   1       1.055   1.129  -0.037  0.00  0.00     0.200 A 
ENDROOT
BRANCH   3  10
ATOM     10  N   UNL d   1      -2.198  -0.184  -0.092  0.00  0.00    -0.192 N 
ATOM     11  H   UNL d   1      -2.595   0.730  -0.248  0.00  0.00     0.184 HD
BRANCH  10  12
ATOM     12  C   UNL d   1      -3.083  -1.253   0.102  0.00  0.00     0.049 A 
ATOM     13  C   UNL d   1      -2.707  -2.447   0.736  0.00  0.00     0.033 A 
ATOM     14  C   UNL d   1      -3.587  -3.527   0.834  0.00  0.00     0.044 A 
ATOM     15  C   UNL d   1      -4.856  -3.423   0.287  0.00  0.00     0.116 A 
ATOM     16  C   UNL d   1      -5.260  -2.257  -0.348  0.00  0.00     0.044 A 
ATOM     17  F   UNL d   1      -5.697  -4.461   0.366  0.00  0.00    -0.206 F 
ATOM     18  C   UNL d   1      -4.375  -1.177  -0.441  0.00  0.00     0.033 A 
ENDBRANCH  10  12
ENDBRANCH   3  10
BRANCH   6  19
ATOM     19  N   UNL d   1       1.986  -2.235   0.138  0.00  0.00    -0.273 NA
ATOM     20  H   UNL d   1       1.449  -3.010  -0.230  0.00  0.00     0.127 HD
ATOM     21  H   UNL d   1       2.898  -2.077  -0.266  0.00  0.00     0.127 HD
ENDBRANCH   6  19
TORSDOF 3
