REMARK  6 active torsions:
REMARK  status: ('A' for Active; 'I' for Inactive)
REMARK    1  A    between atoms: N_7  and  S_1 
REMARK    2  A    between atoms: C_8  and  S_1 
REMARK    3  A    between atoms: C_2  and  N_7 
REMARK    4  A    between atoms: C_11  and  C_3 
REMARK    5  A    between atoms: C_17  and  C_5 
REMARK    6  A    between atoms: C_18  and  C_19 
ROOT
ATOM      1  C   UNL d   1       0.932   2.527  -0.796  0.00  0.00     0.064 A 
ATOM      2  C   UNL d   1       2.175   3.106  -0.617  0.00  0.00     0.078 A 
ATOM      3  S   UNL d   1       2.047   4.813  -0.469  0.00  0.00    -0.084 SA
ATOM      4  C   UNL d   1       0.375   4.815  -0.838  0.00  0.00     0.018 A 
ATOM      5  C   UNL d   1      -0.088   3.516  -0.953  0.00  0.00     0.051 A 
ENDROOT
BRANCH   1   6
ATOM      6  N   UNL d   1       0.658   1.161  -0.953  0.00  0.00    -0.279 N 
ATOM      7  H   UNL d   1       0.107   0.867  -1.755  0.00  0.00     0.179 HD
BRANCH   6   8
ATOM      8  S   UNL d   1       0.380   0.127   0.362  0.00  0.00     0.263 S 
ATOM      9  O   UNL d   1       1.561   0.149   1.191  0.00  0.00    -0.200 OA
ATOM     10  O   UNL d   1      -0.119  -1.112  -0.195  0.00  0.00    -0.200 OA
BRANCH   8  11
ATOM     11  C   UNL d   1      -0.980   0.861   1.283  0.00  0.00     0.086 A 
ATOM     12  C   UNL d   1      -0.741   1.189   2.633  0.00  0.00     0.034 A 
ATOM     13  C   UNL d   1      -1.762   1.691   3.460  0.00  0.00    -0.039 A 
ATOM     14  C   UNL d   1      -1.476   1.990   4.907  0.00  0.00     0.050 C 
ATOM     15  C   UNL d   1      -3.035   1.875   2.909  0.00  0.00     0.040 A 
ATOM     16  C   UNL d   1      -3.284   1.538   1.575  0.00  0.00     0.032 A 
ATOM     17 CL   UNL d   1      -4.348   2.499   3.842  0.00  0.00    -0.084 Cl
ATOM     18  C   UNL d   1      -2.271   1.019   0.741  0.00  0.00    -0.037 A 
ATOM     19  C   UNL d   1      -2.698   0.595  -0.635  0.00  0.00     0.050 C 
ENDBRANCH   8  11
ENDBRANCH   6   8
ENDBRANCH   1   6
BRANCH   2  20
ATOM     20  C   UNL d   1       3.516   2.529  -0.598  0.00  0.00     0.164 C 
ATOM     21  O   UNL d   1       4.465   3.040   0.002  0.00  0.00    -0.292 OA
ATOM     22  C   UNL d   1       3.766   1.281  -1.415  0.00  0.00     0.097 C 
ENDBRANCH   2  20
BRANCH   4  23
ATOM     23  C   UNL d   1      -0.373   6.075  -1.010  0.00  0.00    -0.019 A 
ATOM     24  C   UNL d   1      -1.723   6.160  -0.650  0.00  0.00     0.013 A 
ATOM     25  C   UNL d   1      -2.477   7.312  -0.923  0.00  0.00     0.009 A 
ATOM     26  C   UNL d   1      -1.914   8.424  -1.575  0.00  0.00    -0.051 A 
ATOM     27  C   UNL d   1      -0.547   8.352  -1.879  0.00  0.00     0.009 A 
ATOM     28  C   UNL d   1       0.207   7.201  -1.607  0.00  0.00     0.013 A 
BRANCH  26  29
ATOM     29  C   UNL d   1      -2.787   9.630  -1.972  0.00  0.00    -0.024 C 
ATOM     30  C   UNL d   1      -2.008  10.727  -2.735  0.00  0.00     0.019 C 
ATOM     31  C   UNL d   1      -3.927   9.156  -2.902  0.00  0.00     0.019 C 
ATOM     32  C   UNL d   1      -3.408  10.292  -0.725  0.00  0.00     0.019 C 
ENDBRANCH  26  29
ENDBRANCH   4  23
TORSDOF 6
