REMARK  15 active torsions:
REMARK  status: ('A' for Active; 'I' for Inactive)
REMARK    1  A    between atoms: S_15  and  C_3 
REMARK    2  A    between atoms: S_16  and  C_4 
REMARK    3  A    between atoms: C_21  and  C_13 
REMARK    4  A    between atoms: C_14  and  C_22 
REMARK    5  A    between atoms: C_17  and  S_15 
REMARK    6  A    between atoms: C_18  and  S_16 
REMARK    7  A    between atoms: C_19  and  C_17 
REMARK    8  A    between atoms: C_20  and  C_18 
REMARK    9  A    between atoms: C_28  and  C_21 
REMARK   10  A    between atoms: C_22  and  C_27 
REMARK   11  A    between atoms: C_27  and  C_32 
REMARK   12  A    between atoms: C_29  and  C_28 
REMARK   13  A    between atoms: C_30  and  C_29 
REMARK   14  A    between atoms: C_31  and  C_30 
REMARK   15  A    between atoms: C_32  and  C_31 
ROOT
ATOM      1  C   UNL d   1      -4.316   3.988  -0.001  0.00  0.00     0.000 C 
ENDROOT
BRANCH   1   2
ATOM      2  C   UNL d   1      -2.786   3.905   0.017  0.00  0.00     0.000 C 
BRANCH   2   3
ATOM      3  C   UNL d   1      -2.300   2.453   0.044  0.00  0.00     0.008 C 
BRANCH   3   4
ATOM      4  C   UNL d   1      -0.774   2.373   0.100  0.00  0.00     0.086 C 
BRANCH   4   5
ATOM      5  C   UNL d   1      -0.294   0.971   0.038  0.00  0.00     0.141 A 
ATOM      6  N   UNL d   1      -0.095   0.218  -1.020  0.00  0.00    -0.281 N 
ATOM      7  N   UNL d   1       0.421  -0.971  -0.554  0.00  0.00    -0.272 N 
ATOM      8  HN  UNL d   1      -0.285   0.464  -1.991  1.00  0.00     0.189 HD
ATOM      9  C   UNL d   1       0.497  -0.872   0.757  0.00  0.00     0.203 A 
ATOM     10  HN  UNL d   1       0.692  -1.776  -1.119  1.00  0.00     0.189 HD
ATOM     11  O   UNL d   1       0.041   0.343   1.213  0.00  0.00    -0.272 OA
BRANCH   9  12
ATOM     12  S   UNL d   1       1.178  -2.116   1.758  0.00  0.00    -0.080 SA
BRANCH  12  13
ATOM     13  C   UNL d   1       0.248  -1.907   3.297  0.00  0.00     0.121 C 
BRANCH  13  14
ATOM     14  C   UNL d   1       0.629  -2.963   4.310  0.00  0.00    -0.049 A 
ATOM     15  C   UNL d   1       1.679  -2.740   5.215  0.00  0.00     0.008 A 
ATOM     16  C   UNL d   1       2.050  -3.729   6.131  0.00  0.00     0.001 A 
ATOM     17  C   UNL d   1       1.381  -4.951   6.152  0.00  0.00     0.000 A 
ATOM     18  C   UNL d   1       0.343  -5.188   5.253  0.00  0.00     0.001 A 
ATOM     19  C   UNL d   1      -0.031  -4.203   4.336  0.00  0.00     0.008 A 
ENDBRANCH  13  14
ENDBRANCH  12  13
ENDBRANCH   9  12
ENDBRANCH   4   5
ENDBRANCH   3   4
ENDBRANCH   2   3
ENDBRANCH   1   2
BRANCH   1  20
ATOM     20  C   UNL d   1      -4.793   5.442  -0.013  0.00  0.00     0.000 C 
BRANCH  20  21
ATOM     21  C   UNL d   1      -6.321   5.546  -0.002  0.00  0.00     0.000 C 
BRANCH  21  22
ATOM     22  C   UNL d   1      -6.764   7.014  -0.001  0.00  0.00     0.008 C 
BRANCH  22  23
ATOM     23  C   UNL d   1      -8.284   7.155   0.061  0.00  0.00     0.086 C 
BRANCH  23  24
ATOM     24  C   UNL d   1      -8.705   8.576  -0.016  0.00  0.00     0.141 A 
ATOM     25  O   UNL d   1      -8.359   9.412   1.016  0.00  0.00    -0.272 OA
ATOM     26  C   UNL d   1      -8.929  10.597   0.616  0.00  0.00     0.203 A 
ATOM     27  N   UNL d   1      -9.550  10.486  -0.540  0.00  0.00    -0.272 N 
ATOM     28  N   UNL d   1      -9.400   9.179  -0.953  0.00  0.00    -0.281 N 
ATOM     29  HN  UNL d   1     -10.047  11.226  -1.036  1.00  0.00     0.189 HD
ATOM     30  HN  UNL d   1      -9.757   8.764  -1.814  1.00  0.00     0.189 HD
BRANCH  26  31
ATOM     31  S   UNL d   1      -8.902  12.065   1.540  0.00  0.00    -0.080 SA
BRANCH  31  32
ATOM     32  C   UNL d   1      -7.264  11.976   2.309  0.00  0.00     0.121 C 
BRANCH  32  33
ATOM     33  C   UNL d   1      -6.982  13.213   3.132  0.00  0.00    -0.049 A 
ATOM     34  C   UNL d   1      -7.420  13.303   4.462  0.00  0.00     0.008 A 
ATOM     35  C   UNL d   1      -7.191  14.460   5.210  0.00  0.00     0.001 A 
ATOM     36  C   UNL d   1      -6.523  15.541   4.641  0.00  0.00     0.000 A 
ATOM     37  C   UNL d   1      -6.086  15.467   3.319  0.00  0.00     0.001 A 
ATOM     38  C   UNL d   1      -6.315  14.313   2.567  0.00  0.00     0.008 A 
ENDBRANCH  32  33
ENDBRANCH  31  32
ENDBRANCH  26  31
ENDBRANCH  23  24
ENDBRANCH  22  23
ENDBRANCH  21  22
ENDBRANCH  20  21
ENDBRANCH   1  20
TORSDOF 15
