REMARK  4 active torsions:
REMARK  status: ('A' for Active; 'I' for Inactive)
REMARK    1  A    between atoms: C_2  and  C_1 
REMARK       I    between atoms: N_4  and  C_1 
REMARK    2  A    between atoms: C_3  and  N_4 
REMARK    3  A    between atoms: C_5  and  C_8 
REMARK    4  A    between atoms: N_7  and  C_6 
ROOT
ATOM      1  C   UNL d   1      -1.167   0.423  -1.301  0.00  0.00     0.057 A 
ATOM      2  C   UNL d   1      -1.851   1.010  -0.208  0.00  0.00     0.037 A 
ATOM      3  C   UNL d   1      -3.227   0.256  -2.574  0.00  0.00     0.050 A 
ATOM      4  C   UNL d   1      -1.842   0.076  -2.475  0.00  0.00     0.047 A 
ATOM      5  C   UNL d   1      -3.233   1.195  -0.324  0.00  0.00     0.027 A 
ATOM      6  C   UNL d   1      -3.915   0.819  -1.490  0.00  0.00     0.018 A 
ENDROOT
BRANCH   1   7
ATOM      7  N   UNL d   1       0.201   0.105  -1.123  0.00  0.00    -0.321 N 
ATOM      8  C   UNL d   1       1.156   0.171  -2.112  0.00  0.00     0.261 C 
ATOM      9  O   UNL d   1       0.982   0.655  -3.229  0.00  0.00    -0.267 OA
ATOM     10  H   UNL d   1       0.485   0.036  -0.149  0.00  0.00     0.169 HD
BRANCH   8  11
ATOM     11  C   UNL d   1       2.485  -0.380  -1.789  0.00  0.00     0.092 A 
ATOM     12  C   UNL d   1       2.564  -1.714  -1.384  0.00  0.00     0.133 A 
ATOM     13  F   UNL d   1       1.456  -2.414  -1.102  0.00  0.00    -0.205 F 
ATOM     14  C   UNL d   1       3.792  -2.368  -1.296  0.00  0.00     0.043 A 
ATOM     15  C   UNL d   1       4.964  -1.689  -1.617  0.00  0.00     0.005 A 
ATOM     16  C   UNL d   1       4.905  -0.342  -1.978  0.00  0.00     0.025 A 
ATOM     17  C   UNL d   1       3.667   0.316  -2.058  0.00  0.00     0.052 A 
ATOM     18 CL   UNL d   1       3.695   2.005  -2.427  0.00  0.00    -0.083 Cl
ENDBRANCH   8  11
ENDBRANCH   1   7
BRANCH   2  19
ATOM     19  N   UNL d   1      -1.106   1.421   0.909  0.00  0.00    -0.278 NA
ATOM     20  C   UNL d   1      -1.766   1.563   2.220  0.00  0.00     0.122 C 
ATOM     21  C   UNL d   1      -0.662   1.667   3.289  0.00  0.00     0.182 C 
ATOM     22  O   UNL d   1       0.230   2.771   3.036  0.00  0.00    -0.389 OA
ATOM     23  C   UNL d   1       0.824   2.666   1.729  0.00  0.00     0.182 C 
ATOM     24  C   UNL d   1      -0.251   2.608   0.635  0.00  0.00     0.122 C 
ENDBRANCH   2  19
BRANCH   3  25
ATOM     25  C   UNL d   1      -3.979  -0.173  -3.809  0.00  0.00     0.417 C 
ATOM     26  F   UNL d   1      -3.192  -0.722  -4.777  0.00  0.00    -0.166 F 
ATOM     27  F   UNL d   1      -4.928  -1.115  -3.530  0.00  0.00    -0.166 F 
ATOM     28  F   UNL d   1      -4.644   0.854  -4.402  0.00  0.00    -0.166 F 
ENDBRANCH   3  25
TORSDOF 4
