REMARK  3 active torsions:
REMARK  status: ('A' for Active; 'I' for Inactive)
REMARK    1  A    between atoms: C_8  and  N_1 
REMARK    2  A    between atoms: O_16  and  C_10 
REMARK    3  A    between atoms: O_17  and  C_11 
ROOT
ATOM      1  C   UNL d   1      -1.173  -1.388  -2.669  0.00  0.00     0.033 A 
ATOM      2  N   UNL d   1      -2.745  -1.916  -4.444  0.00  0.00    -0.277 N 
ATOM      3  HN  UNL d   1      -3.427  -1.593  -5.131  1.00  0.00     0.189 HD
ATOM      4  N   UNL d   1      -2.453  -3.233  -4.331  0.00  0.00    -0.277 N 
ATOM      5  HN  UNL d   1      -2.915  -3.919  -4.928  1.00  0.00     0.189 HD
ATOM      6  C   UNL d   1      -0.864  -2.755  -2.558  0.00  0.00     0.031 A 
ATOM      7  C   UNL d   1       0.426  -0.893  -0.896  0.00  0.00     0.103 A 
ATOM      8  C   UNL d   1      -0.526  -0.457  -1.826  0.00  0.00     0.053 A 
ATOM      9  C   UNL d   1      -2.120  -1.038  -3.634  0.00  0.00     0.166 A 
ATOM     10  C   UNL d   1      -1.542  -3.622  -3.418  0.00  0.00     0.166 A 
ATOM     11  C   UNL d   1       0.097  -3.176  -1.611  0.00  0.00     0.019 A 
ATOM     12  C   UNL d   1       0.742  -2.252  -0.786  0.00  0.00     0.037 A 
ENDROOT
BRANCH   7  13
ATOM     13  N   UNL d   1       1.104   0.083  -0.033  0.00  0.00    -0.116 N 
ATOM     14  O   UNL d   1       0.786   1.274  -0.149  0.00  0.00    -0.532 OA
ATOM     15  O   UNL d   1       1.956  -0.344   0.759  0.00  0.00    -0.532 OA
ENDBRANCH   7  13
BRANCH   9  16
ATOM     16  O   UNL d   1      -2.472   0.262  -3.835  0.00  0.00    -0.344 OA
ATOM     17  H   UNL d   1      -3.107   0.181  -4.570  0.00  0.00     0.219 HD
ENDBRANCH   9  16
BRANCH  10  18
ATOM     18  O   UNL d   1      -1.316  -4.965  -3.389  0.00  0.00    -0.344 OA
ATOM     19  H   UNL d   1      -1.922  -5.278  -4.085  0.00  0.00     0.219 HD
ENDBRANCH  10  18
TORSDOF 3
