REMARK  4 active torsions:
REMARK  status: ('A' for Active; 'I' for Inactive)
REMARK    1  A    between atoms: C_5  and  C_1 
REMARK    2  A    between atoms: C_6  and  C_2 
REMARK       I    between atoms: N_10  and  C_5 
REMARK    3  A    between atoms: C_9  and  C_7 
REMARK    4  A    between atoms: C_8  and  N_11 
ROOT
ATOM      1  C   UNL d   1       0.210  -2.544   0.443  0.00  0.00     0.258 C 
ATOM      2  N   UNL d   1      -0.638  -3.610   0.123  0.00  0.00    -0.346 N 
ATOM      3  N   UNL d   1      -2.738  -5.494  -0.336  0.00  0.00    -0.266 NA
ATOM      4  O   UNL d   1       0.348  -1.565  -0.286  0.00  0.00    -0.267 OA
ATOM      5  C   UNL d   1      -1.409  -3.563  -1.131  0.00  0.00     0.141 C 
ATOM      6  C   UNL d   1      -0.623  -4.953   0.739  0.00  0.00     0.141 C 
ATOM      7  C   UNL d   1      -2.836  -4.142  -0.937  0.00  0.00     0.117 C 
ATOM      8  C   UNL d   1      -2.056  -5.470   0.969  0.00  0.00     0.117 C 
ENDROOT
BRANCH   1   9
ATOM      9  C   UNL d   1       0.932  -2.614   1.699  0.00  0.00     0.092 C 
ATOM     10  C   UNL d   1       2.310  -2.362   2.009  0.00  0.00     0.086 C 
ATOM     11  N   UNL d   1       2.539  -2.682   3.298  0.00  0.00    -0.259 N 
ATOM     12  O   UNL d   1       1.326  -2.929   3.876  0.00  0.00    -0.241 OA
ATOM     13  HN  UNL d   1       3.449  -2.731   3.757  1.00  0.00     0.195 HD
ATOM     14  C   UNL d   1       0.354  -2.852   2.939  0.00  0.00     0.090 C 
ATOM     15  C   UNL d   1      -1.020  -3.046   3.441  0.00  0.00     0.080 C 
BRANCH  10  16
ATOM     16  C   UNL d   1       3.445  -1.880   1.201  0.00  0.00     0.037 A 
ATOM     17  C   UNL d   1       4.313  -0.888   1.725  0.00  0.00     0.048 A 
ATOM     18 CL   UNL d   1       4.010  -0.025   3.205  0.00  0.00    -0.083 Cl
ATOM     19  C   UNL d   1       5.490  -0.512   1.057  0.00  0.00     0.025 A 
ATOM     20  C   UNL d   1       5.806  -1.070  -0.173  0.00  0.00     0.003 A 
ATOM     21  C   UNL d   1       4.944  -2.008  -0.733  0.00  0.00     0.025 A 
ATOM     22  C   UNL d   1       3.789  -2.431  -0.048  0.00  0.00     0.048 A 
ATOM     23 CL   UNL d   1       2.910  -3.718  -0.802  0.00  0.00    -0.083 Cl
ENDBRANCH  10  16
ENDBRANCH   1   9
BRANCH   3  24
ATOM     24  C   UNL d   1      -3.919  -6.228  -0.371  0.00  0.00     0.097 A 
ATOM     25  C   UNL d   1      -4.271  -6.930  -1.525  0.00  0.00     0.086 A 
ATOM     26  C   UNL d   1      -5.464  -7.676  -1.516  0.00  0.00     0.021 A 
ATOM     27  C   UNL d   1      -6.248  -7.729  -0.375  0.00  0.00     0.018 A 
ATOM     28  C   UNL d   1      -5.813  -7.024   0.729  0.00  0.00     0.089 A 
ATOM     29  N   UNL d   1      -4.681  -6.286   0.751  0.00  0.00    -0.356 N 
ATOM     30  HN  UNL d   1      -4.404  -5.783   1.594  1.00  0.00     0.166 HD
BRANCH  25  31
ATOM     31  C   UNL d   1      -3.424  -6.950  -2.764  0.00  0.00     0.420 C 
ATOM     32  F   UNL d   1      -2.166  -6.438  -2.669  0.00  0.00    -0.166 F 
ATOM     33  F   UNL d   1      -3.251  -8.220  -3.239  0.00  0.00    -0.166 F 
ATOM     34  F   UNL d   1      -4.014  -6.264  -3.787  0.00  0.00    -0.166 F 
ENDBRANCH  25  31
ENDBRANCH   3  24
TORSDOF 4
