REMARK  3 active torsions:
REMARK  status: ('A' for Active; 'I' for Inactive)
REMARK    1  A    between atoms: N_10  and  C_2 
REMARK    2  A    between atoms: C_8  and  C_14 
REMARK    3  A    between atoms: C_14  and  N_10 
ROOT
ATOM      1  S   UNL d   1       1.575   1.399  -0.503  0.00  0.00    -0.022 SA
ATOM      2  C   UNL d   1       1.978  -0.199   0.085  0.00  0.00     0.162 A 
ATOM      3  C   UNL d   1      -0.089   1.065  -0.120  0.00  0.00     0.160 A 
ATOM      4  N   UNL d   1       0.986  -0.914   0.517  0.00  0.00    -0.278 N 
ATOM      5  HN  UNL d   1       1.057  -1.864   0.883  1.00  0.00     0.189 HD
ATOM      6  N   UNL d   1      -0.170  -0.196   0.406  0.00  0.00    -0.282 N 
ATOM      7  S   UNL d   1      -1.385   2.071  -0.340  0.00  0.00    -0.051 SA
ATOM      8  H   UNL d   1      -1.041  -0.604   0.726  0.00  0.00     0.188 HD
ENDROOT
BRANCH   2   9
ATOM      9  N   UNL d   1       3.290  -0.543   0.022  0.00  0.00    -0.365 N 
ATOM     10  H   UNL d   1       3.875   0.091  -0.509  0.00  0.00     0.162 HD
BRANCH   9  11
ATOM     11  C   UNL d   1       3.699  -1.932  -0.046  0.00  0.00     0.168 C 
BRANCH  11  12
ATOM     12  C   UNL d   1       5.188  -2.098  -0.146  0.00  0.00     0.000 A 
ATOM     13  S   UNL d   1       5.951  -2.147  -1.681  0.00  0.00    -0.105 SA
ATOM     14  C   UNL d   1       7.498  -2.333  -0.978  0.00  0.00     0.050 A 
ATOM     15  C   UNL d   1       7.442  -2.349   0.398  0.00  0.00     0.008 A 
ATOM     16  C   UNL d   1       6.108  -2.208   0.879  0.00  0.00     0.017 A 
ENDBRANCH  11  12
ENDBRANCH   9  11
ENDBRANCH   2   9
TORSDOF 3
