REMARK  6 active torsions:
REMARK  status: ('A' for Active; 'I' for Inactive)
REMARK    1  A    between atoms: C_9  and  C_3 
REMARK    2  A    between atoms: O_12  and  C_4 
REMARK    3  A    between atoms: C_13  and  C_7 
REMARK    4  A    between atoms: C_17  and  C_13 
REMARK    5  A    between atoms: C_19  and  C_17 
REMARK    6  A    between atoms: C_18  and  C_19 
ROOT
ATOM      1  N   UNL d   1      -0.724   1.202  -0.092  0.00  0.00    -0.321 N 
ATOM      2  HN  UNL d   1      -1.189   2.110  -0.113  1.00  0.00     0.169 HD
ATOM      3  C   UNL d   1      -1.407   0.049  -0.048  0.00  0.00     0.134 A 
ATOM      4  C   UNL d   1       0.605   1.082  -0.107  0.00  0.00     0.149 A 
ATOM      5  N   UNL d   1      -0.817  -1.166  -0.021  0.00  0.00    -0.344 N 
ATOM      6  HN  UNL d   1      -1.379  -2.017  -0.001  1.00  0.00     0.167 HD
ATOM      7  C   UNL d   1       1.331  -0.095  -0.081  0.00  0.00     0.015 A 
ATOM      8  C   UNL d   1       0.536  -1.231  -0.022  0.00  0.00     0.017 A 
ATOM      9  C   UNL d   1       1.059  -2.631   0.065  0.00  0.00     0.069 C 
ENDROOT
BRANCH   3  10
ATOM     10  C   UNL d   1      -2.892   0.088   0.010  0.00  0.00     0.076 A 
ATOM     11  N   UNL d   1      -3.496   1.312   0.051  0.00  0.00    -0.363 N 
ATOM     12  C   UNL d   1      -4.845   1.352   0.121  0.00  0.00     0.088 A 
ATOM     13  HN  UNL d   1      -2.945   2.170   0.029  1.00  0.00     0.165 HD
ATOM     14  C   UNL d   1      -5.652   0.228   0.152  0.00  0.00     0.017 A 
ATOM     15  C   UNL d   1      -5.043  -1.015   0.108  0.00  0.00     0.004 A 
ATOM     16  C   UNL d   1      -3.651  -1.088   0.037  0.00  0.00     0.033 A 
ENDBRANCH   3  10
BRANCH   4  17
ATOM     17  O   UNL d   1       1.223   2.292  -0.120  0.00  0.00    -0.346 OA
ATOM     18  H   UNL d   1       0.442   2.876  -0.096  0.00  0.00     0.219 HD
ENDBRANCH   4  17
BRANCH   7  19
ATOM     19  C   UNL d   1       2.834  -0.077  -0.025  0.00  0.00     0.045 C 
BRANCH  19  20
ATOM     20  C   UNL d   1       3.596  -0.765  -1.164  0.00  0.00     0.005 C 
BRANCH  20  21
ATOM     21  C   UNL d   1       3.287  -0.242  -2.567  0.00  0.00    -0.000 C 
BRANCH  21  22
ATOM     22  C   UNL d   1       4.120  -1.012  -3.596  0.00  0.00    -0.005 C 
ATOM     23  C   UNL d   1       3.838  -0.574  -5.022  0.00  0.00     0.005 C 
ENDBRANCH  21  22
ENDBRANCH  20  21
ENDBRANCH  19  20
ENDBRANCH   7  19
TORSDOF 6
