REMARK  5 active torsions:
REMARK  status: ('A' for Active; 'I' for Inactive)
REMARK    1  A    between atoms: C_8  and  N_2 
REMARK    2  A    between atoms: C_7  and  O_12 
REMARK    3  A    between atoms: N_11  and  C_8 
REMARK    4  A    between atoms: C_16  and  N_11 
REMARK    5  A    between atoms: O_12  and  C_17 
ROOT
ATOM      1  N   UNL d   1       0.897   3.492  -0.086  0.00  0.00    -0.275 NA
ATOM      2  H   UNL d   1       0.039   3.064   0.272  0.00  0.00     0.129 HD
ENDROOT
BRANCH   1   3
ATOM      3  C   UNL d   1       1.970   2.492  -0.094  0.00  0.00     0.240 C 
BRANCH   3   4
ATOM      4  N   UNL d   1       1.464   1.120  -0.110  0.00  0.00    -0.260 N 
ATOM      5  N   UNL d   1       0.720   0.694   0.933  0.00  0.00    -0.018 NA
ATOM      6  N   UNL d   1       0.326  -0.542   0.669  0.00  0.00    -0.282 N 
ATOM      7  C   UNL d   1       0.820  -0.890  -0.558  0.00  0.00     0.074 A 
ATOM      8  HN  UNL d   1      -0.245  -1.131   1.275  1.00  0.00     0.184 HD
ATOM      9  C   UNL d   1       0.678  -2.078  -1.289  0.00  0.00     0.039 A 
ATOM     10  C   UNL d   1       1.558   0.165  -1.086  0.00  0.00     0.078 A 
ATOM     11  C   UNL d   1       1.288  -2.180  -2.547  0.00  0.00    -0.060 A 
ATOM     12  C   UNL d   1       1.152  -3.436  -3.358  0.00  0.00     0.048 C 
ATOM     13  C   UNL d   1       2.019  -1.093  -3.058  0.00  0.00     0.009 A 
ATOM     14  C   UNL d   1       2.169   0.102  -2.343  0.00  0.00     0.034 A 
ENDBRANCH   3   4
ENDBRANCH   1   3
BRANCH   1  15
ATOM     15  C   UNL d   1       1.115   4.731   0.524  0.00  0.00     0.009 A 
ATOM     16  C   UNL d   1       2.353   5.369   0.569  0.00  0.00     0.026 A 
ATOM     17  C   UNL d   1       2.477   6.648   1.133  0.00  0.00     0.039 A 
ATOM     18  C   UNL d   1       1.362   7.333   1.621  0.00  0.00     0.078 A 
ATOM     19  C   UNL d   1       0.123   6.708   1.580  0.00  0.00     0.039 A 
ATOM     20  C   UNL d   1       0.001   5.436   1.004  0.00  0.00     0.026 A 
BRANCH  18  21
ATOM     21  O   UNL d   1       1.630   8.569   2.123  0.00  0.00    -0.255 OA
BRANCH  21  22
ATOM     22  C   UNL d   1       0.613   9.560   2.145  0.00  0.00     0.530 C 
ATOM     23  F   UNL d   1      -0.455   9.279   1.369  0.00  0.00    -0.144 F 
ATOM     24  F   UNL d   1       0.195   9.753   3.414  0.00  0.00    -0.144 F 
ATOM     25  F   UNL d   1       1.146  10.721   1.699  0.00  0.00    -0.144 F 
ENDBRANCH  21  22
ENDBRANCH  18  21
ENDBRANCH   1  15
TORSDOF 5
