REMARK  4 active torsions:
REMARK  status: ('A' for Active; 'I' for Inactive)
REMARK    1  A    between atoms: C_5  and  N_1 
REMARK    2  A    between atoms: C_2  and  C_4 
REMARK       I    between atoms: N_3  and  C_2 
REMARK    3  A    between atoms: C_13  and  N_6 
REMARK    4  A    between atoms: C_16  and  C_13 
ROOT
ATOM      1  C   UNL d   1       0.440  -3.166  -3.637  0.00  0.00     0.254 C 
ATOM      2  N   UNL d   1      -0.181  -3.539  -4.825  0.00  0.00    -0.345 N 
ATOM      3  N   UNL d   1      -2.302  -4.223  -6.747  0.00  0.00     0.095 N 
ATOM      4  O   UNL d   1       0.769  -3.987  -2.782  0.00  0.00    -0.267 OA
ATOM      5  C   UNL d   1      -0.405  -2.715  -6.017  0.00  0.00     0.156 C 
ATOM      6  C   UNL d   1      -0.556  -4.946  -5.014  0.00  0.00     0.156 C 
ATOM      7  C   UNL d   1      -1.876  -2.834  -6.454  0.00  0.00     0.292 C 
ATOM      8  C   UNL d   1      -1.994  -5.078  -5.572  0.00  0.00     0.292 C 
ENDROOT
BRANCH   1   9
ATOM      9  C   UNL d   1       0.737  -1.739  -3.335  0.00  0.00     0.034 A 
ATOM     10  C   UNL d   1       1.919  -1.446  -2.637  0.00  0.00     0.053 A 
ATOM     11  C   UNL d   1       2.208  -0.119  -2.294  0.00  0.00     0.103 A 
ATOM     12  C   UNL d   1       1.347   0.920  -2.663  0.00  0.00     0.036 A 
ATOM     13  C   UNL d   1       0.156   0.623  -3.324  0.00  0.00     0.003 A 
ATOM     14  C   UNL d   1      -0.166  -0.704  -3.621  0.00  0.00     0.017 A 
BRANCH  11  15
ATOM     15  N   UNL d   1       3.413   0.185  -1.512  0.00  0.00    -0.116 N 
ATOM     16  O   UNL d   1       4.145  -0.758  -1.183  0.00  0.00    -0.532 OA
ATOM     17  O   UNL d   1       3.628   1.373  -1.224  0.00  0.00    -0.532 OA
ENDBRANCH  11  15
ENDBRANCH   1   9
BRANCH   3  18
ATOM     18  C   UNL d   1      -1.680  -4.771  -7.968  0.00  0.00     0.311 C 
BRANCH  18  19
ATOM     19  C   UNL d   1      -1.958  -3.956  -9.213  0.00  0.00    -0.030 A 
ATOM     20  C   UNL d   1      -0.910  -3.320  -9.898  0.00  0.00     0.009 A 
ATOM     21  C   UNL d   1      -1.169  -2.552 -11.034  0.00  0.00     0.001 A 
ATOM     22  C   UNL d   1      -2.475  -2.414 -11.500  0.00  0.00     0.000 A 
ATOM     23  C   UNL d   1      -3.523  -3.042 -10.830  0.00  0.00     0.001 A 
ATOM     24  C   UNL d   1      -3.267  -3.808  -9.692  0.00  0.00     0.009 A 
ENDBRANCH  18  19
ENDBRANCH   3  18
TORSDOF 4
