REMARK  5 active torsions:
REMARK  status: ('A' for Active; 'I' for Inactive)
REMARK    1  A    between atoms: C_5  and  C_1 
REMARK       I    between atoms: N_15  and  C_5 
REMARK    2  A    between atoms: C_7  and  C_24 
REMARK    3  A    between atoms: C_18  and  N_15 
REMARK    4  A    between atoms: S_19  and  C_21 
REMARK    5  A    between atoms: C_24  and  S_19 
ROOT
ATOM      1  C   UNL d   1       2.023  -3.124   0.159  0.00  0.00     0.051 A 
ATOM      2  C   UNL d   1       2.389  -2.167   1.127  0.00  0.00     0.027 A 
ATOM      3  C   UNL d   1       3.021  -3.699  -0.642  0.00  0.00     0.031 A 
ATOM      4  C   UNL d   1       3.738  -1.800   1.258  0.00  0.00     0.021 A 
ATOM      5  C   UNL d   1       4.358  -3.328  -0.498  0.00  0.00     0.002 A 
ATOM      6  C   UNL d   1       4.718  -2.379   0.451  0.00  0.00     0.002 A 
ENDROOT
BRANCH   2   7
ATOM      7  S   UNL d   1       1.226  -1.352   2.227  0.00  0.00    -0.120 SA
BRANCH   7   8
ATOM      8  C   UNL d   1       0.580  -2.742   3.228  0.00  0.00     0.158 C 
BRANCH   8   9
ATOM      9  C   UNL d   1       1.608  -3.631   3.823  0.00  0.00     0.113 A 
ATOM     10  N   UNL d   1       2.083  -4.731   3.158  0.00  0.00    -0.322 N 
ATOM     11  C   UNL d   1       2.886  -5.290   4.041  0.00  0.00     0.189 A 
ATOM     12  HN  UNL d   1       1.867  -5.041   2.210  1.00  0.00     0.169 HD
ATOM     13  C   UNL d   1       3.630  -6.488   3.777  0.00  0.00     0.058 A 
ATOM     14  O   UNL d   1       2.906  -4.600   5.228  0.00  0.00    -0.217 OA
ATOM     15  S   UNL d   1       4.478  -7.324   5.007  0.00  0.00    -0.098 SA
ATOM     16  C   UNL d   1       3.759  -7.124   2.556  0.00  0.00     0.024 A 
ATOM     17  C   UNL d   1       5.011  -8.529   3.915  0.00  0.00     0.050 A 
ATOM     18  C   UNL d   1       4.561  -8.300   2.634  0.00  0.00     0.009 A 
ATOM     19  N   UNL d   1       2.052  -3.502   5.080  0.00  0.00    -0.246 N 
ATOM     20  HN  UNL d   1       1.823  -2.780   5.762  1.00  0.00     0.196 HD
ENDBRANCH   8   9
ENDBRANCH   7   8
ENDBRANCH   2   7
BRANCH   1  21
ATOM     21  N   UNL d   1       0.658  -3.440  -0.035  0.00  0.00    -0.321 N 
ATOM     22  C   UNL d   1       0.165  -4.612  -0.589  0.00  0.00     0.266 C 
ATOM     23  O   UNL d   1       0.869  -5.585  -0.850  0.00  0.00    -0.267 OA
ATOM     24  H   UNL d   1      -0.004  -2.793   0.377  0.00  0.00     0.169 HD
BRANCH  22  25
ATOM     25  C   UNL d   1      -1.266  -4.657  -0.781  0.00  0.00     0.110 A 
ATOM     26  C   UNL d   1      -2.112  -5.755  -0.876  0.00  0.00     0.043 A 
ATOM     27  N   UNL d   1      -3.442  -5.436  -1.137  0.00  0.00    -0.296 N 
ATOM     28  C   UNL d   1      -1.764  -7.193  -0.730  0.00  0.00     0.071 C 
ATOM     29  N   UNL d   1      -3.627  -4.133  -1.245  0.00  0.00    -0.061 NA
ATOM     30  HN  UNL d   1      -4.185  -6.128  -1.234  1.00  0.00     0.183 HD
ATOM     31  S   UNL d   1      -2.221  -3.260  -1.035  0.00  0.00     0.007 SA
ENDBRANCH  22  25
ENDBRANCH   1  21
TORSDOF 5
