REMARK  2 active torsions:
REMARK  status: ('A' for Active; 'I' for Inactive)
REMARK       I    between atoms: C_4  and  N_1 
REMARK    1  A    between atoms: C_3  and  C_4 
REMARK    2  A    between atoms: C_12  and  N_6 
ROOT
ATOM      1  N   UNL d   1      -2.694   0.255  -0.230  0.00  0.00    -0.279 N 
ATOM      2  C   UNL d   1      -2.280  -0.707  -1.201  0.00  0.00     0.155 C 
ATOM      3  C   UNL d   1      -3.565   0.035   0.863  0.00  0.00     0.264 C 
ATOM      4  N   UNL d   1      -2.513  -1.988  -1.151  0.00  0.00    -0.335 N 
ATOM      5  HN  UNL d   1      -3.108  -2.352  -0.406  1.00  0.00     0.168 HD
ATOM      6  S   UNL d   1      -1.334   0.089  -2.461  0.00  0.00    -0.056 SA
ATOM      7  C   UNL d   1      -2.053   1.637  -0.384  0.00  0.00     0.075 C 
ATOM      8  C   UNL d   1      -0.940   1.415  -1.428  0.00  0.00     0.005 C 
ATOM      9  O   UNL d   1      -3.538   0.769   1.835  0.00  0.00    -0.267 OA
ATOM     10  C   UNL d   1       0.205   2.095  -1.620  0.00  0.00     0.029 C 
ATOM     11  C   UNL d   1      -3.035   2.601  -1.096  0.00  0.00     0.037 C 
ATOM     12  C   UNL d   1      -1.485   2.304   0.922  0.00  0.00     0.037 C 
ATOM     13  C   UNL d   1      -2.408   3.233   1.739  0.00  0.00     0.003 C 
ATOM     14  C   UNL d   1      -4.088   3.204  -0.189  0.00  0.00     0.003 C 
ATOM     15  C   UNL d   1      -3.452   3.999   0.938  0.00  0.00     0.000 C 
ENDROOT
BRANCH   3  16
ATOM     16  C   UNL d   1      -4.558  -1.041   0.875  0.00  0.00     0.072 C 
ATOM     17  C   UNL d   1      -4.934  -1.675   2.045  0.00  0.00     0.091 C 
ATOM     18  S   UNL d   1      -6.030  -2.939   1.832  0.00  0.00    -0.076 SA
ATOM     19 CL   UNL d   1      -4.438  -1.360   3.672  0.00  0.00    -0.075 Cl
ATOM     20  C   UNL d   1      -6.248  -2.537   0.180  0.00  0.00     0.017 A 
ATOM     21  C   UNL d   1      -5.451  -1.446  -0.197  0.00  0.00    -0.001 A 
ATOM     22  C   UNL d   1      -7.109  -3.186  -0.725  0.00  0.00     0.020 A 
ATOM     23  C   UNL d   1      -5.623  -0.942  -1.513  0.00  0.00     0.014 A 
ATOM     24  C   UNL d   1      -6.504  -1.561  -2.406  0.00  0.00     0.001 A 
ATOM     25  C   UNL d   1      -7.220  -2.688  -2.023  0.00  0.00     0.001 A 
ENDBRANCH   3  16
BRANCH   4  26
ATOM     26  C   UNL d   1      -1.961  -2.904  -2.108  0.00  0.00     0.046 C 
ATOM     27  C   UNL d   1      -0.565  -3.112  -2.233  0.00  0.00    -0.034 C 
ATOM     28  C   UNL d   1      -0.057  -3.998  -3.212  0.00  0.00     0.015 C 
ATOM     29  C   UNL d   1       0.452  -2.430  -1.359  0.00  0.00     0.050 C 
ATOM     30  C   UNL d   1      -0.892  -4.748  -4.036  0.00  0.00    -0.061 C 
ATOM     31  C   UNL d   1      -2.261  -4.611  -3.873  0.00  0.00     0.015 C 
ATOM     32  C   UNL d   1      -0.343  -5.716  -5.035  0.00  0.00     0.048 C 
ATOM     33  C   UNL d   1      -2.789  -3.737  -2.900  0.00  0.00    -0.034 C 
ATOM     34  C   UNL d   1      -4.270  -3.815  -2.768  0.00  0.00     0.050 C 
ENDBRANCH   4  26
TORSDOF 2
