REMARK  4 active torsions:
REMARK  status: ('A' for Active; 'I' for Inactive)
REMARK    1  A    between atoms: C_8  and  N_1 
REMARK       I    between atoms: C_5  and  N_2 
REMARK    2  A    between atoms: C_12  and  C_5 
REMARK    3  A    between atoms: C_13  and  C_8 
REMARK    4  A    between atoms: C_14  and  C_13 
ROOT
ATOM      1  N   UNL d   1       0.217  -0.935   0.186  0.00  0.00    -0.285 N 
ATOM      2  N   UNL d   1       0.209   1.792   0.147  0.00  0.00    -0.334 N 
ATOM      3  C   UNL d   1      -0.941  -0.336  -0.314  0.00  0.00     0.244 C 
ATOM      4  C   UNL d   1       1.475  -0.329   0.059  0.00  0.00     0.244 C 
ATOM      5  C   UNL d   1       0.109   2.626   1.250  0.00  0.00     0.224 C 
ATOM      6  C   UNL d   1      -0.896   1.173  -0.563  0.00  0.00     0.229 C 
ATOM      7  C   UNL d   1       1.495   1.185  -0.167  0.00  0.00     0.229 C 
ATOM      8  O   UNL d   1      -1.933  -0.976  -0.668  0.00  0.00    -0.271 OA
ATOM      9  O   UNL d   1       2.522  -0.977  -0.008  0.00  0.00    -0.271 OA
ATOM     10  O   UNL d   1       1.099   2.854   1.946  0.00  0.00    -0.273 OA
ENDROOT
BRANCH   1  11
ATOM     11  C   UNL d   1       0.177  -2.386   0.428  0.00  0.00     0.139 C 
BRANCH  11  12
ATOM     12  C   UNL d   1       0.858  -2.807   1.742  0.00  0.00     0.059 C 
BRANCH  12  13
ATOM     13  C   UNL d   1       0.748  -4.283   2.045  0.00  0.00    -0.057 A 
ATOM     14  C   UNL d   1       1.891  -5.101   2.007  0.00  0.00     0.007 A 
ATOM     15  C   UNL d   1       1.815  -6.449   2.360  0.00  0.00     0.001 A 
ATOM     16  C   UNL d   1       0.596  -7.002   2.747  0.00  0.00     0.000 A 
ATOM     17  C   UNL d   1      -0.549  -6.208   2.771  0.00  0.00     0.001 A 
ATOM     18  C   UNL d   1      -0.473  -4.857   2.421  0.00  0.00     0.007 A 
ENDBRANCH  12  13
ENDBRANCH  11  12
ENDBRANCH   1  11
BRANCH   5  19
ATOM     19  C   UNL d   1      -1.255   3.260   1.590  0.00  0.00     0.078 C 
ATOM     20  C   UNL d   1      -1.776   4.213   0.505  0.00  0.00     0.014 C 
ATOM     21  C   UNL d   1      -0.986   5.516   0.431  0.00  0.00     0.001 C 
ATOM     22  C   UNL d   1      -0.929   6.238   1.771  0.00  0.00     0.000 C 
ATOM     23  C   UNL d   1      -0.485   5.330   2.916  0.00  0.00     0.001 C 
ATOM     24  C   UNL d   1      -1.231   3.993   2.945  0.00  0.00     0.014 C 
ENDBRANCH   5  19
TORSDOF 4
