REMARK  5 active torsions:
REMARK  status: ('A' for Active; 'I' for Inactive)
REMARK    1  A    between atoms: O_3  and  C_1 
REMARK    2  A    between atoms: C_2  and  C_8 
REMARK    3  A    between atoms: O_11  and  C_2 
REMARK    4  A    between atoms: C_9  and  O_3 
REMARK    5  A    between atoms: C_8  and  C_10 
ROOT
ATOM      1  C   UNL d   1       0.824   0.300   2.330  0.00  0.00     0.078 A 
ATOM      2  C   UNL d   1       1.724  -0.098   4.973  0.00  0.00    -0.048 A 
ATOM      3  C   UNL d   1       2.169   0.042   2.580  0.00  0.00     0.037 A 
ATOM      4  C   UNL d   1      -0.054   0.424   3.410  0.00  0.00     0.037 A 
ATOM      5  C   UNL d   1       0.387   0.229   4.721  0.00  0.00     0.010 A 
ATOM      6  C   UNL d   1       2.613  -0.171   3.892  0.00  0.00     0.010 A 
ENDROOT
BRANCH   1   7
ATOM      7  O   UNL d   1       0.239   0.475   1.114  0.00  0.00    -0.255 OA
BRANCH   7   8
ATOM      8  C   UNL d   1       0.854  -0.064  -0.046  0.00  0.00     0.530 C 
ATOM      9  F   UNL d   1       1.692  -1.089   0.214  0.00  0.00    -0.144 F 
ATOM     10  F   UNL d   1       1.528   0.906  -0.699  0.00  0.00    -0.144 F 
ATOM     11  F   UNL d   1      -0.118  -0.529  -0.864  0.00  0.00    -0.144 F 
ENDBRANCH   7   8
ENDBRANCH   1   7
BRANCH   2  12
ATOM     12  C   UNL d   1       2.201  -0.346   6.386  0.00  0.00     0.148 C 
BRANCH  12  13
ATOM     13  C   UNL d   1       1.498  -1.464   7.133  0.00  0.00     0.143 C 
ATOM     14  O   UNL d   1       1.355  -1.459   8.346  0.00  0.00    -0.650 OA
BRANCH  13  15
ATOM     15  O   UNL d   1       1.106  -2.512   6.374  0.00  0.00    -0.776 OA
ATOM     16  H   UNL d   1       1.280  -2.406   5.422  0.00  0.00     0.167 HD
ENDBRANCH  13  15
ENDBRANCH  12  13
ENDBRANCH   2  12
TORSDOF 5
