REMARK  0 active torsions:
REMARK  status: ('A' for Active; 'I' for Inactive)
ROOT
ATOM      1  N   UNL d   1      -1.266  -1.617   0.256  0.00  0.00    -0.247 N 
ATOM      2  N   UNL d   1      -1.838  -2.545   1.109  0.00  0.00    -0.298 N 
ATOM      3  HN  UNL d   1      -2.829  -2.730   1.260  1.00  0.00     0.187 HD
ATOM      4  C   UNL d   1      -1.597  -0.259   0.257  0.00  0.00     0.273 A 
ATOM      5  C   UNL d   1       0.161  -1.834   0.113  0.00  0.00     0.151 A 
ATOM      6  C   UNL d   1      -0.819  -3.129   1.676  0.00  0.00     0.045 C 
ATOM      7  C   UNL d   1      -0.823  -4.336   2.453  0.00  0.00     0.030 C 
ATOM      8  C   UNL d   1       0.507  -2.450   1.440  0.00  0.00     0.092 C 
ATOM      9  C   UNL d   1      -0.338   0.455  -0.068  0.00  0.00     0.042 A 
ATOM     10  C   UNL d   1       0.702  -0.479  -0.131  0.00  0.00    -0.017 A 
ATOM     11  S   UNL d   1      -1.721  -5.691   1.921  0.00  0.00    -0.076 SA
ATOM     12  C   UNL d   1      -0.867  -6.715   2.965  0.00  0.00     0.075 C 
ATOM     13  C   UNL d   1      -0.005  -4.652   3.523  0.00  0.00     0.023 C 
ATOM     14  C   UNL d   1      -0.007  -6.050   3.800  0.00  0.00     0.033 C 
ATOM     15  O   UNL d   1      -2.642   0.300   0.540  0.00  0.00    -0.266 OA
ATOM     16 CL   UNL d   1      -1.096  -8.413   2.878  0.00  0.00    -0.076 Cl
ATOM     17  C   UNL d   1      -0.097   1.806  -0.216  0.00  0.00     0.018 A 
ATOM     18  C   UNL d   1       2.010  -0.097  -0.364  0.00  0.00     0.010 A 
ATOM     19  C   UNL d   1       1.227   2.204  -0.450  0.00  0.00     0.001 A 
ATOM     20  C   UNL d   1       2.268   1.261  -0.525  0.00  0.00     0.001 A 
ENDROOT
TORSDOF 0
