REMARK  3 active torsions:
REMARK  status: ('A' for Active; 'I' for Inactive)
REMARK    1  A    between atoms: N_9  and  C_1 
REMARK    2  A    between atoms: N_6  and  C_2 
REMARK       I    between atoms: C_8  and  N_9 
REMARK       I    between atoms: N_11  and  C_8 
REMARK    3  A    between atoms: C_10  and  N_11 
ROOT
ATOM      1  C   UNL d   1       3.510  -1.787  -0.464  0.00  0.00     0.325 C 
ATOM      2  N   UNL d   1       2.350  -1.849   0.231  0.00  0.00    -0.304 N 
ATOM      3  N   UNL d   1       4.365  -2.842  -0.411  0.00  0.00    -0.307 N 
ATOM      4  O   UNL d   1       3.823  -0.849  -1.206  0.00  0.00    -0.247 OA
ATOM      5  H   UNL d   1       2.074  -2.737   0.589  0.00  0.00     0.171 HD
ATOM      6  H   UNL d   1       5.119  -2.680  -1.077  0.00  0.00     0.170 HD
ENDROOT
BRANCH   2   7
ATOM      7  C   UNL d   1       1.363  -0.875   0.201  0.00  0.00     0.099 A 
ATOM      8  C   UNL d   1       0.015  -1.059   0.461  0.00  0.00     0.156 A 
ATOM      9  N   UNL d   1      -0.550   0.194   0.348  0.00  0.00    -0.279 N 
ATOM     10  C   UNL d   1      -1.937   0.590   0.239  0.00  0.00     0.179 C 
ATOM     11  N   UNL d   1       0.359   1.165   0.119  0.00  0.00    -0.306 N 
ATOM     12  C   UNL d   1       1.507   0.507  -0.026  0.00  0.00     0.141 A 
ATOM     13  HN  UNL d   1       0.203   2.171   0.069  1.00  0.00     0.186 HD
BRANCH   8  14
ATOM     14  N   UNL d   1      -0.658  -2.259   0.745  0.00  0.00    -0.316 N 
ATOM     15  C   UNL d   1      -0.218  -3.538   0.432  0.00  0.00     0.098 C 
ATOM     16  C   UNL d   1      -1.007  -4.477   1.053  0.00  0.00     0.019 C 
ATOM     17  C   UNL d   1      -2.056  -3.774   1.671  0.00  0.00     0.019 C 
ATOM     18  C   UNL d   1      -1.849  -2.426   1.427  0.00  0.00     0.098 C 
ENDBRANCH   8  14
ENDBRANCH   2   7
BRANCH   3  19
ATOM     19  C   UNL d   1       4.458  -4.080   0.268  0.00  0.00     0.059 A 
ATOM     20  C   UNL d   1       3.617  -4.520   1.294  0.00  0.00     0.055 A 
ATOM     21  C   UNL d   1       3.787  -5.793   1.857  0.00  0.00     0.036 A 
ATOM     22 CL   UNL d   1       2.699  -6.330   3.080  0.00  0.00    -0.084 Cl
ATOM     23  C   UNL d   1       4.819  -6.630   1.447  0.00  0.00     0.026 A 
ATOM     24  C   UNL d   1       5.697  -6.194   0.460  0.00  0.00     0.028 A 
ATOM     25  C   UNL d   1       5.514  -4.937  -0.125  0.00  0.00     0.060 A 
ATOM     26 CL   UNL d   1       6.636  -4.464  -1.360  0.00  0.00    -0.082 Cl
ENDBRANCH   3  19
TORSDOF 3
