REMARK  4 active torsions:
REMARK  status: ('A' for Active; 'I' for Inactive)
REMARK    1  A    between atoms: N_2  and  C_1 
REMARK    2  A    between atoms: C_9  and  C_3 
REMARK    3  A    between atoms: O_15  and  C_9 
REMARK    4  A    between atoms: C_18  and  O_15 
ROOT
ATOM      1  C   UNL d   1      -2.152  -0.966  -0.077  0.00  0.00     0.103 A 
ATOM      2  C   UNL d   1      -1.029  -1.783  -0.051  0.00  0.00     0.081 A 
ATOM      3  S   UNL d   1      -1.766   0.693  -0.149  0.00  0.00    -0.075 SA
ATOM      4  C   UNL d   1       0.180  -0.985  -0.019  0.00  0.00    -0.026 A 
ATOM      5  C   UNL d   1      -0.102   0.370  -0.058  0.00  0.00    -0.008 A 
ATOM      6  C   UNL d   1       1.602  -1.477  -0.017  0.00  0.00     0.041 C 
ATOM      7  C   UNL d   1       0.909   1.476  -0.009  0.00  0.00     0.047 C 
ATOM      8  C   UNL d   1       2.590  -0.382   0.412  0.00  0.00     0.005 C 
ATOM      9  C   UNL d   1       2.317   0.943  -0.309  0.00  0.00     0.005 C 
ENDROOT
BRANCH   1  10
ATOM     10  N   UNL d   1      -3.492  -1.299   0.026  0.00  0.00    -0.245 N 
ATOM     11  C   UNL d   1      -3.940  -2.236   0.921  0.00  0.00     0.232 A 
ATOM     12  C   UNL d   1      -5.384  -2.510   0.632  0.00  0.00     0.113 A 
ATOM     13  O   UNL d   1      -3.331  -2.756   1.848  0.00  0.00    -0.273 OA
ATOM     14  C   UNL d   1      -5.726  -1.602  -0.533  0.00  0.00     0.113 A 
ATOM     15  C   UNL d   1      -4.452  -0.875  -0.851  0.00  0.00     0.232 A 
ATOM     16  O   UNL d   1      -4.355  -0.098  -1.792  0.00  0.00    -0.273 OA
ENDBRANCH   1  10
BRANCH   2  17
ATOM     17  C   UNL d   1      -1.143  -3.244  -0.110  0.00  0.00     0.296 C 
ATOM     18  O   UNL d   1      -2.067  -3.811  -0.684  0.00  0.00    -0.259 OA
BRANCH  17  19
ATOM     19  O   UNL d   1      -0.155  -3.883   0.575  0.00  0.00    -0.318 OA
BRANCH  19  20
ATOM     20  C   UNL d   1      -0.400  -5.263   0.882  0.00  0.00     0.174 C 
ATOM     21  C   UNL d   1       0.504  -6.159   0.060  0.00  0.00     0.034 C 
ENDBRANCH  19  20
ENDBRANCH  17  19
ENDBRANCH   2  17
TORSDOF 4
