REMARK  3 active torsions:
REMARK  status: ('A' for Active; 'I' for Inactive)
REMARK    1  A    between atoms: C_7  and  N_3 
REMARK    2  A    between atoms: N_9  and  C_4 
REMARK    3  A    between atoms: C_8  and  C_6 
ROOT
ATOM      1  N   UNL d   1       0.890  -0.609  -0.337  0.00  0.00    -0.291 N 
ATOM      2  HN  UNL d   1       1.680  -1.152  -0.685  1.00  0.00     0.187 HD
ATOM      3  N   UNL d   1       0.862   0.723  -0.054  0.00  0.00    -0.240 N 
ATOM      4  C   UNL d   1      -0.448   1.167   0.140  0.00  0.00     0.123 C 
ATOM      5  C   UNL d   1      -1.221   0.034   0.196  0.00  0.00     0.081 C 
ATOM      6  C   UNL d   1      -0.345  -1.051  -0.059  0.00  0.00     0.062 C 
ENDROOT
BRANCH   3   7
ATOM      7  C   UNL d   1       2.076   1.463   0.024  0.00  0.00     0.058 A 
ATOM      8  C   UNL d   1       3.210   1.008  -0.668  0.00  0.00     0.034 A 
ATOM      9  C   UNL d   1       4.402   1.734  -0.609  0.00  0.00     0.044 A 
ATOM     10  C   UNL d   1       4.469   2.885   0.167  0.00  0.00     0.116 A 
ATOM     11  C   UNL d   1       3.366   3.327   0.889  0.00  0.00     0.044 A 
ATOM     12  F   UNL d   1       5.615   3.575   0.230  0.00  0.00    -0.206 F 
ATOM     13  C   UNL d   1       2.165   2.618   0.817  0.00  0.00     0.034 A 
ENDBRANCH   3   7
BRANCH   4  14
ATOM     14  N   UNL d   1      -0.842   2.466   0.210  0.00  0.00    -0.384 N 
ATOM     15  H   UNL d   1      -0.264   3.186  -0.221  0.00  0.00     0.157 HD
ATOM     16  H   UNL d   1      -1.833   2.681   0.110  0.00  0.00     0.157 HD
ENDBRANCH   4  14
BRANCH   6  17
ATOM     17  C   UNL d   1      -0.674  -2.480  -0.056  0.00  0.00    -0.008 A 
ATOM     18  C   UNL d   1       0.102  -3.399  -0.778  0.00  0.00     0.015 A 
ATOM     19  C   UNL d   1      -0.201  -4.766  -0.751  0.00  0.00     0.024 A 
ATOM     20  C   UNL d   1      -1.278  -5.221   0.005  0.00  0.00     0.034 A 
ATOM     21  C   UNL d   1      -2.058  -4.325   0.730  0.00  0.00     0.024 A 
ATOM     22 CL   UNL d   1      -1.643  -6.902   0.052  0.00  0.00    -0.084 Cl
ATOM     23  C   UNL d   1      -1.758  -2.959   0.698  0.00  0.00     0.015 A 
ENDBRANCH   6  17
TORSDOF 3
