REMARK  2 active torsions:
REMARK  status: ('A' for Active; 'I' for Inactive)
REMARK    1  A    between atoms: C_6  and  C_3 
REMARK    2  A    between atoms: C_15  and  N_9 
ROOT
ATOM      1  N   UNL d   1       1.422  -0.527  -0.163  0.00  0.00    -0.335 N 
ATOM      2  HN  UNL d   1       2.315  -0.975  -0.368  1.00  0.00     0.168 HD
ATOM      3  C   UNL d   1       1.258   0.830   0.031  0.00  0.00     0.058 A 
ATOM      4  C   UNL d   1       0.281  -1.167  -0.050  0.00  0.00     0.149 A 
ATOM      5  S   UNL d   1      -1.063  -0.151   0.329  0.00  0.00    -0.063 SA
ATOM      6  C   UNL d   1      -0.040   1.226   0.274  0.00  0.00     0.084 A 
ATOM      7  N   UNL d   1       0.102  -2.502  -0.185  0.00  0.00    -0.335 N 
ATOM      8  H   UNL d   1      -0.814  -2.871   0.034  0.00  0.00     0.168 HD
ENDROOT
BRANCH   7   9
ATOM      9  C   UNL d   1       0.927  -3.390  -0.902  0.00  0.00     0.049 A 
ATOM     10  C   UNL d   1       2.021  -3.010  -1.683  0.00  0.00     0.117 A 
ATOM     11  N   UNL d   1       2.832  -3.863  -2.362  0.00  0.00    -0.373 N 
ATOM     12  C   UNL d   1       2.561  -5.175  -2.240  0.00  0.00     0.088 A 
ATOM     13  HN  UNL d   1       3.606  -3.526  -2.934  1.00  0.00     0.164 HD
ATOM     14  C   UNL d   1       1.527  -5.673  -1.468  0.00  0.00     0.019 A 
ATOM     15  C   UNL d   1       0.709  -4.768  -0.789  0.00  0.00     0.032 A 
ENDBRANCH   7   9
BRANCH   3  16
ATOM     16  C   UNL d   1       2.443   1.744  -0.020  0.00  0.00     0.032 A 
ATOM     17  S   UNL d   1       2.405   3.434   0.218  0.00  0.00    -0.100 SA
ATOM     18  C   UNL d   1       4.101   3.563   0.029  0.00  0.00     0.050 A 
ATOM     19  C   UNL d   1       4.688   2.343  -0.224  0.00  0.00     0.008 A 
ATOM     20  C   UNL d   1       3.726   1.290  -0.256  0.00  0.00     0.021 A 
ENDBRANCH   3  16
TORSDOF 2
