REMARK  7 active torsions:
REMARK  status: ('A' for Active; 'I' for Inactive)
REMARK    1  A    between atoms: C_6  and  C_1 
REMARK    2  A    between atoms: C_2  and  C_7 
REMARK    3  A    between atoms: N_20  and  C_5 
REMARK    4  A    between atoms: C_10  and  N_21 
REMARK    5  A    between atoms: C_26  and  N_20 
REMARK    6  A    between atoms: N_21  and  C_27 
REMARK    7  A    between atoms: C_27  and  C_26 
ROOT
ATOM      1  C   UNL d   1       0.800   6.129   0.840  0.00  0.00     0.110 C 
ENDROOT
BRANCH   1   2
ATOM      2  N   UNL d   1       1.189   4.828   0.306  0.00  0.00    -0.263 NA
ATOM      3  H   UNL d   1       1.210   4.750  -0.704  0.00  0.00     0.130 HD
BRANCH   2   4
ATOM      4  C   UNL d   1       2.315   4.230   0.827  0.00  0.00     0.157 A 
ATOM      5  N   UNL d   1       3.006   3.454  -0.015  0.00  0.00    -0.329 N 
ATOM      6  C   UNL d   1       4.077   2.777   0.477  0.00  0.00     0.120 A 
ATOM      7  HN  UNL d   1       2.737   3.372  -0.995  1.00  0.00     0.168 HD
ATOM      8  C   UNL d   1       4.460   2.882   1.802  0.00  0.00     0.051 A 
ATOM      9  C   UNL d   1       3.701   3.717   2.579  0.00  0.00     0.093 A 
ATOM     10  N   UNL d   1       2.644   4.401   2.112  0.00  0.00    -0.343 N 
ATOM     11  HN  UNL d   1       2.111   5.028   2.715  1.00  0.00     0.167 HD
BRANCH   6  12
ATOM     12  C   UNL d   1       4.875   1.869  -0.443  0.00  0.00     0.432 C 
ATOM     13  F   UNL d   1       4.434   1.844  -1.732  0.00  0.00    -0.165 F 
ATOM     14  F   UNL d   1       4.874   0.571  -0.022  0.00  0.00    -0.165 F 
ATOM     15  F   UNL d   1       6.191   2.227  -0.509  0.00  0.00    -0.165 F 
ENDBRANCH   6  12
ENDBRANCH   2   4
ENDBRANCH   1   2
BRANCH   1  16
ATOM     16  C   UNL d   1       1.538   7.285   0.136  0.00  0.00     0.108 C 
BRANCH  16  17
ATOM     17  N   UNL d   1       1.109   8.597   0.649  0.00  0.00    -0.278 NA
ATOM     18  H   UNL d   1       1.863   9.275   0.610  0.00  0.00     0.129 HD
BRANCH  17  19
ATOM     19  C   UNL d   1      -0.023   9.133   0.025  0.00  0.00     0.080 A 
ATOM     20  N   UNL d   1      -0.645   8.446  -0.953  0.00  0.00    -0.357 N 
ATOM     21  C   UNL d   1      -1.725   8.996  -1.546  0.00  0.00     0.090 A 
ATOM     22  HN  UNL d   1      -0.306   7.528  -1.239  1.00  0.00     0.166 HD
ATOM     23  C   UNL d   1      -2.246  10.221  -1.193  0.00  0.00     0.033 A 
ATOM     24  C   UNL d   1      -1.630  10.931  -0.161  0.00  0.00     0.052 A 
ATOM     25  C   UNL d   1      -0.498  10.369   0.452  0.00  0.00     0.058 A 
BRANCH  24  26
ATOM     26  C   UNL d   1      -2.179  12.260   0.269  0.00  0.00     0.417 C 
ATOM     27  F   UNL d   1      -1.485  12.840   1.287  0.00  0.00    -0.166 F 
ATOM     28  F   UNL d   1      -2.182  13.170  -0.745  0.00  0.00    -0.166 F 
ATOM     29  F   UNL d   1      -3.470  12.176   0.696  0.00  0.00    -0.166 F 
ENDBRANCH  24  26
ENDBRANCH  17  19
ENDBRANCH  16  17
ENDBRANCH   1  16
TORSDOF 7
