REMARK  1 active torsions:
REMARK  status: ('A' for Active; 'I' for Inactive)
REMARK    1  A    between atoms: O_10  and  N_6 
ROOT
ATOM      1  C   UNL d   1      -1.833   0.822  -0.001  0.00  0.00     0.134 A 
ATOM      2  C   UNL d   1      -2.424  -0.603   0.000  0.00  0.00     0.277 A 
ATOM      3  N   UNL d   1      -1.320  -1.446  -0.002  0.00  0.00    -0.316 N 
ATOM      4  C   UNL d   1      -0.383   0.656  -0.002  0.00  0.00     0.025 A 
ATOM      5  C   UNL d   1      -0.125  -0.713  -0.003  0.00  0.00     0.049 A 
ATOM      6  N   UNL d   1      -2.433   1.972  -0.000  0.00  0.00    -0.263 N 
ATOM      7  HN  UNL d   1      -1.952   2.872  -0.001  1.00  0.00     0.194 HD
ATOM      8  O   UNL d   1      -3.598  -0.906   0.002  0.00  0.00    -0.265 OA
ATOM      9  C   UNL d   1      -1.389  -2.881  -0.000  0.00  0.00     0.159 C 
ATOM     10  C   UNL d   1       0.622   1.605  -0.003  0.00  0.00     0.016 A 
ATOM     11  C   UNL d   1       1.175  -1.184  -0.005  0.00  0.00     0.031 A 
ATOM     12  C   UNL d   1       1.938   1.139  -0.004  0.00  0.00     0.001 A 
ATOM     13  C   UNL d   1       2.212  -0.243  -0.005  0.00  0.00     0.002 A 
ENDROOT
BRANCH   6  14
ATOM     14  O   UNL d   1      -3.820   1.819   0.001  0.00  0.00    -0.289 OA
ATOM     15  H   UNL d   1      -4.142   2.739   0.001  0.00  0.00     0.244 HD
ENDBRANCH   6  14
TORSDOF 1
