REMARK  0 active torsions:
REMARK  status: ('A' for Active; 'I' for Inactive)
ROOT
ATOM      1  N   UNL d   1      -2.402   1.369  -0.005  0.00  0.00    -0.289 N 
ATOM      2  N   UNL d   1      -3.607  -0.659  -0.004  0.00  0.00    -0.270 N 
ATOM      3  C   UNL d   1      -3.630   0.730  -0.004  0.00  0.00     0.332 A 
ATOM      4  C   UNL d   1      -1.176   0.670  -0.004  0.00  0.00     0.127 A 
ATOM      5  C   UNL d   1      -1.183  -0.709  -0.003  0.00  0.00     0.077 A 
ATOM      6  C   UNL d   1      -2.454  -1.428  -0.003  0.00  0.00     0.265 A 
ATOM      7  N   UNL d   1      -0.016   1.379  -0.004  0.00  0.00    -0.341 N 
ATOM      8  HN  UNL d   1      -0.036   2.399  -0.005  1.00  0.00     0.167 HD
ATOM      9  C   UNL d   1       0.028  -1.402  -0.002  0.00  0.00     0.034 A 
ATOM     10  C   UNL d   1       1.161   0.718  -0.003  0.00  0.00     0.045 A 
ATOM     11  C   UNL d   1       1.226  -0.690  -0.002  0.00  0.00    -0.008 A 
ATOM     12  C   UNL d   1       4.816   1.519  -0.000  0.00  0.00    -0.078 C 
ATOM     13  O   UNL d   1      -4.689   1.359  -0.004  0.00  0.00    -0.246 OA
ATOM     14  C   UNL d   1       5.850   2.128   0.001  0.00  0.00     0.018 C 
ATOM     15  O   UNL d   1      -2.448  -2.657  -0.003  0.00  0.00    -0.267 OA
ATOM     16  C   UNL d   1       2.360   1.424  -0.002  0.00  0.00     0.051 A 
ATOM     17  C   UNL d   1       3.597   0.769  -0.001  0.00  0.00     0.019 A 
ATOM     18  C   UNL d   1      -2.344   2.824  -0.008  0.00  0.00     0.163 C 
ATOM     19  C   UNL d   1      -4.864  -1.385  -0.005  0.00  0.00     0.164 C 
ATOM     20  C   UNL d   1       2.463  -1.354  -0.001  0.00  0.00     0.015 A 
ATOM     21  C   UNL d   1       3.647  -0.623  -0.000  0.00  0.00     0.021 A 
ENDROOT
TORSDOF 0
