REMARK  4 active torsions:
REMARK  status: ('A' for Active; 'I' for Inactive)
REMARK    1  A    between atoms: C_2  and  S_1 
REMARK    2  A    between atoms: N_3  and  S_1 
REMARK    3  A    between atoms: C_11  and  N_3 
REMARK    4  A    between atoms: C_12  and  N_3 
ROOT
ATOM      1  S   UNL d   1       0.752   0.139  -0.239  0.00  0.00     0.266 S 
ATOM      2  O   UNL d   1       1.889   0.049  -1.125  0.00  0.00    -0.200 OA
ATOM      3  O   UNL d   1      -0.404   0.935  -0.599  0.00  0.00    -0.200 OA
ENDROOT
BRANCH   1   4
ATOM      4  C   UNL d   1       1.350   0.979   1.133  0.00  0.00     0.135 A 
ATOM      5  C   UNL d   1       0.632   1.469   2.207  0.00  0.00     0.098 A 
ATOM      6  O   UNL d   1       1.473   2.158   3.023  0.00  0.00    -0.241 OA
ATOM      7  C   UNL d   1      -0.781   1.480   2.627  0.00  0.00     0.081 C 
ATOM      8  N   UNL d   1       2.739   2.175   2.484  0.00  0.00    -0.264 N 
ATOM      9  C   UNL d   1       2.656   1.501   1.328  0.00  0.00     0.054 A 
ATOM     10  HN  UNL d   1       3.570   2.612   2.883  1.00  0.00     0.194 HD
ATOM     11  C   UNL d   1       3.858   1.442   0.461  0.00  0.00     0.072 C 
ENDBRANCH   1   4
BRANCH   1  12
ATOM     12  N   UNL d   1       0.229  -1.443   0.176  0.00  0.00    -0.299 N 
BRANCH  12  13
ATOM     13  C   UNL d   1      -1.218  -1.627   0.538  0.00  0.00     0.088 C 
ATOM     14  C   UNL d   1      -2.143  -1.577  -0.677  0.00  0.00     0.032 C 
ATOM     15  C   UNL d   1      -1.485  -2.901   1.345  0.00  0.00     0.032 C 
ENDBRANCH  12  13
BRANCH  12  16
ATOM     16  C   UNL d   1       1.014  -2.643  -0.265  0.00  0.00     0.088 C 
ATOM     17  C   UNL d   1       0.956  -2.859  -1.775  0.00  0.00     0.032 C 
ATOM     18  C   UNL d   1       2.446  -2.638   0.267  0.00  0.00     0.032 C 
ENDBRANCH  12  16
ENDBRANCH   1  12
TORSDOF 4
