REMARK  4 active torsions:
REMARK  status: ('A' for Active; 'I' for Inactive)
REMARK    1  A    between atoms: C_2  and  C_1 
REMARK    2  A    between atoms: O_16  and  C_1 
REMARK    3  A    between atoms: C_9  and  C_7 
REMARK    4  A    between atoms: C_20  and  C_12 
ROOT
ATOM      1  C   UNL d   1      -0.178   1.332   0.596  0.00  0.00     0.233 C 
ATOM      2  N   UNL d   1      -0.953   0.121   0.288  0.00  0.00    -0.198 NA
ATOM      3  N   UNL d   1      -0.163  -0.976   0.149  0.00  0.00    -0.322 N 
ATOM      4  HN  UNL d   1      -0.459  -1.952   0.177  1.00  0.00     0.180 HD
ATOM      5  C   UNL d   1       1.161   0.968  -0.033  0.00  0.00     0.124 C 
ATOM      6  C   UNL d   1       1.044  -0.532  -0.028  0.00  0.00     0.025 C 
ATOM      7  H   UNL d   1      -1.713  -0.037   0.948  0.00  0.00     0.150 HD
ENDROOT
BRANCH   6   8
ATOM      8  C   UNL d   1       2.206  -1.427  -0.220  0.00  0.00     0.027 C 
ATOM      9  C   UNL d   1       3.455  -0.968  -0.407  0.00  0.00     0.013 C 
BRANCH   9  10
ATOM     10  C   UNL d   1       4.635  -1.829  -0.566  0.00  0.00    -0.033 A 
ATOM     11  C   UNL d   1       5.862  -1.376  -0.050  0.00  0.00     0.051 A 
ATOM     12  C   UNL d   1       6.979  -2.166  -0.225  0.00  0.00     0.105 A 
ATOM     13  O   UNL d   1       8.233  -1.876   0.215  0.00  0.00    -0.323 OA
ATOM     14  C   UNL d   1       6.921  -3.365  -0.894  0.00  0.00     0.105 A 
ATOM     15  C   UNL d   1       8.957  -3.036  -0.249  0.00  0.00     0.352 A 
ATOM     16  O   UNL d   1       8.131  -3.982  -0.959  0.00  0.00    -0.323 OA
ATOM     17  C   UNL d   1       5.742  -3.838  -1.424  0.00  0.00     0.040 A 
ATOM     18  C   UNL d   1       4.592  -3.058  -1.262  0.00  0.00     0.014 A 
ENDBRANCH   9  10
ENDBRANCH   6   8
BRANCH   1  19
ATOM     19  C   UNL d   1      -0.743   2.656   0.005  0.00  0.00     0.434 C 
ATOM     20  F   UNL d   1      -1.425   2.477  -1.147  0.00  0.00    -0.166 F 
ATOM     21  F   UNL d   1      -1.598   3.228   0.895  0.00  0.00    -0.166 F 
ATOM     22  F   UNL d   1       0.238   3.557  -0.238  0.00  0.00    -0.166 F 
ENDBRANCH   1  19
BRANCH   1  23
ATOM     23  O   UNL d   1       0.006   1.419   2.018  0.00  0.00    -0.366 OA
ATOM     24  H   UNL d   1      -0.816   1.799   2.379  0.00  0.00     0.212 HD
ENDBRANCH   1  23
TORSDOF 4
