REMARK  1 active torsions:
REMARK  status: ('A' for Active; 'I' for Inactive)
REMARK    1  A    between atoms: C_10  and  N_2 
ROOT
ATOM      1  C   UNL d   1       0.719   1.352  -0.220  0.00  0.00     0.071 C 
ATOM      2  N   UNL d   1      -0.737  -1.217   0.384  0.00  0.00    -0.362 N 
ATOM      3  C   UNL d   1       1.224   2.317  -1.022  0.00  0.00     0.147 C 
ATOM      4  S   UNL d   1       1.685  -0.012   0.319  0.00  0.00    -0.101 SA
ATOM      5  S   UNL d   1      -0.914   1.453   0.407  0.00  0.00    -0.101 SA
ATOM      6  C   UNL d   1       0.602  -1.385  -0.167  0.00  0.00     0.204 C 
ATOM      7  C   UNL d   1      -1.543  -0.145  -0.175  0.00  0.00     0.204 C 
ATOM      8  C   UNL d   1       0.444   3.436  -1.439  0.00  0.00     0.112 C 
ATOM      9  C   UNL d   1       2.549   2.252  -1.541  0.00  0.00     0.112 C 
ATOM     10  N   UNL d   1      -0.196   4.334  -1.798  0.00  0.00    -0.191 NA
ATOM     11  N   UNL d   1       3.616   2.197  -1.997  0.00  0.00    -0.191 NA
ENDROOT
BRANCH   2  12
ATOM     12  C   UNL d   1      -1.338  -2.303   1.008  0.00  0.00     0.033 A 
ATOM     13  C   UNL d   1      -0.675  -2.964   2.055  0.00  0.00     0.053 A 
ATOM     14  C   UNL d   1      -1.278  -4.017   2.746  0.00  0.00     0.036 A 
ATOM     15 CL   UNL d   1      -0.439  -4.780   4.040  0.00  0.00    -0.084 Cl
ATOM     16  C   UNL d   1      -2.557  -4.444   2.407  0.00  0.00     0.024 A 
ATOM     17  C   UNL d   1      -3.231  -3.813   1.367  0.00  0.00     0.004 A 
ATOM     18  C   UNL d   1      -2.625  -2.756   0.677  0.00  0.00     0.029 A 
ENDBRANCH   2  12
TORSDOF 1
