REMARK  5 active torsions:
REMARK  status: ('A' for Active; 'I' for Inactive)
REMARK    1  A    between atoms: N_2  and  S_1 
REMARK    2  A    between atoms: C_10  and  S_1 
REMARK    3  A    between atoms: C_3  and  N_2 
REMARK       I    between atoms: C_7  and  N_11 
REMARK    4  A    between atoms: C_8  and  C_7 
REMARK    5  A    between atoms: N_11  and  C_22 
ROOT
ATOM      1  C   UNL d   1       0.648  -0.924  -1.384  0.00  0.00     0.075 A 
ATOM      2  C   UNL d   1       1.252  -2.179  -1.489  0.00  0.00     0.027 A 
ATOM      3  C   UNL d   1      -0.307  -0.522  -2.317  0.00  0.00     0.027 A 
ATOM      4  C   UNL d   1      -0.069  -2.649  -3.478  0.00  0.00     0.035 A 
ATOM      5  C   UNL d   1      -0.656  -1.384  -3.364  0.00  0.00     0.031 A 
ATOM      6  C   UNL d   1       0.896  -3.032  -2.538  0.00  0.00     0.031 A 
ENDROOT
BRANCH   1   7
ATOM      7  S   UNL d   1       0.983   0.079   0.044  0.00  0.00     0.247 S 
ATOM      8  O   UNL d   1      -0.093   1.040   0.170  0.00  0.00    -0.205 OA
ATOM      9  O   UNL d   1       1.321  -0.822   1.125  0.00  0.00    -0.205 OA
BRANCH   7  10
ATOM     10  N   UNL d   1       2.345   0.965  -0.449  0.00  0.00    -0.165 NA
ATOM     11  H   UNL d   1       2.053   1.943  -0.396  0.00  0.00     0.147 HD
BRANCH  10  12
ATOM     12  C   UNL d   1       3.505   0.761   0.292  0.00  0.00     0.117 A 
ATOM     13  N   UNL d   1       3.863   1.589   1.273  0.00  0.00    -0.249 N 
ATOM     14  O   UNL d   1       5.024   1.048   1.804  0.00  0.00    -0.241 OA
ATOM     15  HN  UNL d   1       3.385   2.440   1.570  1.00  0.00     0.196 HD
ATOM     16  C   UNL d   1       5.379  -0.051   1.083  0.00  0.00     0.075 A 
ATOM     17  C   UNL d   1       4.456  -0.255   0.087  0.00  0.00     0.079 A 
ATOM     18  C   UNL d   1       6.605  -0.748   1.509  0.00  0.00     0.079 C 
ENDBRANCH  10  12
ENDBRANCH   7  10
ENDBRANCH   1   7
BRANCH   4  19
ATOM     19  N   UNL d   1      -0.419  -3.599  -4.459  0.00  0.00    -0.323 N 
ATOM     20  C   UNL d   1      -1.367  -3.479  -5.465  0.00  0.00     0.263 C 
ATOM     21  O   UNL d   1      -1.982  -2.449  -5.713  0.00  0.00    -0.267 OA
ATOM     22  H   UNL d   1       0.033  -4.505  -4.398  0.00  0.00     0.169 HD
BRANCH  20  23
ATOM     23  C   UNL d   1      -1.613  -4.703  -6.230  0.00  0.00     0.072 A 
ATOM     24  S   UNL d   1      -0.758  -6.165  -5.957  0.00  0.00    -0.097 SA
ATOM     25  C   UNL d   1      -1.665  -7.002  -7.141  0.00  0.00     0.050 A 
ATOM     26  C   UNL d   1      -2.589  -6.187  -7.754  0.00  0.00     0.009 A 
ATOM     27  C   UNL d   1      -2.550  -4.861  -7.238  0.00  0.00     0.025 A 
ENDBRANCH  20  23
ENDBRANCH   4  19
TORSDOF 5
