REMARK  4 active torsions:
REMARK  status: ('A' for Active; 'I' for Inactive)
REMARK    1  A    between atoms: N_3  and  S_1 
REMARK    2  A    between atoms: C_5  and  S_1 
REMARK    3  A    between atoms: C_2  and  N_4 
REMARK    4  A    between atoms: N_4  and  N_3 
ROOT
ATOM      1  N   UNL d   1       0.328   1.350   0.609  0.00  0.00    -0.222 N 
ATOM      2  H   UNL d   1      -0.512   1.694   0.142  0.00  0.00     0.200 HD
ENDROOT
BRANCH   1   3
ATOM      3  S   UNL d   1       1.036  -0.101   0.092  0.00  0.00     0.276 S 
ATOM      4  O   UNL d   1       0.764  -1.099   1.110  0.00  0.00    -0.199 OA
ATOM      5  O   UNL d   1       2.385   0.179  -0.340  0.00  0.00    -0.199 OA
BRANCH   3   6
ATOM      6  C   UNL d   1       0.090  -0.513  -1.350  0.00  0.00     0.082 A 
ATOM      7  C   UNL d   1       0.131   0.346  -2.453  0.00  0.00     0.050 A 
ATOM      8  C   UNL d   1      -0.587   0.019  -3.606  0.00  0.00     0.057 A 
ATOM      9 CL   UNL d   1      -0.512   1.122  -4.934  0.00  0.00    -0.083 Cl
ATOM     10  C   UNL d   1      -1.332  -1.167  -3.658  0.00  0.00     0.055 A 
ATOM     11  C   UNL d   1      -1.353  -2.026  -2.553  0.00  0.00     0.027 A 
ATOM     12 CL   UNL d   1      -2.243  -1.628  -5.051  0.00  0.00    -0.083 Cl
ATOM     13  C   UNL d   1      -0.643  -1.701  -1.396  0.00  0.00     0.027 A 
ENDBRANCH   3   6
ENDBRANCH   1   3
BRANCH   1  14
ATOM     14  N   UNL d   1       0.929   2.071   1.718  0.00  0.00    -0.288 N 
ATOM     15  H   UNL d   1       1.705   1.600   2.192  0.00  0.00     0.188 HD
BRANCH  14  16
ATOM     16  C   UNL d   1       0.550   3.317   2.255  0.00  0.00     0.092 A 
ATOM     17  C   UNL d   1       0.703   3.530   3.645  0.00  0.00     0.065 A 
ATOM     18  C   UNL d   1       0.352   4.738   4.253  0.00  0.00     0.050 A 
ATOM     19 CL   UNL d   1       1.321   2.273   4.667  0.00  0.00    -0.082 Cl
ATOM     20  C   UNL d   1      -0.158   5.767   3.474  0.00  0.00     0.037 A 
ATOM     21  C   UNL d   1      -0.356   5.585   2.109  0.00  0.00     0.050 A 
ATOM     22 CL   UNL d   1      -0.545   7.276   4.202  0.00  0.00    -0.084 Cl
ATOM     23  C   UNL d   1      -0.028   4.361   1.508  0.00  0.00     0.065 A 
ATOM     24 CL   UNL d   1      -0.290   4.244  -0.201  0.00  0.00    -0.082 Cl
ENDBRANCH  14  16
ENDBRANCH   1  14
TORSDOF 4
