REMARK  2 active torsions:
REMARK  status: ('A' for Active; 'I' for Inactive)
REMARK    1  A    between atoms: N_15  and  C_1 
REMARK    2  A    between atoms: C_11  and  N_2 
ROOT
ATOM      1  C   UNL d   1       1.531   0.747   0.226  0.00  0.00     0.131 C 
ATOM      2  N   UNL d   1       1.568   0.674  -1.176  0.00  0.00    -0.280 N 
ATOM      3  C   UNL d   1       0.814   1.908   0.469  0.00  0.00     0.119 C 
ATOM      4  C   UNL d   1       1.780   1.995  -1.569  0.00  0.00     0.143 C 
ATOM      5  C   UNL d   1       1.046   2.739  -0.647  0.00  0.00     0.102 C 
ATOM      6  N   UNL d   1       2.439   2.503  -2.634  0.00  0.00    -0.338 N 
ATOM      7  HN  UNL d   1       2.934   1.939  -3.324  1.00  0.00     0.167 HD
ATOM      8  N   UNL d   1       0.787   4.053  -0.829  0.00  0.00    -0.350 N 
ATOM      9  HN  UNL d   1       0.120   4.575  -0.261  1.00  0.00     0.166 HD
ATOM     10  C   UNL d   1       0.142   2.258   1.665  0.00  0.00     0.105 C 
ATOM     11  N   UNL d   1      -0.441   2.509   2.639  0.00  0.00    -0.191 NA
ATOM     12  C   UNL d   1       2.361   3.856  -2.671  0.00  0.00     0.060 A 
ATOM     13  C   UNL d   1       1.486   4.602  -1.822  0.00  0.00     0.059 A 
ATOM     14  C   UNL d   1       3.188   4.566  -3.538  0.00  0.00     0.032 A 
ATOM     15  C   UNL d   1       1.409   5.981  -1.962  0.00  0.00     0.032 A 
ATOM     16  C   UNL d   1       3.158   5.961  -3.602  0.00  0.00     0.002 A 
ATOM     17  C   UNL d   1       2.246   6.671  -2.834  0.00  0.00     0.002 A 
ENDROOT
BRANCH   1  18
ATOM     18  N   UNL d   1       1.989  -0.238   1.041  0.00  0.00    -0.384 N 
ATOM     19  H   UNL d   1       2.718  -0.867   0.702  0.00  0.00     0.157 HD
ATOM     20  H   UNL d   1       2.098  -0.046   2.038  0.00  0.00     0.157 HD
ENDBRANCH   1  18
BRANCH   2  21
ATOM     21  C   UNL d   1       0.820  -0.300  -1.932  0.00  0.00     0.043 C 
ATOM     22  C   UNL d   1       0.519  -0.062  -3.276  0.00  0.00     0.030 C 
ATOM     23  C   UNL d   1      -0.626  -0.641  -3.837  0.00  0.00     0.009 C 
ATOM     24  C   UNL d   1      -1.465  -1.455  -3.064  0.00  0.00    -0.062 C 
ATOM     25  C   UNL d   1      -1.052  -1.839  -1.790  0.00  0.00     0.009 C 
ATOM     26  C   UNL d   1      -2.825  -1.841  -3.565  0.00  0.00     0.048 C 
ATOM     27  C   UNL d   1       0.097  -1.281  -1.231  0.00  0.00     0.030 C 
ENDBRANCH   2  21
TORSDOF 2
