REMARK  2 active torsions:
REMARK  status: ('A' for Active; 'I' for Inactive)
REMARK    1  A    between atoms: C_7  and  C_1 
REMARK    2  A    between atoms: O_10  and  C_3 
ROOT
ATOM      1  C   UNL d   1      -0.522  -1.280  -0.007  0.00  0.00     0.118 A 
ATOM      2  C   UNL d   1       0.933  -1.024   0.072  0.00  0.00     0.304 A 
ATOM      3  C   UNL d   1      -1.361  -0.227   0.010  0.00  0.00     0.087 A 
ATOM      4  C   UNL d   1      -0.876   1.123   0.012  0.00  0.00     0.070 A 
ATOM      5  O   UNL d   1       1.358   0.279   0.004  0.00  0.00    -0.280 OA
ATOM      6  C   UNL d   1       0.440   1.348  -0.010  0.00  0.00     0.056 A 
ATOM      7  O   UNL d   1       1.742  -1.933   0.220  0.00  0.00    -0.259 OA
ATOM      8  C   UNL d   1       1.070   2.702  -0.025  0.00  0.00     0.077 C 
ENDROOT
BRANCH   1   9
ATOM      9  C   UNL d   1      -1.109  -2.649  -0.097  0.00  0.00     0.164 C 
ATOM     10  O   UNL d   1      -2.292  -2.821   0.231  0.00  0.00    -0.292 OA
ATOM     11  C   UNL d   1      -0.329  -3.803  -0.674  0.00  0.00     0.097 C 
ENDBRANCH   1   9
BRANCH   3  12
ATOM     12  O   UNL d   1      -2.738  -0.298   0.015  0.00  0.00    -0.359 OA
ATOM     13  H   UNL d   1      -3.001  -1.237   0.152  0.00  0.00     0.217 HD
ENDBRANCH   3  12
TORSDOF 2
