REMARK  5 active torsions:
REMARK  status: ('A' for Active; 'I' for Inactive)
REMARK    1  A    between atoms: C_2  and  N_1 
REMARK       I    between atoms: C_3  and  N_1 
REMARK    2  A    between atoms: N_4  and  C_2 
REMARK    3  A    between atoms: C_6  and  C_3 
REMARK    4  A    between atoms: C_14  and  N_4 
REMARK    5  A    between atoms: C_7  and  C_8 
ROOT
ATOM      1  N   UNL d   1       0.844  -0.412   0.155  0.00  0.00    -0.299 N 
ATOM      2  C   UNL d   1       2.212  -0.461   0.368  0.00  0.00     0.257 C 
ATOM      3  O   UNL d   1       2.811   0.193   1.220  0.00  0.00    -0.267 OA
ATOM      4  H   UNL d   1       0.460  -0.922  -0.625  0.00  0.00     0.171 HD
ENDROOT
BRANCH   1   5
ATOM      5  C   UNL d   1      -0.113   0.017   1.044  0.00  0.00     0.179 C 
ATOM      6  S   UNL d   1      -0.034  -0.093   2.714  0.00  0.00    -0.040 SA
BRANCH   5   7
ATOM      7  N   UNL d   1      -1.269   0.526   0.509  0.00  0.00    -0.333 N 
ATOM      8  H   UNL d   1      -1.987   0.664   1.215  0.00  0.00     0.168 HD
BRANCH   7   9
ATOM      9  C   UNL d   1      -1.490   1.203  -0.712  0.00  0.00     0.034 A 
ATOM     10  C   UNL d   1      -0.510   1.438  -1.681  0.00  0.00     0.031 A 
ATOM     11  C   UNL d   1      -0.790   2.210  -2.814  0.00  0.00     0.020 A 
ATOM     12  C   UNL d   1      -2.050   2.774  -2.973  0.00  0.00     0.006 A 
ATOM     13  C   UNL d   1      -3.041   2.549  -2.022  0.00  0.00     0.020 A 
ATOM     14  I   UNL d   1      -2.429   3.999  -4.605  0.00  0.00    -0.045 I 
ATOM     15  C   UNL d   1      -2.762   1.759  -0.901  0.00  0.00     0.031 A 
ENDBRANCH   7   9
ENDBRANCH   5   7
ENDBRANCH   1   5
BRANCH   2  16
ATOM     16  C   UNL d   1       3.011  -1.290  -0.573  0.00  0.00     0.032 A 
ATOM     17  C   UNL d   1       2.668  -1.506  -1.907  0.00  0.00     0.017 A 
ATOM     18  C   UNL d   1       3.463  -2.344  -2.707  0.00  0.00     0.009 A 
ATOM     19  C   UNL d   1       4.605  -2.989  -2.189  0.00  0.00    -0.051 A 
ATOM     20  C   UNL d   1       4.967  -2.694  -0.866  0.00  0.00     0.009 A 
ATOM     21  C   UNL d   1       4.182  -1.857  -0.069  0.00  0.00     0.017 A 
BRANCH  19  22
ATOM     22  C   UNL d   1       5.374  -4.028  -3.027  0.00  0.00    -0.024 C 
ATOM     23  C   UNL d   1       6.530  -4.706  -2.255  0.00  0.00     0.019 C 
ATOM     24  C   UNL d   1       4.398  -5.148  -3.450  0.00  0.00     0.019 C 
ATOM     25  C   UNL d   1       5.982  -3.384  -4.289  0.00  0.00     0.019 C 
ENDBRANCH  19  22
ENDBRANCH   2  16
TORSDOF 5
