REMARK  4 active torsions:
REMARK  status: ('A' for Active; 'I' for Inactive)
REMARK    1  A    between atoms: C_8  and  C_3 
REMARK    2  A    between atoms: C_9  and  C_7 
REMARK    3  A    between atoms: O_14  and  C_12 
REMARK    4  A    between atoms: C_20  and  O_14 
ROOT
ATOM      1  N   UNL d   1       1.586  -0.054   0.457  0.00  0.00    -0.331 N 
ATOM      2  HN  UNL d   1       2.532  -0.435   0.442  1.00  0.00     0.168 HD
ATOM      3  C   UNL d   1       1.211   1.183   0.407  0.00  0.00     0.162 A 
ATOM      4  C   UNL d   1       0.393  -0.727   0.536  0.00  0.00     0.111 A 
ATOM      5  O   UNL d   1      -0.109   1.448   0.546  0.00  0.00    -0.256 OA
ATOM      6  C   UNL d   1      -0.734   0.243   0.677  0.00  0.00     0.316 A 
ATOM      7  C   UNL d   1       0.299  -2.045   0.339  0.00  0.00     0.050 C 
ATOM      8  O   UNL d   1      -1.918   0.060   0.863  0.00  0.00    -0.257 OA
ENDROOT
BRANCH   7   9
ATOM      9  C   UNL d   1      -0.942  -2.778   0.081  0.00  0.00    -0.000 A 
ATOM     10  C   UNL d   1      -1.735  -3.442   1.026  0.00  0.00     0.079 A 
ATOM     11  C   UNL d   1      -2.916  -4.069   0.597  0.00  0.00     0.037 A 
ATOM     12  C   UNL d   1      -3.298  -4.067  -0.746  0.00  0.00     0.003 A 
ATOM     13  C   UNL d   1      -2.508  -3.418  -1.685  0.00  0.00     0.001 A 
ATOM     14  C   UNL d   1      -1.342  -2.779  -1.273  0.00  0.00     0.014 A 
BRANCH  10  15
ATOM     15  O   UNL d   1      -1.543  -3.550   2.377  0.00  0.00    -0.351 OA
BRANCH  15  16
ATOM     16  C   UNL d   1      -0.211  -3.506   2.875  0.00  0.00     0.171 C 
ATOM     17  C   UNL d   1      -0.176  -4.242   4.204  0.00  0.00     0.034 C 
ENDBRANCH  15  16
ENDBRANCH  10  15
ENDBRANCH   7   9
BRANCH   3  18
ATOM     18  C   UNL d   1       2.071   2.348   0.157  0.00  0.00     0.016 A 
ATOM     19  C   UNL d   1       3.443   2.133  -0.034  0.00  0.00     0.022 A 
ATOM     20  C   UNL d   1       4.290   3.196  -0.368  0.00  0.00    -0.061 A 
ATOM     21  C   UNL d   1       5.751   2.961  -0.612  0.00  0.00     0.048 C 
ATOM     22  C   UNL d   1       3.749   4.481  -0.499  0.00  0.00     0.007 A 
ATOM     23  C   UNL d   1       2.384   4.700  -0.301  0.00  0.00     0.002 A 
ATOM     24  C   UNL d   1       1.543   3.636   0.024  0.00  0.00     0.016 A 
ENDBRANCH   3  18
TORSDOF 4
