REMARK  7 active torsions:
REMARK  status: ('A' for Active; 'I' for Inactive)
REMARK    1  A    between atoms: N_2  and  S_1 
REMARK    2  A    between atoms: C_4  and  S_1 
REMARK       I    between atoms: C_3  and  N_2 
REMARK       I    between atoms: N_14  and  C_3 
REMARK    3  A    between atoms: C_5  and  C_21 
REMARK    4  A    between atoms: C_24  and  N_14 
REMARK    5  A    between atoms: S_20  and  C_26 
REMARK    6  A    between atoms: C_21  and  S_20 
REMARK    7  A    between atoms: C_26  and  C_24 
ROOT
ATOM      1  N   UNL d   1      -0.796   4.740   3.079  0.00  0.00    -0.232 N 
ATOM      2  C   UNL d   1      -0.780   4.665   1.698  0.00  0.00     0.329 C 
ATOM      3  O   UNL d   1      -1.685   4.185   1.039  0.00  0.00    -0.246 OA
ATOM      4  N   UNL d   1       0.369   5.155   1.154  0.00  0.00    -0.342 N 
ATOM      5  H   UNL d   1       0.016   5.023   3.607  0.00  0.00     0.183 HD
ATOM      6  H   UNL d   1       0.946   5.768   1.712  0.00  0.00     0.164 HD
ENDROOT
BRANCH   4   7
ATOM      7  C   UNL d   1       0.577   5.173  -0.285  0.00  0.00     0.134 C 
BRANCH   7   8
ATOM      8  C   UNL d   1       0.079   6.458  -0.964  0.00  0.00     0.094 C 
BRANCH   8   9
ATOM      9  S   UNL d   1       1.015   7.881  -0.288  0.00  0.00    -0.163 SA
BRANCH   9  10
ATOM     10  C   UNL d   1       0.364   9.244  -1.320  0.00  0.00     0.113 C 
BRANCH  10  11
ATOM     11  C   UNL d   1       0.937  10.578  -0.860  0.00  0.00    -0.037 A 
ATOM     12  C   UNL d   1       2.111  11.113  -1.453  0.00  0.00    -0.054 A 
ATOM     13  C   UNL d   1       2.595  12.371  -1.045  0.00  0.00     0.014 A 
ATOM     14  C   UNL d   1       2.890  10.434  -2.549  0.00  0.00     0.049 C 
ATOM     15  C   UNL d   1       1.982  13.096  -0.025  0.00  0.00    -0.061 A 
ATOM     16  C   UNL d   1       0.865  12.547   0.601  0.00  0.00     0.014 A 
ATOM     17  C   UNL d   1       2.534  14.431   0.375  0.00  0.00     0.048 C 
ATOM     18  C   UNL d   1       0.335  11.300   0.205  0.00  0.00    -0.054 A 
ATOM     19  C   UNL d   1      -0.856  10.815   0.993  0.00  0.00     0.049 C 
ENDBRANCH  10  11
ENDBRANCH   9  10
ENDBRANCH   8   9
ENDBRANCH   7   8
ENDBRANCH   4   7
BRANCH   1  20
ATOM     20  S   UNL d   1      -2.047   4.202   4.032  0.00  0.00     0.266 S 
ATOM     21  O   UNL d   1      -3.209   5.012   3.759  0.00  0.00    -0.200 OA
ATOM     22  O   UNL d   1      -1.503   4.122   5.377  0.00  0.00    -0.200 OA
BRANCH  20  23
ATOM     23  C   UNL d   1      -2.358   2.531   3.510  0.00  0.00     0.080 A 
ATOM     24  C   UNL d   1      -1.374   1.552   3.664  0.00  0.00     0.026 A 
ATOM     25  C   UNL d   1      -1.656   0.228   3.306  0.00  0.00     0.008 A 
ATOM     26  C   UNL d   1      -2.919  -0.122   2.805  0.00  0.00    -0.062 A 
ATOM     27  C   UNL d   1      -3.892   0.873   2.649  0.00  0.00     0.008 A 
ATOM     28  C   UNL d   1      -3.227  -1.550   2.461  0.00  0.00     0.048 C 
ATOM     29  C   UNL d   1      -3.616   2.195   2.999  0.00  0.00     0.026 A 
ENDBRANCH  20  23
ENDBRANCH   1  20
TORSDOF 7
