REMARK  9 active torsions:
REMARK  status: ('A' for Active; 'I' for Inactive)
REMARK    1  A    between atoms: S_2  and  C_1 
REMARK    2  A    between atoms: N_7  and  S_2 
REMARK    3  A    between atoms: C_12  and  C_3 
REMARK    4  A    between atoms: C_20  and  N_4 
REMARK    5  A    between atoms: C_13  and  C_5 
REMARK    6  A    between atoms: C_10  and  C_8 
REMARK    7  A    between atoms: C_9  and  N_11 
REMARK    8  A    between atoms: O_30  and  C_12 
REMARK    9  A    between atoms: C_39  and  O_30 
ROOT
ATOM      1  C   UNL d   1      -0.324  -1.066  -0.238  0.00  0.00     0.125 C 
ATOM      2  C   UNL d   1       1.027  -0.566  -0.201  0.00  0.00     0.087 C 
ATOM      3  N   UNL d   1      -0.388   1.202  -0.176  0.00  0.00    -0.312 N 
ATOM      4  C   UNL d   1      -1.208   0.044  -0.349  0.00  0.00     0.074 C 
ATOM      5  C   UNL d   1       0.946   0.815  -0.099  0.00  0.00     0.031 C 
ATOM      6  C   UNL d   1       2.096   1.754   0.140  0.00  0.00     0.070 C 
ENDROOT
BRANCH   1   7
ATOM      7  S   UNL d   1      -0.638  -2.800  -0.315  0.00  0.00     0.264 S 
ATOM      8  O   UNL d   1      -1.856  -2.925  -1.086  0.00  0.00    -0.200 OA
ATOM      9  O   UNL d   1       0.580  -3.367  -0.846  0.00  0.00    -0.200 OA
BRANCH   7  10
ATOM     10  N   UNL d   1      -0.905  -3.483   1.216  0.00  0.00    -0.304 N 
ATOM     11  C   UNL d   1      -2.268  -3.443   1.800  0.00  0.00     0.150 C 
ATOM     12  C   UNL d   1      -2.463  -2.130   2.570  0.00  0.00     0.117 C 
ATOM     13  N   UNL d   1      -1.499  -2.064   3.688  0.00  0.00    -0.266 NA
ATOM     14  C   UNL d   1      -0.097  -2.111   3.178  0.00  0.00     0.117 C 
ATOM     15  C   UNL d   1       0.108  -3.382   2.311  0.00  0.00     0.150 C 
BRANCH  13  16
ATOM     16  C   UNL d   1      -1.793  -0.965   4.510  0.00  0.00     0.097 A 
ATOM     17  C   UNL d   1      -2.908  -0.970   5.356  0.00  0.00     0.086 A 
ATOM     18  C   UNL d   1      -3.178   0.188   6.112  0.00  0.00     0.021 A 
ATOM     19  C   UNL d   1      -2.351   1.295   6.020  0.00  0.00     0.018 A 
ATOM     20  C   UNL d   1      -1.271   1.212   5.169  0.00  0.00     0.089 A 
ATOM     21  N   UNL d   1      -0.983   0.118   4.429  0.00  0.00    -0.356 N 
ATOM     22  HN  UNL d   1      -0.167   0.109   3.818  1.00  0.00     0.166 HD
BRANCH  17  23
ATOM     23  C   UNL d   1      -3.855  -2.128   5.505  0.00  0.00     0.420 C 
ATOM     24  F   UNL d   1      -3.533  -3.286   4.864  0.00  0.00    -0.166 F 
ATOM     25  F   UNL d   1      -4.039  -2.483   6.809  0.00  0.00    -0.166 F 
ATOM     26  F   UNL d   1      -5.103  -1.806   5.043  0.00  0.00    -0.166 F 
ENDBRANCH  17  23
ENDBRANCH  13  16
ENDBRANCH   7  10
ENDBRANCH   1   7
BRANCH   2  27
ATOM     27  C   UNL d   1       2.333  -1.242  -0.276  0.00  0.00     0.296 C 
ATOM     28  O   UNL d   1       3.252  -0.810  -0.951  0.00  0.00    -0.259 OA
BRANCH  27  29
ATOM     29  O   UNL d   1       2.458  -2.287   0.593  0.00  0.00    -0.318 OA
BRANCH  29  30
ATOM     30  C   UNL d   1       3.724  -2.966   0.602  0.00  0.00     0.174 C 
ATOM     31  C   UNL d   1       3.996  -3.753  -0.673  0.00  0.00     0.034 C 
ENDBRANCH  29  30
ENDBRANCH  27  29
ENDBRANCH   2  27
BRANCH   4  32
ATOM     32  C   UNL d   1      -2.692   0.130  -0.671  0.00  0.00    -0.007 A 
ATOM     33  C   UNL d   1      -3.242   1.184  -1.423  0.00  0.00     0.015 A 
ATOM     34  C   UNL d   1      -4.634   1.358  -1.569  0.00  0.00     0.024 A 
ATOM     35  C   UNL d   1      -5.517   0.433  -1.036  0.00  0.00     0.034 A 
ATOM     36  C   UNL d   1      -5.014  -0.673  -0.379  0.00  0.00     0.024 A 
ATOM     37 CL   UNL d   1      -7.215   0.637  -1.198  0.00  0.00    -0.084 Cl
ATOM     38  C   UNL d   1      -3.627  -0.808  -0.224  0.00  0.00     0.015 A 
ENDBRANCH   4  32
BRANCH   3  39
ATOM     39  C   UNL d   1      -0.808   2.579  -0.112  0.00  0.00     0.040 A 
ATOM     40  C   UNL d   1      -1.923   2.959   0.641  0.00  0.00     0.030 A 
ATOM     41  C   UNL d   1      -2.373   4.288   0.602  0.00  0.00     0.002 A 
ATOM     42  C   UNL d   1      -1.687   5.244  -0.141  0.00  0.00     0.000 A 
ATOM     43  C   UNL d   1      -0.548   4.884  -0.855  0.00  0.00     0.002 A 
ATOM     44  C   UNL d   1      -0.121   3.554  -0.854  0.00  0.00     0.030 A 
ENDBRANCH   3  39
TORSDOF 9
