REMARK  4 active torsions:
REMARK  status: ('A' for Active; 'I' for Inactive)
REMARK       I    between atoms: N_2  and  C_1 
REMARK    1  A    between atoms: C_4  and  C_1 
REMARK    2  A    between atoms: C_5  and  N_3 
REMARK    3  A    between atoms: C_12  and  C_5 
REMARK    4  A    between atoms: C_13  and  C_5 
ROOT
ATOM      1  C   UNL d   1       0.909   0.158   0.112  0.00  0.00     0.253 C 
ATOM      2  N   UNL d   1       0.292  -0.735   0.984  0.00  0.00    -0.345 N 
ATOM      3  N   UNL d   1      -0.166  -3.169   2.611  0.00  0.00     0.105 N 
ATOM      4  C   UNL d   1       0.760  -0.804   2.370  0.00  0.00     0.156 C 
ATOM      5  C   UNL d   1      -0.780  -1.676   0.631  0.00  0.00     0.156 C 
ATOM      6  C   UNL d   1       0.988  -2.256   2.824  0.00  0.00     0.293 C 
ATOM      7  C   UNL d   1      -0.500  -3.099   1.164  0.00  0.00     0.293 C 
ATOM      8  O   UNL d   1       1.952   0.751   0.378  0.00  0.00    -0.267 OA
ENDROOT
BRANCH   3   9
ATOM      9  C   UNL d   1      -1.350  -2.844   3.465  0.00  0.00     0.289 C 
BRANCH   9  10
ATOM     10  C   UNL d   1      -2.523  -3.802   3.217  0.00  0.00    -0.021 A 
ATOM     11  C   UNL d   1      -2.377  -5.189   3.384  0.00  0.00     0.010 A 
ATOM     12  C   UNL d   1      -3.454  -6.051   3.178  0.00  0.00     0.001 A 
ATOM     13  C   UNL d   1      -4.691  -5.540   2.793  0.00  0.00     0.000 A 
ATOM     14  C   UNL d   1      -4.852  -4.168   2.611  0.00  0.00     0.001 A 
ATOM     15  C   UNL d   1      -3.777  -3.303   2.823  0.00  0.00     0.010 A 
ENDBRANCH   9  10
BRANCH   9  16
ATOM     16  C   UNL d   1      -1.065  -2.772   4.971  0.00  0.00    -0.021 A 
ATOM     17  C   UNL d   1      -1.774  -1.847   5.760  0.00  0.00     0.010 A 
ATOM     18  C   UNL d   1      -1.560  -1.767   7.136  0.00  0.00     0.001 A 
ATOM     19  C   UNL d   1      -0.634  -2.611   7.746  0.00  0.00     0.000 A 
ATOM     20  C   UNL d   1       0.067  -3.543   6.984  0.00  0.00     0.001 A 
ATOM     21  C   UNL d   1      -0.156  -3.632   5.609  0.00  0.00     0.010 A 
ENDBRANCH   9  16
ENDBRANCH   3   9
BRANCH   1  22
ATOM     22  C   UNL d   1       0.290   0.425  -1.208  0.00  0.00     0.033 A 
ATOM     23  C   UNL d   1       1.108   0.447  -2.342  0.00  0.00     0.041 A 
ATOM     24  C   UNL d   1       0.535   0.684  -3.589  0.00  0.00     0.035 A 
ATOM     25 CL   UNL d   1       1.527   0.706  -4.995  0.00  0.00    -0.084 Cl
ATOM     26  C   UNL d   1      -0.839   0.902  -3.711  0.00  0.00     0.024 A 
ATOM     27  C   UNL d   1      -1.647   0.918  -2.574  0.00  0.00     0.003 A 
ATOM     28  C   UNL d   1      -1.079   0.705  -1.319  0.00  0.00     0.017 A 
ENDBRANCH   1  22
TORSDOF 4
