REMARK  9 active torsions:
REMARK  status: ('A' for Active; 'I' for Inactive)
REMARK       I    between atoms: C_2  and  N_1 
REMARK    1  A    between atoms: C_7  and  N_1 
REMARK    2  A    between atoms: C_9  and  N_1 
REMARK    3  A    between atoms: C_8  and  C_2 
REMARK    4  A    between atoms: O_14  and  C_3 
REMARK    5  A    between atoms: O_15  and  C_4 
REMARK    6  A    between atoms: O_16  and  C_5 
REMARK    7  A    between atoms: C_6  and  C_7 
REMARK    8  A    between atoms: C_13  and  C_9 
REMARK    9  A    between atoms: O_22  and  C_17 
ROOT
ATOM      1  N   UNL d   1       0.621  -0.165  -0.004  0.00  0.00    -0.343 N 
ATOM      2  C   UNL d   1      -0.029   0.127   1.183  0.00  0.00     0.228 C 
ATOM      3  O   UNL d   1       0.605   0.731   2.066  0.00  0.00    -0.273 OA
ENDROOT
BRANCH   1   4
ATOM      4  C   UNL d   1       0.052  -0.685  -1.245  0.00  0.00     0.164 C 
BRANCH   4   5
ATOM      5  C   UNL d   1      -0.458   0.359  -2.224  0.00  0.00    -0.035 A 
ATOM      6  C   UNL d   1      -0.710   1.694  -1.885  0.00  0.00     0.048 A 
ATOM      7  C   UNL d   1      -1.220   2.613  -2.821  0.00  0.00     0.104 A 
ATOM      8  C   UNL d   1      -1.457   2.197  -4.146  0.00  0.00     0.135 A 
ATOM      9  C   UNL d   1      -1.251   0.845  -4.492  0.00  0.00     0.104 A 
ATOM     10  C   UNL d   1      -0.739  -0.049  -3.538  0.00  0.00     0.048 A 
BRANCH   7  11
ATOM     11  O   UNL d   1      -1.395   3.860  -2.271  0.00  0.00    -0.353 OA
ATOM     12  C   UNL d   1      -2.159   4.820  -2.989  0.00  0.00     0.210 C 
ENDBRANCH   7  11
BRANCH   8  13
ATOM     13  O   UNL d   1      -1.961   3.119  -5.031  0.00  0.00    -0.351 OA
ATOM     14  C   UNL d   1      -1.367   3.125  -6.326  0.00  0.00     0.210 C 
ENDBRANCH   8  13
BRANCH   9  15
ATOM     15  O   UNL d   1      -1.590   0.468  -5.767  0.00  0.00    -0.353 OA
ATOM     16  C   UNL d   1      -1.537  -0.912  -6.099  0.00  0.00     0.210 C 
ENDBRANCH   9  15
ENDBRANCH   4   5
ENDBRANCH   1   4
BRANCH   1  17
ATOM     17  C   UNL d   1       2.052   0.171  -0.089  0.00  0.00     0.164 C 
BRANCH  17  18
ATOM     18  C   UNL d   1       2.923  -1.069  -0.046  0.00  0.00    -0.040 A 
ATOM     19  C   UNL d   1       3.768  -1.391  -1.117  0.00  0.00     0.011 A 
ATOM     20  C   UNL d   1       4.567  -2.539  -1.078  0.00  0.00     0.037 A 
ATOM     21  C   UNL d   1       4.539  -3.378   0.036  0.00  0.00     0.068 A 
ATOM     22  C   UNL d   1       3.693  -3.067   1.101  0.00  0.00     0.037 A 
ATOM     23  C   UNL d   1       2.899  -1.919   1.069  0.00  0.00     0.011 A 
BRANCH  21  24
ATOM     24  O   UNL d   1       5.270  -4.523   0.196  0.00  0.00    -0.356 OA
ATOM     25  C   UNL d   1       6.351  -4.717  -0.708  0.00  0.00     0.210 C 
ENDBRANCH  21  24
ENDBRANCH  17  18
ENDBRANCH   1  17
BRANCH   2  26
ATOM     26  C   UNL d   1      -1.457  -0.362   1.577  0.00  0.00     0.030 C 
ATOM     27  C   UNL d   1      -2.469  -0.789   0.513  0.00  0.00     0.025 C 
ATOM     28  C   UNL d   1      -1.264  -1.539   2.554  0.00  0.00     0.025 C 
ATOM     29  C   UNL d   1      -2.115   0.811   2.349  0.00  0.00     0.025 C 
ENDBRANCH   2  26
TORSDOF 9
