REMARK  1 active torsions:
REMARK  status: ('A' for Active; 'I' for Inactive)
REMARK    1  A    between atoms: C_8  and  C_6 
ROOT
ATOM      1  N   UNL d   1       0.946  -1.228  -0.754  0.00  0.00    -0.305 N 
ATOM      2  HN  UNL d   1       0.231  -1.687  -0.191  1.00  0.00     0.186 HD
ATOM      3  C   UNL d   1       1.125  -1.291  -2.040  0.00  0.00     0.043 C 
ATOM      4  N   UNL d   1       1.949  -0.397  -0.338  0.00  0.00    -0.322 N 
ATOM      5  C   UNL d   1       2.231  -0.428  -2.582  0.00  0.00     0.067 C 
ATOM      6  C   UNL d   1       3.073  -0.371  -1.291  0.00  0.00     0.144 C 
ATOM      7  C   UNL d   1       0.367  -2.083  -3.003  0.00  0.00    -0.005 A 
ATOM      8  C   UNL d   1      -0.437  -1.405  -3.926  0.00  0.00    -0.046 A 
ATOM      9  C   UNL d   1       2.293  -0.247   1.061  0.00  0.00     0.171 C 
ATOM     10  C   UNL d   1       1.636   0.939  -2.983  0.00  0.00     0.013 C 
ATOM     11  C   UNL d   1       0.674  -3.437  -3.152  0.00  0.00     0.014 A 
ATOM     12  C   UNL d   1       0.587   0.896  -4.111  0.00  0.00     0.005 C 
ATOM     13  C   UNL d   1      -0.674   0.079  -3.794  0.00  0.00     0.039 C 
ATOM     14  C   UNL d   1      -0.961  -2.124  -5.008  0.00  0.00     0.008 A 
ATOM     15  C   UNL d   1       0.166  -4.132  -4.248  0.00  0.00     0.001 A 
ATOM     16  C   UNL d   1      -0.650  -3.477  -5.172  0.00  0.00     0.001 A 
ENDROOT
BRANCH   6  17
ATOM     17  C   UNL d   1       4.047  -1.556  -1.179  0.00  0.00    -0.033 A 
ATOM     18  C   UNL d   1       3.684  -2.800  -0.616  0.00  0.00     0.012 A 
ATOM     19  C   UNL d   1       4.594  -3.851  -0.516  0.00  0.00     0.043 A 
ATOM     20  C   UNL d   1       5.881  -3.680  -0.996  0.00  0.00     0.116 A 
ATOM     21  C   UNL d   1       6.273  -2.474  -1.570  0.00  0.00     0.043 A 
ATOM     22  F   UNL d   1       6.763  -4.682  -0.891  0.00  0.00    -0.206 F 
ATOM     23  C   UNL d   1       5.360  -1.422  -1.668  0.00  0.00     0.012 A 
ENDBRANCH   6  17
TORSDOF 1
