REMARK  5 active torsions:
REMARK  status: ('A' for Active; 'I' for Inactive)
REMARK    1  A    between atoms: C_2  and  C_1 
REMARK       I    between atoms: N_5  and  C_2 
REMARK    2  A    between atoms: C_10  and  N_5 
REMARK    3  A    between atoms: C_11  and  C_6 
REMARK    4  A    between atoms: S_9  and  C_11 
REMARK    5  A    between atoms: C_12  and  S_9 
ROOT
ATOM      1  C   UNL d   1       0.023   1.134  -0.122  0.00  0.00     0.143 A 
ATOM      2  O   UNL d   1      -0.848   0.075  -0.009  0.00  0.00    -0.309 OA
ATOM      3  C   UNL d   1       1.322   0.663  -0.159  0.00  0.00     0.045 A 
ATOM      4  C   UNL d   1      -0.085  -1.067   0.022  0.00  0.00     0.063 A 
ATOM      5  C   UNL d   1       1.252  -0.742  -0.091  0.00  0.00     0.036 A 
ENDROOT
BRANCH   1   6
ATOM      6  C   UNL d   1      -0.442   2.509  -0.204  0.00  0.00     0.279 C 
ATOM      7  N   UNL d   1      -1.819   2.661  -0.171  0.00  0.00    -0.321 N 
ATOM      8  H   UNL d   1      -2.345   1.811  -0.003  0.00  0.00     0.169 HD
ATOM      9  O   UNL d   1       0.359   3.435  -0.294  0.00  0.00    -0.265 OA
BRANCH   7  10
ATOM     10  C   UNL d   1      -2.544   3.865  -0.327  0.00  0.00     0.035 A 
ATOM     11  C   UNL d   1      -1.954   5.088  -0.674  0.00  0.00     0.032 A 
ATOM     12  C   UNL d   1      -2.729   6.241  -0.828  0.00  0.00     0.044 A 
ATOM     13  C   UNL d   1      -4.099   6.176  -0.632  0.00  0.00     0.116 A 
ATOM     14  C   UNL d   1      -4.709   4.976  -0.289  0.00  0.00     0.044 A 
ATOM     15  F   UNL d   1      -4.843   7.280  -0.778  0.00  0.00    -0.206 F 
ATOM     16  C   UNL d   1      -3.932   3.820  -0.142  0.00  0.00     0.032 A 
ENDBRANCH   7  10
ENDBRANCH   1   6
BRANCH   4  17
ATOM     17  C   UNL d   1      -0.793  -2.378   0.141  0.00  0.00     0.144 C 
BRANCH  17  18
ATOM     18  S   UNL d   1       0.074  -3.453   1.352  0.00  0.00    -0.123 SA
BRANCH  18  19
ATOM     19  C   UNL d   1      -0.606  -5.066   1.012  0.00  0.00     0.001 A 
ATOM     20  C   UNL d   1       0.267  -6.164   1.029  0.00  0.00     0.020 A 
ATOM     21  C   UNL d   1      -0.217  -7.466   0.865  0.00  0.00     0.025 A 
ATOM     22  C   UNL d   1      -1.582  -7.675   0.691  0.00  0.00     0.034 A 
ATOM     23  C   UNL d   1      -2.460  -6.593   0.668  0.00  0.00     0.025 A 
ATOM     24 CL   UNL d   1      -2.189  -9.276   0.527  0.00  0.00    -0.084 Cl
ATOM     25  C   UNL d   1      -1.973  -5.290   0.830  0.00  0.00     0.020 A 
ENDBRANCH  18  19
ENDBRANCH  17  18
ENDBRANCH   4  17
TORSDOF 5
