REMARK  3 active torsions:
REMARK  status: ('A' for Active; 'I' for Inactive)
REMARK    1  A    between atoms: C_2  and  C_1 
REMARK    2  A    between atoms: C_12  and  N_3 
REMARK    3  A    between atoms: C_14  and  C_8 
ROOT
ATOM      1  C   UNL d   1      -0.063  -1.244   0.035  0.00  0.00     0.153 C 
ATOM      2  N   UNL d   1       1.183  -0.702   0.306  0.00  0.00    -0.224 N 
ATOM      3  N   UNL d   1       1.005   0.595   0.652  0.00  0.00     0.001 NA
ATOM      4  N   UNL d   1      -0.259   0.872   0.369  0.00  0.00    -0.007 NA
ATOM      5  N   UNL d   1      -0.927  -0.251  -0.040  0.00  0.00    -0.269 N 
ATOM      6  HN  UNL d   1      -1.900  -0.307  -0.342  1.00  0.00     0.185 HD
ENDROOT
BRANCH   1   7
ATOM      7  C   UNL d   1      -0.445  -2.672  -0.057  0.00  0.00     0.065 A 
ATOM      8  C   UNL d   1      -1.492  -3.204  -0.775  0.00  0.00     0.124 A 
ATOM      9  O   UNL d   1      -1.522  -4.555  -0.557  0.00  0.00    -0.236 OA
ATOM     10  N   UNL d   1      -0.493  -4.918   0.297  0.00  0.00    -0.271 N 
ATOM     11  C   UNL d   1       0.137  -3.780   0.592  0.00  0.00     0.132 A 
ATOM     12  HN  UNL d   1      -0.266  -5.855   0.630  1.00  0.00     0.194 HD
BRANCH   8  13
ATOM     13  C   UNL d   1      -2.466  -2.707  -1.736  0.00  0.00     0.001 A 
ATOM     14  C   UNL d   1      -2.124  -1.682  -2.635  0.00  0.00     0.017 A 
ATOM     15  C   UNL d   1      -3.058  -1.197  -3.553  0.00  0.00     0.043 A 
ATOM     16  C   UNL d   1      -4.333  -1.743  -3.583  0.00  0.00     0.116 A 
ATOM     17  C   UNL d   1      -4.690  -2.769  -2.717  0.00  0.00     0.043 A 
ATOM     18  F   UNL d   1      -5.230  -1.274  -4.460  0.00  0.00    -0.206 F 
ATOM     19  C   UNL d   1      -3.758  -3.253  -1.797  0.00  0.00     0.017 A 
ENDBRANCH   8  13
ENDBRANCH   1   7
BRANCH   2  20
ATOM     20  C   UNL d   1       2.477  -1.248   0.134  0.00  0.00     0.056 A 
ATOM     21  C   UNL d   1       2.695  -2.306  -0.759  0.00  0.00     0.032 A 
ATOM     22  C   UNL d   1       3.979  -2.828  -0.926  0.00  0.00     0.009 A 
ATOM     23  C   UNL d   1       5.058  -2.299  -0.212  0.00  0.00    -0.062 A 
ATOM     24  C   UNL d   1       4.843  -1.215   0.649  0.00  0.00     0.009 A 
ATOM     25  C   UNL d   1       6.431  -2.868  -0.413  0.00  0.00     0.048 C 
ATOM     26  C   UNL d   1       3.561  -0.682   0.815  0.00  0.00     0.032 A 
ENDBRANCH   2  20
TORSDOF 3
