REMARK  5 active torsions:
REMARK  status: ('A' for Active; 'I' for Inactive)
REMARK    1  A    between atoms: N_2  and  C_1 
REMARK       I    between atoms: C_3  and  N_2 
REMARK    2  A    between atoms: C_4  and  C_3 
REMARK    3  A    between atoms: C_5  and  C_6 
REMARK    4  A    between atoms: O_11  and  C_5 
REMARK    5  A    between atoms: C_15  and  C_8 
ROOT
ATOM      1  N   UNL d   1       1.192   2.383   0.607  0.00  0.00    -0.323 N 
ATOM      2  C   UNL d   1       1.006   3.206   1.706  0.00  0.00     0.245 C 
ATOM      3  O   UNL d   1       0.020   3.276   2.432  0.00  0.00    -0.268 OA
ATOM      4  H   UNL d   1       2.146   2.272   0.308  0.00  0.00     0.169 HD
ENDROOT
BRANCH   1   5
ATOM      5  C   UNL d   1       0.281   1.366   0.195  0.00  0.00     0.047 C 
ATOM      6  C   UNL d   1      -1.115   1.480   0.355  0.00  0.00    -0.035 C 
ATOM      7  C   UNL d   1      -1.917   0.326   0.280  0.00  0.00     0.009 C 
ATOM      8  C   UNL d   1      -1.839   2.798   0.424  0.00  0.00     0.050 C 
ATOM      9  C   UNL d   1      -1.367  -0.904  -0.048  0.00  0.00     0.001 C 
ATOM     10  C   UNL d   1      -0.032  -0.970  -0.419  0.00  0.00     0.009 C 
ATOM     11  C   UNL d   1       0.794   0.172  -0.360  0.00  0.00    -0.031 C 
BRANCH  11  12
ATOM     12  C   UNL d   1       2.136   0.068  -1.054  0.00  0.00     0.036 C 
ATOM     13  C   UNL d   1       1.937   0.236  -2.560  0.00  0.00     0.010 C 
ENDBRANCH  11  12
ENDBRANCH   1   5
BRANCH   2  14
ATOM     14  C   UNL d   1       2.214   4.008   2.035  0.00  0.00     0.081 C 
ATOM     15  C   UNL d   1       2.131   4.909   3.029  0.00  0.00     0.086 C 
BRANCH  15  16
ATOM     16  C   UNL d   1       3.324   5.681   3.400  0.00  0.00     0.165 C 
ATOM     17  O   UNL d   1       4.360   5.691   2.757  0.00  0.00    -0.647 OA
BRANCH  16  18
ATOM     18  O   UNL d   1       3.151   6.370   4.544  0.00  0.00    -0.773 OA
ATOM     19  H   UNL d   1       2.295   6.232   4.994  0.00  0.00     0.167 HD
ENDBRANCH  16  18
ENDBRANCH  15  16
ENDBRANCH   2  14
TORSDOF 5
