REMARK  4 active torsions:
REMARK  status: ('A' for Active; 'I' for Inactive)
REMARK    1  A    between atoms: C_6  and  N_1 
REMARK    2  A    between atoms: C_5  and  C_2 
REMARK    3  A    between atoms: O_13  and  C_14 
REMARK    4  A    between atoms: C_18  and  O_13 
ROOT
ATOM      1  N   UNL d   1      -0.634  -1.161   0.242  0.00  0.00    -0.299 N 
ATOM      2  C   UNL d   1      -0.187  -0.222   1.262  0.00  0.00     0.190 C 
ATOM      3  S   UNL d   1       0.489   1.211   0.387  0.00  0.00    -0.129 SA
ATOM      4  C   UNL d   1      -0.159  -0.941  -1.053  0.00  0.00     0.235 C 
ATOM      5  C   UNL d   1       0.724   0.284  -1.137  0.00  0.00     0.179 C 
ATOM      6  O   UNL d   1      -0.339  -1.666  -2.027  0.00  0.00    -0.272 OA
ENDROOT
BRANCH   1   7
ATOM      7  C   UNL d   1      -1.404  -2.308   0.584  0.00  0.00     0.039 A 
ATOM      8  C   UNL d   1      -1.213  -2.963   1.809  0.00  0.00     0.032 A 
ATOM      9  C   UNL d   1      -2.016  -4.044   2.174  0.00  0.00     0.039 A 
ATOM     10  C   UNL d   1      -3.009  -4.495   1.305  0.00  0.00     0.076 A 
ATOM     11  C   UNL d   1      -3.233  -3.835   0.100  0.00  0.00     0.039 A 
ATOM     12  C   UNL d   1      -2.421  -2.759  -0.268  0.00  0.00     0.032 A 
BRANCH  10  13
ATOM     13  O   UNL d   1      -3.835  -5.557   1.598  0.00  0.00    -0.311 OA
BRANCH  13  14
ATOM     14  C   UNL d   1      -3.263  -6.684   2.151  0.00  0.00     0.076 A 
ATOM     15  C   UNL d   1      -4.014  -7.354   3.111  0.00  0.00     0.037 A 
ATOM     16  C   UNL d   1      -3.506  -8.508   3.713  0.00  0.00     0.003 A 
ATOM     17  C   UNL d   1      -2.248  -8.987   3.349  0.00  0.00     0.000 A 
ATOM     18  C   UNL d   1      -1.507  -8.329   2.368  0.00  0.00     0.003 A 
ATOM     19  C   UNL d   1      -2.019  -7.188   1.755  0.00  0.00     0.037 A 
ENDBRANCH  13  14
ENDBRANCH  10  13
ENDBRANCH   1   7
BRANCH   2  20
ATOM     20  C   UNL d   1      -1.265   0.180   2.245  0.00  0.00    -0.010 A 
ATOM     21  C   UNL d   1      -1.039   0.063   3.615  0.00  0.00     0.097 A 
ATOM     22  N   UNL d   1      -1.977   0.269   4.566  0.00  0.00    -0.375 N 
ATOM     23  C   UNL d   1      -3.207   0.624   4.137  0.00  0.00     0.087 A 
ATOM     24  HN  UNL d   1      -1.766   0.162   5.558  1.00  0.00     0.164 HD
ATOM     25  C   UNL d   1      -3.533   0.808   2.805  0.00  0.00     0.018 A 
ATOM     26  C   UNL d   1      -2.546   0.590   1.848  0.00  0.00     0.013 A 
ENDBRANCH   2  20
TORSDOF 4
