REMARK  6 active torsions:
REMARK  status: ('A' for Active; 'I' for Inactive)
REMARK    1  A    between atoms: C_3  and  C_1 
REMARK    2  A    between atoms: N_2  and  C_4 
REMARK    3  A    between atoms: C_13  and  N_7 
REMARK    4  A    between atoms: C_9  and  C_14 
REMARK    5  A    between atoms: C_14  and  C_13 
REMARK    6  A    between atoms: O_28  and  C_14 
ROOT
ATOM      1  N   UNL d   1      -0.073   4.461   3.111  0.00  0.00    -0.364 N 
ATOM      2  N   UNL d   1      -1.635   5.581   5.391  0.00  0.00     0.094 N 
ATOM      3  C   UNL d   1       0.332   4.224   4.505  0.00  0.00     0.154 C 
ATOM      4  C   UNL d   1      -1.003   5.586   2.894  0.00  0.00     0.154 C 
ATOM      5  C   UNL d   1      -0.851   4.322   5.493  0.00  0.00     0.292 C 
ATOM      6  C   UNL d   1      -2.097   5.693   3.990  0.00  0.00     0.292 C 
ENDROOT
BRANCH   2   7
ATOM      7  C   UNL d   1      -0.835   6.732   5.860  0.00  0.00     0.309 C 
BRANCH   7   8
ATOM      8  C   UNL d   1      -1.485   8.144   5.884  0.00  0.00     0.179 C 
BRANCH   8   9
ATOM      9  C   UNL d   1      -2.767   8.375   6.660  0.00  0.00    -0.025 A 
ATOM     10  C   UNL d   1      -3.355   7.428   7.513  0.00  0.00     0.049 A 
ATOM     11  C   UNL d   1      -4.613   7.666   8.082  0.00  0.00     0.102 A 
ATOM     12  O   UNL d   1      -5.115   6.684   8.897  0.00  0.00    -0.346 OA
ATOM     13  C   UNL d   1      -5.292   8.855   7.812  0.00  0.00     0.102 A 
ATOM     14  C   UNL d   1      -6.514   6.848   9.148  0.00  0.00     0.202 C 
ATOM     15  C   UNL d   1      -6.893   8.302   9.384  0.00  0.00     0.202 C 
ATOM     16  O   UNL d   1      -6.554   9.127   8.268  0.00  0.00    -0.346 OA
ATOM     17  C   UNL d   1      -4.695   9.832   7.024  0.00  0.00     0.040 A 
ATOM     18  C   UNL d   1      -3.435   9.601   6.471  0.00  0.00     0.013 A 
ENDBRANCH   8   9
BRANCH   8  19
ATOM     19  O   UNL d   1      -0.499   9.070   6.369  0.00  0.00    -0.389 OA
ATOM     20  H   UNL d   1      -0.350   8.855   7.306  0.00  0.00     0.210 HD
ENDBRANCH   8  19
ENDBRANCH   7   8
ENDBRANCH   2   7
BRANCH   1  21
ATOM     21  C   UNL d   1      -0.276   3.322   2.331  0.00  0.00     0.103 A 
ATOM     22  C   UNL d   1      -0.165   3.415   0.944  0.00  0.00     0.049 A 
ATOM     23  C   UNL d   1      -0.291   2.274   0.151  0.00  0.00     0.021 A 
ATOM     24  C   UNL d   1      -0.529   1.037   0.759  0.00  0.00     0.063 A 
ATOM     25  C   UNL d   1      -0.619   1.030   2.139  0.00  0.00     0.106 A 
ATOM     26  N   UNL d   1      -0.489   2.128   2.924  0.00  0.00    -0.352 N 
ATOM     27  HN  UNL d   1      -0.551   2.054   3.939  1.00  0.00     0.166 HD
BRANCH  24  28
ATOM     28  C   UNL d   1      -0.683  -0.218  -0.035  0.00  0.00     0.418 C 
ATOM     29  F   UNL d   1      -0.946  -1.316   0.723  0.00  0.00    -0.166 F 
ATOM     30  F   UNL d   1       0.433  -0.521  -0.756  0.00  0.00    -0.166 F 
ATOM     31  F   UNL d   1      -1.699  -0.142  -0.942  0.00  0.00    -0.166 F 
ENDBRANCH  24  28
ENDBRANCH   1  21
TORSDOF 6
