REMARK  6 active torsions:
REMARK  status: ('A' for Active; 'I' for Inactive)
REMARK       I    between atoms: N_2  and  C_1 
REMARK    1  A    between atoms: C_8  and  C_1 
REMARK    2  A    between atoms: N_7  and  N_2 
REMARK       I    between atoms: C_3  and  N_7 
REMARK    3  A    between atoms: C_4  and  C_3 
REMARK    4  A    between atoms: C_5  and  C_6 
REMARK    5  A    between atoms: O_15  and  C_5 
REMARK    6  A    between atoms: O_18  and  C_14 
ROOT
ATOM      1  C   UNL d   1       1.194  -0.050  -0.057  0.00  0.00     0.270 C 
ATOM      2  N   UNL d   1       0.445   0.995  -0.567  0.00  0.00    -0.263 N 
ATOM      3  O   UNL d   1       2.411  -0.127  -0.162  0.00  0.00    -0.266 OA
ATOM      4  H   UNL d   1      -0.505   1.187  -0.251  0.00  0.00     0.190 HD
ENDROOT
BRANCH   2   5
ATOM      5  N   UNL d   1       1.085   2.038  -1.242  0.00  0.00    -0.264 N 
ATOM      6  C   UNL d   1       0.410   3.228  -1.374  0.00  0.00     0.260 C 
ATOM      7  O   UNL d   1      -0.714   3.425  -0.922  0.00  0.00    -0.267 OA
ATOM      8  H   UNL d   1       2.020   1.849  -1.598  0.00  0.00     0.190 HD
BRANCH   6   9
ATOM      9  C   UNL d   1       1.158   4.263  -2.122  0.00  0.00     0.082 C 
ATOM     10  C   UNL d   1       0.604   5.473  -2.285  0.00  0.00     0.086 C 
BRANCH  10  11
ATOM     11  C   UNL d   1       1.357   6.503  -3.020  0.00  0.00     0.165 C 
ATOM     12  O   UNL d   1       2.455   6.321  -3.518  0.00  0.00    -0.647 OA
BRANCH  11  13
ATOM     13  O   UNL d   1       0.700   7.675  -3.083  0.00  0.00    -0.773 OA
ATOM     14  H   UNL d   1      -0.170   7.701  -2.644  0.00  0.00     0.167 HD
ENDBRANCH  11  13
ENDBRANCH  10  11
ENDBRANCH   6   9
ENDBRANCH   2   5
BRANCH   1  15
ATOM     15  C   UNL d   1       0.405  -1.103   0.642  0.00  0.00     0.033 A 
ATOM     16  C   UNL d   1      -0.890  -1.422   0.211  0.00  0.00     0.020 A 
ATOM     17  C   UNL d   1      -1.627  -2.420   0.857  0.00  0.00     0.038 A 
ATOM     18  C   UNL d   1      -1.079  -3.111   1.937  0.00  0.00     0.068 A 
ATOM     19  C   UNL d   1       0.221  -2.805   2.354  0.00  0.00     0.038 A 
ATOM     20  C   UNL d   1       0.968  -1.811   1.706  0.00  0.00     0.020 A 
BRANCH  18  21
ATOM     21  O   UNL d   1      -1.705  -4.094   2.652  0.00  0.00    -0.356 OA
ATOM     22  C   UNL d   1      -3.029  -4.436   2.254  0.00  0.00     0.210 C 
ENDBRANCH  18  21
ENDBRANCH   1  15
TORSDOF 6
