REMARK  3 active torsions:
REMARK  status: ('A' for Active; 'I' for Inactive)
REMARK    1  A    between atoms: CA_2  and  C_6 
REMARK    2  A    between atoms: C_7  and  C_4 
REMARK    3  A    between atoms: OXT_11  and  C_6 
ROOT
ATOM      1  N   UNL d   1      -1.275   1.285   0.151  0.00  0.00     0.118 N 
ATOM      2  CA  UNL d   1       0.033   1.309  -0.570  0.00  0.00     0.336 C 
ATOM      3  S   UNL d   1      -0.322  -1.210   0.033  0.00  0.00    -0.117 SA
ATOM      4  C   UNL d   1      -1.763  -0.106   0.068  0.00  0.00     0.317 C 
ATOM      5  C   UNL d   1       0.893   0.155  -0.024  0.00  0.00     0.044 C 
ATOM      6  C   UNL d   1       1.418   0.362   1.404  0.00  0.00     0.029 C 
ATOM      7  C   UNL d   1       2.039  -0.211  -0.967  0.00  0.00     0.029 C 
ATOM      8  H   UNL d   1      -1.951   1.869  -0.349  0.00  0.00     0.319 HD
ENDROOT
BRANCH   4   9
ATOM      9  C   UNL d   1      -2.712  -0.454   1.192  0.00  0.00    -0.015 A 
ATOM     10  C   UNL d   1      -2.587   0.111   2.471  0.00  0.00     0.011 A 
ATOM     11  C   UNL d   1      -3.466  -0.233   3.500  0.00  0.00     0.007 A 
ATOM     12  C   UNL d   1      -4.487  -1.161   3.278  0.00  0.00    -0.062 A 
ATOM     13  C   UNL d   1      -4.613  -1.743   2.012  0.00  0.00     0.007 A 
ATOM     14  C   UNL d   1      -5.420  -1.521   4.396  0.00  0.00     0.048 C 
ATOM     15  C   UNL d   1      -3.735  -1.394   0.981  0.00  0.00     0.011 A 
ENDBRANCH   4   9
BRANCH   2  16
ATOM     16  C   UNL d   1       0.698   2.668  -0.344  0.00  0.00     0.175 C 
ATOM     17  O   UNL d   1       1.581   3.136  -1.044  0.00  0.00    -0.648 OA
BRANCH  16  18
ATOM     18  OXT UNL d   1       0.208   3.298   0.756  0.00  0.00    -0.775 OA
ATOM     19  HXT UNL d   1      -0.495   2.721   1.138  0.00  0.00     0.167 HD
ENDBRANCH  16  18
ENDBRANCH   2  16
TORSDOF 3
