REMARK  3 active torsions:
REMARK  status: ('A' for Active; 'I' for Inactive)
REMARK    1  A    between atoms: C_9  and  N_1 
REMARK    2  A    between atoms: C_4  and  C_12 
REMARK    3  A    between atoms: C_13  and  C_5 
ROOT
ATOM      1  N   UNL d   1      -1.658  -7.524  -6.311  0.00  0.00    -0.197 NA
ATOM      2  C   UNL d   1      -1.455  -6.429  -6.644  0.00  0.00     0.065 C 
ATOM      3  C   UNL d   1      -1.204  -5.060  -7.105  0.00  0.00     0.188 C 
ENDROOT
BRANCH   3   4
ATOM      4  C   UNL d   1      -1.677  -4.078  -6.082  0.00  0.00     0.064 A 
ATOM      5  N   UNL d   1      -0.928  -3.593  -5.113  0.00  0.00    -0.352 N 
ATOM      6  C   UNL d   1      -1.655  -2.694  -4.345  0.00  0.00     0.049 A 
ATOM      7  HN  UNL d   1       0.047  -3.842  -4.951  1.00  0.00     0.166 HD
ATOM      8  C   UNL d   1      -2.963  -2.518  -4.751  0.00  0.00     0.081 A 
ATOM      9  S   UNL d   1      -3.288  -3.475  -6.136  0.00  0.00    -0.085 SA
BRANCH   6  10
ATOM     10  C   UNL d   1      -1.044  -2.014  -3.207  0.00  0.00    -0.009 A 
ATOM     11  C   UNL d   1      -1.496  -0.761  -2.764  0.00  0.00     0.016 A 
ATOM     12  C   UNL d   1      -0.869  -0.111  -1.694  0.00  0.00     0.037 A 
ATOM     13  C   UNL d   1       0.221  -0.717  -1.058  0.00  0.00     0.102 A 
ATOM     14  C   UNL d   1       0.679  -1.971  -1.479  0.00  0.00     0.037 A 
ATOM     15  C   UNL d   1       0.047  -2.610  -2.551  0.00  0.00     0.016 A 
BRANCH  13  16
ATOM     16  N   UNL d   1       0.897  -0.024   0.045  0.00  0.00    -0.116 N 
ATOM     17  O   UNL d   1       1.866  -0.586   0.574  0.00  0.00    -0.532 OA
ATOM     18  O   UNL d   1       0.460   1.087   0.380  0.00  0.00    -0.532 OA
ENDBRANCH  13  16
ENDBRANCH   6  10
ENDBRANCH   3   4
TORSDOF 3
