REMARK  4 active torsions:
REMARK  status: ('A' for Active; 'I' for Inactive)
REMARK    1  A    between atoms: S_12  and  C_1 
REMARK    2  A    between atoms: N_14  and  C_1 
REMARK    3  A    between atoms: N_5  and  N_3 
REMARK    4  A    between atoms: C_16  and  C_15 
ROOT
ATOM      1  N   UNL d   1       0.847   2.196  -1.173  0.00  0.00    -0.309 N 
ATOM      2  HN  UNL d   1       1.640   2.123  -1.810  1.00  0.00     0.186 HD
ATOM      3  C   UNL d   1       0.433   3.307  -0.655  0.00  0.00     0.118 C 
ENDROOT
BRANCH   1   4
ATOM      4  N   UNL d   1       0.073   1.102  -0.754  0.00  0.00    -0.285 N 
ATOM      5  C   UNL d   1       0.465  -0.007  -1.302  0.00  0.00     0.130 C 
ATOM      6  HN  UNL d   1      -0.704   1.171  -0.097  1.00  0.00     0.188 HD
BRANCH   5   7
ATOM      7  S   UNL d   1      -0.278  -1.546  -0.938  0.00  0.00    -0.103 SA
ATOM      8  C   UNL d   1      -1.551  -1.075   0.243  0.00  0.00     0.098 C 
ENDBRANCH   5   7
BRANCH   5   9
ATOM      9  N   UNL d   1       1.507  -0.123  -2.178  0.00  0.00    -0.282 NA
ATOM     10  H   UNL d   1       2.108   0.692  -2.109  0.00  0.00     0.126 HD
ATOM     11  H   UNL d   1       1.973  -1.019  -2.145  0.00  0.00     0.126 HD
ENDBRANCH   5   9
ENDBRANCH   1   4
BRANCH   3  12
ATOM     12  C   UNL d   1       1.105   4.593  -0.953  0.00  0.00    -0.017 A 
ATOM     13  C   UNL d   1       0.641   5.762  -0.337  0.00  0.00     0.052 A 
ATOM     14  C   UNL d   1       1.324   6.932  -0.602  0.00  0.00     0.105 A 
ATOM     15  O   UNL d   1       1.041   8.154  -0.074  0.00  0.00    -0.323 OA
ATOM     16  C   UNL d   1       2.409   6.969  -1.448  0.00  0.00     0.105 A 
ATOM     17  C   UNL d   1       2.110   8.948  -0.634  0.00  0.00     0.352 A 
ATOM     18  O   UNL d   1       2.942   8.215  -1.558  0.00  0.00    -0.323 OA
ATOM     19  C   UNL d   1       2.874   5.838  -2.084  0.00  0.00     0.040 A 
ATOM     20  C   UNL d   1       2.212   4.633  -1.827  0.00  0.00     0.016 A 
ENDBRANCH   3  12
TORSDOF 4
