REMARK  1 active torsions:
REMARK  status: ('A' for Active; 'I' for Inactive)
REMARK    1  A    between atoms: C_4  and  C_1 
ROOT
ATOM      1  C   UNL d   1       2.076  -0.070  -0.122  0.00  0.00     0.169 A 
ATOM      2  C   UNL d   1       1.616   1.325  -0.524  0.00  0.00     0.176 A 
ATOM      3  C   UNL d   1       0.772  -0.761   0.256  0.00  0.00     0.176 A 
ATOM      4  C   UNL d   1       0.159   1.390  -0.403  0.00  0.00     0.025 A 
ATOM      5  C   UNL d   1      -0.332   0.174   0.047  0.00  0.00     0.025 A 
ATOM      6  O   UNL d   1       2.293   2.256  -0.923  0.00  0.00    -0.291 OA
ATOM      7  O   UNL d   1       0.613  -1.900   0.659  0.00  0.00    -0.291 OA
ATOM      8  C   UNL d   1      -0.682   2.452  -0.683  0.00  0.00     0.016 A 
ATOM      9  C   UNL d   1      -1.685  -0.039   0.241  0.00  0.00     0.016 A 
ATOM     10  C   UNL d   1      -2.055   2.256  -0.496  0.00  0.00     0.001 A 
ATOM     11  C   UNL d   1      -2.552   1.021  -0.038  0.00  0.00     0.001 A 
ENDROOT
BRANCH   1  12
ATOM     12  C   UNL d   1       3.147  -0.057   0.957  0.00  0.00    -0.028 A 
ATOM     13  C   UNL d   1       4.538  -0.010   0.625  0.00  0.00    -0.018 A 
ATOM     14  C   UNL d   1       5.494  -0.008   1.676  0.00  0.00    -0.025 A 
ATOM     15  C   UNL d   1       5.041   0.037  -0.698  0.00  0.00     0.013 A 
ATOM     16  C   UNL d   1       6.868   0.018   1.387  0.00  0.00     0.012 A 
ATOM     17  C   UNL d   1       5.071  -0.029   3.010  0.00  0.00     0.012 A 
ATOM     18  C   UNL d   1       7.326   0.047   0.072  0.00  0.00     0.001 A 
ATOM     19  C   UNL d   1       6.412   0.059  -0.970  0.00  0.00     0.001 A 
ATOM     20  C   UNL d   1       3.719  -0.050   3.329  0.00  0.00     0.002 A 
ATOM     21  C   UNL d   1       2.767  -0.060   2.315  0.00  0.00     0.009 A 
ENDBRANCH   1  12
TORSDOF 1
