REMARK  9 active torsions:
REMARK  status: ('A' for Active; 'I' for Inactive)
REMARK    1  A    between atoms: C_11  and  S_1 
REMARK    2  A    between atoms: C_21  and  S_1 
REMARK    3  A    between atoms: C_10  and  C_4 
REMARK    4  A    between atoms: C_18  and  C_5 
REMARK    5  A    between atoms: C_17  and  C_6 
REMARK    6  A    between atoms: C_7  and  C_11 
REMARK    7  A    between atoms: O_27  and  C_8 
REMARK    8  A    between atoms: C_9  and  C_16 
REMARK    9  A    between atoms: C_23  and  C_21 
ROOT
ATOM      1  N   UNL d   1       2.371   3.633   1.184  0.00  0.00    -0.352 N 
ATOM      2  HN  UNL d   1       3.370   3.827   1.112  1.00  0.00     0.166 HD
ATOM      3  C   UNL d   1       1.668   3.522   2.381  0.00  0.00     0.049 A 
ATOM      4  C   UNL d   1       1.565   3.451   0.156  0.00  0.00     0.065 A 
ATOM      5  S   UNL d   1      -0.099   3.267   0.565  0.00  0.00    -0.085 SA
ATOM      6  C   UNL d   1       0.310   3.318   2.226  0.00  0.00     0.081 A 
ENDROOT
BRANCH   3   7
ATOM      7  C   UNL d   1       2.345   3.542   3.680  0.00  0.00    -0.008 A 
ATOM      8  C   UNL d   1       1.694   3.945   4.853  0.00  0.00     0.024 A 
ATOM      9  C   UNL d   1       2.310   3.872   6.121  0.00  0.00    -0.016 A 
ATOM     10  C   UNL d   1       3.616   3.321   6.153  0.00  0.00     0.079 A 
ATOM     11  C   UNL d   1       4.357   2.989   4.991  0.00  0.00    -0.016 A 
ATOM     12  C   UNL d   1       3.675   3.113   3.763  0.00  0.00     0.024 A 
BRANCH   9  13
ATOM     13  C   UNL d   1       1.537   4.338   7.384  0.00  0.00    -0.021 C 
ATOM     14  C   UNL d   1       0.757   3.140   7.958  0.00  0.00     0.019 C 
ATOM     15  C   UNL d   1       2.441   4.929   8.495  0.00  0.00     0.019 C 
ATOM     16  C   UNL d   1       0.514   5.468   7.078  0.00  0.00     0.019 C 
ENDBRANCH   9  13
BRANCH  10  17
ATOM     17  O   UNL d   1       4.144   3.024   7.377  0.00  0.00    -0.360 OA
ATOM     18  H   UNL d   1       4.849   3.672   7.539  0.00  0.00     0.217 HD
ENDBRANCH  10  17
BRANCH  11  19
ATOM     19  C   UNL d   1       5.839   2.529   5.013  0.00  0.00    -0.021 C 
ATOM     20  C   UNL d   1       6.399   2.194   3.603  0.00  0.00     0.019 C 
ATOM     21  C   UNL d   1       6.737   3.664   5.558  0.00  0.00     0.019 C 
ATOM     22  C   UNL d   1       6.051   1.256   5.862  0.00  0.00     0.019 C 
ENDBRANCH  11  19
ENDBRANCH   3   7
BRANCH   4  23
ATOM     23  C   UNL d   1       1.984   3.480  -1.274  0.00  0.00     0.205 C 
BRANCH  23  24
ATOM     24  S   UNL d   1       2.414   1.815  -1.770  0.00  0.00     0.154 S 
ATOM     25  O   UNL d   1       1.235   0.981  -1.637  0.00  0.00    -0.227 OA
ATOM     26  O   UNL d   1       3.671   1.456  -1.142  0.00  0.00    -0.227 OA
BRANCH  24  27
ATOM     27  C   UNL d   1       2.725   2.027  -3.526  0.00  0.00     0.179 C 
BRANCH  27  28
ATOM     28  C   UNL d   1       3.107   0.701  -4.141  0.00  0.00    -0.043 A 
ATOM     29  C   UNL d   1       2.122  -0.188  -4.605  0.00  0.00     0.024 A 
ATOM     30  C   UNL d   1       2.472  -1.431  -5.165  0.00  0.00     0.048 A 
ATOM     31  C   UNL d   1       3.828  -1.770  -5.269  0.00  0.00     0.016 A 
ATOM     32  C   UNL d   1       4.813  -0.897  -4.810  0.00  0.00     0.001 A 
ATOM     33  C   UNL d   1       4.455   0.328  -4.245  0.00  0.00     0.008 A 
BRANCH  30  34
ATOM     34  C   UNL d   1       1.419  -2.404  -5.640  0.00  0.00     0.417 C 
ATOM     35  F   UNL d   1       0.143  -1.963  -5.459  0.00  0.00    -0.166 F 
ATOM     36  F   UNL d   1       1.530  -2.676  -6.971  0.00  0.00    -0.166 F 
ATOM     37  F   UNL d   1       1.493  -3.608  -5.008  0.00  0.00    -0.166 F 
ENDBRANCH  30  34
ENDBRANCH  27  28
ENDBRANCH  24  27
ENDBRANCH  23  24
ENDBRANCH   4  23
TORSDOF 9
