REMARK  3 active torsions:
REMARK  status: ('A' for Active; 'I' for Inactive)
REMARK    1  A    between atoms: C_3  and  S_6 
REMARK    2  A    between atoms: S_6  and  C_8 
REMARK    3  A    between atoms: C_8  and  C_10 
ROOT
ATOM      1  N   UNL d   1       0.109  -1.861  -3.414  0.00  0.00    -0.191 NA
ATOM      2  C   UNL d   1       0.341  -1.312  -2.419  0.00  0.00     0.099 C 
ATOM      3  C   UNL d   1       0.628  -0.637  -1.185  0.00  0.00     0.045 A 
ATOM      4  C   UNL d   1       1.285   0.602  -1.193  0.00  0.00     0.030 A 
ATOM      5  C   UNL d   1       1.569   1.274   0.009  0.00  0.00    -0.047 A 
ATOM      6  C   UNL d   1       0.516  -0.550   1.231  0.00  0.00     0.002 A 
ATOM      7  C   UNL d   1       0.246  -1.211   0.032  0.00  0.00     0.022 A 
ATOM      8  C   UNL d   1       1.170   0.684   1.219  0.00  0.00     0.008 A 
ENDROOT
BRANCH   5   9
ATOM      9  C   UNL d   1       2.240   2.634  -0.002  0.00  0.00     0.119 C 
BRANCH   9  10
ATOM     10  S   UNL d   1       0.985   3.953  -0.091  0.00  0.00    -0.108 SA
BRANCH  10  11
ATOM     11  C   UNL d   1       1.993   5.428  -0.090  0.00  0.00     0.069 A 
ATOM     12  N   UNL d   1       3.338   5.324  -0.018  0.00  0.00    -0.361 N 
ATOM     13  C   UNL d   1       4.042   6.483  -0.023  0.00  0.00     0.089 A 
ATOM     14  HN  UNL d   1       3.802   4.417   0.038  1.00  0.00     0.165 HD
ATOM     15  C   UNL d   1       3.471   7.744  -0.097  0.00  0.00     0.017 A 
ATOM     16  C   UNL d   1       2.087   7.828  -0.169  0.00  0.00     0.004 A 
ATOM     17  C   UNL d   1       1.338   6.654  -0.164  0.00  0.00     0.037 A 
ENDBRANCH  10  11
ENDBRANCH   9  10
ENDBRANCH   5   9
TORSDOF 3
