REMARK  8 active torsions:
REMARK  status: ('A' for Active; 'I' for Inactive)
REMARK    1  A    between atoms: S_2  and  C_1 
REMARK    2  A    between atoms: N_8  and  S_2 
REMARK    3  A    between atoms: C_9  and  C_3 
REMARK    4  A    between atoms: C_12  and  C_4 
REMARK    5  A    between atoms: C_7  and  C_13 
REMARK    6  A    between atoms: C_14  and  N_8 
REMARK    7  A    between atoms: O_22  and  C_9 
REMARK    8  A    between atoms: C_30  and  O_22 
ROOT
ATOM      1  C   UNL d   1      -1.634  -0.776  -0.063  0.00  0.00     0.128 A 
ATOM      2  C   UNL d   1      -0.313  -1.327  -0.133  0.00  0.00     0.094 A 
ATOM      3  C   UNL d   1      -1.504   0.604  -0.055  0.00  0.00     0.110 A 
ATOM      4  O   UNL d   1      -0.174   0.917  -0.047  0.00  0.00    -0.312 OA
ATOM      5  C   UNL d   1       0.540  -0.237  -0.076  0.00  0.00     0.068 A 
ATOM      6  C   UNL d   1       2.009  -0.058  -0.063  0.00  0.00     0.078 C 
ENDROOT
BRANCH   1   7
ATOM      7  S   UNL d   1      -3.128  -1.630   0.086  0.00  0.00     0.249 S 
ATOM      8  O   UNL d   1      -2.789  -3.026   0.193  0.00  0.00    -0.205 OA
ATOM      9  O   UNL d   1      -3.816  -0.945   1.155  0.00  0.00    -0.205 OA
BRANCH   7  10
ATOM     10  N   UNL d   1      -3.967  -1.402  -1.375  0.00  0.00    -0.181 NA
ATOM     11  H   UNL d   1      -3.401  -1.764  -2.146  0.00  0.00     0.146 HD
BRANCH  10  12
ATOM     12  C   UNL d   1      -5.310  -1.883  -1.388  0.00  0.00     0.023 A 
ATOM     13  C   UNL d   1      -5.579  -3.080  -2.042  0.00  0.00     0.040 A 
ATOM     14  C   UNL d   1      -6.877  -3.607  -2.057  0.00  0.00     0.049 A 
ATOM     15  C   UNL d   1      -7.904  -2.906  -1.406  0.00  0.00     0.016 A 
ATOM     16  C   UNL d   1      -7.634  -1.707  -0.744  0.00  0.00     0.003 A 
ATOM     17  C   UNL d   1      -6.334  -1.198  -0.729  0.00  0.00     0.024 A 
BRANCH  14  18
ATOM     18  C   UNL d   1      -7.158  -4.915  -2.751  0.00  0.00     0.417 C 
ATOM     19  F   UNL d   1      -6.063  -5.445  -3.366  0.00  0.00    -0.166 F 
ATOM     20  F   UNL d   1      -7.609  -5.873  -1.897  0.00  0.00    -0.166 F 
ATOM     21  F   UNL d   1      -8.105  -4.795  -3.721  0.00  0.00    -0.166 F 
ENDBRANCH  14  18
ENDBRANCH  10  12
ENDBRANCH   7  10
ENDBRANCH   1   7
BRANCH   2  22
ATOM     22  C   UNL d   1       0.109  -2.713  -0.222  0.00  0.00     0.297 C 
ATOM     23  O   UNL d   1      -0.415  -3.529  -0.956  0.00  0.00    -0.259 OA
BRANCH  22  24
ATOM     24  O   UNL d   1       1.158  -2.959   0.610  0.00  0.00    -0.318 OA
BRANCH  24  25
ATOM     25  C   UNL d   1       1.377  -4.327   0.981  0.00  0.00     0.174 C 
ATOM     26  C   UNL d   1       0.752  -4.507   2.351  0.00  0.00     0.034 C 
ENDBRANCH  24  25
ENDBRANCH  22  24
ENDBRANCH   2  22
BRANCH   3  27
ATOM     27  C   UNL d   1      -2.389   1.772  -0.070  0.00  0.00    -0.001 A 
ATOM     28  C   UNL d   1      -2.004   2.972   0.542  0.00  0.00     0.015 A 
ATOM     29  C   UNL d   1      -2.813   4.115   0.466  0.00  0.00     0.007 A 
ATOM     30  C   UNL d   1      -4.033   4.077  -0.217  0.00  0.00    -0.062 A 
ATOM     31  C   UNL d   1      -4.437   2.881  -0.802  0.00  0.00     0.007 A 
ATOM     32  C   UNL d   1      -4.882   5.304  -0.348  0.00  0.00     0.048 C 
ATOM     33  C   UNL d   1      -3.613   1.757  -0.744  0.00  0.00     0.015 A 
ENDBRANCH   3  27
TORSDOF 8
