REMARK  0 active torsions:
REMARK  status: ('A' for Active; 'I' for Inactive)
ROOT
ATOM      1  C   UNK d   2       1.908   1.512  -1.097  0.00  0.00     0.216 C 
ATOM      2  N   UNK d   2       1.075   0.892  -0.066  0.00  0.00    -0.304 N 
ATOM      3  C   UNK d   2       1.660  -0.309   0.548  0.00  0.00     0.191 C 
ATOM      4  C   UNK d   2       0.757  -1.498   0.191  0.00  0.00     0.246 C 
ATOM      5  C   UNK d   2       1.536   0.914  -2.459  0.00  0.00     0.207 C 
ATOM      6  C   UNK d   2       1.699   3.003  -1.280  0.00  0.00     0.207 C 
ATOM      7  S   UNK d   2       3.603   1.049  -0.657  0.00  0.00    -0.119 SA
ATOM      8  C   UNK d   2       0.859   3.151  -2.479  0.00  0.00     0.028 A 
ATOM      9  C   UNK d   2       0.816   1.955  -3.191  0.00  0.00     0.028 A 
ATOM     10  C   UNK d   2       3.073  -0.554   0.013  0.00  0.00     0.112 C 
ATOM     11  O   UNK d   2       1.188  -2.640   0.112  0.00  0.00    -0.271 OA
ATOM     12  O   UNK d   2       2.009   3.931  -0.544  0.00  0.00    -0.288 OA
ATOM     13  O   UNK d   2       1.616  -0.245  -2.824  0.00  0.00    -0.288 OA
ATOM     14  C   UNK d   2      -0.057   4.155  -2.726  0.00  0.00     0.016 A 
ATOM     15  C   UNK d   2      -0.067   1.743  -4.228  0.00  0.00     0.016 A 
ATOM     16  C   UNK d   2      -1.017   2.731  -4.466  0.00  0.00     0.001 A 
ATOM     17  C   UNK d   2      -1.025   3.917  -3.706  0.00  0.00     0.001 A 
ATOM     18  C   UNK d   1      -1.617  -1.943  -0.596  0.00  0.00     0.216 C 
ATOM     19  N   UNK d   1      -0.583  -1.152   0.076  0.00  0.00    -0.304 N 
ATOM     20  C   UNK d   1      -1.062   0.046   0.765  0.00  0.00     0.191 C 
ATOM     21  C   UNK d   1      -0.292   1.177   0.078  0.00  0.00     0.246 C 
ATOM     22  C   UNK d   1      -1.156  -3.352  -0.951  0.00  0.00     0.207 C 
ATOM     23  C   UNK d   1      -1.967  -1.383  -2.002  0.00  0.00     0.207 C 
ATOM     24  S   UNK d   1      -3.045  -1.677   0.470  0.00  0.00    -0.119 SA
ATOM     25  C   UNK d   1      -0.645  -3.250  -2.339  0.00  0.00     0.028 C 
ATOM     26  C   UNK d   1      -1.278  -2.200  -2.985  0.00  0.00     0.028 C 
ATOM     27  C   UNK d   1      -2.589   0.096   0.682  0.00  0.00     0.112 C 
ATOM     28  O   UNK d   1      -0.814   2.220  -0.283  0.00  0.00    -0.271 OA
ATOM     29  O   UNK d   1      -1.099  -4.350  -0.263  0.00  0.00    -0.288 OA
ATOM     30  O   UNK d   1      -2.563  -0.364  -2.312  0.00  0.00    -0.288 OA
ATOM     31  C   UNK d   1       0.469  -3.829  -2.918  0.00  0.00     0.016 C 
ATOM     32  C   UNK d   1      -1.003  -1.822  -4.287  0.00  0.00     0.016 C 
ATOM     33  C   UNK d   1       0.854  -3.378  -4.194  0.00  0.00     0.001 C 
ATOM     34  C   UNK d   1       0.094  -2.420  -4.893  0.00  0.00     0.001 C 
ENDROOT
TORSDOF 0
