REMARK  3 active torsions:
REMARK  status: ('A' for Active; 'I' for Inactive)
REMARK    1  A    between atoms: C_11  and  N_2 
REMARK    2  A    between atoms: C_13  and  C_11 
REMARK    3  A    between atoms: C_14  and  C_13 
REMARK       I    between atoms: N_19  and  C_14 
ROOT
ATOM      1  C   UNL d   1       2.679   0.225  -1.006  0.00  0.00     0.173 C 
ATOM      2  N   UNL d   1       2.010   0.910  -2.147  0.00  0.00    -0.344 N 
ATOM      3  C   UNL d   1       4.209   0.100  -1.464  0.00  0.00     0.036 C 
ATOM      4  O   UNL d   1       2.492   0.899   0.264  0.00  0.00    -0.314 OA
ATOM      5  C   UNL d   1       2.068  -1.181  -0.924  0.00  0.00     0.036 C 
ATOM      6  C   UNL d   1       2.720   0.501  -3.280  0.00  0.00     0.040 A 
ATOM      7  C   UNL d   1       3.963  -0.078  -2.959  0.00  0.00    -0.018 A 
ATOM      8  C   UNL d   1       0.359  -0.286   0.427  0.00  0.00     0.008 C 
ATOM      9  C   UNL d   1       1.003  -1.450  -0.168  0.00  0.00     0.016 C 
ATOM     10  C   UNL d   1       1.175   0.828   0.706  0.00  0.00     0.083 C 
ATOM     11  C   UNL d   1      -1.050  -0.208   0.571  0.00  0.00    -0.013 A 
ATOM     12  C   UNL d   1       0.631   1.968   1.286  0.00  0.00     0.039 C 
ATOM     13  C   UNL d   1      -1.606   1.007   1.032  0.00  0.00    -0.025 A 
ATOM     14  C   UNL d   1      -0.757   2.058   1.428  0.00  0.00     0.015 C 
ATOM     15  C   UNL d   1       5.034   1.381  -1.240  0.00  0.00     0.025 C 
ATOM     16  C   UNL d   1       4.992  -1.048  -0.802  0.00  0.00     0.025 C 
ATOM     17  C   UNL d   1       2.221   0.461  -4.569  0.00  0.00     0.030 A 
ATOM     18  C   UNL d   1       4.692  -0.759  -3.920  0.00  0.00     0.010 A 
ATOM     19  C   UNL d   1      -1.935  -1.246   0.186  0.00  0.00     0.013 A 
ATOM     20  C   UNL d   1      -3.004   1.164   1.039  0.00  0.00     0.012 A 
ATOM     21  C   UNL d   1       4.161  -0.850  -5.212  0.00  0.00     0.001 A 
ATOM     22  C   UNL d   1       2.942  -0.235  -5.538  0.00  0.00     0.002 A 
ATOM     23  C   UNL d   1      -3.320  -1.074   0.201  0.00  0.00     0.001 A 
ATOM     24  C   UNL d   1      -3.853   0.138   0.614  0.00  0.00     0.001 A 
ENDROOT
BRANCH   2  25
ATOM     25  C   UNL d   1       1.357   2.222  -2.113  0.00  0.00     0.136 C 
BRANCH  25  26
ATOM     26  C   UNL d   1       2.257   3.372  -1.663  0.00  0.00     0.122 C 
BRANCH  26  27
ATOM     27  C   UNL d   1       1.482   4.651  -1.458  0.00  0.00     0.216 C 
ATOM     28  O   UNL d   1       0.290   4.805  -1.721  0.00  0.00    -0.274 OA
ATOM     29  N   UNL d   1       2.217   5.684  -0.946  0.00  0.00    -0.370 N 
ATOM     30  H   UNL d   1       3.201   5.616  -0.743  0.00  0.00     0.159 HD
ATOM     31  H   UNL d   1       1.748   6.570  -0.805  0.00  0.00     0.159 HD
ENDBRANCH  26  27
ENDBRANCH  25  26
ENDBRANCH   2  25
TORSDOF 3
