REMARK  1 active torsions:
REMARK  status: ('A' for Active; 'I' for Inactive)
REMARK    1  A    between atoms: C_12  and  C_9 
ROOT
ATOM      1  N   UNL d   1      -0.597   0.813  -0.570  0.00  0.00    -0.164 N 
ATOM      2  C   UNL d   1       0.502   0.275   0.065  0.00  0.00     0.155 A 
ATOM      3  N   UNL d   1      -0.248   1.979  -1.132  0.00  0.00     0.016 NA
ATOM      4  N   UNL d   1      -1.857   0.315  -0.639  0.00  0.00    -0.279 N 
ATOM      5  HN  UNL d   1      -2.619   0.778  -1.134  1.00  0.00     0.189 HD
ATOM      6  N   UNL d   1       1.037   2.144  -0.837  0.00  0.00    -0.005 NA
ATOM      7  N   UNL d   1       1.520   1.090  -0.092  0.00  0.00    -0.269 N 
ATOM      8  HN  UNL d   1       2.469   0.969   0.262  1.00  0.00     0.185 HD
ATOM      9  C   UNL d   1      -1.993  -0.814  -0.006  0.00  0.00     0.060 A 
ATOM     10  C   UNL d   1       0.335  -0.967   0.705  0.00  0.00     0.055 A 
ATOM     11  C   UNL d   1      -0.874  -1.544   0.684  0.00  0.00     0.036 A 
ENDROOT
BRANCH   9  12
ATOM     12  C   UNL d   1      -3.336  -1.463   0.046  0.00  0.00    -0.008 A 
ATOM     13  C   UNL d   1      -4.209  -1.309  -1.039  0.00  0.00     0.014 A 
ATOM     14  C   UNL d   1      -5.477  -1.893  -1.006  0.00  0.00     0.001 A 
ATOM     15  C   UNL d   1      -5.883  -2.624   0.110  0.00  0.00     0.000 A 
ATOM     16  C   UNL d   1      -5.025  -2.768   1.199  0.00  0.00     0.001 A 
ATOM     17  C   UNL d   1      -3.756  -2.185   1.172  0.00  0.00     0.014 A 
ENDBRANCH   9  12
TORSDOF 1
