REMARK  9 active torsions:
REMARK  status: ('A' for Active; 'I' for Inactive)
REMARK    1  A    between atoms: N_3  and  C_1 
REMARK    2  A    between atoms: N_10  and  C_1 
REMARK       I    between atoms: C_2  and  N_9 
REMARK    3  A    between atoms: C_15  and  C_2 
REMARK    4  A    between atoms: N_9  and  N_3 
REMARK    5  A    between atoms: O_19  and  C_4 
REMARK    6  A    between atoms: C_5  and  C_17 
REMARK    7  A    between atoms: C_17  and  N_10 
REMARK    8  A    between atoms: O_20  and  C_11 
REMARK    9  A    between atoms: C_13  and  C_15 
ROOT
ATOM      1  C   UNL d   1       0.004   3.577  -1.056  0.00  0.00     0.240 C 
ATOM      2  N   UNL d   1      -0.152   3.640   0.316  0.00  0.00    -0.268 N 
ATOM      3  O   UNL d   1      -0.469   2.681  -1.752  0.00  0.00    -0.272 OA
ATOM      4  H   UNL d   1       0.036   4.496   0.827  0.00  0.00     0.190 HD
ENDROOT
BRANCH   1   5
ATOM      5  C   UNL d   1       0.811   4.731  -1.617  0.00  0.00     0.143 C 
BRANCH   5   6
ATOM      6  C   UNL d   1      -0.043   5.909  -2.021  0.00  0.00    -0.047 A 
ATOM      7  C   UNL d   1      -0.533   6.013  -3.334  0.00  0.00     0.047 A 
ATOM      8  C   UNL d   1      -1.287   7.124  -3.754  0.00  0.00     0.102 A 
ATOM      9  C   UNL d   1      -1.586   8.128  -2.816  0.00  0.00     0.101 A 
ATOM     10  C   UNL d   1      -1.111   8.015  -1.504  0.00  0.00     0.040 A 
ATOM     11  C   UNL d   1      -0.348   6.916  -1.103  0.00  0.00     0.010 A 
BRANCH   8  12
ATOM     12  O   UNL d   1      -1.712   7.302  -5.040  0.00  0.00    -0.353 OA
ATOM     13  C   UNL d   1      -1.391   6.303  -6.000  0.00  0.00     0.210 C 
ENDBRANCH   8  12
BRANCH   9  14
ATOM     14  O   UNL d   1      -2.271   9.297  -3.029  0.00  0.00    -0.353 OA
ATOM     15  C   UNL d   1      -3.271   9.293  -4.038  0.00  0.00     0.210 C 
ENDBRANCH   9  14
ENDBRANCH   5   6
ENDBRANCH   1   5
BRANCH   2  16
ATOM     16  N   UNL d   1      -0.980   2.714   0.956  0.00  0.00    -0.274 N 
ATOM     17  H   UNL d   1      -1.537   2.132   0.327  0.00  0.00     0.189 HD
BRANCH  16  18
ATOM     18  C   UNL d   1      -0.594   2.131   2.142  0.00  0.00     0.186 C 
ATOM     19  S   UNL d   1       0.902   2.274   2.870  0.00  0.00    -0.040 SA
BRANCH  18  20
ATOM     20  N   UNL d   1      -1.577   1.424   2.786  0.00  0.00    -0.366 N 
ATOM     21  H   UNL d   1      -1.259   0.994   3.647  0.00  0.00     0.161 HD
BRANCH  20  22
ATOM     22  C   UNL d   1      -2.972   1.827   2.781  0.00  0.00     0.126 C 
BRANCH  22  23
ATOM     23  C   UNL d   1      -3.852   0.663   2.476  0.00  0.00     0.003 A 
ATOM     24  C   UNL d   1      -5.345   0.875   2.469  0.00  0.00     0.007 A 
ATOM     25  C   UNL d   1      -4.715   0.027   3.537  0.00  0.00     0.007 A 
ENDBRANCH  22  23
ENDBRANCH  20  22
ENDBRANCH  18  20
ENDBRANCH  16  18
ENDBRANCH   2  16
TORSDOF 9
