REMARK  4 active torsions:
REMARK  status: ('A' for Active; 'I' for Inactive)
REMARK    1  A    between atoms: C_7  and  C_1 
REMARK    2  A    between atoms: C_10  and  C_4 
REMARK       I    between atoms: N_14  and  C_7 
REMARK    3  A    between atoms: C_9  and  C_18 
REMARK    4  A    between atoms: N_12  and  N_14 
ROOT
ATOM      1  C   UNL d   1       1.038  -2.311  -0.058  0.00  0.00     0.313 C 
ATOM      2  N   UNL d   1       0.217  -3.433   0.049  0.00  0.00    -0.263 N 
ATOM      3  O   UNL d   1       0.608  -1.169  -0.223  0.00  0.00    -0.262 OA
ATOM      4  H   UNL d   1       0.630  -4.353   0.179  0.00  0.00     0.190 HD
ENDROOT
BRANCH   1   5
ATOM      5  C   UNL d   1       2.450  -2.606   0.059  0.00  0.00     0.241 A 
ATOM      6  N   UNL d   1       3.021  -3.782   0.241  0.00  0.00    -0.314 N 
ATOM      7  C   UNL d   1       4.354  -3.437   0.335  0.00  0.00     0.145 A 
ATOM      8  HN  UNL d   1       2.589  -4.705   0.298  1.00  0.00     0.170 HD
ATOM      9  N   UNL d   1       4.600  -2.125   0.200  0.00  0.00    -0.241 N 
ATOM     10  O   UNL d   1       3.337  -1.572   0.012  0.00  0.00    -0.212 OA
ATOM     11  HN  UNL d   1       5.500  -1.646   0.228  1.00  0.00     0.196 HD
BRANCH   7  12
ATOM     12  C   UNL d   1       5.449  -4.424   0.591  0.00  0.00     0.050 A 
ATOM     13  S   UNL d   1       5.205  -6.109   0.719  0.00  0.00    -0.098 SA
ATOM     14  C   UNL d   1       6.869  -6.390   1.007  0.00  0.00     0.050 A 
ATOM     15  C   UNL d   1       7.598  -5.221   1.010  0.00  0.00     0.009 A 
ATOM     16  C   UNL d   1       6.776  -4.083   0.762  0.00  0.00     0.023 A 
ENDBRANCH   7  12
ENDBRANCH   1   5
BRANCH   2  17
ATOM     17  N   UNL d   1      -1.135  -3.268  -0.001  0.00  0.00    -0.308 N 
ATOM     18  C   UNL d   1      -1.871  -4.328   0.076  0.00  0.00     0.122 C 
ATOM     19  HN  UNL d   1      -1.551  -2.342  -0.095  1.00  0.00     0.186 HD
BRANCH  18  20
ATOM     20  C   UNL d   1      -3.351  -4.234   0.046  0.00  0.00     0.024 A 
ATOM     21  C   UNL d   1      -4.027  -3.252  -0.701  0.00  0.00     0.047 A 
ATOM     22 CL   UNL d   1      -3.245  -2.149  -1.781  0.00  0.00    -0.083 Cl
ATOM     23  C   UNL d   1      -5.425  -3.165  -0.653  0.00  0.00     0.025 A 
ATOM     24  C   UNL d   1      -6.164  -4.057   0.118  0.00  0.00     0.003 A 
ATOM     25  C   UNL d   1      -5.507  -5.050   0.839  0.00  0.00     0.025 A 
ATOM     26  C   UNL d   1      -4.109  -5.142   0.805  0.00  0.00     0.047 A 
ATOM     27 CL   UNL d   1      -3.389  -6.392   1.762  0.00  0.00    -0.083 Cl
ENDBRANCH  18  20
ENDBRANCH   2  17
TORSDOF 4
