REMARK  4 active torsions:
REMARK  status: ('A' for Active; 'I' for Inactive)
REMARK    1  A    between atoms: N_3  and  C_1 
REMARK    2  A    between atoms: C_7  and  C_2 
REMARK       I    between atoms: N_13  and  C_7 
REMARK       I    between atoms: C_10  and  N_14 
REMARK    3  A    between atoms: C_15  and  C_10 
REMARK    4  A    between atoms: N_14  and  N_13 
ROOT
ATOM      1  C   UNL d   1      -2.074  -0.852   0.001  0.00  0.00     0.098 A 
ATOM      2  C   UNL d   1      -0.989  -1.716  -0.100  0.00  0.00     0.075 A 
ATOM      3  S   UNL d   1      -1.631   0.776   0.224  0.00  0.00    -0.075 SA
ATOM      4  C   UNL d   1       0.258  -0.955   0.009  0.00  0.00    -0.026 A 
ATOM      5  C   UNL d   1       0.015   0.407   0.094  0.00  0.00    -0.008 A 
ATOM      6  C   UNL d   1       1.677  -1.463  -0.077  0.00  0.00     0.041 C 
ATOM      7  C   UNL d   1       1.047   1.494   0.105  0.00  0.00     0.047 C 
ATOM      8  C   UNL d   1       2.704  -0.399   0.349  0.00  0.00     0.005 C 
ATOM      9  C   UNL d   1       2.418   0.951  -0.313  0.00  0.00     0.005 C 
ENDROOT
BRANCH   2  10
ATOM     10  C   UNL d   1      -1.129  -3.152  -0.380  0.00  0.00     0.273 C 
ATOM     11  N   UNL d   1      -0.207  -3.967   0.244  0.00  0.00    -0.263 N 
ATOM     12  H   UNL d   1       0.389  -3.626   0.995  0.00  0.00     0.190 HD
ATOM     13  O   UNL d   1      -2.018  -3.618  -1.092  0.00  0.00    -0.266 OA
BRANCH  11  14
ATOM     14  N   UNL d   1      -0.389  -5.361   0.217  0.00  0.00    -0.263 N 
ATOM     15  C   UNL d   1       0.431  -6.117   1.027  0.00  0.00     0.270 C 
ATOM     16  O   UNL d   1       1.321  -5.609   1.710  0.00  0.00    -0.266 OA
ATOM     17  H   UNL d   1      -1.091  -5.718  -0.429  0.00  0.00     0.190 HD
BRANCH  15  18
ATOM     18  C   UNL d   1       0.205  -7.590   1.065  0.00  0.00     0.033 A 
ATOM     19  C   UNL d   1       1.260  -8.407   1.502  0.00  0.00     0.019 A 
ATOM     20  C   UNL d   1       1.087  -9.791   1.613  0.00  0.00     0.025 A 
ATOM     21  C   UNL d   1      -0.143 -10.359   1.295  0.00  0.00     0.034 A 
ATOM     22  C   UNL d   1      -1.201  -9.556   0.863  0.00  0.00     0.025 A 
ATOM     23 CL   UNL d   1      -0.368 -12.057   1.455  0.00  0.00    -0.084 Cl
ATOM     24  C   UNL d   1      -1.030  -8.172   0.748  0.00  0.00     0.019 A 
ENDBRANCH  15  18
ENDBRANCH  11  14
ENDBRANCH   2  10
BRANCH   1  25
ATOM     25  N   UNL d   1      -3.456  -1.135   0.060  0.00  0.00    -0.313 N 
ATOM     26  C   UNL d   1      -4.075  -2.086   0.883  0.00  0.00     0.013 A 
ATOM     27  C   UNL d   1      -5.444  -1.994   0.717  0.00  0.00     0.027 A 
ATOM     28  C   UNL d   1      -3.376  -2.982   1.846  0.00  0.00     0.068 C 
ATOM     29  C   UNL d   1      -5.699  -0.974  -0.208  0.00  0.00     0.027 A 
ATOM     30  C   UNL d   1      -4.483  -0.469  -0.625  0.00  0.00     0.013 A 
ATOM     31  C   UNL d   1      -4.294   0.560  -1.691  0.00  0.00     0.068 C 
ENDBRANCH   1  25
TORSDOF 4
