REMARK  5 active torsions:
REMARK  status: ('A' for Active; 'I' for Inactive)
REMARK    1  A    between atoms: C_2  and  S_1 
REMARK    2  A    between atoms: C_12  and  S_1 
REMARK    3  A    between atoms: N_8  and  C_3 
REMARK    4  A    between atoms: C_9  and  N_8 
REMARK    5  A    between atoms: C_15  and  C_12 
ROOT
ATOM      1  C   UNL d   1       0.387  -0.190  -1.713  0.00  0.00     0.154 C 
ATOM      2  C   UNL d   1      -0.346  -1.248  -2.103  0.00  0.00     0.124 C 
ATOM      3  C   UNL d   1       0.864  -0.016  -0.387  0.00  0.00     0.113 C 
ATOM      4  N   UNL d   1       1.259   0.063   0.700  0.00  0.00    -0.191 NA
ENDROOT
BRANCH   1   5
ATOM      5  S   UNL d   1       0.826   0.999  -2.905  0.00  0.00     0.186 S 
ATOM      6  O   UNL d   1       1.074   2.271  -2.252  0.00  0.00    -0.222 OA
ATOM      7  O   UNL d   1      -0.099   0.933  -4.024  0.00  0.00    -0.222 OA
BRANCH   5   8
ATOM      8  C   UNL d   1       2.397   0.383  -3.499  0.00  0.00     0.146 C 
BRANCH   8   9
ATOM      9  C   UNL d   1       2.990   1.291  -4.575  0.00  0.00     0.011 C 
ATOM     10  C   UNL d   1       4.335   0.774  -5.062  0.00  0.00     0.006 C 
ENDBRANCH   8   9
ENDBRANCH   5   8
ENDBRANCH   1   5
BRANCH   2  11
ATOM     11  N   UNL d   1      -0.825  -2.286  -1.336  0.00  0.00    -0.350 N 
ATOM     12  H   UNL d   1      -0.993  -2.106  -0.348  0.00  0.00     0.166 HD
BRANCH  11  13
ATOM     13  C   UNL d   1      -1.574  -3.393  -1.742  0.00  0.00     0.104 A 
ATOM     14  N   UNL d   1      -2.395  -3.911  -0.806  0.00  0.00    -0.352 N 
ATOM     15  C   UNL d   1      -3.154  -4.977  -1.149  0.00  0.00     0.089 A 
ATOM     16  HN  UNL d   1      -2.443  -3.511   0.131  1.00  0.00     0.166 HD
ATOM     17  C   UNL d   1      -3.118  -5.580  -2.392  0.00  0.00     0.017 A 
ATOM     18  C   UNL d   1      -2.246  -5.062  -3.339  0.00  0.00     0.005 A 
ATOM     19  C   UNL d   1      -1.467  -3.953  -3.012  0.00  0.00     0.048 A 
ENDBRANCH  11  13
ENDBRANCH   2  11
TORSDOF 5
