REMARK  5 active torsions:
REMARK  status: ('A' for Active; 'I' for Inactive)
REMARK    1  A    between atoms: C_2  and  C_1 
REMARK       I    between atoms: N_5  and  C_2 
REMARK       I    between atoms: C_3  and  N_6 
REMARK    2  A    between atoms: C_4  and  C_3 
REMARK    3  A    between atoms: N_6  and  N_5 
REMARK    4  A    between atoms: O_15  and  C_7 
REMARK    5  A    between atoms: O_14  and  C_8 
ROOT
ATOM      1  C   UNL d   1       3.016  -0.270   0.244  0.00  0.00     0.275 C 
ATOM      2  N   UNL d   1       3.719  -1.351  -0.269  0.00  0.00    -0.263 N 
ATOM      3  O   UNL d   1       3.604   0.594   0.903  0.00  0.00    -0.266 OA
ATOM      4  H   UNL d   1       3.293  -2.129  -0.769  0.00  0.00     0.190 HD
ENDROOT
BRANCH   2   5
ATOM      5  N   UNL d   1       5.117  -1.408  -0.015  0.00  0.00    -0.263 N 
ATOM      6  C   UNL d   1       5.892  -2.326  -0.697  0.00  0.00     0.271 C 
ATOM      7  O   UNL d   1       5.401  -3.163  -1.452  0.00  0.00    -0.266 OA
ATOM      8  H   UNL d   1       5.480  -0.616   0.512  0.00  0.00     0.190 HD
BRANCH   6   9
ATOM      9  C   UNL d   1       7.379  -2.286  -0.510  0.00  0.00     0.049 A 
ATOM     10  C   UNL d   1       8.162  -3.088  -1.340  0.00  0.00     0.104 A 
ATOM     11  N   UNL d   1       9.518  -3.164  -1.286  0.00  0.00    -0.374 N 
ATOM     12  C   UNL d   1      10.134  -2.416  -0.352  0.00  0.00     0.087 A 
ATOM     13  HN  UNL d   1      10.044  -3.761  -1.924  1.00  0.00     0.164 HD
ATOM     14  C   UNL d   1       9.451  -1.591   0.529  0.00  0.00     0.018 A 
ATOM     15  C   UNL d   1       8.052  -1.526   0.449  0.00  0.00     0.020 A 
ENDBRANCH   6   9
ENDBRANCH   2   5
BRANCH   1  16
ATOM     16  C   UNL d   1       1.534  -0.173  -0.002  0.00  0.00     0.100 A 
ATOM     17  C   UNL d   1       0.673  -1.288   0.117  0.00  0.00     0.086 A 
ATOM     18  C   UNL d   1      -0.718  -1.102   0.012  0.00  0.00     0.038 A 
ATOM     19  C   UNL d   1      -1.266   0.161  -0.184  0.00  0.00     0.005 A 
ATOM     20  C   UNL d   1      -0.427   1.257  -0.315  0.00  0.00     0.038 A 
ATOM     21  C   UNL d   1       0.966   1.108  -0.224  0.00  0.00     0.086 A 
BRANCH  17  22
ATOM     22  O   UNL d   1       1.226  -2.526   0.343  0.00  0.00    -0.355 OA
ATOM     23  C   UNL d   1       0.339  -3.522   0.857  0.00  0.00     0.210 C 
ENDBRANCH  17  22
BRANCH  21  24
ATOM     24  O   UNL d   1       1.814   2.175  -0.400  0.00  0.00    -0.355 OA
ATOM     25  C   UNL d   1       1.268   3.469  -0.155  0.00  0.00     0.210 C 
ENDBRANCH  21  24
ENDBRANCH   1  16
TORSDOF 5
