REMARK  8 active torsions:
REMARK  status: ('A' for Active; 'I' for Inactive)
REMARK    1  A    between atoms: N_6  and  C_1 
REMARK    2  A    between atoms: C_13  and  C_2 
REMARK    3  A    between atoms: N_4  and  C_3 
REMARK    4  A    between atoms: O_20  and  C_5 
REMARK       I    between atoms: C_10  and  N_6 
REMARK    5  A    between atoms: C_8  and  C_10 
REMARK    6  A    between atoms: O_21  and  C_9 
REMARK    7  A    between atoms: O_23  and  C_12 
REMARK    8  A    between atoms: O_22  and  C_13 
ROOT
ATOM      1  C   UNL d   1       1.435  -0.531   0.123  0.00  0.00     0.088 C 
ATOM      2  C   UNL d   1       0.536  -1.288  -0.645  0.00  0.00     0.071 C 
ATOM      3  C   UNL d   1       1.094   0.804   0.409  0.00  0.00     0.132 C 
ATOM      4  C   UNL d   1      -0.232   1.246   0.220  0.00  0.00     0.137 C 
ATOM      5  C   UNL d   1      -0.791  -0.866  -0.803  0.00  0.00     0.059 C 
ATOM      6  C   UNL d   1      -1.201   0.366  -0.300  0.00  0.00     0.105 C 
ENDROOT
BRANCH   1   7
ATOM      7  N   UNL d   1       2.618  -1.076   0.712  0.00  0.00    -0.318 N 
ATOM      8  C   UNL d   1       2.724  -2.412   1.081  0.00  0.00     0.280 C 
ATOM      9  O   UNL d   1       1.811  -3.227   0.940  0.00  0.00    -0.265 OA
ATOM     10  H   UNL d   1       3.251  -0.436   1.178  0.00  0.00     0.169 HD
BRANCH   8  11
ATOM     11  C   UNL d   1       3.962  -2.811   1.722  0.00  0.00     0.146 A 
ATOM     12  O   UNL d   1       4.932  -1.897   2.058  0.00  0.00    -0.283 OA
ATOM     13  C   UNL d   1       5.928  -2.618   2.655  0.00  0.00     0.215 A 
ATOM     14  C   UNL d   1       5.633  -3.959   2.706  0.00  0.00     0.066 A 
ATOM     15  C   UNL d   1       4.361  -4.080   2.108  0.00  0.00     0.047 A 
BRANCH  13  16
ATOM     16  N   UNL d   1       7.073  -1.896   3.116  0.00  0.00    -0.090 N 
ATOM     17  O   UNL d   1       7.998  -2.575   3.582  0.00  0.00    -0.530 OA
ATOM     18  O   UNL d   1       7.050  -0.663   3.026  0.00  0.00    -0.530 OA
ENDBRANCH  13  16
ENDBRANCH   8  11
ENDBRANCH   1   7
BRANCH   2  19
ATOM     19  C   UNL d   1       1.043  -2.376  -1.522  0.00  0.00     0.295 C 
ATOM     20  O   UNL d   1       2.175  -2.385  -1.987  0.00  0.00    -0.259 OA
BRANCH  19  21
ATOM     21  O   UNL d   1       0.052  -3.255  -1.815  0.00  0.00    -0.322 OA
ATOM     22  C   UNL d   1       0.402  -4.226  -2.801  0.00  0.00     0.213 C 
ENDBRANCH  19  21
ENDBRANCH   2  19
BRANCH   3  23
ATOM     23  O   UNL d   1       2.024   1.644   0.976  0.00  0.00    -0.351 OA
ATOM     24  C   UNL d   1       3.106   1.931   0.076  0.00  0.00     0.210 C 
ENDBRANCH   3  23
BRANCH   4  25
ATOM     25  O   UNL d   1      -0.680   2.485   0.617  0.00  0.00    -0.351 OA
ATOM     26  C   UNL d   1       0.039   3.572   0.043  0.00  0.00     0.210 C 
ENDBRANCH   4  25
BRANCH   6  27
ATOM     27  O   UNL d   1      -2.499   0.810  -0.373  0.00  0.00    -0.353 OA
ATOM     28  C   UNL d   1      -3.503  -0.200  -0.461  0.00  0.00     0.210 C 
ENDBRANCH   6  27
TORSDOF 8
