REMARK  6 active torsions:
REMARK  status: ('A' for Active; 'I' for Inactive)
REMARK    1  A    between atoms: O_5  and  C_1 
REMARK    2  A    between atoms: C_2  and  C_3 
REMARK    3  A    between atoms: O_6  and  C_2 
REMARK    4  A    between atoms: C_4  and  C_11 
REMARK    5  A    between atoms: C_12  and  O_5 
REMARK    6  A    between atoms: C_13  and  O_6 
ROOT
ATOM      1  C   UNL d   1       2.678   6.286   3.074  0.00  0.00     0.083 C 
ATOM      2  C   UNL d   1       1.710   6.107   2.161  0.00  0.00     0.017 C 
ENDROOT
BRANCH   2   3
ATOM      3  C   UNL d   1       1.479   4.804   1.513  0.00  0.00    -0.036 A 
ATOM      4  C   UNL d   1       1.580   3.600   2.226  0.00  0.00     0.014 A 
ATOM      5  C   UNL d   1       1.342   2.366   1.605  0.00  0.00     0.038 A 
ATOM      6  C   UNL d   1       1.022   2.316   0.254  0.00  0.00     0.078 A 
ATOM      7  C   UNL d   1       0.855   3.515  -0.447  0.00  0.00     0.038 A 
ATOM      8  C   UNL d   1       1.081   4.751   0.176  0.00  0.00     0.014 A 
BRANCH   6   9
ATOM      9  O   UNL d   1       0.782   1.188  -0.469  0.00  0.00    -0.255 OA
BRANCH   9  10
ATOM     10  C   UNL d   1       1.489  -0.006  -0.158  0.00  0.00     0.530 C 
ATOM     11  F   UNL d   1       2.467   0.146   0.759  0.00  0.00    -0.144 F 
ATOM     12  F   UNL d   1       2.058  -0.474  -1.292  0.00  0.00    -0.144 F 
ATOM     13  F   UNL d   1       0.617  -0.937   0.288  0.00  0.00    -0.144 F 
ENDBRANCH   9  10
ENDBRANCH   6   9
ENDBRANCH   2   3
BRANCH   1  14
ATOM     14  C   UNL d   1       2.941   7.507   3.867  0.00  0.00     0.288 C 
ATOM     15  O   UNL d   1       3.807   7.504   4.732  0.00  0.00    -0.260 OA
BRANCH  14  16
ATOM     16  O   UNL d   1       2.080   8.540   3.540  0.00  0.00    -0.276 OA
BRANCH  16  17
ATOM     17  C   UNL d   1       2.058   9.694   4.350  0.00  0.00     0.079 A 
ATOM     18  C   UNL d   1       3.203  10.283   4.893  0.00  0.00     0.039 A 
ATOM     19  C   UNL d   1       3.080  11.397   5.727  0.00  0.00     0.026 A 
ATOM     20  C   UNL d   1       1.822  11.937   5.986  0.00  0.00     0.034 A 
ATOM     21  C   UNL d   1       0.682  11.380   5.402  0.00  0.00     0.026 A 
ATOM     22 CL   UNL d   1       1.671  13.294   7.032  0.00  0.00    -0.084 Cl
ATOM     23  C   UNL d   1       0.800  10.259   4.578  0.00  0.00     0.039 A 
ENDBRANCH  16  17
ENDBRANCH  14  16
ENDBRANCH   1  14
TORSDOF 6
