REMARK  4 active torsions:
REMARK  status: ('A' for Active; 'I' for Inactive)
REMARK    1  A    between atoms: N_4  and  C_1 
REMARK       I    between atoms: C_2  and  N_3 
REMARK    2  A    between atoms: C_5  and  C_2 
REMARK    3  A    between atoms: N_3  and  N_4 
REMARK    4  A    between atoms: C_7  and  C_8 
ROOT
ATOM      1  C   UNL d   1       0.174  -2.490  -2.821  0.00  0.00     0.270 C 
ATOM      2  N   UNL d   1       0.891  -1.316  -2.999  0.00  0.00    -0.264 N 
ATOM      3  O   UNL d   1       0.714  -3.552  -2.510  0.00  0.00    -0.266 OA
ATOM      4  H   UNL d   1       0.554  -0.616  -3.651  0.00  0.00     0.190 HD
ENDROOT
BRANCH   1   5
ATOM      5  C   UNL d   1      -1.297  -2.424  -3.034  0.00  0.00     0.033 A 
ATOM      6  C   UNL d   1      -2.005  -1.223  -2.962  0.00  0.00     0.017 A 
ATOM      7  C   UNL d   1      -3.403  -1.224  -3.054  0.00  0.00     0.009 A 
ATOM      8  C   UNL d   1      -4.133  -2.418  -3.211  0.00  0.00    -0.051 A 
ATOM      9  C   UNL d   1      -3.399  -3.612  -3.312  0.00  0.00     0.009 A 
ATOM     10  C   UNL d   1      -2.002  -3.616  -3.219  0.00  0.00     0.017 A 
BRANCH   8  11
ATOM     11  C   UNL d   1      -5.673  -2.384  -3.217  0.00  0.00    -0.024 C 
ATOM     12  C   UNL d   1      -6.328  -3.776  -3.367  0.00  0.00     0.019 C 
ATOM     13  C   UNL d   1      -6.178  -1.787  -1.885  0.00  0.00     0.019 C 
ATOM     14  C   UNL d   1      -6.176  -1.513  -4.387  0.00  0.00     0.019 C 
ENDBRANCH   8  11
ENDBRANCH   1   5
BRANCH   2  15
ATOM     15  N   UNL d   1       2.270  -1.397  -2.827  0.00  0.00    -0.274 N 
ATOM     16  H   UNL d   1       2.637  -2.348  -2.741  0.00  0.00     0.189 HD
BRANCH  15  17
ATOM     17  C   UNL d   1       3.124  -0.377  -2.608  0.00  0.00     0.186 C 
ATOM     18  S   UNL d   1       4.750  -0.720  -2.415  0.00  0.00    -0.040 SA
ATOM     19  N   UNL d   1       2.750   0.916  -2.549  0.00  0.00    -0.370 N 
ATOM     20  C   UNL d   1       1.458   1.560  -2.510  0.00  0.00     0.148 C 
ATOM     21  H   UNL d   1       3.545   1.535  -2.429  0.00  0.00     0.161 HD
ENDBRANCH  15  17
ENDBRANCH   2  15
TORSDOF 4
