REMARK  5 active torsions:
REMARK  status: ('A' for Active; 'I' for Inactive)
REMARK    1  A    between atoms: C_7  and  N_1 
REMARK    2  A    between atoms: N_13  and  C_4 
REMARK    3  A    between atoms: C_10  and  C_6 
REMARK    4  A    between atoms: C_8  and  O_12 
REMARK    5  A    between atoms: O_12  and  C_22 
ROOT
ATOM      1  N   UNL d   1       0.868  -0.742   0.035  0.00  0.00    -0.240 N 
ATOM      2  N   UNL d   1       0.896   0.587   0.324  0.00  0.00    -0.291 N 
ATOM      3  HN  UNL d   1       1.699   1.132   0.639  1.00  0.00     0.187 HD
ATOM      4  C   UNL d   1      -0.445  -1.188  -0.148  0.00  0.00     0.123 C 
ATOM      5  C   UNL d   1      -1.220  -0.057  -0.175  0.00  0.00     0.081 C 
ATOM      6  C   UNL d   1      -0.352   1.032   0.107  0.00  0.00     0.062 C 
ENDROOT
BRANCH   6   7
ATOM      7  C   UNL d   1      -0.699   2.459   0.185  0.00  0.00    -0.008 A 
ATOM      8  C   UNL d   1       0.284   3.433   0.415  0.00  0.00     0.016 A 
ATOM      9  C   UNL d   1      -0.037   4.802   0.449  0.00  0.00     0.038 A 
ATOM     10  C   UNL d   1      -1.347   5.214   0.225  0.00  0.00     0.078 A 
ATOM     11  C   UNL d   1      -2.337   4.251   0.041  0.00  0.00     0.038 A 
ATOM     12  C   UNL d   1      -2.020   2.889   0.011  0.00  0.00     0.016 A 
BRANCH  10  13
ATOM     13  O   UNL d   1      -1.805   6.496   0.182  0.00  0.00    -0.255 OA
BRANCH  13  14
ATOM     14  C   UNL d   1      -0.908   7.545  -0.141  0.00  0.00     0.530 C 
ATOM     15  F   UNL d   1       0.156   7.141  -0.869  0.00  0.00    -0.144 F 
ATOM     16  F   UNL d   1      -1.579   8.463  -0.875  0.00  0.00    -0.144 F 
ATOM     17  F   UNL d   1      -0.474   8.145   0.987  0.00  0.00    -0.144 F 
ENDBRANCH  13  14
ENDBRANCH  10  13
ENDBRANCH   6   7
BRANCH   1  18
ATOM     18  C   UNL d   1       2.075  -1.492  -0.031  0.00  0.00     0.059 A 
ATOM     19  C   UNL d   1       2.160  -2.655  -0.809  0.00  0.00     0.039 A 
ATOM     20  C   UNL d   1       3.344  -3.410  -0.855  0.00  0.00    -0.054 A 
ATOM     21  C   UNL d   1       3.403  -4.632  -1.734  0.00  0.00     0.049 C 
ATOM     22  C   UNL d   1       4.452  -3.003  -0.088  0.00  0.00    -0.056 A 
ATOM     23  C   UNL d   1       4.372  -1.814   0.654  0.00  0.00     0.009 A 
ATOM     24  C   UNL d   1       5.726  -3.802  -0.067  0.00  0.00     0.049 C 
ATOM     25  C   UNL d   1       3.202  -1.052   0.670  0.00  0.00     0.032 A 
ENDBRANCH   1  18
BRANCH   4  26
ATOM     26  N   UNL d   1      -0.839  -2.487  -0.224  0.00  0.00    -0.384 N 
ATOM     27  H   UNL d   1      -0.251  -3.207   0.200  0.00  0.00     0.157 HD
ATOM     28  H   UNL d   1      -1.827  -2.704  -0.108  0.00  0.00     0.157 HD
ENDBRANCH   4  26
TORSDOF 5
