REMARK  6 active torsions:
REMARK  status: ('A' for Active; 'I' for Inactive)
REMARK    1  A    between atoms: N_2  and  C_1 
REMARK    2  A    between atoms: N_3  and  C_7 
REMARK    3  A    between atoms: C_10  and  C_5 
REMARK    4  A    between atoms: S_8  and  C_6 
REMARK    5  A    between atoms: C_9  and  S_8 
REMARK    6  A    between atoms: O_18  and  C_10 
ROOT
ATOM      1  C   UNL d   1       1.765   5.249  -0.550  0.00  0.00     0.122 A 
ATOM      2  C   UNL d   1       1.197   6.344  -1.228  0.00  0.00     0.073 A 
ATOM      3  C   UNL d   1       1.496   3.918  -0.913  0.00  0.00     0.038 A 
ATOM      4  C   UNL d   1       0.338   6.096  -2.303  0.00  0.00     0.105 A 
ATOM      5  C   UNL d   1       0.658   3.709  -2.019  0.00  0.00     0.024 A 
ATOM      6  C   UNL d   1       0.084   4.783  -2.715  0.00  0.00     0.037 A 
ENDROOT
BRANCH   3   7
ATOM      7  S   UNL d   1       1.924   2.471   0.038  0.00  0.00    -0.087 SA
BRANCH   7   8
ATOM      8  C   UNL d   1       3.573   2.034  -0.488  0.00  0.00     0.022 A 
ATOM      9  C   UNL d   1       3.898   1.187  -1.565  0.00  0.00     0.056 A 
ATOM     10  C   UNL d   1       5.239   0.807  -1.778  0.00  0.00     0.019 A 
ATOM     11  C   UNL d   1       6.253   1.250  -0.930  0.00  0.00     0.001 A 
ATOM     12  C   UNL d   1       5.941   2.095   0.127  0.00  0.00     0.001 A 
ATOM     13  C   UNL d   1       4.616   2.479   0.347  0.00  0.00     0.020 A 
BRANCH   9  14
ATOM     14  C   UNL d   1       2.938   0.642  -2.556  0.00  0.00     0.294 C 
ATOM     15  O   UNL d   1       3.206   0.546  -3.743  0.00  0.00    -0.259 OA
BRANCH  14  16
ATOM     16  O   UNL d   1       1.807   0.190  -1.965  0.00  0.00    -0.322 OA
ATOM     17  C   UNL d   1       0.899  -0.445  -2.869  0.00  0.00     0.213 C 
ENDBRANCH  14  16
ENDBRANCH   9  14
ENDBRANCH   7   8
ENDBRANCH   3   7
BRANCH   1  18
ATOM     18  N   UNL d   1       2.639   5.564   0.561  0.00  0.00    -0.114 N 
ATOM     19  O   UNL d   1       3.673   6.186   0.291  0.00  0.00    -0.532 OA
ATOM     20  O   UNL d   1       2.268   5.236   1.695  0.00  0.00    -0.532 OA
ENDBRANCH   1  18
BRANCH   4  21
ATOM     21  N   UNL d   1      -0.334   7.215  -2.978  0.00  0.00    -0.116 N 
ATOM     22  O   UNL d   1      -0.139   8.353  -2.530  0.00  0.00    -0.532 OA
ATOM     23  O   UNL d   1      -1.065   6.950  -3.941  0.00  0.00    -0.532 OA
ENDBRANCH   4  21
TORSDOF 6
