REMARK  4 active torsions:
REMARK  status: ('A' for Active; 'I' for Inactive)
REMARK    1  A    between atoms: C_9  and  C_1 
REMARK    2  A    between atoms: N_6  and  C_2 
REMARK    3  A    between atoms: C_11  and  C_4 
REMARK       I    between atoms: C_7  and  N_6 
REMARK    4  A    between atoms: C_8  and  C_7 
ROOT
ATOM      1  C   UNL d   1       0.013   1.220  -0.303  0.00  0.00     0.077 C 
ATOM      2  C   UNL d   1       1.316   0.881   0.028  0.00  0.00     0.057 C 
ATOM      3  S   UNL d   1      -1.033  -0.132  -0.156  0.00  0.00    -0.084 SA
ATOM      4  C   UNL d   1       0.263  -1.243  -0.020  0.00  0.00     0.018 C 
ATOM      5  C   UNL d   1       1.450  -0.548   0.136  0.00  0.00     0.051 C 
ENDROOT
BRANCH   2   6
ATOM      6  N   UNL d   1       2.428   1.706   0.194  0.00  0.00    -0.320 N 
ATOM      7  C   UNL d   1       2.430   3.068   0.436  0.00  0.00     0.280 C 
ATOM      8  O   UNL d   1       1.424   3.753   0.570  0.00  0.00    -0.265 OA
ATOM      9  H   UNL d   1       3.332   1.251   0.283  0.00  0.00     0.169 HD
BRANCH   7  10
ATOM     10  C   UNL d   1       3.765   3.631   0.518  0.00  0.00     0.142 A 
ATOM     11  O   UNL d   1       4.856   2.808   0.396  0.00  0.00    -0.317 OA
ATOM     12  C   UNL d   1       5.960   3.596   0.484  0.00  0.00     0.143 A 
ATOM     13  C   UNL d   1       5.604   4.911   0.662  0.00  0.00     0.027 A 
ATOM     14  C   UNL d   1       4.189   4.934   0.692  0.00  0.00     0.045 A 
ENDBRANCH   7  10
ENDBRANCH   2   6
BRANCH   1  15
ATOM     15  C   UNL d   1      -0.604   2.442  -0.799  0.00  0.00     0.164 C 
ATOM     16  O   UNL d   1      -1.726   2.828  -0.461  0.00  0.00    -0.292 OA
ATOM     17  C   UNL d   1       0.092   3.136  -1.952  0.00  0.00     0.097 C 
ENDBRANCH   1  15
BRANCH   4  18
ATOM     18  C   UNL d   1       0.018  -2.701  -0.066  0.00  0.00    -0.019 A 
ATOM     19  C   UNL d   1      -1.119  -3.237  -0.699  0.00  0.00     0.013 A 
ATOM     20  C   UNL d   1      -1.320  -4.618  -0.791  0.00  0.00     0.001 A 
ATOM     21  C   UNL d   1      -0.382  -5.494  -0.256  0.00  0.00     0.000 A 
ATOM     22  C   UNL d   1       0.749  -4.990   0.381  0.00  0.00     0.001 A 
ATOM     23  C   UNL d   1       0.945  -3.606   0.476  0.00  0.00     0.013 A 
ENDBRANCH   4  18
TORSDOF 4
