REMARK  7 active torsions:
REMARK  status: ('A' for Active; 'I' for Inactive)
REMARK       I    between atoms: N_2  and  C_1 
REMARK       I    between atoms: N_12  and  C_1 
REMARK    1  A    between atoms: C_6  and  N_2 
REMARK    2  A    between atoms: C_3  and  C_15 
REMARK    3  A    between atoms: O_14  and  C_11 
REMARK    4  A    between atoms: C_19  and  N_12 
REMARK    5  A    between atoms: S_13  and  C_22 
REMARK    6  A    between atoms: C_15  and  S_13 
REMARK    7  A    between atoms: C_22  and  C_19 
ROOT
ATOM      1  C   UNL d   1       2.432  -0.486  -0.972  0.00  0.00     0.320 C 
ATOM      2  N   UNL d   1       1.326  -1.204  -1.356  0.00  0.00    -0.306 N 
ATOM      3  O   UNL d   1       3.300  -0.060  -1.722  0.00  0.00    -0.247 OA
ATOM      4  N   UNL d   1       2.412  -0.239   0.375  0.00  0.00    -0.342 N 
ATOM      5  H   UNL d   1       0.510  -1.088  -0.774  0.00  0.00     0.171 HD
ATOM      6  H   UNL d   1       1.776  -0.771   0.946  0.00  0.00     0.164 HD
ENDROOT
BRANCH   4   7
ATOM      7  C   UNL d   1       3.262   0.753   1.001  0.00  0.00     0.134 C 
BRANCH   7   8
ATOM      8  C   UNL d   1       4.764   0.458   0.937  0.00  0.00     0.094 C 
BRANCH   8   9
ATOM      9  S   UNL d   1       5.739   1.682   1.884  0.00  0.00    -0.163 SA
BRANCH   9  10
ATOM     10  C   UNL d   1       5.234   1.237   3.577  0.00  0.00     0.113 C 
BRANCH  10  11
ATOM     11  C   UNL d   1       5.782   2.198   4.613  0.00  0.00    -0.037 A 
ATOM     12  C   UNL d   1       5.066   3.375   4.953  0.00  0.00    -0.054 A 
ATOM     13  C   UNL d   1       5.532   4.198   5.994  0.00  0.00     0.014 A 
ATOM     14  C   UNL d   1       3.771   3.783   4.295  0.00  0.00     0.049 C 
ATOM     15  C   UNL d   1       6.709   3.902   6.681  0.00  0.00    -0.061 A 
ATOM     16  C   UNL d   1       7.444   2.779   6.302  0.00  0.00     0.014 A 
ATOM     17  C   UNL d   1       7.162   4.782   7.809  0.00  0.00     0.048 C 
ATOM     18  C   UNL d   1       7.010   1.933   5.266  0.00  0.00    -0.054 A 
ATOM     19  C   UNL d   1       7.875   0.739   4.954  0.00  0.00     0.049 C 
ENDBRANCH  10  11
ENDBRANCH   9  10
ENDBRANCH   8   9
ENDBRANCH   7   8
ENDBRANCH   4   7
BRANCH   2  20
ATOM     20  C   UNL d   1       1.063  -1.622  -2.678  0.00  0.00     0.069 A 
ATOM     21  C   UNL d   1      -0.254  -1.613  -3.157  0.00  0.00     0.095 A 
ATOM     22  C   UNL d   1      -0.542  -2.157  -4.410  0.00  0.00     0.039 A 
ATOM     23  C   UNL d   1       0.482  -2.689  -5.196  0.00  0.00     0.003 A 
ATOM     24  C   UNL d   1       1.797  -2.669  -4.734  0.00  0.00     0.002 A 
ATOM     25  C   UNL d   1       2.090  -2.127  -3.481  0.00  0.00     0.032 A 
BRANCH  21  26
ATOM     26  O   UNL d   1      -1.319  -1.132  -2.436  0.00  0.00    -0.354 OA
ATOM     27  C   UNL d   1      -1.209   0.257  -2.113  0.00  0.00     0.210 C 
ENDBRANCH  21  26
ENDBRANCH   2  20
TORSDOF 7
