REMARK  4 active torsions:
REMARK  status: ('A' for Active; 'I' for Inactive)
REMARK    1  A    between atoms: N_2  and  S_1 
REMARK    2  A    between atoms: C_9  and  S_1 
REMARK    3  A    between atoms: C_3  and  C_4 
REMARK    4  A    between atoms: C_12  and  C_13 
ROOT
ATOM      1  S   UNL d   1       0.981   0.113   0.046  0.00  0.00     0.264 S 
ATOM      2  O   UNL d   1       0.651   1.026   1.122  0.00  0.00    -0.200 OA
ATOM      3  O   UNL d   1       2.313   0.070  -0.518  0.00  0.00    -0.200 OA
ENDROOT
BRANCH   1   4
ATOM      4  N   UNL d   1      -0.165   0.349  -1.218  0.00  0.00    -0.281 N 
ATOM      5  C   UNL d   1      -1.530   0.366  -0.804  0.00  0.00     0.105 C 
ATOM      6  C   UNL d   1      -2.534   0.664  -1.628  0.00  0.00     0.052 C 
ATOM      7  C   UNL d   1      -2.466   1.113  -3.050  0.00  0.00     0.114 C 
ATOM      8  N   UNL d   1      -1.666   0.643  -3.952  0.00  0.00    -0.384 N 
ATOM      9  C   UNL d   1      -0.733  -0.409  -3.556  0.00  0.00     0.141 C 
ATOM     10  HN  UNL d   1      -1.686   0.997  -4.909  1.00  0.00     0.159 HD
ATOM     11  C   UNL d   1       0.327   0.123  -2.599  0.00  0.00     0.160 C 
BRANCH   7  12
ATOM     12  C   UNL d   1      -3.484   2.200  -3.438  0.00  0.00     0.432 C 
ATOM     13  F   UNL d   1      -4.305   2.545  -2.402  0.00  0.00    -0.165 F 
ATOM     14  F   UNL d   1      -2.890   3.352  -3.849  0.00  0.00    -0.165 F 
ATOM     15  F   UNL d   1      -4.307   1.798  -4.445  0.00  0.00    -0.165 F 
ENDBRANCH   7  12
ENDBRANCH   1   4
BRANCH   1  16
ATOM     16  C   UNL d   1       0.589  -1.534   0.623  0.00  0.00     0.080 A 
ATOM     17  C   UNL d   1       1.096  -2.659  -0.022  0.00  0.00     0.026 A 
ATOM     18  C   UNL d   1       0.745  -3.935   0.452  0.00  0.00     0.009 A 
ATOM     19  C   UNL d   1      -0.102  -4.108   1.571  0.00  0.00    -0.051 A 
ATOM     20  C   UNL d   1      -0.556  -2.946   2.219  0.00  0.00     0.009 A 
ATOM     21  C   UNL d   1      -0.207  -1.675   1.758  0.00  0.00     0.026 A 
BRANCH  19  22
ATOM     22  C   UNL d   1      -0.509  -5.516   2.045  0.00  0.00    -0.024 C 
ATOM     23  C   UNL d   1      -1.434  -5.503   3.285  0.00  0.00     0.019 C 
ATOM     24  C   UNL d   1      -1.270  -6.244   0.917  0.00  0.00     0.019 C 
ATOM     25  C   UNL d   1       0.738  -6.344   2.421  0.00  0.00     0.019 C 
ENDBRANCH  19  22
ENDBRANCH   1  16
TORSDOF 4
