REMARK  7 active torsions:
REMARK  status: ('A' for Active; 'I' for Inactive)
REMARK    1  A    between atoms: C_11  and  N_1 
REMARK    2  A    between atoms: S_7  and  C_4 
REMARK    3  A    between atoms: C_10  and  C_6 
REMARK    4  A    between atoms: C_8  and  S_7 
REMARK    5  A    between atoms: C_9  and  O_14 
REMARK    6  A    between atoms: O_22  and  C_10 
REMARK    7  A    between atoms: O_14  and  C_21 
ROOT
ATOM      1  N   UNL d   1       0.098   0.836   0.144  0.00  0.00    -0.251 N 
ATOM      2  C   UNL d   1      -1.011   0.047   0.342  0.00  0.00     0.232 C 
ATOM      3  C   UNL d   1       1.252   0.082   0.131  0.00  0.00     0.245 C 
ATOM      4  C   UNL d   1       0.885  -1.387   0.100  0.00  0.00     0.154 C 
ATOM      5  C   UNL d   1      -0.570  -1.377   0.522  0.00  0.00     0.129 C 
ATOM      6  O   UNL d   1      -2.187   0.377   0.418  0.00  0.00    -0.273 OA
ATOM      7  O   UNL d   1       2.413   0.473   0.153  0.00  0.00    -0.271 OA
ENDROOT
BRANCH   1   8
ATOM      8  C   UNL d   1       0.074   2.257   0.036  0.00  0.00     0.045 A 
ATOM      9  C   UNL d   1      -0.949   3.022   0.616  0.00  0.00     0.033 A 
ATOM     10  C   UNL d   1      -0.944   4.426   0.550  0.00  0.00     0.039 A 
ATOM     11  C   UNL d   1       0.050   5.092  -0.157  0.00  0.00     0.078 A 
ATOM     12  C   UNL d   1       1.071   4.342  -0.741  0.00  0.00     0.039 A 
ATOM     13  C   UNL d   1       1.087   2.946  -0.643  0.00  0.00     0.033 A 
BRANCH  11  14
ATOM     14  O   UNL d   1       0.177   6.436  -0.313  0.00  0.00    -0.255 OA
BRANCH  14  15
ATOM     15  C   UNL d   1      -0.968   7.274  -0.273  0.00  0.00     0.530 C 
ATOM     16  F   UNL d   1      -2.143   6.613  -0.318  0.00  0.00    -0.144 F 
ATOM     17  F   UNL d   1      -0.933   8.029   0.847  0.00  0.00    -0.144 F 
ATOM     18  F   UNL d   1      -0.923   8.104  -1.339  0.00  0.00    -0.144 F 
ENDBRANCH  14  15
ENDBRANCH  11  14
ENDBRANCH   1   8
BRANCH   4  19
ATOM     19  S   UNL d   1       1.232  -1.970  -1.617  0.00  0.00    -0.114 SA
BRANCH  19  20
ATOM     20  C   UNL d   1       0.881  -3.723  -1.516  0.00  0.00     0.018 A 
ATOM     21  C   UNL d   1      -0.348  -4.291  -1.899  0.00  0.00     0.054 A 
ATOM     22  C   UNL d   1      -0.527  -5.684  -1.845  0.00  0.00     0.020 A 
ATOM     23  C   UNL d   1       0.523  -6.522  -1.477  0.00  0.00     0.001 A 
ATOM     24  C   UNL d   1       1.757  -5.971  -1.143  0.00  0.00     0.001 A 
ATOM     25  C   UNL d   1       1.934  -4.582  -1.153  0.00  0.00     0.019 A 
BRANCH  21  26
ATOM     26  C   UNL d   1      -1.523  -3.517  -2.378  0.00  0.00     0.177 C 
ATOM     27  O   UNL d   1      -2.664  -3.841  -2.109  0.00  0.00    -0.646 OA
BRANCH  26  28
ATOM     28  O   UNL d   1      -1.222  -2.472  -3.176  0.00  0.00    -0.773 OA
ATOM     29  H   UNL d   1      -0.261  -2.310  -3.285  0.00  0.00     0.167 HD
ENDBRANCH  26  28
ENDBRANCH  21  26
ENDBRANCH  19  20
ENDBRANCH   4  19
TORSDOF 7
