REMARK  4 active torsions:
REMARK  status: ('A' for Active; 'I' for Inactive)
REMARK    1  A    between atoms: C_3  and  N_1 
REMARK    2  A    between atoms: C_4  and  C_3 
REMARK    3  A    between atoms: C_5  and  C_4 
REMARK    4  A    between atoms: O_10  and  C_4 
ROOT
ATOM      1  C   UNL d   1       3.304  -1.145  -0.550  0.00  0.00     0.179 C 
ENDROOT
BRANCH   1   2
ATOM      2  C   UNL d   1       2.420  -0.081   0.155  0.00  0.00     0.309 C 
BRANCH   2   3
ATOM      3  N   UNL d   1       1.001  -0.046  -0.241  0.00  0.00     0.094 N 
ATOM      4  C   UNL d   1       0.287  -1.290   0.097  0.00  0.00     0.302 C 
ATOM      5  C   UNL d   1      -1.208  -1.222  -0.291  0.00  0.00     0.302 C 
ATOM      6  N   UNL d   1      -1.947  -0.074   0.271  0.00  0.00     0.087 N 
ATOM      7  C   UNL d   1      -1.187   1.162  -0.002  0.00  0.00     0.302 C 
ATOM      8  C   UNL d   1      -2.203  -0.247   1.698  0.00  0.00     0.310 C 
ATOM      9  C   UNL d   1       0.314   1.107   0.372  0.00  0.00     0.302 C 
ENDBRANCH   2   3
ENDBRANCH   1   2
BRANCH   1  10
ATOM     10  C   UNL d   1       3.342  -1.033  -2.066  0.00  0.00    -0.028 A 
ATOM     11  C   UNL d   1       3.830   0.119  -2.696  0.00  0.00     0.010 A 
ATOM     12  C   UNL d   1       3.894   0.195  -4.090  0.00  0.00     0.001 A 
ATOM     13  C   UNL d   1       3.463  -0.877  -4.868  0.00  0.00     0.000 A 
ATOM     14  C   UNL d   1       2.965  -2.023  -4.259  0.00  0.00     0.001 A 
ATOM     15  C   UNL d   1       2.909  -2.103  -2.866  0.00  0.00     0.010 A 
ENDBRANCH   1  10
BRANCH   1  16
ATOM     16  O   UNL d   1       4.634  -1.036  -0.021  0.00  0.00    -0.389 OA
ATOM     17  H   UNL d   1       5.242  -0.913  -0.770  0.00  0.00     0.210 HD
ENDBRANCH   1  16
TORSDOF 4
