REMARK  8 active torsions:
REMARK  status: ('A' for Active; 'I' for Inactive)
REMARK    1  A    between atoms: C_4  and  N_1 
REMARK    2  A    between atoms: C_2  and  C_4 
REMARK    3  A    between atoms: C_3  and  C_2 
REMARK    4  A    between atoms: S_5  and  C_2 
REMARK    5  A    between atoms: C_7  and  S_5 
REMARK    6  A    between atoms: O_12  and  C_6 
REMARK    7  A    between atoms: O_15  and  C_10 
REMARK    8  A    between atoms: N_13  and  C_11 
ROOT
ATOM      1  C   UNL d   1       1.224   2.477  -0.117  0.00  0.00     0.112 C 
ENDROOT
BRANCH   1   2
ATOM      2  C   UNL d   1       0.255   1.294  -0.036  0.00  0.00     0.221 C 
BRANCH   2   3
ATOM      3  N   UNL d   1      -0.865   1.443  -1.012  0.00  0.00    -0.154 N 
ATOM      4  O   UNL d   1      -1.958   1.808  -0.561  0.00  0.00    -0.536 OA
ATOM      5  O   UNL d   1      -0.638   1.144  -2.186  0.00  0.00    -0.536 OA
ENDBRANCH   2   3
ENDBRANCH   1   2
BRANCH   1   6
ATOM      6  C   UNL d   1       2.061   2.536  -1.410  0.00  0.00    -0.006 A 
ATOM      7  C   UNL d   1       2.023   3.548  -2.396  0.00  0.00     0.106 A 
ATOM      8  C   UNL d   1       2.948   3.567  -3.458  0.00  0.00     0.101 A 
ATOM      9  C   UNL d   1       3.829   2.501  -3.627  0.00  0.00     0.039 A 
ATOM     10  C   UNL d   1       3.840   1.453  -2.715  0.00  0.00     0.003 A 
ATOM     11  C   UNL d   1       2.986   1.484  -1.610  0.00  0.00     0.011 A 
BRANCH   7  12
ATOM     12  O   UNL d   1       1.071   4.531  -2.402  0.00  0.00    -0.357 OA
ATOM     13  H   UNL d   1       0.467   4.410  -1.651  0.00  0.00     0.217 HD
ENDBRANCH   7  12
BRANCH   8  14
ATOM     14  O   UNL d   1       3.060   4.550  -4.409  0.00  0.00    -0.353 OA
ATOM     15  C   UNL d   1       2.898   5.881  -3.921  0.00  0.00     0.210 C 
ENDBRANCH   8  14
ENDBRANCH   1   6
BRANCH   1  16
ATOM     16  S   UNL d   1       0.491   4.106   0.377  0.00  0.00    -0.117 SA
BRANCH  16  17
ATOM     17  C   UNL d   1      -0.034   3.895   2.078  0.00  0.00     0.022 A 
ATOM     18  C   UNL d   1      -1.257   4.481   2.482  0.00  0.00     0.022 A 
ATOM     19  C   UNL d   1      -1.661   4.369   3.818  0.00  0.00     0.024 A 
ATOM     20  C   UNL d   1      -0.830   3.771   4.764  0.00  0.00     0.002 A 
ATOM     21  C   UNL d   1       0.398   3.244   4.376  0.00  0.00     0.001 A 
ATOM     22  C   UNL d   1       0.798   3.306   3.039  0.00  0.00     0.020 A 
BRANCH  18  23
ATOM     23  N   UNL d   1      -2.175   4.989   1.544  0.00  0.00    -0.302 NA
ATOM     24  H   UNL d   1      -1.729   5.263   0.671  0.00  0.00     0.124 HD
ATOM     25  H   UNL d   1      -2.796   5.703   1.907  0.00  0.00     0.124 HD
ENDBRANCH  18  23
ENDBRANCH  16  17
ENDBRANCH   1  16
TORSDOF 8
