REMARK  14 active torsions:
REMARK  status: ('A' for Active; 'I' for Inactive)
REMARK    1  A    between atoms: C_5  and  C_1 
REMARK    2  A    between atoms: N_8  and  C_2 
REMARK    3  A    between atoms: O_23  and  C_4 
REMARK    4  A    between atoms: O_24  and  C_5 
REMARK    5  A    between atoms: C_7  and  C_12 
REMARK       I    between atoms: C_11  and  N_8 
REMARK    6  A    between atoms: O_26  and  C_9 
REMARK    7  A    between atoms: O_25  and  C_10 
REMARK    8  A    between atoms: C_18  and  C_11 
REMARK    9  A    between atoms: C_12  and  C_18 
REMARK   10  A    between atoms: C_19  and  C_12 
REMARK   11  A    between atoms: O_28  and  C_13 
REMARK   12  A    between atoms: O_29  and  C_14 
REMARK   13  A    between atoms: C_17  and  C_19 
REMARK   14  A    between atoms: O_27  and  C_17 
ROOT
ATOM      1  C   UNL d   1       3.263  -0.892  -1.035  0.00  0.00     0.113 C 
ENDROOT
BRANCH   1   2
ATOM      2  C   UNL d   1       2.842   0.182  -0.007  0.00  0.00     0.037 C 
BRANCH   2   3
ATOM      3  C   UNL d   1       2.018  -0.124   1.238  0.00  0.00    -0.048 A 
ATOM      4  C   UNL d   1       2.083  -1.296   1.997  0.00  0.00     0.047 A 
ATOM      5  C   UNL d   1       1.280  -1.470   3.154  0.00  0.00     0.104 A 
ATOM      6  C   UNL d   1       0.380  -0.470   3.568  0.00  0.00     0.135 A 
ATOM      7  C   UNL d   1       0.314   0.704   2.802  0.00  0.00     0.104 A 
ATOM      8  C   UNL d   1       1.134   0.876   1.681  0.00  0.00     0.047 A 
BRANCH   5   9
ATOM      9  O   UNL d   1       1.296  -2.676   3.811  0.00  0.00    -0.353 OA
ATOM     10  C   UNL d   1       2.586  -3.071   4.271  0.00  0.00     0.210 C 
ENDBRANCH   5   9
BRANCH   6  11
ATOM     11  O   UNL d   1      -0.428  -0.483   4.673  0.00  0.00    -0.351 OA
ATOM     12  C   UNL d   1      -0.511  -1.638   5.489  0.00  0.00     0.210 C 
ENDBRANCH   6  11
BRANCH   7  13
ATOM     13  O   UNL d   1      -0.479   1.793   3.077  0.00  0.00    -0.353 OA
ATOM     14  C   UNL d   1      -1.844   1.473   3.343  0.00  0.00     0.210 C 
ENDBRANCH   7  13
ENDBRANCH   2   3
BRANCH   2  15
ATOM     15  C   UNL d   1       3.930   1.236   0.263  0.00  0.00     0.119 C 
BRANCH  15  16
ATOM     16  C   UNL d   1       4.948   0.747   1.237  0.00  0.00     0.140 C 
ATOM     17  O   UNL d   1       5.783  -0.091   0.943  0.00  0.00    -0.650 OA
BRANCH  16  18
ATOM     18  O   UNL d   1       4.845   1.279   2.475  0.00  0.00    -0.776 OA
ATOM     19  H   UNL d   1       4.087   1.887   2.596  0.00  0.00     0.167 HD
ENDBRANCH  16  18
ENDBRANCH  15  16
ENDBRANCH   2  15
ENDBRANCH   1   2
BRANCH   1  20
ATOM     20  C   UNL d   1       3.666  -2.318  -0.707  0.00  0.00     0.222 C 
ATOM     21  N   UNL d   1       4.971  -2.542  -0.295  0.00  0.00    -0.326 N 
ATOM     22  H   UNL d   1       5.341  -1.888   0.403  0.00  0.00     0.169 HD
ATOM     23  O   UNL d   1       2.856  -3.228  -0.898  0.00  0.00    -0.273 OA
BRANCH  21  24
ATOM     24  C   UNL d   1       5.430  -3.893  -0.232  0.00  0.00     0.053 A 
ATOM     25  C   UNL d   1       5.762  -4.535   0.967  0.00  0.00     0.069 A 
ATOM     26  C   UNL d   1       5.975  -5.924   0.961  0.00  0.00     0.059 A 
ATOM     27  C   UNL d   1       5.960  -6.675  -0.221  0.00  0.00     0.102 A 
ATOM     28  C   UNL d   1       5.775  -6.011  -1.438  0.00  0.00     0.103 A 
ATOM     29  C   UNL d   1       5.472  -4.638  -1.430  0.00  0.00     0.070 A 
BRANCH  25  30
ATOM     30  C   UNL d   1       5.814  -3.881   2.295  0.00  0.00     0.295 C 
ATOM     31  O   UNL d   1       5.606  -4.463   3.350  0.00  0.00    -0.259 OA
BRANCH  30  32
ATOM     32  O   UNL d   1       6.215  -2.599   2.167  0.00  0.00    -0.322 OA
ATOM     33  C   UNL d   1       6.444  -1.936   3.414  0.00  0.00     0.213 C 
ENDBRANCH  30  32
ENDBRANCH  25  30
BRANCH  27  34
ATOM     34  O   UNL d   1       6.145  -8.011   0.012  0.00  0.00    -0.353 OA
ATOM     35  C   UNL d   1       6.082  -8.921  -1.076  0.00  0.00     0.210 C 
ENDBRANCH  27  34
BRANCH  28  36
ATOM     36  O   UNL d   1       5.792  -6.718  -2.611  0.00  0.00    -0.353 OA
ATOM     37  C   UNL d   1       6.599  -6.143  -3.637  0.00  0.00     0.210 C 
ENDBRANCH  28  36
ENDBRANCH  21  24
ENDBRANCH   1  20
TORSDOF 14
