REMARK  2 active torsions:
REMARK  status: ('A' for Active; 'I' for Inactive)
REMARK    1  A    between atoms: C_7  and  C_1 
REMARK    2  A    between atoms: C_10  and  C_7 
ROOT
ATOM      1  C   UNL d   1      -1.794   0.066   0.152  0.00  0.00     0.044 C 
ATOM      2  C   UNL d   1      -0.794  -0.829   0.056  0.00  0.00     0.059 C 
ATOM      3  C   UNL d   1      -1.484   1.516   0.241  0.00  0.00     0.296 C 
ATOM      4  O   UNL d   1      -0.169   1.905   0.052  0.00  0.00    -0.274 OA
ATOM      5  C   UNL d   1       0.611  -0.400   0.027  0.00  0.00     0.020 A 
ATOM      6  C   UNL d   1       0.873   0.967   0.000  0.00  0.00     0.091 A 
ATOM      7  O   UNL d   1      -2.353   2.353   0.452  0.00  0.00    -0.259 OA
ATOM      8 CL   UNL d   1      -1.127  -2.530  -0.054  0.00  0.00    -0.083 Cl
ATOM      9  C   UNL d   1       1.716  -1.264   0.035  0.00  0.00     0.016 A 
ATOM     10  C   UNL d   1       2.169   1.484  -0.041  0.00  0.00     0.038 A 
ATOM     11  C   UNL d   1       3.024  -0.763   0.010  0.00  0.00     0.001 A 
ATOM     12  C   UNL d   1       3.250   0.611  -0.034  0.00  0.00     0.003 A 
ENDROOT
BRANCH   1  13
ATOM     13  C   UNL d   1      -3.266  -0.274   0.250  0.00  0.00     0.085 C 
BRANCH  13  14
ATOM     14  C   UNL d   1      -3.963  -0.412  -1.087  0.00  0.00    -0.054 A 
ATOM     15  C   UNL d   1      -4.489  -1.650  -1.487  0.00  0.00     0.007 A 
ATOM     16  C   UNL d   1      -5.150  -1.782  -2.710  0.00  0.00     0.001 A 
ATOM     17  C   UNL d   1      -5.293  -0.679  -3.549  0.00  0.00     0.000 A 
ATOM     18  C   UNL d   1      -4.782   0.558  -3.162  0.00  0.00     0.001 A 
ATOM     19  C   UNL d   1      -4.127   0.693  -1.936  0.00  0.00     0.007 A 
ENDBRANCH  13  14
ENDBRANCH   1  13
TORSDOF 2
