REMARK  2 active torsions:
REMARK  status: ('A' for Active; 'I' for Inactive)
REMARK    1  A    between atoms: C_4  and  C_1 
REMARK    2  A    between atoms: O_9  and  N_7 
ROOT
ATOM      1  C   UNL d   1      -4.645   1.131  -0.108  0.00  0.00     0.101 A 
ATOM      2  O   UNL d   1      -4.025   2.350  -0.036  0.00  0.00    -0.308 OA
ATOM      3  C   UNL d   1      -6.015   1.315  -0.169  0.00  0.00     0.053 A 
ATOM      4  C   UNL d   1      -5.001   3.302  -0.041  0.00  0.00     0.086 A 
ATOM      5  C   UNL d   1      -6.254   2.709  -0.119  0.00  0.00     0.001 A 
ATOM      6  C   UNL d   1      -4.797   4.679   0.028  0.00  0.00     0.038 A 
ATOM      7  C   UNL d   1      -7.394   3.531  -0.128  0.00  0.00     0.014 A 
ATOM      8  C   UNL d   1      -7.222   4.919  -0.055  0.00  0.00     0.001 A 
ATOM      9  C   UNL d   1      -5.944   5.482   0.021  0.00  0.00     0.003 A 
ENDROOT
BRANCH   1  10
ATOM     10  C   UNL d   1      -3.862  -0.086  -0.102  0.00  0.00     0.061 C 
ATOM     11  N   UNL d   1      -4.511  -1.216  -0.169  0.00  0.00    -0.271 N 
ATOM     12  HN  UNL d   1      -5.527  -1.288  -0.230  1.00  0.00     0.194 HD
ATOM     13  C   UNL d   1      -2.357  -0.007  -0.011  0.00  0.00     0.073 C 
BRANCH  11  14
ATOM     14  O   UNL d   1      -3.649  -2.320  -0.146  0.00  0.00    -0.290 OA
ATOM     15  H   UNL d   1      -4.272  -3.070  -0.189  0.00  0.00     0.244 HD
ENDBRANCH  11  14
ENDBRANCH   1  10
TORSDOF 2
