REMARK  8 active torsions:
REMARK  status: ('A' for Active; 'I' for Inactive)
REMARK    1  A    between atoms: C_2  and  C_1 
REMARK    2  A    between atoms: N_3  and  C_1 
REMARK    3  A    between atoms: C_5  and  C_1 
REMARK    4  A    between atoms: N_6  and  C_1 
REMARK       I    between atoms: C_8  and  N_3 
REMARK    5  A    between atoms: C_4  and  C_7 
REMARK    6  A    between atoms: O_19  and  C_5 
REMARK    7  A    between atoms: C_9  and  N_6 
REMARK    8  A    between atoms: C_24  and  O_19 
ROOT
ATOM      1  C   UNL d   1       0.939  -0.126   0.041  0.00  0.00     0.296 C 
ENDROOT
BRANCH   1   2
ATOM      2  C   UNL d   1       0.167  -1.461  -0.274  0.00  0.00     0.442 C 
ATOM      3  F   UNL d   1      -0.386  -2.008   0.847  0.00  0.00    -0.166 F 
ATOM      4  F   UNL d   1      -0.839  -1.323  -1.171  0.00  0.00    -0.166 F 
ATOM      5  F   UNL d   1       0.990  -2.421  -0.781  0.00  0.00    -0.166 F 
ENDBRANCH   1   2
BRANCH   1   6
ATOM      6  N   UNL d   1       0.608   0.546   1.297  0.00  0.00    -0.319 N 
ATOM      7  C   UNL d   1      -0.679   0.842   1.634  0.00  0.00     0.216 C 
ATOM      8  O   UNL d   1      -1.632   0.497   0.946  0.00  0.00    -0.274 OA
ATOM      9  C   UNL d   1      -0.827   1.620   2.910  0.00  0.00     0.117 C 
ATOM     10  H   UNL d   1       1.394   0.849   1.853  0.00  0.00     0.165 HD
ENDBRANCH   1   6
BRANCH   1  11
ATOM     11  C   UNL d   1       0.608   0.830  -1.144  0.00  0.00     0.318 C 
ATOM     12  O   UNL d   1       0.233   1.991  -1.021  0.00  0.00    -0.260 OA
BRANCH  11  13
ATOM     13  O   UNL d   1       0.919   0.268  -2.349  0.00  0.00    -0.318 OA
BRANCH  13  14
ATOM     14  C   UNL d   1       0.494   1.018  -3.504  0.00  0.00     0.174 C 
ATOM     15  C   UNL d   1       1.463   2.142  -3.821  0.00  0.00     0.034 C 
ENDBRANCH  13  14
ENDBRANCH  11  13
ENDBRANCH   1  11
BRANCH   1  16
ATOM     16  N   UNL d   1       2.425  -0.200   0.158  0.00  0.00    -0.348 N 
ATOM     17  H   UNL d   1       2.924   0.534  -0.335  0.00  0.00     0.163 HD
BRANCH  16  18
ATOM     18  C   UNL d   1       3.186  -1.154   0.800  0.00  0.00     0.031 A 
ATOM     19  C   UNL d   1       4.555  -1.233   0.496  0.00  0.00     0.045 A 
ATOM     20  C   UNL d   1       5.377  -2.251   1.014  0.00  0.00     0.050 A 
ATOM     21  C   UNL d   1       4.818  -3.194   1.882  0.00  0.00     0.016 A 
ATOM     22  C   UNL d   1       3.471  -3.114   2.221  0.00  0.00     0.003 A 
ATOM     23  C   UNL d   1       2.669  -2.101   1.687  0.00  0.00     0.029 A 
BRANCH  20  24
ATOM     24  C   UNL d   1       6.827  -2.363   0.615  0.00  0.00     0.417 C 
ATOM     25  F   UNL d   1       7.243  -1.367  -0.217  0.00  0.00    -0.166 F 
ATOM     26  F   UNL d   1       7.669  -2.331   1.684  0.00  0.00    -0.166 F 
ATOM     27  F   UNL d   1       7.095  -3.527  -0.038  0.00  0.00    -0.166 F 
ENDBRANCH  20  24
ENDBRANCH  16  18
ENDBRANCH   1  16
TORSDOF 8
