REMARK  5 active torsions:
REMARK  status: ('A' for Active; 'I' for Inactive)
REMARK    1  A    between atoms: C_5  and  C_1 
REMARK    2  A    between atoms: C_2  and  C_7 
REMARK       I    between atoms: N_3  and  C_2 
REMARK    3  A    between atoms: C_8  and  N_3 
REMARK    4  A    between atoms: O_4  and  C_10 
REMARK    5  A    between atoms: C_6  and  O_4 
ROOT
ATOM      1  C   UNL d   1      -1.324  -2.402  -5.537  0.00  0.00     0.069 A 
ATOM      2  C   UNL d   1      -0.436  -1.414  -5.991  0.00  0.00     0.102 A 
ATOM      3  C   UNL d   1      -2.558  -2.556  -6.197  0.00  0.00     0.032 A 
ATOM      4  C   UNL d   1      -0.866  -0.507  -6.977  0.00  0.00     0.039 A 
ATOM      5  C   UNL d   1      -2.123  -0.623  -7.568  0.00  0.00     0.003 A 
ATOM      6  C   UNL d   1      -2.959  -1.667  -7.196  0.00  0.00     0.002 A 
ENDROOT
BRANCH   1   7
ATOM      7  N   UNL d   1      -1.115  -3.288  -4.453  0.00  0.00    -0.321 N 
ATOM      8  C   UNL d   1      -0.555  -2.915  -3.243  0.00  0.00     0.256 C 
ATOM      9  O   UNL d   1      -0.175  -1.788  -2.944  0.00  0.00    -0.267 OA
ATOM     10  H   UNL d   1      -1.740  -4.081  -4.417  0.00  0.00     0.169 HD
BRANCH   8  11
ATOM     11  C   UNL d   1      -0.538  -3.980  -2.193  0.00  0.00     0.033 A 
ATOM     12  C   UNL d   1      -0.470  -3.571  -0.850  0.00  0.00     0.033 A 
ATOM     13  C   UNL d   1      -0.477  -4.511   0.191  0.00  0.00     0.048 A 
ATOM     14  C   UNL d   1      -0.551  -5.874  -0.130  0.00  0.00     0.016 A 
ATOM     15  C   UNL d   1      -0.600  -6.288  -1.463  0.00  0.00     0.002 A 
ATOM     16  C   UNL d   1      -0.582  -5.346  -2.493  0.00  0.00     0.017 A 
BRANCH  13  17
ATOM     17  C   UNL d   1      -0.407  -4.075   1.635  0.00  0.00     0.417 C 
ATOM     18  F   UNL d   1      -0.311  -2.727   1.797  0.00  0.00    -0.166 F 
ATOM     19  F   UNL d   1       0.664  -4.608   2.285  0.00  0.00    -0.166 F 
ATOM     20  F   UNL d   1      -1.504  -4.459   2.344  0.00  0.00    -0.166 F 
ENDBRANCH  13  17
ENDBRANCH   8  11
ENDBRANCH   1   7
BRANCH   2  21
ATOM     21  O   UNL d   1       0.860  -1.181  -5.601  0.00  0.00    -0.307 OA
BRANCH  21  22
ATOM     22  C   UNL d   1       1.741  -2.194  -5.305  0.00  0.00     0.098 A 
ATOM     23  C   UNL d   1       1.881  -3.437  -5.933  0.00  0.00     0.069 A 
ATOM     24  C   UNL d   1       2.819  -4.360  -5.447  0.00  0.00     0.050 A 
ATOM     25 CL   UNL d   1       1.009  -3.906  -7.349  0.00  0.00    -0.081 Cl
ATOM     26  C   UNL d   1       3.655  -4.019  -4.385  0.00  0.00     0.035 A 
ATOM     27  C   UNL d   1       3.584  -2.757  -3.811  0.00  0.00     0.026 A 
ATOM     28 CL   UNL d   1       4.793  -5.163  -3.791  0.00  0.00    -0.084 Cl
ATOM     29  C   UNL d   1       2.633  -1.850  -4.275  0.00  0.00     0.041 A 
ENDBRANCH  21  22
ENDBRANCH   2  21
TORSDOF 5
