REMARK  4 active torsions:
REMARK  status: ('A' for Active; 'I' for Inactive)
REMARK    1  A    between atoms: C_10  and  C_3 
REMARK    2  A    between atoms: N_6  and  C_9 
REMARK    3  A    between atoms: C_17  and  C_8 
REMARK    4  A    between atoms: N_16  and  C_15 
ROOT
ATOM      1  N   UNL d   1       1.544  -0.041   0.020  0.00  0.00    -0.331 N 
ATOM      2  HN  UNL d   1       2.493  -0.414  -0.005  1.00  0.00     0.168 HD
ATOM      3  C   UNL d   1       1.164   1.194   0.040  0.00  0.00     0.162 A 
ATOM      4  C   UNL d   1       0.352  -0.726   0.042  0.00  0.00     0.111 A 
ATOM      5  O   UNL d   1      -0.164   1.445   0.077  0.00  0.00    -0.256 OA
ATOM      6  C   UNL d   1      -0.789   0.236   0.083  0.00  0.00     0.316 A 
ATOM      7  C   UNL d   1       0.265  -2.062   0.014  0.00  0.00     0.047 C 
ATOM      8  O   UNL d   1      -1.988   0.052   0.112  0.00  0.00    -0.257 OA
ENDROOT
BRANCH   7   9
ATOM      9  C   UNL d   1      -0.982  -2.824   0.006  0.00  0.00    -0.034 A 
ATOM     10  C   UNL d   1      -1.556  -3.221  -1.199  0.00  0.00     0.013 A 
ATOM     11  C   UNL d   1      -2.750  -3.961  -1.208  0.00  0.00     0.030 A 
ATOM     12  C   UNL d   1      -3.408  -4.337  -0.025  0.00  0.00     0.029 A 
ATOM     13  C   UNL d   1      -2.801  -3.919   1.173  0.00  0.00     0.030 A 
ATOM     14  C   UNL d   1      -1.614  -3.171   1.196  0.00  0.00     0.013 A 
BRANCH  12  15
ATOM     15  N   UNL d   1      -4.546  -5.138  -0.014  0.00  0.00    -0.390 N 
ATOM     16  C   UNL d   1      -5.593  -4.904   0.981  0.00  0.00     0.149 C 
ATOM     17  C   UNL d   1      -5.009  -5.814  -1.223  0.00  0.00     0.149 C 
ENDBRANCH  12  15
ENDBRANCH   7   9
BRANCH   3  18
ATOM     18  C   UNL d   1       2.019   2.394   0.015  0.00  0.00     0.018 A 
ATOM     19  C   UNL d   1       3.406   2.242  -0.104  0.00  0.00     0.052 A 
ATOM     20  C   UNL d   1       4.221   3.383  -0.144  0.00  0.00     0.103 A 
ATOM     21  C   UNL d   1       3.663   4.667  -0.062  0.00  0.00     0.036 A 
ATOM     22  C   UNL d   1       2.281   4.809   0.061  0.00  0.00     0.003 A 
ATOM     23  C   UNL d   1       1.462   3.679   0.098  0.00  0.00     0.016 A 
BRANCH  20  24
ATOM     24  N   UNL d   1       5.676   3.237  -0.278  0.00  0.00    -0.116 N 
ATOM     25  O   UNL d   1       6.135   2.089  -0.350  0.00  0.00    -0.532 OA
ATOM     26  O   UNL d   1       6.359   4.271  -0.313  0.00  0.00    -0.532 OA
ENDBRANCH  20  24
ENDBRANCH   3  18
TORSDOF 4
