REMARK  4 active torsions:
REMARK  status: ('A' for Active; 'I' for Inactive)
REMARK    1  A    between atoms: N_9  and  C_1 
REMARK    2  A    between atoms: C_13  and  C_7 
REMARK    3  A    between atoms: C_14  and  N_9 
REMARK    4  A    between atoms: C_15  and  N_9 
ROOT
ATOM      1  C   UNL d   1       2.414   0.006  -0.671  0.00  0.00     0.416 C 
ATOM      2  N   UNL d   1       2.161   1.248   0.064  0.00  0.00    -0.351 N 
ATOM      3  HN  UNL d   1       2.921   1.909   0.226  1.00  0.00     0.162 HD
ATOM      4  C   UNL d   1       2.207  -1.073   0.454  0.00  0.00     0.277 C 
ATOM      5  N   UNL d   1       0.877  -1.527   0.592  0.00  0.00    -0.318 N 
ATOM      6  C   UNL d   1      -0.237   0.683   0.184  0.00  0.00     0.020 A 
ATOM      7  C   UNL d   1       0.981   1.505   0.503  0.00  0.00     0.053 C 
ATOM      8  C   UNL d   1      -0.268  -0.728   0.254  0.00  0.00     0.049 A 
ATOM      9  C   UNL d   1      -1.509  -1.359   0.026  0.00  0.00     0.032 A 
ATOM     10  C   UNL d   1      -1.403   1.407  -0.143  0.00  0.00     0.040 A 
ATOM     11  O   UNL d   1       3.113  -1.517   1.165  0.00  0.00    -0.269 OA
ATOM     12  C   UNL d   1      -2.611   0.752  -0.339  0.00  0.00     0.035 A 
ATOM     13  C   UNL d   1       0.673  -2.760   1.346  0.00  0.00     0.159 C 
ATOM     14  C   UNL d   1      -2.669  -0.630  -0.259  0.00  0.00     0.026 A 
ATOM     15 CL   UNL d   1      -4.038   1.659  -0.651  0.00  0.00    -0.084 Cl
ENDROOT
BRANCH   1  16
ATOM     16  N   UNL d   1       3.775  -0.054  -1.326  0.00  0.00     0.128 N 
BRANCH  16  17
ATOM     17  C   UNL d   1       4.006  -1.320  -2.117  0.00  0.00     0.218 C 
ATOM     18  C   UNL d   1       5.409  -1.363  -2.774  0.00  0.00     0.042 C 
ATOM     19  C   UNL d   1       3.883  -2.657  -1.364  0.00  0.00     0.042 C 
ENDBRANCH  16  17
BRANCH  16  20
ATOM     20  C   UNL d   1       4.060   1.149  -2.183  0.00  0.00     0.218 C 
ATOM     21  C   UNL d   1       3.098   1.344  -3.368  0.00  0.00     0.042 C 
ATOM     22  C   UNL d   1       4.270   2.482  -1.454  0.00  0.00     0.042 C 
ENDBRANCH  16  20
ENDBRANCH   1  16
BRANCH   7  23
ATOM     23  C   UNL d   1       0.801   2.723   1.381  0.00  0.00    -0.009 A 
ATOM     24  C   UNL d   1      -0.141   2.748   2.419  0.00  0.00     0.014 A 
ATOM     25  C   UNL d   1      -0.320   3.903   3.186  0.00  0.00     0.001 A 
ATOM     26  C   UNL d   1       0.460   5.032   2.941  0.00  0.00     0.000 A 
ATOM     27  C   UNL d   1       1.427   5.003   1.941  0.00  0.00     0.001 A 
ATOM     28  C   UNL d   1       1.594   3.853   1.167  0.00  0.00     0.014 A 
ENDBRANCH   7  23
TORSDOF 4
