REMARK  3 active torsions:
REMARK  status: ('A' for Active; 'I' for Inactive)
REMARK    1  A    between atoms: C_4  and  N_1 
REMARK    2  A    between atoms: N_5  and  C_4 
REMARK    3  A    between atoms: C_6  and  N_5 
ROOT
ATOM      1  N   UNL d   1      -1.337   2.829  -0.470  0.00  0.00    -0.275 NA
ATOM      2  H   UNL d   1      -2.091   2.392   0.068  0.00  0.00     0.129 HD
ENDROOT
BRANCH   1   3
ATOM      3  C   UNL d   1      -0.064   2.283  -0.017  0.00  0.00     0.229 C 
BRANCH   3   4
ATOM      4  N   UNL d   1      -0.081   0.856  -0.188  0.00  0.00    -0.275 N 
ATOM      5  C   UNL d   1      -0.917   0.040   0.513  0.00  0.00     0.227 C 
ATOM      6  C   UNL d   1      -0.552  -1.389   0.245  0.00  0.00     0.112 C 
ATOM      7  O   UNL d   1      -1.806   0.392   1.274  0.00  0.00    -0.273 OA
ATOM      8  C   UNL d   1       0.729  -1.301  -0.561  0.00  0.00     0.112 C 
ATOM      9  C   UNL d   1       0.979   0.172  -0.701  0.00  0.00     0.227 C 
ATOM     10  O   UNL d   1       2.014   0.645  -1.146  0.00  0.00    -0.273 OA
ENDBRANCH   3   4
ENDBRANCH   1   3
BRANCH   1  11
ATOM     11  C   UNL d   1      -1.505   4.227  -0.397  0.00  0.00     0.015 A 
ATOM     12  C   UNL d   1      -2.444   4.855  -1.244  0.00  0.00    -0.039 A 
ATOM     13  C   UNL d   1      -2.663   6.244  -1.142  0.00  0.00     0.032 A 
ATOM     14  C   UNL d   1      -3.181   4.114  -2.328  0.00  0.00     0.050 C 
ATOM     15  C   UNL d   1      -2.005   6.996  -0.175  0.00  0.00     0.034 A 
ATOM     16  C   UNL d   1      -1.121   6.381   0.700  0.00  0.00     0.026 A 
ATOM     17 CL   UNL d   1      -2.293   8.687  -0.054  0.00  0.00    -0.084 Cl
ATOM     18  C   UNL d   1      -0.883   5.008   0.594  0.00  0.00     0.026 A 
ENDBRANCH   1  11
TORSDOF 3
