REMARK  3 active torsions:
REMARK  status: ('A' for Active; 'I' for Inactive)
REMARK    1  A    between atoms: C_2  and  N_1 
REMARK    2  A    between atoms: C_8  and  C_3 
REMARK    3  A    between atoms: O_9  and  N_6 
ROOT
ATOM      1  C   UNL d   1       0.258  -0.923   0.720  0.00  0.00     0.114 A 
ATOM      2  C   UNL d   1       0.774  -1.002   2.018  0.00  0.00     0.014 A 
ATOM      3  C   UNL d   1      -0.963  -1.526   0.378  0.00  0.00     0.037 A 
ATOM      4  C   UNL d   1       0.038  -1.700   2.986  0.00  0.00     0.015 A 
ATOM      5  C   UNL d   1      -1.679  -2.216   1.354  0.00  0.00     0.002 A 
ATOM      6  C   UNL d   1      -1.181  -2.303   2.654  0.00  0.00     0.001 A 
ENDROOT
BRANCH   2   7
ATOM      7  C   UNL d   1       2.070  -0.402   2.400  0.00  0.00     0.127 C 
ATOM      8  N   UNL d   1       2.382  -0.200   3.641  0.00  0.00    -0.280 N 
ATOM      9  HN  UNL d   1       1.801  -0.433   4.446  1.00  0.00     0.193 HD
BRANCH   8  10
ATOM     10  O   UNL d   1       3.650   0.392   3.694  0.00  0.00    -0.290 OA
ATOM     11  H   UNL d   1       3.743   0.608   4.641  0.00  0.00     0.244 HD
ENDBRANCH   8  10
ENDBRANCH   2   7
BRANCH   1  12
ATOM     12  N   UNL d   1       0.945  -0.176  -0.314  0.00  0.00    -0.115 N 
ATOM     13  O   UNL d   1       1.210   1.008  -0.080  0.00  0.00    -0.532 OA
ATOM     14  O   UNL d   1       1.195  -0.778  -1.367  0.00  0.00    -0.532 OA
ENDBRANCH   1  12
TORSDOF 3
