REMARK  7 active torsions:
REMARK  status: ('A' for Active; 'I' for Inactive)
REMARK    1  A    between atoms: C_10  and  C_1 
REMARK    2  A    between atoms: C_2  and  C_9 
REMARK    3  A    between atoms: C_3  and  C_7 
REMARK    4  A    between atoms: C_4  and  C_8 
REMARK    5  A    between atoms: C_11  and  C_5 
REMARK    6  A    between atoms: C_6  and  C_11 
REMARK    7  A    between atoms: N_30  and  C_11 
ROOT
ATOM      1  C   UNL d   1      -2.730  -3.159  -1.294  0.00  0.00     0.284 C 
ENDROOT
BRANCH   1   2
ATOM      2  C   UNL d   1      -3.543  -3.868  -0.211  0.00  0.00    -0.020 A 
ATOM      3  C   UNL d   1      -4.116  -3.177   0.870  0.00  0.00     0.025 A 
ATOM      4  C   UNL d   1      -4.941  -3.831   1.801  0.00  0.00     0.049 A 
ATOM      5  C   UNL d   1      -5.139  -5.215   1.679  0.00  0.00     0.032 A 
ATOM      6  C   UNL d   1      -4.546  -5.941   0.634  0.00  0.00     0.049 A 
ATOM      7  C   UNL d   1      -3.758  -5.256  -0.305  0.00  0.00     0.025 A 
BRANCH   4   8
ATOM      8  C   UNL d   1      -5.640  -3.058   2.896  0.00  0.00     0.417 C 
ATOM      9  F   UNL d   1      -5.428  -1.713   2.830  0.00  0.00    -0.166 F 
ATOM     10  F   UNL d   1      -6.991  -3.223   2.859  0.00  0.00    -0.166 F 
ATOM     11  F   UNL d   1      -5.247  -3.441   4.140  0.00  0.00    -0.166 F 
ENDBRANCH   4   8
BRANCH   6  12
ATOM     12  C   UNL d   1      -4.785  -7.430   0.513  0.00  0.00     0.417 C 
ATOM     13  F   UNL d   1      -4.157  -7.995  -0.555  0.00  0.00    -0.166 F 
ATOM     14  F   UNL d   1      -4.355  -8.115   1.607  0.00  0.00    -0.166 F 
ATOM     15  F   UNL d   1      -6.105  -7.731   0.374  0.00  0.00    -0.166 F 
ENDBRANCH   6  12
ENDBRANCH   1   2
BRANCH   1  16
ATOM     16  C   UNL d   1      -1.248  -2.938  -0.986  0.00  0.00    -0.020 A 
ATOM     17  C   UNL d   1      -0.518  -3.822  -0.170  0.00  0.00     0.025 A 
ATOM     18  C   UNL d   1       0.873  -3.700  -0.004  0.00  0.00     0.049 A 
ATOM     19  C   UNL d   1       1.550  -2.662  -0.663  0.00  0.00     0.032 A 
ATOM     20  C   UNL d   1       0.858  -1.769  -1.495  0.00  0.00     0.049 A 
ATOM     21  C   UNL d   1      -0.529  -1.921  -1.647  0.00  0.00     0.025 A 
BRANCH  18  22
ATOM     22  C   UNL d   1       1.647  -4.687   0.840  0.00  0.00     0.417 C 
ATOM     23  F   UNL d   1       0.877  -5.692   1.344  0.00  0.00    -0.166 F 
ATOM     24  F   UNL d   1       2.245  -4.099   1.912  0.00  0.00    -0.166 F 
ATOM     25  F   UNL d   1       2.643  -5.297   0.141  0.00  0.00    -0.166 F 
ENDBRANCH  18  22
BRANCH  20  26
ATOM     26  C   UNL d   1       1.609  -0.691  -2.242  0.00  0.00     0.417 C 
ATOM     27  F   UNL d   1       0.821   0.068  -3.052  0.00  0.00    -0.166 F 
ATOM     28  F   UNL d   1       2.236   0.181  -1.405  0.00  0.00    -0.166 F 
ATOM     29  F   UNL d   1       2.583  -1.204  -3.045  0.00  0.00    -0.166 F 
ENDBRANCH  20  26
ENDBRANCH   1  16
BRANCH   1  30
ATOM     30  N   UNL d   1      -3.404  -1.921  -1.710  0.00  0.00     0.091 N 
ATOM     31  H   UNL d   1      -3.373  -1.246  -0.951  0.00  0.00     0.314 HD
ATOM     32  H   UNL d   1      -4.387  -2.125  -1.883  0.00  0.00     0.314 HD
ENDBRANCH   1  30
TORSDOF 7
