REMARK  5 active torsions:
REMARK  status: ('A' for Active; 'I' for Inactive)
REMARK       I    between atoms: N_2  and  C_1 
REMARK    1  A    between atoms: C_3  and  C_1 
REMARK    2  A    between atoms: C_12  and  N_2 
REMARK    3  A    between atoms: C_4  and  C_5 
REMARK    4  A    between atoms: O_11  and  C_13 
REMARK    5  A    between atoms: C_14  and  O_11 
ROOT
ATOM      1  C   UNL d   1       0.976  -1.612   2.018  0.00  0.00     0.035 A 
ATOM      2  C   UNL d   1       2.169  -3.188   4.011  0.00  0.00     0.076 A 
ATOM      3  C   UNL d   1       2.247  -1.300   2.500  0.00  0.00     0.032 A 
ATOM      4  C   UNL d   1       0.271  -2.675   2.600  0.00  0.00     0.032 A 
ATOM      5  C   UNL d   1       2.832  -2.067   3.509  0.00  0.00     0.039 A 
ATOM      6  C   UNL d   1       0.871  -3.463   3.589  0.00  0.00     0.039 A 
ENDROOT
BRANCH   1   7
ATOM      7  N   UNL d   1       0.352  -0.907   0.970  0.00  0.00    -0.323 N 
ATOM      8  C   UNL d   1       0.971  -0.026   0.098  0.00  0.00     0.256 C 
ATOM      9  O   UNL d   1       2.166   0.241   0.045  0.00  0.00    -0.267 OA
ATOM     10  H   UNL d   1      -0.595  -1.180   0.748  0.00  0.00     0.169 HD
BRANCH   8  11
ATOM     11  C   UNL d   1       0.070   0.579  -0.916  0.00  0.00     0.032 A 
ATOM     12  C   UNL d   1      -1.228   0.979  -0.599  0.00  0.00     0.017 A 
ATOM     13  C   UNL d   1      -2.053   1.508  -1.596  0.00  0.00     0.009 A 
ATOM     14  C   UNL d   1      -1.607   1.651  -2.926  0.00  0.00    -0.051 A 
ATOM     15  C   UNL d   1      -0.279   1.282  -3.206  0.00  0.00     0.009 A 
ATOM     16  C   UNL d   1       0.552   0.756  -2.213  0.00  0.00     0.017 A 
BRANCH  14  17
ATOM     17  C   UNL d   1      -2.565   2.170  -4.012  0.00  0.00    -0.024 C 
ATOM     18  C   UNL d   1      -1.931   2.239  -5.419  0.00  0.00     0.019 C 
ATOM     19  C   UNL d   1      -3.781   1.222  -4.107  0.00  0.00     0.019 C 
ATOM     20  C   UNL d   1      -3.053   3.590  -3.658  0.00  0.00     0.019 C 
ENDBRANCH  14  17
ENDBRANCH   8  11
ENDBRANCH   1   7
BRANCH   2  21
ATOM     21  O   UNL d   1       2.711  -4.037   4.948  0.00  0.00    -0.311 OA
BRANCH  21  22
ATOM     22  C   UNL d   1       4.058  -4.326   4.881  0.00  0.00     0.076 A 
ATOM     23  C   UNL d   1       4.707  -4.524   6.101  0.00  0.00     0.039 A 
ATOM     24  C   UNL d   1       6.077  -4.798   6.129  0.00  0.00     0.026 A 
ATOM     25  C   UNL d   1       6.791  -4.879   4.934  0.00  0.00     0.034 A 
ATOM     26  C   UNL d   1       6.142  -4.721   3.711  0.00  0.00     0.026 A 
ATOM     27 CL   UNL d   1       8.485  -5.177   4.968  0.00  0.00    -0.084 Cl
ATOM     28  C   UNL d   1       4.768  -4.470   3.684  0.00  0.00     0.039 A 
ENDBRANCH  21  22
ENDBRANCH   2  21
TORSDOF 5
