REMARK  3 active torsions:
REMARK  status: ('A' for Active; 'I' for Inactive)
REMARK    1  A    between atoms: C_6  and  C_1 
REMARK    2  A    between atoms: C_8  and  N_2 
REMARK    3  A    between atoms: C_7  and  N_3 
ROOT
ATOM      1  C   UNL d   1      -0.177  -1.175  -0.137  0.00  0.00     0.221 C 
ATOM      2  N   UNL d   1      -1.205  -0.119  -0.228  0.00  0.00    -0.354 N 
ATOM      3  N   UNL d   1       1.074  -0.465   0.184  0.00  0.00    -0.354 N 
ATOM      4  C   UNL d   1      -0.622   1.172   0.126  0.00  0.00     0.145 C 
ATOM      5  C   UNL d   1       0.886   0.971   0.024  0.00  0.00     0.145 C 
ENDROOT
BRANCH   1   6
ATOM      6  C   UNL d   1      -0.082  -1.908  -1.477  0.00  0.00    -0.016 A 
ATOM      7  C   UNL d   1       0.204  -1.219  -2.670  0.00  0.00     0.012 A 
ATOM      8  C   UNL d   1       0.244  -1.884  -3.898  0.00  0.00     0.020 A 
ATOM      9  C   UNL d   1      -0.009  -3.250  -3.948  0.00  0.00     0.011 A 
ATOM     10  C   UNL d   1      -0.293  -3.958  -2.783  0.00  0.00     0.020 A 
ATOM     11 BR   UNL d   1       0.019  -4.147  -5.612  0.00  0.00    -0.051 Br
ATOM     12  C   UNL d   1      -0.325  -3.291  -1.554  0.00  0.00     0.012 A 
ENDBRANCH   1   6
BRANCH   2  13
ATOM     13  C   UNL d   1      -2.572  -0.319  -0.132  0.00  0.00     0.032 A 
ATOM     14  C   UNL d   1      -3.152  -1.587   0.022  0.00  0.00     0.029 A 
ATOM     15  C   UNL d   1      -4.542  -1.770   0.085  0.00  0.00     0.002 A 
ATOM     16  C   UNL d   1      -5.398  -0.681  -0.013  0.00  0.00     0.000 A 
ATOM     17  C   UNL d   1      -4.861   0.588  -0.171  0.00  0.00     0.002 A 
ATOM     18  C   UNL d   1      -3.473   0.759  -0.230  0.00  0.00     0.029 A 
ENDBRANCH   2  13
BRANCH   3  19
ATOM     19  C   UNL d   1       2.273  -1.027   0.561  0.00  0.00     0.032 A 
ATOM     20  C   UNL d   1       2.427  -2.404   0.784  0.00  0.00     0.029 A 
ATOM     21  C   UNL d   1       3.651  -2.968   1.176  0.00  0.00     0.002 A 
ATOM     22  C   UNL d   1       4.765  -2.161   1.369  0.00  0.00     0.000 A 
ATOM     23  C   UNL d   1       4.652  -0.794   1.165  0.00  0.00     0.002 A 
ATOM     24  C   UNL d   1       3.426  -0.245   0.762  0.00  0.00     0.029 A 
ENDBRANCH   3  19
TORSDOF 3
