REMARK  9 active torsions:
REMARK  status: ('A' for Active; 'I' for Inactive)
REMARK    1  A    between atoms: N_5  and  C_1 
REMARK    2  A    between atoms: N_8  and  C_1 
REMARK    3  A    between atoms: N_3  and  N_5 
REMARK    4  A    between atoms: C_6  and  C_9 
REMARK    5  A    between atoms: C_10  and  C_7 
REMARK    6  A    between atoms: C_13  and  N_8 
REMARK    7  A    between atoms: C_11  and  C_13 
REMARK    8  A    between atoms: C_14  and  C_11 
REMARK    9  A    between atoms: O_12  and  C_14 
ROOT
ATOM      1  N   UNL d   1      -1.246   0.267  -1.109  0.00  0.00    -0.310 N 
ATOM      2  HN  UNL d   1      -1.784  -0.104  -0.326  1.00  0.00     0.186 HD
ATOM      3  C   UNL d   1      -1.819   0.765  -2.157  0.00  0.00     0.107 C 
ENDROOT
BRANCH   1   4
ATOM      4  N   UNL d   1       0.120   0.267  -1.111  0.00  0.00    -0.277 N 
ATOM      5  H   UNL d   1       0.644   0.664  -1.885  0.00  0.00     0.189 HD
BRANCH   4   6
ATOM      6  C   UNL d   1       0.811  -0.078   0.037  0.00  0.00     0.186 C 
ATOM      7  S   UNL d   1       2.464   0.098   0.106  0.00  0.00    -0.040 SA
BRANCH   6   8
ATOM      8  N   UNL d   1      -0.016  -0.534   1.032  0.00  0.00    -0.366 N 
ATOM      9  H   UNL d   1      -0.979  -0.550   0.706  0.00  0.00     0.161 HD
BRANCH   8  10
ATOM     10  C   UNL d   1       0.234  -0.567   2.462  0.00  0.00     0.124 C 
BRANCH  10  11
ATOM     11  C   UNL d   1      -0.203   0.731   3.142  0.00  0.00     0.046 C 
BRANCH  11  12
ATOM     12  C   UNL d   1      -1.710   0.956   3.039  0.00  0.00     0.168 C 
BRANCH  12  13
ATOM     13  O   UNL d   1      -2.053   2.143   3.755  0.00  0.00    -0.396 OA
ATOM     14  C   UNL d   1      -3.447   2.413   3.670  0.00  0.00     0.201 C 
ENDBRANCH  12  13
ENDBRANCH  11  12
ENDBRANCH  10  11
ENDBRANCH   8  10
ENDBRANCH   6   8
ENDBRANCH   4   6
ENDBRANCH   1   4
BRANCH   3  15
ATOM     15  C   UNL d   1      -3.292   0.831  -2.200  0.00  0.00     0.019 C 
ATOM     16  C   UNL d   1      -3.966   1.358  -3.234  0.00  0.00     0.013 C 
BRANCH  16  17
ATOM     17  C   UNL d   1      -5.436   1.452  -3.249  0.00  0.00    -0.036 A 
ATOM     18  C   UNL d   1      -6.183   1.655  -2.076  0.00  0.00     0.011 A 
ATOM     19  C   UNL d   1      -7.575   1.753  -2.118  0.00  0.00     0.001 A 
ATOM     20  C   UNL d   1      -8.242   1.665  -3.335  0.00  0.00     0.000 A 
ATOM     21  C   UNL d   1      -7.517   1.485  -4.511  0.00  0.00     0.001 A 
ATOM     22  C   UNL d   1      -6.121   1.384  -4.469  0.00  0.00     0.011 A 
ENDBRANCH  16  17
ENDBRANCH   3  15
TORSDOF 9
