REMARK  7 active torsions:
REMARK  status: ('A' for Active; 'I' for Inactive)
REMARK    1  A    between atoms: C_4  and  C_1 
REMARK    2  A    between atoms: C_7  and  C_1 
REMARK    3  A    between atoms: N_2  and  C_5 
REMARK    4  A    between atoms: C_6  and  C_3 
REMARK    5  A    between atoms: O_14  and  C_4 
REMARK    6  A    between atoms: N_8  and  C_7 
REMARK    7  A    between atoms: C_17  and  O_14 
ROOT
ATOM      1  C   UNL d   1       1.023   0.052  -0.082  0.00  0.00     0.102 C 
ATOM      2  C   UNL d   1       0.340  -1.108  -0.005  0.00  0.00     0.041 C 
ENDROOT
BRANCH   1   3
ATOM      3  C   UNL d   1       0.295   1.327  -0.236  0.00  0.00     0.302 C 
ATOM      4  O   UNL d   1      -0.923   1.425  -0.270  0.00  0.00    -0.259 OA
BRANCH   3   5
ATOM      5  O   UNL d   1       1.183   2.335  -0.405  0.00  0.00    -0.317 OA
BRANCH   5   6
ATOM      6  C   UNL d   1       0.663   3.530  -0.996  0.00  0.00     0.174 C 
ATOM      7  C   UNL d   1       0.736   3.373  -2.504  0.00  0.00     0.034 C 
ENDBRANCH   5   6
ENDBRANCH   3   5
ENDBRANCH   1   3
BRANCH   1   8
ATOM      8  C   UNL d   1       2.543   0.052  -0.082  0.00  0.00    -0.031 C 
BRANCH   8   9
ATOM      9  N   UNL d   1       3.804   0.052  -0.082  0.00  0.00    -0.365 N 
ATOM     10  HN2 UNL d   1       2.784   0.052  -0.082  1.00  0.00     0.165 HD
ATOM     11  HN1 UNL d   1       4.824   0.052  -0.082  1.00  0.00     0.165 HD
ENDBRANCH   8   9
ENDBRANCH   1   8
BRANCH   2  12
ATOM     12  C   UNL d   1       0.969  -2.442   0.092  0.00  0.00    -0.002 A 
ATOM     13  C   UNL d   1       1.358  -3.261  -0.993  0.00  0.00     0.113 A 
ATOM     14  C   UNL d   1       1.919  -4.535  -0.758  0.00  0.00     0.037 A 
ATOM     15  C   UNL d   1       2.117  -4.986   0.547  0.00  0.00     0.002 A 
ATOM     16  C   UNL d   1       1.765  -4.178   1.620  0.00  0.00     0.001 A 
ATOM     17  C   UNL d   1       1.194  -2.920   1.397  0.00  0.00     0.014 A 
BRANCH  13  18
ATOM     18  N   UNL d   1       1.209  -2.842  -2.401  0.00  0.00    -0.115 N 
ATOM     19  O   UNL d   1       0.850  -1.681  -2.638  0.00  0.00    -0.532 OA
ATOM     20  O   UNL d   1       1.464  -3.678  -3.278  0.00  0.00    -0.532 OA
ENDBRANCH  13  18
ENDBRANCH   2  12
TORSDOF 7
