REMARK  3 active torsions:
REMARK  status: ('A' for Active; 'I' for Inactive)
REMARK    1  A    between atoms: C_7  and  N_1 
REMARK    2  A    between atoms: C_8  and  C_2 
REMARK    3  A    between atoms: O_16  and  N_12 
ROOT
ATOM      1  C   UNL d   1      -3.917  -6.071   3.467  0.00  0.00     0.101 A 
ATOM      2  O   UNL d   1      -3.107  -5.786   4.535  0.00  0.00    -0.308 OA
ATOM      3  C   UNL d   1      -4.818  -7.058   3.826  0.00  0.00     0.053 A 
ATOM      4  C   UNL d   1      -4.553  -7.398   5.175  0.00  0.00     0.003 A 
ATOM      5  C   UNL d   1      -3.494  -6.588   5.565  0.00  0.00     0.086 A 
ATOM      6  C   UNL d   1      -4.542  -8.345   7.393  0.00  0.00     0.103 A 
ATOM      7  C   UNL d   1      -5.100  -8.303   6.101  0.00  0.00     0.050 A 
ATOM      8  C   UNL d   1      -2.921  -6.610   6.836  0.00  0.00     0.040 A 
ATOM      9  C   UNL d   1      -3.470  -7.513   7.757  0.00  0.00     0.039 A 
ENDROOT
BRANCH   1  10
ATOM     10  C   UNL d   1      -3.745  -5.371   2.213  0.00  0.00     0.061 C 
ATOM     11  N   UNL d   1      -4.544  -5.691   1.233  0.00  0.00    -0.271 N 
ATOM     12  HN  UNL d   1      -5.276  -6.398   1.301  1.00  0.00     0.194 HD
ATOM     13  C   UNL d   1      -2.667  -4.319   2.088  0.00  0.00     0.073 C 
BRANCH  11  14
ATOM     14  O   UNL d   1      -4.277  -4.949   0.076  0.00  0.00    -0.290 OA
ATOM     15  H   UNL d   1      -4.939  -5.295  -0.552  0.00  0.00     0.244 HD
ENDBRANCH  11  14
ENDBRANCH   1  10
BRANCH   6  16
ATOM     16  N   UNL d   1      -5.100  -9.283   8.378  0.00  0.00    -0.116 N 
ATOM     17  O   UNL d   1      -6.043 -10.002   8.020  0.00  0.00    -0.532 OA
ATOM     18  O   UNL d   1      -4.595  -9.298   9.510  0.00  0.00    -0.532 OA
ENDBRANCH   6  16
TORSDOF 3
