REMARK  5 active torsions:
REMARK  status: ('A' for Active; 'I' for Inactive)
REMARK       I    between atoms: N_2  and  C_1 
REMARK    1  A    between atoms: C_6  and  C_1 
REMARK    2  A    between atoms: C_12  and  N_2 
REMARK    3  A    between atoms: O_3  and  C_6 
REMARK    4  A    between atoms: C_4  and  O_3 
REMARK    5  A    between atoms: C_8  and  C_9 
ROOT
ATOM      1  C   UNL d   1      -0.936  -1.209   0.277  0.00  0.00     0.251 C 
ATOM      2  N   UNL d   1       0.228  -0.800   0.930  0.00  0.00    -0.325 N 
ATOM      3  O   UNL d   1      -1.575  -2.227   0.542  0.00  0.00    -0.270 OA
ATOM      4  H   UNL d   1       0.605   0.101   0.697  0.00  0.00     0.169 HD
ENDROOT
BRANCH   1   5
ATOM      5  C   UNL d   1      -1.478  -0.206  -0.757  0.00  0.00     0.217 C 
ATOM      6  C   UNL d   1      -2.820  -0.693  -1.307  0.00  0.00     0.050 C 
BRANCH   5   7
ATOM      7  O   UNL d   1      -0.589  -0.015  -1.860  0.00  0.00    -0.335 OA
BRANCH   7   8
ATOM      8  C   UNL d   1       0.215   1.093  -1.855  0.00  0.00     0.091 A 
ATOM      9  C   UNL d   1       1.459   1.024  -2.509  0.00  0.00     0.069 A 
ATOM     10  C   UNL d   1       2.359   2.093  -2.440  0.00  0.00     0.050 A 
ATOM     11 CL   UNL d   1       1.917  -0.358  -3.441  0.00  0.00    -0.081 Cl
ATOM     12  C   UNL d   1       1.990   3.258  -1.775  0.00  0.00     0.035 A 
ATOM     13  C   UNL d   1       0.728   3.372  -1.204  0.00  0.00     0.026 A 
ATOM     14 CL   UNL d   1       3.080   4.583  -1.679  0.00  0.00    -0.084 Cl
ATOM     15  C   UNL d   1      -0.159   2.297  -1.257  0.00  0.00     0.040 A 
ENDBRANCH   7   8
ENDBRANCH   5   7
ENDBRANCH   1   5
BRANCH   2  16
ATOM     16  C   UNL d   1       0.903  -1.548   1.922  0.00  0.00     0.034 A 
ATOM     17  C   UNL d   1       0.605  -2.875   2.220  0.00  0.00     0.030 A 
ATOM     18  C   UNL d   1       1.351  -3.599   3.156  0.00  0.00     0.010 A 
ATOM     19  C   UNL d   1       2.427  -3.018   3.837  0.00  0.00    -0.051 A 
ATOM     20  C   UNL d   1       2.689  -1.662   3.569  0.00  0.00     0.010 A 
ATOM     21  C   UNL d   1       1.947  -0.938   2.620  0.00  0.00     0.030 A 
BRANCH  19  22
ATOM     22  C   UNL d   1       3.272  -3.868   4.801  0.00  0.00    -0.024 C 
ATOM     23  C   UNL d   1       4.430  -3.068   5.433  0.00  0.00     0.019 C 
ATOM     24  C   UNL d   1       2.394  -4.422   5.944  0.00  0.00     0.019 C 
ATOM     25  C   UNL d   1       3.902  -5.067   4.054  0.00  0.00     0.019 C 
ENDBRANCH  19  22
ENDBRANCH   2  16
TORSDOF 5
