REMARK  6 active torsions:
REMARK  status: ('A' for Active; 'I' for Inactive)
REMARK    1  A    between atoms: N_2  and  C_1 
REMARK    2  A    between atoms: C_3  and  C_1 
REMARK    3  A    between atoms: C_4  and  C_1 
REMARK    4  A    between atoms: O_8  and  C_1 
REMARK       I    between atoms: C_5  and  N_2 
REMARK       I    between atoms: N_6  and  C_5 
REMARK    5  A    between atoms: C_15  and  N_6 
REMARK    6  A    between atoms: C_22  and  O_8 
ROOT
ATOM      1  N   UNL d   1       0.804  -0.895  -1.055  0.00  0.00    -0.296 N 
ATOM      2  C   UNL d   1       1.134  -0.716  -2.350  0.00  0.00     0.323 C 
ATOM      3  N   UNL d   1       1.385   0.564  -2.758  0.00  0.00    -0.309 N 
ATOM      4  O   UNL d   1       1.139  -1.719  -3.047  0.00  0.00    -0.247 OA
ATOM      5  H   UNL d   1       0.688  -1.886  -0.864  0.00  0.00     0.167 HD
ATOM      6  H   UNL d   1       1.447   1.279  -2.045  0.00  0.00     0.170 HD
ENDROOT
BRANCH   1   7
ATOM      7  C   UNL d   1       0.892   0.004   0.123  0.00  0.00     0.338 C 
BRANCH   7   8
ATOM      8  C   UNL d   1       2.351   0.415   0.459  0.00  0.00     0.447 C 
ATOM      9  F   UNL d   1       3.231  -0.572   0.159  0.00  0.00    -0.166 F 
ATOM     10  F   UNL d   1       2.724   1.494  -0.279  0.00  0.00    -0.166 F 
ATOM     11  F   UNL d   1       2.539   0.743   1.753  0.00  0.00    -0.166 F 
ENDBRANCH   7   8
BRANCH   7  12
ATOM     12  C   UNL d   1       0.430  -0.731   1.403  0.00  0.00     0.447 C 
ATOM     13  F   UNL d   1      -0.739  -1.389   1.181  0.00  0.00    -0.166 F 
ATOM     14  F   UNL d   1       1.317  -1.671   1.800  0.00  0.00    -0.166 F 
ATOM     15  F   UNL d   1       0.213   0.108   2.439  0.00  0.00    -0.166 F 
ENDBRANCH   7  12
BRANCH   7  16
ATOM     16  O   UNL d   1       0.138   1.206  -0.173  0.00  0.00    -0.346 OA
BRANCH  16  17
ATOM     17  C   UNL d   1      -1.260   1.036  -0.401  0.00  0.00     0.167 C 
ATOM     18  C   UNL d   1      -1.868   2.414  -0.579  0.00  0.00     0.033 C 
ENDBRANCH  16  17
ENDBRANCH   7  16
ENDBRANCH   1   7
BRANCH   3  19
ATOM     19  C   UNL d   1       1.528   1.008  -4.093  0.00  0.00     0.036 A 
ATOM     20  C   UNL d   1       1.301   0.198  -5.210  0.00  0.00     0.031 A 
ATOM     21  C   UNL d   1       1.388   0.725  -6.505  0.00  0.00     0.021 A 
ATOM     22  C   UNL d   1       1.713   2.065  -6.685  0.00  0.00     0.011 A 
ATOM     23  C   UNL d   1       1.965   2.879  -5.584  0.00  0.00     0.021 A 
ATOM     24 BR   UNL d   1       1.794   2.785  -8.430  0.00  0.00    -0.051 Br
ATOM     25  C   UNL d   1       1.870   2.351  -4.292  0.00  0.00     0.031 A 
ENDBRANCH   3  19
TORSDOF 6
