REMARK  4 active torsions:
REMARK  status: ('A' for Active; 'I' for Inactive)
REMARK    1  A    between atoms: C_3  and  C_1 
REMARK       I    between atoms: N_5  and  C_1 
REMARK       I    between atoms: C_2  and  N_6 
REMARK    2  A    between atoms: C_4  and  C_2 
REMARK    3  A    between atoms: C_7  and  N_5 
REMARK    4  A    between atoms: N_6  and  C_8 
ROOT
ATOM      1  C   UNL d   1      -1.200  -0.106   1.017  0.00  0.00     0.062 A 
ATOM      2  C   UNL d   1      -1.466  -1.081   0.029  0.00  0.00     0.062 A 
ATOM      3  C   UNL d   1      -2.179   0.162   1.987  0.00  0.00     0.032 A 
ATOM      4  C   UNL d   1      -2.767  -1.616  -0.050  0.00  0.00     0.032 A 
ATOM      5  C   UNL d   1      -3.434  -0.443   1.940  0.00  0.00     0.002 A 
ATOM      6  C   UNL d   1      -3.742  -1.304   0.898  0.00  0.00     0.002 A 
ENDROOT
BRANCH   1   7
ATOM      7  N   UNL d   1      -0.009   0.654   0.988  0.00  0.00    -0.321 N 
ATOM      8  C   UNL d   1       0.136   1.953   1.440  0.00  0.00     0.262 C 
ATOM      9  O   UNL d   1      -0.740   2.619   1.988  0.00  0.00    -0.267 OA
ATOM     10  H   UNL d   1       0.748   0.247   0.438  0.00  0.00     0.169 HD
BRANCH   8  11
ATOM     11  C   UNL d   1       1.440   2.607   1.175  0.00  0.00     0.109 A 
ATOM     12  C   UNL d   1       2.227   2.288   0.068  0.00  0.00     0.135 A 
ATOM     13  F   UNL d   1       1.827   1.371  -0.826  0.00  0.00    -0.205 F 
ATOM     14  C   UNL d   1       3.435   2.943  -0.177  0.00  0.00     0.043 A 
ATOM     15  C   UNL d   1       3.863   3.958   0.676  0.00  0.00     0.006 A 
ATOM     16  C   UNL d   1       3.075   4.308   1.770  0.00  0.00     0.043 A 
ATOM     17  C   UNL d   1       1.877   3.634   2.016  0.00  0.00     0.135 A 
ATOM     18  F   UNL d   1       1.172   4.004   3.094  0.00  0.00    -0.205 F 
ENDBRANCH   8  11
ENDBRANCH   1   7
BRANCH   2  19
ATOM     19  N   UNL d   1      -0.566  -1.583  -0.952  0.00  0.00    -0.321 N 
ATOM     20  C   UNL d   1       0.814  -1.661  -0.883  0.00  0.00     0.262 C 
ATOM     21  O   UNL d   1       1.494  -1.178   0.013  0.00  0.00    -0.267 OA
ATOM     22  H   UNL d   1      -1.008  -2.113  -1.695  0.00  0.00     0.169 HD
BRANCH  20  23
ATOM     23  C   UNL d   1       1.492  -2.438  -1.960  0.00  0.00     0.109 A 
ATOM     24  C   UNL d   1       0.865  -2.756  -3.168  0.00  0.00     0.135 A 
ATOM     25  F   UNL d   1      -0.398  -2.372  -3.410  0.00  0.00    -0.205 F 
ATOM     26  C   UNL d   1       1.517  -3.498  -4.156  0.00  0.00     0.043 A 
ATOM     27  C   UNL d   1       2.821  -3.942  -3.946  0.00  0.00     0.006 A 
ATOM     28  C   UNL d   1       3.462  -3.638  -2.749  0.00  0.00     0.043 A 
ATOM     29  C   UNL d   1       2.801  -2.891  -1.770  0.00  0.00     0.135 A 
ATOM     30  F   UNL d   1       3.468  -2.654  -0.630  0.00  0.00    -0.205 F 
ENDBRANCH  20  23
ENDBRANCH   2  19
TORSDOF 4
