REMARK  4 active torsions:
REMARK  status: ('A' for Active; 'I' for Inactive)
REMARK    1  A    between atoms: N_2  and  C_1 
REMARK    2  A    between atoms: N_5  and  C_3 
REMARK    3  A    between atoms: C_4  and  C_7 
REMARK    4  A    between atoms: C_22  and  N_9 
ROOT
ATOM      1  N   UNL d   1       2.771  -7.591   1.442  0.00  0.00    -0.195 NA
ATOM      2  C   UNL d   1       2.114  -6.971   0.712  0.00  0.00     0.089 C 
ATOM      3  C   UNL d   1       1.279  -6.138  -0.186  0.00  0.00     0.395 C 
ENDROOT
BRANCH   3   4
ATOM      4  N   UNL d   1       2.050  -5.142  -0.968  0.00  0.00     0.104 N 
ATOM      5  C   UNL d   1       1.161  -4.352  -1.856  0.00  0.00     0.293 C 
ATOM      6  C   UNL d   1       0.197  -3.389  -1.121  0.00  0.00     0.153 C 
ATOM      7  N   UNL d   1       0.949  -2.534  -0.181  0.00  0.00    -0.376 N 
ATOM      8  C   UNL d   1       1.872  -3.238   0.724  0.00  0.00     0.153 C 
ATOM      9  C   UNL d   1       2.777  -4.190  -0.090  0.00  0.00     0.293 C 
BRANCH   7  10
ATOM     10  C   UNL d   1       0.563  -1.217   0.007  0.00  0.00     0.063 A 
ATOM     11  C   UNL d   1       0.414  -0.536   1.230  0.00  0.00     0.130 A 
ATOM     12  C   UNL d   1       0.083   0.832   1.311  0.00  0.00     0.054 A 
ATOM     13  C   UNL d   1      -0.121   1.573   0.142  0.00  0.00     0.050 A 
ATOM     14  C   UNL d   1       0.020   0.926  -1.086  0.00  0.00     0.018 A 
ATOM     15  C   UNL d   1       0.359  -0.430  -1.143  0.00  0.00     0.032 A 
BRANCH  11  16
ATOM     16  N   UNL d   1       0.539  -1.221   2.503  0.00  0.00    -0.113 N 
ATOM     17  O   UNL d   1      -0.270  -2.120   2.759  0.00  0.00    -0.532 OA
ATOM     18  O   UNL d   1       1.436  -0.822   3.264  0.00  0.00    -0.532 OA
ENDBRANCH  11  16
BRANCH  13  19
ATOM     19  C   UNL d   1      -0.479   3.037   0.182  0.00  0.00     0.417 C 
ATOM     20  F   UNL d   1      -0.610   3.528   1.443  0.00  0.00    -0.166 F 
ATOM     21  F   UNL d   1       0.454   3.813  -0.433  0.00  0.00    -0.166 F 
ATOM     22  F   UNL d   1      -1.658   3.293  -0.447  0.00  0.00    -0.166 F 
ENDBRANCH  13  19
ENDBRANCH   7  10
ENDBRANCH   3   4
TORSDOF 4
