REMARK  2 active torsions:
REMARK  status: ('A' for Active; 'I' for Inactive)
REMARK       I    between atoms: N_3  and  C_1 
REMARK    1  A    between atoms: C_6  and  C_1 
REMARK    2  A    between atoms: C_5  and  N_4 
ROOT
ATOM      1  C   UNL d   1       0.972  -0.132  -0.032  0.00  0.00     0.260 C 
ATOM      2  N   UNL d   1       0.438  -0.946   0.977  0.00  0.00    -0.344 N 
ATOM      3  N   UNL d   1      -0.515  -2.541   3.162  0.00  0.00    -0.377 N 
ATOM      4  C   UNL d   1       0.871  -0.684   2.358  0.00  0.00     0.146 C 
ATOM      5  C   UNL d   1      -0.768  -1.779   0.831  0.00  0.00     0.146 C 
ATOM      6  C   UNL d   1       0.838  -1.943   3.245  0.00  0.00     0.143 C 
ATOM      7  C   UNL d   1      -0.812  -2.986   1.788  0.00  0.00     0.143 C 
ATOM      8  O   UNL d   1       1.907   0.632   0.215  0.00  0.00    -0.267 OA
ENDROOT
BRANCH   3   9
ATOM      9  C   UNL d   1      -0.882  -3.365   4.239  0.00  0.00     0.044 A 
ATOM     10  C   UNL d   1      -1.146  -2.808   5.528  0.00  0.00     0.017 A 
ATOM     11  C   UNL d   1      -1.512  -3.689   6.574  0.00  0.00     0.046 A 
ATOM     12  C   UNL d   1      -1.092  -1.421   5.814  0.00  0.00     0.018 A 
ATOM     13  C   UNL d   1      -1.757  -3.181   7.842  0.00  0.00     0.054 A 
ATOM     14  N   UNL d   1      -1.649  -5.011   6.398  0.00  0.00    -0.365 N 
ATOM     15  C   UNL d   1      -1.658  -1.818   8.107  0.00  0.00     0.036 A 
ATOM     16  C   UNL d   1      -1.330  -0.930   7.096  0.00  0.00     0.025 A 
ATOM     17 CL   UNL d   1      -1.960  -1.228   9.695  0.00  0.00    -0.084 Cl
ATOM     18  C   UNL d   1      -1.425  -5.509   5.169  0.00  0.00     0.090 A 
ATOM     19  HN  UNL d   1      -1.915  -5.619   7.172  1.00  0.00     0.165 HD
ATOM     20  C   UNL d   1      -1.042  -4.744   4.084  0.00  0.00     0.047 A 
ENDBRANCH   3   9
BRANCH   1  21
ATOM     21  C   UNL d   1       0.417  -0.240  -1.373  0.00  0.00     0.072 A 
ATOM     22  S   UNL d   1       1.493  -0.536  -2.675  0.00  0.00    -0.097 SA
ATOM     23  C   UNL d   1       0.217  -0.558  -3.812  0.00  0.00     0.050 A 
ATOM     24  C   UNL d   1      -1.003  -0.313  -3.225  0.00  0.00     0.009 A 
ATOM     25  C   UNL d   1      -0.885  -0.100  -1.819  0.00  0.00     0.025 A 
ENDBRANCH   1  21
TORSDOF 2
