REMARK  2 active torsions:
REMARK  status: ('A' for Active; 'I' for Inactive)
REMARK    1  A    between atoms: C_16  and  C_3 
REMARK    2  A    between atoms: C_9  and  C_5 
ROOT
ATOM      1  N   UNL d   1      -0.448   1.590  -0.792  0.00  0.00    -0.358 N 
ATOM      2  HN  UNL d   1      -0.267   2.155  -1.622  1.00  0.00     0.166 HD
ATOM      3  C   UNL d   1      -1.589   1.709  -0.176  0.00  0.00     0.021 C 
ATOM      4  S   UNL d   1      -1.189  -1.525  -0.432  0.00  0.00    -0.118 SA
ATOM      5  C   UNL d   1      -2.366  -0.571   0.626  0.00  0.00     0.091 C 
ATOM      6  C   UNL d   1      -1.976   0.858   1.019  0.00  0.00     0.078 C 
ATOM      7  C   UNL d   1       0.541   0.697  -0.337  0.00  0.00     0.049 A 
ATOM      8  C   UNL d   1       0.354  -0.685  -0.137  0.00  0.00     0.028 A 
ATOM      9  C   UNL d   1       1.819   1.238  -0.130  0.00  0.00     0.031 A 
ATOM     10  C   UNL d   1       1.442  -1.484   0.250  0.00  0.00     0.021 A 
ATOM     11  C   UNL d   1       2.703  -0.925   0.458  0.00  0.00     0.002 A 
ATOM     12  C   UNL d   1       2.891   0.439   0.270  0.00  0.00     0.002 A 
ENDROOT
BRANCH   5  13
ATOM     13  C   UNL d   1      -3.785  -0.656   0.064  0.00  0.00    -0.041 A 
ATOM     14  C   UNL d   1      -4.054  -0.486  -1.308  0.00  0.00     0.048 A 
ATOM     15  C   UNL d   1      -5.347  -0.662  -1.753  0.00  0.00     0.105 A 
ATOM     16  O   UNL d   1      -5.757  -0.588  -3.048  0.00  0.00    -0.323 OA
ATOM     17  C   UNL d   1      -6.374  -0.965  -0.894  0.00  0.00     0.105 A 
ATOM     18  C   UNL d   1      -7.159  -0.894  -2.905  0.00  0.00     0.352 A 
ATOM     19  O   UNL d   1      -7.561  -1.124  -1.538  0.00  0.00    -0.323 OA
ATOM     20  C   UNL d   1      -6.169  -1.091   0.462  0.00  0.00     0.040 A 
ATOM     21  C   UNL d   1      -4.864  -0.932   0.942  0.00  0.00     0.011 A 
ENDBRANCH   5  13
BRANCH   3  22
ATOM     22  C   UNL d   1      -2.547   2.746  -0.669  0.00  0.00    -0.014 A 
ATOM     23  C   UNL d   1      -2.578   3.041  -2.039  0.00  0.00     0.013 A 
ATOM     24  C   UNL d   1      -3.428   4.034  -2.528  0.00  0.00     0.001 A 
ATOM     25  C   UNL d   1      -4.247   4.745  -1.651  0.00  0.00     0.000 A 
ATOM     26  C   UNL d   1      -4.216   4.463  -0.287  0.00  0.00     0.001 A 
ATOM     27  C   UNL d   1      -3.366   3.469   0.205  0.00  0.00     0.013 A 
ENDBRANCH   3  22
TORSDOF 2
