REMARK  5 active torsions:
REMARK  status: ('A' for Active; 'I' for Inactive)
REMARK    1  A    between atoms: N_2  and  S_1 
REMARK    2  A    between atoms: C_4  and  S_1 
REMARK    3  A    between atoms: C_3  and  N_2 
REMARK    4  A    between atoms: O_5  and  C_7 
REMARK    5  A    between atoms: C_6  and  O_5 
ROOT
ATOM      1  C   UNL d   1       0.878  -0.863   2.552  0.00  0.00     0.076 A 
ATOM      2  C   UNL d   1       2.127  -1.481   2.726  0.00  0.00     0.103 A 
ATOM      3  C   UNL d   1      -0.107  -1.004   3.536  0.00  0.00     0.033 A 
ATOM      4  C   UNL d   1       2.419  -2.097   3.954  0.00  0.00     0.039 A 
ATOM      5  C   UNL d   1       0.165  -1.706   4.712  0.00  0.00     0.002 A 
ATOM      6  C   UNL d   1       1.437  -2.224   4.935  0.00  0.00     0.003 A 
ENDROOT
BRANCH   1   7
ATOM      7  N   UNL d   1       0.615   0.022   1.471  0.00  0.00    -0.278 N 
ATOM      8  H   UNL d   1       0.423   0.999   1.683  0.00  0.00     0.179 HD
BRANCH   7   9
ATOM      9  S   UNL d   1       0.059  -0.492  -0.016  0.00  0.00     0.263 S 
ATOM     10  O   UNL d   1       0.892  -1.576  -0.501  0.00  0.00    -0.200 OA
ATOM     11  O   UNL d   1      -0.149   0.703  -0.803  0.00  0.00    -0.200 OA
BRANCH   9  12
ATOM     12  C   UNL d   1      -1.550  -1.164   0.340  0.00  0.00     0.079 A 
ATOM     13  C   UNL d   1      -2.668  -0.325   0.365  0.00  0.00     0.026 A 
ATOM     14  C   UNL d   1      -3.936  -0.872   0.585  0.00  0.00     0.008 A 
ATOM     15  C   UNL d   1      -4.092  -2.253   0.769  0.00  0.00    -0.062 A 
ATOM     16  C   UNL d   1      -2.966  -3.084   0.712  0.00  0.00     0.008 A 
ATOM     17  C   UNL d   1      -5.460  -2.832   0.994  0.00  0.00     0.048 C 
ATOM     18  C   UNL d   1      -1.697  -2.545   0.495  0.00  0.00     0.026 A 
ENDBRANCH   9  12
ENDBRANCH   7   9
ENDBRANCH   1   7
BRANCH   2  19
ATOM     19  O   UNL d   1       3.066  -1.415   1.713  0.00  0.00    -0.307 OA
BRANCH  19  20
ATOM     20  C   UNL d   1       3.894  -2.510   1.523  0.00  0.00     0.098 A 
ATOM     21  C   UNL d   1       5.241  -2.291   1.207  0.00  0.00     0.069 A 
ATOM     22  C   UNL d   1       6.121  -3.371   1.065  0.00  0.00     0.050 A 
ATOM     23 CL   UNL d   1       5.874  -0.695   1.016  0.00  0.00    -0.081 Cl
ATOM     24  C   UNL d   1       5.650  -4.671   1.237  0.00  0.00     0.035 A 
ATOM     25  C   UNL d   1       4.305  -4.906   1.512  0.00  0.00     0.026 A 
ATOM     26 CL   UNL d   1       6.736  -6.000   1.113  0.00  0.00    -0.084 Cl
ATOM     27  C   UNL d   1       3.423  -3.828   1.626  0.00  0.00     0.041 A 
ENDBRANCH  19  20
ENDBRANCH   2  19
TORSDOF 5
