REMARK  4 active torsions:
REMARK  status: ('A' for Active; 'I' for Inactive)
REMARK    1  A    between atoms: C_8  and  N_1 
REMARK    2  A    between atoms: C_6  and  C_7 
REMARK       I    between atoms: N_9  and  C_6 
REMARK    3  A    between atoms: C_7  and  C_8 
REMARK    4  A    between atoms: C_11  and  N_9 
ROOT
ATOM      1  C   UNL d   1       0.894   3.545   0.034  0.00  0.00     0.123 C 
ENDROOT
BRANCH   1   2
ATOM      2  C   UNL d   1      -0.089   3.981   1.113  0.00  0.00     0.223 C 
ATOM      3  N   UNL d   1      -0.025   3.370   2.345  0.00  0.00    -0.327 N 
ATOM      4  H   UNL d   1       0.653   2.637   2.492  0.00  0.00     0.169 HD
ATOM      5  O   UNL d   1      -0.842   4.917   0.833  0.00  0.00    -0.273 OA
BRANCH   3   6
ATOM      6  C   UNL d   1      -0.787   3.710   3.493  0.00  0.00     0.034 A 
ATOM      7  C   UNL d   1      -1.885   4.578   3.466  0.00  0.00     0.032 A 
ATOM      8  C   UNL d   1      -2.535   4.946   4.648  0.00  0.00     0.044 A 
ATOM      9  C   UNL d   1      -2.091   4.441   5.860  0.00  0.00     0.116 A 
ATOM     10  C   UNL d   1      -1.033   3.541   5.908  0.00  0.00     0.044 A 
ATOM     11  F   UNL d   1      -2.689   4.824   6.996  0.00  0.00    -0.206 F 
ATOM     12  C   UNL d   1      -0.391   3.164   4.723  0.00  0.00     0.032 A 
ENDBRANCH   3   6
ENDBRANCH   1   2
BRANCH   1  13
ATOM     13  C   UNL d   1       1.805   2.348   0.246  0.00  0.00     0.138 C 
BRANCH  13  14
ATOM     14  N   UNL d   1       1.109   1.083   0.393  0.00  0.00    -0.355 N 
ATOM     15  C   UNL d   1       0.270   0.558  -0.556  0.00  0.00     0.099 A 
ATOM     16  C   UNL d   1      -0.291  -0.597  -0.050  0.00  0.00    -0.034 A 
ATOM     17  C   UNL d   1      -1.291  -1.462  -0.727  0.00  0.00     0.050 C 
ATOM     18  C   UNL d   1       0.285  -0.804   1.242  0.00  0.00    -0.002 A 
ATOM     19  C   UNL d   1       1.187   0.239   1.480  0.00  0.00     0.045 A 
ATOM     20  C   UNL d   1       0.123  -1.798   2.229  0.00  0.00     0.014 A 
ATOM     21  C   UNL d   1       1.955   0.300   2.657  0.00  0.00     0.030 A 
ATOM     22  C   UNL d   1       1.774  -0.697   3.618  0.00  0.00     0.002 A 
ATOM     23  C   UNL d   1       0.865  -1.730   3.412  0.00  0.00     0.001 A 
ENDBRANCH  13  14
ENDBRANCH   1  13
TORSDOF 4
