REMARK  4 active torsions:
REMARK  status: ('A' for Active; 'I' for Inactive)
REMARK    1  A    between atoms: C_13  and  C_1 
REMARK    2  A    between atoms: C_4  and  C_2 
REMARK    3  A    between atoms: C_17  and  N_3 
REMARK    4  A    between atoms: N_14  and  C_18 
ROOT
ATOM      1  C   UNL d   1       1.022  -0.875  -0.010  0.00  0.00     0.156 A 
ATOM      2  C   UNL d   1      -0.310  -1.256  -0.034  0.00  0.00     0.067 A 
ATOM      3  N   UNL d   1       1.017   0.510   0.029  0.00  0.00    -0.251 N 
ATOM      4  N   UNL d   1      -0.246   0.995   0.178  0.00  0.00    -0.303 N 
ATOM      5  HN  UNL d   1      -0.524   1.963   0.340  1.00  0.00     0.186 HD
ATOM      6  C   UNL d   1      -1.040  -0.068   0.066  0.00  0.00     0.126 A 
ENDROOT
BRANCH   2   7
ATOM      7  C   UNL d   1      -0.871  -2.630  -0.051  0.00  0.00     0.178 A 
ATOM      8  O   UNL d   1      -0.107  -3.759  -0.021  0.00  0.00    -0.270 OA
ATOM      9  C   UNL d   1      -1.025  -4.757   0.139  0.00  0.00     0.198 A 
ATOM     10  C   UNL d   1      -0.648  -6.107   0.418  0.00  0.00     0.127 A 
ATOM     11  N   UNL d   1      -2.259  -4.291   0.095  0.00  0.00    -0.275 N 
ATOM     12  O   UNL d   1       0.664  -6.481   0.581  0.00  0.00    -0.318 OA
ATOM     13  C   UNL d   1      -1.450  -7.217   0.631  0.00  0.00     0.043 A 
ATOM     14  C   UNL d   1       0.684  -7.795   0.917  0.00  0.00     0.142 A 
ATOM     15  C   UNL d   1      -0.593  -8.295   0.962  0.00  0.00     0.027 A 
ATOM     16  N   UNL d   1      -2.157  -2.913  -0.025  0.00  0.00    -0.277 N 
ATOM     17  HN  UNL d   1      -3.119  -4.837   0.140  1.00  0.00     0.189 HD
ATOM     18  HN  UNL d   1      -2.928  -2.248  -0.082  1.00  0.00     0.189 HD
ENDBRANCH   2   7
BRANCH   1  19
ATOM     19  C   UNL d   1       2.265  -1.663   0.096  0.00  0.00     0.435 C 
ATOM     20  F   UNL d   1       2.070  -2.953   0.448  0.00  0.00    -0.165 F 
ATOM     21  F   UNL d   1       2.940  -1.702  -1.081  0.00  0.00    -0.165 F 
ATOM     22  F   UNL d   1       3.105  -1.155   1.028  0.00  0.00    -0.165 F 
ENDBRANCH   1  19
BRANCH   3  23
ATOM     23  C   UNL d   1       2.094   1.446  -0.042  0.00  0.00     0.057 A 
ATOM     24  C   UNL d   1       3.252   1.182  -0.786  0.00  0.00     0.034 A 
ATOM     25  C   UNL d   1       4.314   2.091  -0.798  0.00  0.00     0.038 A 
ATOM     26  C   UNL d   1       4.211   3.288  -0.085  0.00  0.00     0.103 A 
ATOM     27  C   UNL d   1       3.038   3.594   0.619  0.00  0.00     0.038 A 
ATOM     28  C   UNL d   1       1.979   2.677   0.628  0.00  0.00     0.034 A 
BRANCH  26  29
ATOM     29  N   UNL d   1       5.333   4.230  -0.091  0.00  0.00    -0.116 N 
ATOM     30  O   UNL d   1       5.201   5.293   0.538  0.00  0.00    -0.532 OA
ATOM     31  O   UNL d   1       6.353   3.911  -0.723  0.00  0.00    -0.532 OA
ENDBRANCH  26  29
ENDBRANCH   3  23
TORSDOF 4
