REMARK  3 active torsions:
REMARK  status: ('A' for Active; 'I' for Inactive)
REMARK       I    between atoms: N_3  and  C_1 
REMARK       I    between atoms: N_4  and  C_1 
REMARK    1  A    between atoms: C_5  and  N_3 
REMARK    2  A    between atoms: C_7  and  C_5 
REMARK    3  A    between atoms: C_6  and  C_7 
ROOT
ATOM      1  C   UNL d   1      -1.127  -1.219  -0.294  0.00  0.00     0.128 C 
ENDROOT
BRANCH   1   2
ATOM      2  N   UNL d   1       0.320  -1.267  -0.403  0.00  0.00    -0.347 N 
ATOM      3  C   UNL d   1       0.941  -1.001  -1.587  0.00  0.00     0.291 C 
ATOM      4  O   UNL d   1       0.393  -0.656  -2.623  0.00  0.00    -0.254 OA
ATOM      5  N   UNL d   1       2.286  -1.158  -1.507  0.00  0.00    -0.254 NA
ATOM      6  H   UNL d   1       2.765  -0.847  -2.343  0.00  0.00     0.128 HD
ATOM      7  H   UNL d   1       2.719  -0.862  -0.645  0.00  0.00     0.128 HD
ATOM      8  H   UNL d   1       0.822  -1.873   0.229  0.00  0.00     0.163 HD
ENDBRANCH   1   2
BRANCH   1   9
ATOM      9  C   UNL d   1      -1.792  -2.501  -0.813  0.00  0.00     0.058 C 
BRANCH   9  10
ATOM     10  C   UNL d   1      -3.301  -2.529  -0.712  0.00  0.00    -0.057 A 
ATOM     11  C   UNL d   1      -4.088  -1.413  -1.027  0.00  0.00     0.007 A 
ATOM     12  C   UNL d   1      -5.482  -1.483  -0.974  0.00  0.00     0.001 A 
ATOM     13  C   UNL d   1      -6.110  -2.675  -0.625  0.00  0.00     0.000 A 
ATOM     14  C   UNL d   1      -5.344  -3.800  -0.331  0.00  0.00     0.001 A 
ATOM     15  C   UNL d   1      -3.949  -3.728  -0.376  0.00  0.00     0.007 A 
ENDBRANCH   9  10
ENDBRANCH   1   9
TORSDOF 3
