REMARK  5 active torsions:
REMARK  status: ('A' for Active; 'I' for Inactive)
REMARK    1  A    between atoms: C_7  and  C_1 
REMARK    2  A    between atoms: N_19  and  C_3 
REMARK    3  A    between atoms: C_9  and  C_7 
REMARK    4  A    between atoms: C_10  and  C_7 
REMARK    5  A    between atoms: N_8  and  C_10 
ROOT
ATOM      1  C   UNL d   1      -0.054   3.121  -0.137  0.00  0.00     0.089 C 
ENDROOT
BRANCH   1   2
ATOM      2  C   UNL d   1      -0.273   1.586  -0.249  0.00  0.00     0.059 C 
ATOM      3  C   UNL d   1       0.583   0.638   0.214  0.00  0.00     0.096 C 
ATOM      4  N   UNL d   1       0.295  -0.709  -0.007  0.00  0.00    -0.294 N 
ATOM      5  C   UNL d   1       1.204  -1.785   0.374  0.00  0.00     0.162 C 
ATOM      6  C   UNL d   1      -0.888  -1.165  -0.585  0.00  0.00     0.332 C 
ATOM      7  N   UNL d   1      -1.800  -0.204  -0.950  0.00  0.00    -0.270 N 
ATOM      8  O   UNL d   1      -1.105  -2.365  -0.778  0.00  0.00    -0.246 OA
ATOM      9  C   UNL d   1      -1.512   1.134  -0.948  0.00  0.00     0.261 C 
ATOM     10  C   UNL d   1      -3.035  -0.655  -1.567  0.00  0.00     0.164 C 
ATOM     11  O   UNL d   1      -2.233   1.954  -1.514  0.00  0.00    -0.267 OA
BRANCH   3  12
ATOM     12  N   UNL d   1       1.741   0.990   0.886  0.00  0.00    -0.288 NA
ATOM     13  H   UNL d   1       2.524   0.375   0.704  0.00  0.00     0.125 HD
ATOM     14  H   UNL d   1       2.039   1.953   0.795  0.00  0.00     0.125 HD
ENDBRANCH   3  12
ENDBRANCH   1   2
BRANCH   1  15
ATOM     15  C   UNL d   1       0.742   3.638  -1.351  0.00  0.00    -0.044 A 
ATOM     16  C   UNL d   1       1.990   4.261  -1.156  0.00  0.00     0.047 A 
ATOM     17  C   UNL d   1       2.654   4.763  -2.260  0.00  0.00     0.105 A 
ATOM     18  O   UNL d   1       3.849   5.412  -2.244  0.00  0.00    -0.323 OA
ATOM     19  C   UNL d   1       2.135   4.661  -3.528  0.00  0.00     0.105 A 
ATOM     20  C   UNL d   1       4.019   5.705  -3.648  0.00  0.00     0.352 A 
ATOM     21  O   UNL d   1       2.936   5.225  -4.469  0.00  0.00    -0.323 OA
ATOM     22  C   UNL d   1       0.926   4.054  -3.765  0.00  0.00     0.040 A 
ATOM     23  C   UNL d   1       0.225   3.547  -2.667  0.00  0.00     0.011 A 
ENDBRANCH   1  15
BRANCH   1  24
ATOM     24  C   UNL d   1      -1.288   4.032   0.150  0.00  0.00     0.165 C 
ATOM     25  C   UNL d   1      -0.983   5.532   0.250  0.00  0.00     0.040 C 
BRANCH  24  26
ATOM     26  N   UNL d   1      -1.879   3.613   1.477  0.00  0.00    -0.150 N 
ATOM     27  O   UNL d   1      -1.158   3.706   2.480  0.00  0.00    -0.536 OA
ATOM     28  O   UNL d   1      -3.050   3.216   1.474  0.00  0.00    -0.536 OA
ENDBRANCH  24  26
ENDBRANCH   1  24
TORSDOF 5
