REMARK  3 active torsions:
REMARK  status: ('A' for Active; 'I' for Inactive)
REMARK       I    between atoms: C_6  and  N_1 
REMARK    1  A    between atoms: S_14  and  C_3 
REMARK    2  A    between atoms: C_8  and  C_6 
REMARK    3  A    between atoms: C_11  and  C_7 
ROOT
ATOM      1  N   UNL d   1      -0.030  -1.146   0.088  0.00  0.00    -0.211 N 
ATOM      2  C   UNL d   1       1.243   0.661   0.015  0.00  0.00     0.109 A 
ATOM      3  C   UNL d   1       1.285  -0.701   0.185  0.00  0.00     0.119 A 
ATOM      4  N   UNL d   1      -0.898  -0.090  -0.043  0.00  0.00    -0.288 N 
ATOM      5  HN  UNL d   1      -1.915  -0.134  -0.111  1.00  0.00     0.188 HD
ATOM      6  C   UNL d   1      -0.534  -2.463   0.186  0.00  0.00     0.279 C 
ATOM      7  C   UNL d   1      -0.128   1.013  -0.061  0.00  0.00     0.082 A 
ATOM      8  C   UNL d   1       2.378   1.523  -0.065  0.00  0.00     0.104 C 
ATOM      9  N   UNL d   1       3.283   2.244  -0.137  0.00  0.00    -0.191 NA
ATOM     10  O   UNL d   1       0.141  -3.265   0.833  0.00  0.00    -0.265 OA
ENDROOT
BRANCH   3  11
ATOM     11  S   UNL d   1       2.699  -1.687   0.482  0.00  0.00    -0.113 SA
ATOM     12  C   UNL d   1       2.640  -2.960  -0.796  0.00  0.00     0.097 C 
ENDBRANCH   3  11
BRANCH   7  13
ATOM     13  C   UNL d   1      -0.701   2.368  -0.174  0.00  0.00    -0.006 A 
ATOM     14  C   UNL d   1      -0.082   3.465   0.451  0.00  0.00     0.015 A 
ATOM     15  C   UNL d   1      -0.550   4.769   0.254  0.00  0.00     0.024 A 
ATOM     16  C   UNL d   1      -1.665   4.986  -0.546  0.00  0.00     0.034 A 
ATOM     17  C   UNL d   1      -2.328   3.908  -1.130  0.00  0.00     0.024 A 
ATOM     18 CL   UNL d   1      -2.220   6.591  -0.819  0.00  0.00    -0.084 Cl
ATOM     19  C   UNL d   1      -1.850   2.603  -0.943  0.00  0.00     0.015 A 
ENDBRANCH   7  13
BRANCH   6  20
ATOM     20  C   UNL d   1      -1.791  -3.013  -0.403  0.00  0.00     0.056 A 
ATOM     21  C   UNL d   1      -2.371  -2.614  -1.615  0.00  0.00     0.049 A 
ATOM     22 CL   UNL d   1      -1.712  -1.405  -2.659  0.00  0.00    -0.083 Cl
ATOM     23  C   UNL d   1      -3.486  -3.305  -2.117  0.00  0.00     0.025 A 
ATOM     24  C   UNL d   1      -3.991  -4.430  -1.461  0.00  0.00     0.002 A 
ATOM     25  C   UNL d   1      -3.393  -4.865  -0.287  0.00  0.00     0.001 A 
ATOM     26  C   UNL d   1      -2.314  -4.157   0.241  0.00  0.00     0.019 A 
ENDBRANCH   6  20
TORSDOF 3
