REMARK  3 active torsions:
REMARK  status: ('A' for Active; 'I' for Inactive)
REMARK    1  A    between atoms: N_2  and  S_1 
REMARK    2  A    between atoms: C_6  and  S_1 
REMARK    3  A    between atoms: N_9  and  C_5 
ROOT
ATOM      1  N   UNL d   1       0.604  -0.277   1.633  0.00  0.00    -0.174 N 
ATOM      2  N   UNL d   1       0.143   0.700   2.464  0.00  0.00    -0.267 N 
ATOM      3  HN  UNL d   1       0.067   1.699   2.274  1.00  0.00     0.190 HD
ATOM      4  C   UNL d   1      -0.186   0.050   3.586  0.00  0.00     0.143 A 
ATOM      5  C   UNL d   1      -0.024  -1.354   3.464  0.00  0.00     0.078 A 
ATOM      6  C   UNL d   1       0.521  -1.548   2.186  0.00  0.00     0.086 A 
ATOM      7  C   UNL d   1      -0.310  -2.493   4.241  0.00  0.00     0.132 A 
ATOM      8  C   UNL d   1       0.837  -2.837   1.709  0.00  0.00     0.033 A 
ATOM      9  F   UNL d   1      -0.941  -2.387   5.417  0.00  0.00    -0.205 F 
ATOM     10  C   UNL d   1       0.609  -3.935   2.545  0.00  0.00     0.005 A 
ATOM     11  C   UNL d   1       0.036  -3.767   3.797  0.00  0.00     0.043 A 
ENDROOT
BRANCH   1  12
ATOM     12  S   UNL d   1       1.073   0.019  -0.012  0.00  0.00     0.285 S 
ATOM     13  O   UNL d   1       1.993  -1.043  -0.387  0.00  0.00    -0.198 OA
ATOM     14  O   UNL d   1       1.474   1.410  -0.071  0.00  0.00    -0.198 OA
BRANCH  12  15
ATOM     15  C   UNL d   1      -0.344  -0.144  -1.021  0.00  0.00     0.112 A 
ATOM     16  C   UNL d   1      -1.637  -0.462  -0.585  0.00  0.00     0.108 A 
ATOM     17  C   UNL d   1      -2.756  -0.551  -1.521  0.00  0.00     0.086 A 
ATOM     18  N   UNL d   1      -2.114  -0.736   0.634  0.00  0.00    -0.238 N 
ATOM     19  N   UNL d   1      -3.859  -0.867  -0.834  0.00  0.00    -0.239 N 
ATOM     20  C   UNL d   1      -2.612  -0.330  -2.903  0.00  0.00     0.034 A 
ATOM     21  O   UNL d   1      -3.465  -0.974   0.485  0.00  0.00    -0.156 OA
ATOM     22  HN  UNL d   1      -4.798  -1.001  -1.208  1.00  0.00     0.197 HD
ATOM     23  C   UNL d   1      -1.305  -0.019  -3.317  0.00  0.00     0.004 A 
ATOM     24  C   UNL d   1      -0.214   0.070  -2.416  0.00  0.00     0.028 A 
ATOM     25  HN  UNL d   1      -1.582  -0.763   1.504  1.00  0.00     0.197 HD
ENDBRANCH  12  15
ENDBRANCH   1  12
BRANCH   4  26
ATOM     26  N   UNL d   1      -0.633   0.817   4.722  0.00  0.00    -0.304 N 
ATOM     27  C   UNL d   1      -0.326   0.572   6.067  0.00  0.00     0.014 A 
ATOM     28  C   UNL d   1      -1.013   1.479   6.850  0.00  0.00     0.027 A 
ATOM     29  C   UNL d   1       0.662  -0.424   6.571  0.00  0.00     0.068 C 
ATOM     30  C   UNL d   1      -1.678   2.366   5.995  0.00  0.00     0.027 A 
ATOM     31  C   UNL d   1      -1.421   1.977   4.693  0.00  0.00     0.014 A 
ATOM     32  C   UNL d   1      -1.976   2.632   3.473  0.00  0.00     0.068 C 
ENDBRANCH   4  26
TORSDOF 3
