REMARK  3 active torsions:
REMARK  status: ('A' for Active; 'I' for Inactive)
REMARK    1  A    between atoms: C_6  and  C_1 
REMARK    2  A    between atoms: N_9  and  C_5 
REMARK    3  A    between atoms: N_15  and  C_11 
ROOT
ATOM      1  C   UNL d   1      -0.788   1.017   0.022  0.00  0.00     0.177 A 
ATOM      2  S   UNL d   1      -1.535  -0.531   0.011  0.00  0.00    -0.029 SA
ATOM      3  N   UNL d   1       0.531   0.965   0.005  0.00  0.00    -0.288 N 
ATOM      4  HN  UNL d   1       1.133   1.788   0.005  1.00  0.00     0.187 HD
ATOM      5  C   UNL d   1       0.045  -1.241  -0.011  0.00  0.00     0.166 A 
ATOM      6  N   UNL d   1       1.003  -0.332  -0.014  0.00  0.00    -0.279 N 
ATOM      7  HN  UNL d   1       1.995  -0.565  -0.030  1.00  0.00     0.189 HD
ENDROOT
BRANCH   5   8
ATOM      8  N   UNL d   1       0.137  -2.596  -0.020  0.00  0.00    -0.332 N 
ATOM      9  C   UNL d   1       1.335  -3.082  -0.027  0.00  0.00     0.179 C 
ATOM     10  HN  UNL d   1      -0.689  -3.194  -0.022  1.00  0.00     0.168 HD
BRANCH   9  11
ATOM     11  N   UNL d   1       1.659  -4.423  -0.034  0.00  0.00    -0.386 N 
ATOM     12  C   UNL d   1       3.034  -4.894  -0.047  0.00  0.00     0.149 C 
ATOM     13  C   UNL d   1       0.637  -5.458  -0.036  0.00  0.00     0.149 C 
ENDBRANCH   9  11
ENDBRANCH   5   8
BRANCH   1  14
ATOM     14  C   UNL d   1      -1.593   2.273   0.053  0.00  0.00     0.440 C 
ATOM     15  F   UNL d   1      -2.938   2.060   0.066  0.00  0.00    -0.164 F 
ATOM     16  F   UNL d   1      -1.321   3.027   1.154  0.00  0.00    -0.164 F 
ATOM     17  F   UNL d   1      -1.348   3.065  -1.026  0.00  0.00    -0.164 F 
ENDBRANCH   1  14
TORSDOF 3
