REMARK  4 active torsions:
REMARK  status: ('A' for Active; 'I' for Inactive)
REMARK    1  A    between atoms: N_2  and  C_1 
REMARK    2  A    between atoms: O_13  and  C_1 
REMARK       I    between atoms: C_7  and  N_2 
REMARK    3  A    between atoms: C_10  and  C_7 
REMARK    4  A    between atoms: C_8  and  C_9 
ROOT
ATOM      1  N   UNL d   1      -2.870  -0.056  -1.214  0.00  0.00    -0.312 N 
ATOM      2  C   UNL d   1      -3.867  -0.992  -1.158  0.00  0.00     0.254 C 
ATOM      3  O   UNL d   1      -3.934  -1.815  -0.255  0.00  0.00    -0.268 OA
ATOM      4  H   UNL d   1      -2.856   0.677  -1.904  0.00  0.00     0.166 HD
ENDROOT
BRANCH   1   5
ATOM      5  C   UNL d   1      -1.809  -0.000  -0.259  0.00  0.00     0.269 C 
ATOM      6  C   UNL d   1      -2.210   0.218   1.216  0.00  0.00     0.224 C 
ATOM      7  C   UNL d   1      -1.400  -0.679   2.040  0.00  0.00     0.029 A 
ATOM      8  O   UNL d   1      -2.937   1.089   1.663  0.00  0.00    -0.286 OA
ATOM      9  C   UNL d   1      -1.296  -0.697   3.419  0.00  0.00     0.016 A 
ATOM     10  C   UNL d   1      -0.599  -1.486   1.235  0.00  0.00     0.029 A 
ATOM     11  C   UNL d   1      -0.342  -1.548   3.989  0.00  0.00     0.001 A 
ATOM     12  C   UNL d   1       0.474  -2.358   3.175  0.00  0.00     0.001 A 
ATOM     13  C   UNL d   1       0.345  -2.338   1.782  0.00  0.00     0.016 A 
ATOM     14  C   UNL d   1      -0.853  -1.211  -0.183  0.00  0.00     0.224 C 
ATOM     15  O   UNL d   1      -0.322  -1.823  -1.094  0.00  0.00    -0.286 OA
BRANCH   5  16
ATOM     16  O   UNL d   1      -1.061   1.137  -0.684  0.00  0.00    -0.358 OA
ATOM     17  H   UNL d   1      -1.171   1.827  -0.004  0.00  0.00     0.213 HD
ENDBRANCH   5  16
ENDBRANCH   1   5
BRANCH   2  18
ATOM     18  C   UNL d   1      -4.889  -0.941  -2.249  0.00  0.00     0.032 A 
ATOM     19  C   UNL d   1      -4.613  -0.382  -3.505  0.00  0.00     0.018 A 
ATOM     20  C   UNL d   1      -5.593  -0.366  -4.505  0.00  0.00     0.017 A 
ATOM     21  C   UNL d   1      -6.862  -0.916  -4.273  0.00  0.00     0.048 A 
ATOM     22  C   UNL d   1      -7.133  -1.476  -3.014  0.00  0.00     0.017 A 
ATOM     23  C   UNL d   1      -6.154  -1.492  -2.013  0.00  0.00     0.018 A 
BRANCH  21  24
ATOM     24  C   UNL d   1      -7.914  -0.937  -5.358  0.00  0.00     0.417 C 
ATOM     25  F   UNL d   1      -7.519  -0.327  -6.511  0.00  0.00    -0.166 F 
ATOM     26  F   UNL d   1      -8.272  -2.203  -5.711  0.00  0.00    -0.166 F 
ATOM     27  F   UNL d   1      -9.065  -0.313  -4.983  0.00  0.00    -0.166 F 
ENDBRANCH  21  24
ENDBRANCH   2  18
TORSDOF 4
