REMARK  4 active torsions:
REMARK  status: ('A' for Active; 'I' for Inactive)
REMARK    1  A    between atoms: C_8  and  C_1 
REMARK       I    between atoms: C_5  and  N_7 
REMARK    2  A    between atoms: C_9  and  C_5 
REMARK    3  A    between atoms: N_7  and  C_8 
REMARK    4  A    between atoms: C_10  and  C_11 
ROOT
ATOM      1  C   UNL d   1       4.319  -3.707  -0.194  0.00  0.00     0.251 C 
ATOM      2  N   UNL d   1       3.600  -2.579  -0.530  0.00  0.00    -0.353 N 
ATOM      3  O   UNL d   1       5.501  -3.677   0.144  0.00  0.00    -0.268 OA
ATOM      4  H   UNL d   1       2.606  -2.642  -0.703  0.00  0.00     0.163 HD
ENDROOT
BRANCH   2   5
ATOM      5  C   UNL d   1       4.172  -1.254  -0.424  0.00  0.00     0.162 C 
BRANCH   5   6
ATOM      6  C   UNL d   1       3.375  -0.436   0.554  0.00  0.00    -0.022 A 
ATOM      7  C   UNL d   1       3.295  -0.678   1.986  0.00  0.00    -0.009 A 
ATOM      8  C   UNL d   1       2.506   0.280   2.633  0.00  0.00     0.015 A 
ATOM      9  C   UNL d   1       3.877  -1.694   2.788  0.00  0.00     0.037 A 
ATOM     10  C   UNL d   1       2.288   0.252   4.026  0.00  0.00     0.021 A 
ATOM     11  S   UNL d   1       1.887   1.438   1.522  0.00  0.00    -0.101 SA
ATOM     12  C   UNL d   1       2.863  -0.772   4.782  0.00  0.00     0.025 A 
ATOM     13  C   UNL d   1       3.648  -1.734   4.166  0.00  0.00     0.035 A 
ATOM     14 CL   UNL d   1       4.347  -2.995   5.106  0.00  0.00    -0.084 Cl
ATOM     15  C   UNL d   1       2.650   0.686   0.200  0.00  0.00     0.060 A 
ENDBRANCH   5   6
ENDBRANCH   2   5
BRANCH   1  16
ATOM     16  C   UNL d   1       3.566  -4.993  -0.155  0.00  0.00     0.032 A 
ATOM     17  C   UNL d   1       2.444  -5.237  -0.951  0.00  0.00     0.017 A 
ATOM     18  C   UNL d   1       1.710  -6.419  -0.784  0.00  0.00     0.009 A 
ATOM     19  C   UNL d   1       2.070  -7.386   0.176  0.00  0.00    -0.051 A 
ATOM     20  C   UNL d   1       3.247  -7.155   0.907  0.00  0.00     0.009 A 
ATOM     21  C   UNL d   1       3.985  -5.977   0.744  0.00  0.00     0.017 A 
BRANCH  19  22
ATOM     22  C   UNL d   1       1.163  -8.605   0.431  0.00  0.00    -0.024 C 
ATOM     23  C   UNL d   1       1.688  -9.549   1.538  0.00  0.00     0.019 C 
ATOM     24  C   UNL d   1      -0.231  -8.112   0.884  0.00  0.00     0.019 C 
ATOM     25  C   UNL d   1       1.003  -9.447  -0.851  0.00  0.00     0.019 C 
ENDBRANCH  19  22
ENDBRANCH   1  16
TORSDOF 4
