REMARK  1 active torsions:
REMARK  status: ('A' for Active; 'I' for Inactive)
REMARK    1  A    between atoms: C_5  and  C_3 
ROOT
ATOM      1  C   UNL d   1       1.220  -1.389   0.029  0.00  0.00     0.189 C 
ATOM      2  C   UNL d   1       2.252  -0.687  -0.781  0.00  0.00    -0.006 C 
ATOM      3  C   UNL d   1       2.578  -1.308  -1.928  0.00  0.00     0.030 C 
ATOM      4  C   UNL d   1      -0.130  -0.775   0.058  0.00  0.00     0.021 A 
ATOM      5  O   UNL d   1       1.432  -2.489   0.524  0.00  0.00    -0.287 OA
ATOM      6  C   UNL d   1      -0.358   0.578   0.363  0.00  0.00    -0.044 A 
ATOM      7  C   UNL d   1       2.827   0.588  -0.238  0.00  0.00     0.043 C 
ATOM      8  C   UNL d   1      -1.203  -1.616  -0.276  0.00  0.00     0.016 A 
ATOM      9  C   UNL d   1       1.823   1.735  -0.201  0.00  0.00     0.009 C 
ATOM     10  C   UNL d   1       0.730   1.506   0.837  0.00  0.00     0.040 C 
ATOM     11  C   UNL d   1      -1.673   1.070   0.277  0.00  0.00     0.008 A 
ATOM     12  C   UNL d   1      -2.499  -1.108  -0.355  0.00  0.00     0.001 A 
ATOM     13  C   UNL d   1      -2.731   0.238  -0.090  0.00  0.00     0.001 A 
ENDROOT
BRANCH   3  14
ATOM     14  C   UNL d   1       3.505  -0.735  -2.837  0.00  0.00     0.005 A 
ATOM     15  S   UNL d   1       2.938   0.252  -4.126  0.00  0.00    -0.102 SA
ATOM     16  C   UNL d   1       4.527   0.620  -4.634  0.00  0.00     0.050 A 
ATOM     17  C   UNL d   1       5.475  -0.031  -3.878  0.00  0.00     0.008 A 
ATOM     18  C   UNL d   1       4.885  -0.827  -2.854  0.00  0.00     0.019 A 
ENDBRANCH   3  14
TORSDOF 1
