REMARK  0 active torsions:
REMARK  status: ('A' for Active; 'I' for Inactive)
ROOT
ATOM      1  C   UNL d   1       1.001   0.483  -0.003  0.00  0.00     0.098 A 
ATOM      2  C   UNL d   1      -0.438   0.495  -0.005  0.00  0.00     0.030 A 
ATOM      3  C   UNL d   1       1.776  -0.753  -0.004  0.00  0.00     0.086 A 
ATOM      4  N   UNL d   1       1.879   1.498  -0.002  0.00  0.00    -0.239 N 
ATOM      5  HN  UNL d   1       1.658   2.494  -0.001  1.00  0.00     0.197 HD
ATOM      6  O   UNL d   1       3.137   0.934  -0.001  0.00  0.00    -0.156 OA
ATOM      7  N   UNL d   1       3.077  -0.445  -0.003  0.00  0.00    -0.240 N 
ATOM      8  HN  UNL d   1       3.863  -1.095  -0.003  1.00  0.00     0.197 HD
ATOM      9  C   UNL d   1       1.180  -2.019  -0.006  0.00  0.00     0.036 A 
ATOM     10  C   UNL d   1      -1.007  -0.810  -0.007  0.00  0.00     0.061 A 
ATOM     11  C   UNL d   1      -0.226  -1.984  -0.007  0.00  0.00     0.034 A 
ATOM     12  N   UNL d   1      -3.176   0.123  -0.007  0.00  0.00    -0.311 N 
ATOM     13  HN  UNL d   1      -4.186  -0.015  -0.009  1.00  0.00     0.186 HD
ATOM     14  N   UNL d   1      -2.334  -0.958  -0.008  0.00  0.00    -0.300 N 
ATOM     15  HN  UNL d   1      -2.731  -1.898  -0.009  1.00  0.00     0.187 HD
ATOM     16  C   UNL d   1      -1.302   1.623  -0.004  0.00  0.00    -0.030 A 
ATOM     17  C   UNL d   1      -2.664   1.365  -0.005  0.00  0.00     0.114 A 
ATOM     18  C   UNL d   1      -0.868   3.057  -0.001  0.00  0.00     0.050 C 
ENDROOT
TORSDOF 0
