REMARK  9 active torsions:
REMARK  status: ('A' for Active; 'I' for Inactive)
REMARK    1  A    between atoms: C_3  and  C_1 
REMARK       I    between atoms: N_10  and  C_1 
REMARK    2  A    between atoms: C_5  and  N_2 
REMARK    3  A    between atoms: C_11  and  C_5 
REMARK    4  A    between atoms: O_19  and  C_11 
REMARK    5  A    between atoms: C_21  and  C_11 
REMARK    6  A    between atoms: O_20  and  C_12 
REMARK    7  A    between atoms: O_13  and  C_21 
REMARK    8  A    between atoms: C_22  and  O_13 
REMARK    9  A    between atoms: C_14  and  C_22 
ROOT
ATOM      1  C   UNL d   1      -3.805  -2.311  -1.923  0.00  0.00     0.170 C 
ENDROOT
BRANCH   1   2
ATOM      2  C   UNL d   1      -2.313  -2.696  -1.745  0.00  0.00     0.306 C 
BRANCH   2   3
ATOM      3  N   UNL d   1      -1.646  -2.154  -0.535  0.00  0.00     0.091 N 
ATOM      4  C   UNL d   1      -0.234  -2.578  -0.532  0.00  0.00     0.273 C 
ATOM      5  C   UNL d   1       0.519  -2.101   0.713  0.00  0.00     0.044 C 
ATOM      6  C   UNL d   1      -0.186  -2.512   2.006  0.00  0.00     0.081 C 
ATOM      7  C   UNL d   1      -1.643  -2.055   1.948  0.00  0.00     0.044 C 
ATOM      8  C   UNL d   1      -2.344  -2.563   0.689  0.00  0.00     0.273 C 
BRANCH   6   9
ATOM      9  C   UNL d   1      -0.064  -4.011   2.269  0.00  0.00     0.219 C 
ATOM     10  O   UNL d   1       0.502  -4.806   1.529  0.00  0.00    -0.273 OA
ATOM     11  N   UNL d   1      -0.621  -4.452   3.432  0.00  0.00    -0.370 N 
ATOM     12  H   UNL d   1      -0.868  -3.818   4.181  0.00  0.00     0.159 HD
ATOM     13  H   UNL d   1      -0.474  -5.425   3.663  0.00  0.00     0.159 HD
ENDBRANCH   6   9
ENDBRANCH   2   3
ENDBRANCH   1   2
BRANCH   1  14
ATOM     14  O   UNL d   1      -3.966  -0.888  -1.960  0.00  0.00    -0.392 OA
ATOM     15  H   UNL d   1      -3.368  -0.575  -2.666  0.00  0.00     0.210 HD
ENDBRANCH   1  14
BRANCH   1  16
ATOM     16  C   UNL d   1      -4.376  -2.907  -3.215  0.00  0.00     0.201 C 
BRANCH  16  17
ATOM     17  O   UNL d   1      -3.639  -2.400  -4.328  0.00  0.00    -0.384 OA
BRANCH  17  18
ATOM     18  C   UNL d   1      -4.125  -2.912  -5.566  0.00  0.00     0.206 C 
BRANCH  18  19
ATOM     19  C   UNL d   1      -3.296  -2.312  -6.669  0.00  0.00    -0.034 A 
ATOM     20  C   UNL d   1      -1.911  -2.520  -6.704  0.00  0.00     0.012 A 
ATOM     21  C   UNL d   1      -1.133  -1.931  -7.701  0.00  0.00     0.037 A 
ATOM     22  C   UNL d   1      -1.724  -1.146  -8.691  0.00  0.00     0.068 A 
ATOM     23  C   UNL d   1      -3.105  -0.939  -8.668  0.00  0.00     0.037 A 
ATOM     24  C   UNL d   1      -3.885  -1.520  -7.664  0.00  0.00     0.012 A 
BRANCH  22  25
ATOM     25  O   UNL d   1      -0.856  -0.591  -9.588  0.00  0.00    -0.356 OA
ATOM     26  C   UNL d   1      -1.389  -0.323 -10.879  0.00  0.00     0.210 C 
ENDBRANCH  22  25
ENDBRANCH  18  19
ENDBRANCH  17  18
ENDBRANCH  16  17
ENDBRANCH   1  16
TORSDOF 9
