REMARK  2 active torsions:
REMARK  status: ('A' for Active; 'I' for Inactive)
REMARK    1  A    between atoms: C_12  and  C_2 
REMARK    2  A    between atoms: O_13  and  C_10 
ROOT
ATOM      1  C   UNL d   1      -0.041   0.377  -0.036  0.00  0.00     0.092 A 
ATOM      2  C   UNL d   1       1.198  -1.759   0.005  0.00  0.00    -0.040 A 
ATOM      3  O   UNL d   1       1.177   1.085  -0.046  0.00  0.00    -0.275 OA
ATOM      4  C   UNL d   1       2.387   0.420  -0.050  0.00  0.00     0.288 A 
ATOM      5  C   UNL d   1      -0.077  -1.023  -0.032  0.00  0.00     0.004 A 
ATOM      6  C   UNL d   1       2.336  -1.050   0.000  0.00  0.00     0.090 A 
ATOM      7  C   UNL d   1      -1.197   1.162  -0.032  0.00  0.00     0.074 A 
ATOM      8  C   UNL d   1      -1.338  -1.633  -0.046  0.00  0.00     0.017 A 
ATOM      9  O   UNL d   1       3.462   1.007  -0.080  0.00  0.00    -0.260 OA
ATOM     10  C   UNL d   1      -2.429   0.527  -0.029  0.00  0.00     0.068 A 
ATOM     11  C   UNL d   1      -2.508  -0.861  -0.042  0.00  0.00     0.037 A 
ENDROOT
BRANCH   2  12
ATOM     12  C   UNL d   1       1.247  -3.266   0.111  0.00  0.00     0.035 C 
ATOM     13  C   UNL d   1       1.311  -3.952  -1.245  0.00  0.00     0.010 C 
ENDBRANCH   2  12
BRANCH  10  14
ATOM     14  O   UNL d   1      -3.594   1.232  -0.016  0.00  0.00    -0.361 OA
ATOM     15  H   UNL d   1      -3.387   2.182   0.002  0.00  0.00     0.217 HD
ENDBRANCH  10  14
TORSDOF 2
