REMARK  2 active torsions:
REMARK  status: ('A' for Active; 'I' for Inactive)
REMARK    1  A    between atoms: C_2  and  C_1 
REMARK    2  A    between atoms: C_6  and  C_7 
ROOT
ATOM      1  C   UNL d   1      -3.731  -0.033  -0.001  0.00  0.00     0.089 C 
ATOM      2  C   UNL d   1      -4.404   1.140  -0.019  0.00  0.00     0.040 C 
ATOM      3  C   UNL d   1      -2.297  -0.046  -0.008  0.00  0.00     0.103 C 
ATOM      4  N   UNL d   1      -1.138  -0.101  -0.005  0.00  0.00    -0.191 NA
ENDROOT
BRANCH   1   5
ATOM      5  C   UNL d   1      -4.501  -1.240   0.019  0.00  0.00     0.127 A 
ATOM      6  N   UNL d   1      -5.814  -1.412   0.038  0.00  0.00    -0.339 N 
ATOM      7  C   UNL d   1      -6.032  -2.769   0.015  0.00  0.00     0.060 A 
ATOM      8  HN  UNL d   1      -6.524  -0.680   0.066  1.00  0.00     0.167 HD
ATOM      9  C   UNL d   1      -7.234  -3.494   0.007  0.00  0.00     0.032 A 
ATOM     10  C   UNL d   1      -4.827  -3.457  -0.011  0.00  0.00     0.060 A 
ATOM     11  C   UNL d   1      -7.178  -4.895  -0.028  0.00  0.00     0.002 A 
ATOM     12  C   UNL d   1      -5.951  -5.562  -0.055  0.00  0.00     0.002 A 
ATOM     13  C   UNL d   1      -4.742  -4.852  -0.046  0.00  0.00     0.032 A 
ATOM     14  N   UNL d   1      -3.871  -2.471  -0.001  0.00  0.00    -0.339 N 
ATOM     15  H   UNL d   1      -2.875  -2.634  -0.017  0.00  0.00     0.167 HD
ENDBRANCH   1   5
BRANCH   2  16
ATOM     16  C   UNL d   1      -3.789   2.424  -0.081  0.00  0.00    -0.007 A 
ATOM     17  C   UNL d   1      -3.402   3.154   1.018  0.00  0.00     0.100 A 
ATOM     18  N   UNL d   1      -2.745   4.267   0.561  0.00  0.00    -0.364 N 
ATOM     19  C   UNL d   1      -2.707   4.269  -0.816  0.00  0.00     0.043 A 
ATOM     20  H   UNL d   1      -2.318   4.972   1.145  0.00  0.00     0.165 HD
ATOM     21  C   UNL d   1      -3.399   3.137  -1.251  0.00  0.00     0.002 A 
ATOM     22  C   UNL d   1      -2.104   5.172  -1.700  0.00  0.00     0.030 A 
ATOM     23  C   UNL d   1      -3.527   2.916  -2.638  0.00  0.00     0.014 A 
ATOM     24  C   UNL d   1      -2.932   3.812  -3.534  0.00  0.00     0.001 A 
ATOM     25  C   UNL d   1      -2.223   4.916  -3.069  0.00  0.00     0.002 A 
ENDBRANCH   2  16
TORSDOF 2
