REMARK  3 active torsions:
REMARK  status: ('A' for Active; 'I' for Inactive)
REMARK    1  A    between atoms: C_2  and  N_1 
REMARK    2  A    between atoms: C_8  and  O_15 
REMARK    3  A    between atoms: O_15  and  C_10 
ROOT
ATOM      1  C   UNL d   1      -4.539   1.234  -1.701  0.00  0.00     0.118 A 
ATOM      2  N   UNL d   1      -3.874   3.284  -2.772  0.00  0.00    -0.344 N 
ATOM      3  HN  UNL d   1      -4.049   4.025  -3.451  1.00  0.00     0.167 HD
ATOM      4  C   UNL d   1      -2.779   3.303  -1.974  0.00  0.00     0.148 A 
ATOM      5  C   UNL d   1      -4.728   2.242  -2.633  0.00  0.00     0.126 A 
ATOM      6  C   UNL d   1      -3.432   1.295  -0.851  0.00  0.00     0.041 A 
ATOM      7  C   UNL d   1      -2.534   2.356  -0.989  0.00  0.00     0.059 A 
ENDROOT
BRANCH   4   8
ATOM      8  O   UNL d   1      -1.836   4.311  -2.130  0.00  0.00    -0.294 OA
BRANCH   8   9
ATOM      9  C   UNL d   1      -1.693   4.861  -3.386  0.00  0.00     0.079 A 
ATOM     10  C   UNL d   1      -1.422   6.226  -3.454  0.00  0.00     0.045 A 
ATOM     11  C   UNL d   1      -1.259   6.862  -4.698  0.00  0.00    -0.037 A 
ATOM     12  C   UNL d   1      -0.985   8.342  -4.730  0.00  0.00     0.050 C 
ATOM     13  C   UNL d   1      -1.366   6.100  -5.882  0.00  0.00     0.046 A 
ATOM     14  C   UNL d   1      -1.613   4.717  -5.822  0.00  0.00    -0.037 A 
ATOM     15 CL   UNL d   1      -1.185   6.889  -7.417  0.00  0.00    -0.083 Cl
ATOM     16  C   UNL d   1      -1.744   4.110  -4.562  0.00  0.00     0.045 A 
ATOM     17  C   UNL d   1      -1.769   3.825  -7.023  0.00  0.00     0.050 C 
ENDBRANCH   8   9
ENDBRANCH   4   8
BRANCH   1  18
ATOM     18  N   UNL d   1      -5.484   0.129  -1.639  0.00  0.00    -0.114 N 
ATOM     19  O   UNL d   1      -6.420   0.122  -2.448  0.00  0.00    -0.532 OA
ATOM     20  O   UNL d   1      -5.286  -0.742  -0.781  0.00  0.00    -0.532 OA
ENDBRANCH   1  18
TORSDOF 3
