REMARK  8 active torsions:
REMARK  status: ('A' for Active; 'I' for Inactive)
REMARK    1  A    between atoms: N_7  and  C_1 
REMARK    2  A    between atoms: N_8  and  C_2 
REMARK       I    between atoms: C_9  and  N_7 
REMARK       I    between atoms: C_10  and  N_8 
REMARK    3  A    between atoms: C_11  and  C_9 
REMARK    4  A    between atoms: C_12  and  C_10 
REMARK    5  A    between atoms: C_13  and  C_16 
REMARK    6  A    between atoms: O_22  and  C_13 
REMARK    7  A    between atoms: C_14  and  C_15 
REMARK    8  A    between atoms: O_21  and  C_14 
ROOT
ATOM      1  C   UNL d   1      -0.678  -1.442   0.291  0.00  0.00     0.069 C 
ATOM      2  C   UNL d   1       0.693  -1.674   0.153  0.00  0.00     0.069 C 
ATOM      3  C   UNL d   1      -1.207  -0.255  -0.238  0.00  0.00    -0.026 C 
ATOM      4  C   UNL d   1       1.550  -0.549   0.079  0.00  0.00    -0.026 C 
ATOM      5  C   UNL d   1      -0.396   0.896  -0.253  0.00  0.00    -0.047 C 
ATOM      6  C   UNL d   1       0.985   0.757   0.011  0.00  0.00    -0.047 C 
ATOM      7  C   UNL d   1       3.059  -0.663   0.071  0.00  0.00     0.051 C 
ATOM      8  C   UNL d   1      -2.576  -0.243  -0.866  0.00  0.00     0.051 C 
ATOM      9  C   UNL d   1      -0.998   2.265  -0.475  0.00  0.00     0.049 C 
ATOM     10  C   UNL d   1       1.880   1.974   0.105  0.00  0.00     0.049 C 
ENDROOT
BRANCH   1  11
ATOM     11  N   UNL d   1      -1.555  -2.260   1.055  0.00  0.00    -0.321 N 
ATOM     12  C   UNL d   1      -1.321  -3.080   2.133  0.00  0.00     0.246 C 
ATOM     13  O   UNL d   1      -2.241  -3.758   2.594  0.00  0.00    -0.268 OA
ATOM     14  H   UNL d   1      -2.550  -2.125   0.916  0.00  0.00     0.169 HD
BRANCH  12  15
ATOM     15  C   UNL d   1       0.016  -3.139   2.766  0.00  0.00     0.081 C 
ATOM     16  C   UNL d   1       0.389  -4.246   3.427  0.00  0.00     0.086 C 
BRANCH  16  17
ATOM     17  C   UNL d   1       1.767  -4.327   3.941  0.00  0.00     0.165 C 
ATOM     18  O   UNL d   1       2.611  -3.462   3.782  0.00  0.00    -0.647 OA
BRANCH  17  19
ATOM     19  O   UNL d   1       2.008  -5.482   4.593  0.00  0.00    -0.773 OA
ATOM     20  H   UNL d   1       1.260  -6.104   4.647  0.00  0.00     0.167 HD
ENDBRANCH  17  19
ENDBRANCH  16  17
ENDBRANCH  12  15
ENDBRANCH   1  11
BRANCH   2  21
ATOM     21  N   UNL d   1       1.239  -2.982   0.058  0.00  0.00    -0.321 N 
ATOM     22  C   UNL d   1       0.712  -4.204  -0.248  0.00  0.00     0.246 C 
ATOM     23  O   UNL d   1       1.431  -5.203  -0.110  0.00  0.00    -0.268 OA
ATOM     24  H   UNL d   1       2.232  -3.076   0.220  0.00  0.00     0.169 HD
BRANCH  22  25
ATOM     25  C   UNL d   1      -0.669  -4.371  -0.748  0.00  0.00     0.081 C 
ATOM     26  C   UNL d   1      -1.291  -5.534  -0.500  0.00  0.00     0.086 C 
BRANCH  26  27
ATOM     27  C   UNL d   1      -2.693  -5.699  -0.908  0.00  0.00     0.165 C 
ATOM     28  O   UNL d   1      -3.431  -4.780  -1.221  0.00  0.00    -0.647 OA
BRANCH  27  29
ATOM     29  O   UNL d   1      -3.068  -6.993  -0.906  0.00  0.00    -0.773 OA
ATOM     30  H   UNL d   1      -2.363  -7.633  -0.694  0.00  0.00     0.167 HD
ENDBRANCH  27  29
ENDBRANCH  26  27
ENDBRANCH  22  25
ENDBRANCH   2  21
TORSDOF 8
