REMARK  9 active torsions:
REMARK  status: ('A' for Active; 'I' for Inactive)
REMARK    1  A    between atoms: O_13  and  C_1 
REMARK    2  A    between atoms: C_5  and  C_2 
REMARK    3  A    between atoms: C_3  and  C_6 
REMARK    4  A    between atoms: C_4  and  C_7 
REMARK       I    between atoms: N_11  and  C_5 
REMARK    5  A    between atoms: C_8  and  N_14 
REMARK    6  A    between atoms: N_12  and  C_8 
REMARK    7  A    between atoms: C_10  and  N_12 
REMARK    8  A    between atoms: N_14  and  N_11 
REMARK    9  A    between atoms: C_27  and  O_13 
ROOT
ATOM      1  N   UNL d   1      -1.299   4.713  -0.614  0.00  0.00    -0.273 N 
ATOM      2  H   UNL d   1      -1.612   4.309  -1.495  0.00  0.00     0.189 HD
ENDROOT
BRANCH   1   3
ATOM      3  C   UNL d   1      -2.256   4.688   0.368  0.00  0.00     0.191 C 
ATOM      4  S   UNL d   1      -1.987   4.238   1.967  0.00  0.00    -0.039 SA
BRANCH   3   5
ATOM      5  N   UNL d   1      -3.526   5.094   0.073  0.00  0.00    -0.332 N 
ATOM      6  H   UNL d   1      -4.123   4.963   0.885  0.00  0.00     0.168 HD
BRANCH   5   7
ATOM      7  C   UNL d   1      -4.136   5.783  -0.997  0.00  0.00     0.035 A 
ATOM      8  C   UNL d   1      -3.533   6.141  -2.202  0.00  0.00     0.045 A 
ATOM      9  C   UNL d   1      -4.246   6.867  -3.183  0.00  0.00     0.050 A 
ATOM     10  C   UNL d   1      -5.568   7.263  -2.928  0.00  0.00     0.032 A 
ATOM     11  C   UNL d   1      -6.191   6.928  -1.722  0.00  0.00     0.050 A 
ATOM     12  C   UNL d   1      -5.469   6.178  -0.778  0.00  0.00     0.045 A 
BRANCH   9  13
ATOM     13  C   UNL d   1      -3.583   7.211  -4.498  0.00  0.00     0.417 C 
ATOM     14  F   UNL d   1      -4.370   7.955  -5.324  0.00  0.00    -0.166 F 
ATOM     15  F   UNL d   1      -2.436   7.924  -4.333  0.00  0.00    -0.166 F 
ATOM     16  F   UNL d   1      -3.240   6.102  -5.208  0.00  0.00    -0.166 F 
ENDBRANCH   9  13
BRANCH  11  17
ATOM     17  C   UNL d   1      -7.589   7.405  -1.404  0.00  0.00     0.417 C 
ATOM     18  F   UNL d   1      -8.287   7.803  -2.503  0.00  0.00    -0.166 F 
ATOM     19  F   UNL d   1      -8.349   6.448  -0.804  0.00  0.00    -0.166 F 
ATOM     20  F   UNL d   1      -7.587   8.469  -0.555  0.00  0.00    -0.166 F 
ENDBRANCH  11  17
ENDBRANCH   5   7
ENDBRANCH   3   5
ENDBRANCH   1   3
BRANCH   1  21
ATOM     21  N   UNL d   1       0.037   4.327  -0.310  0.00  0.00    -0.264 N 
ATOM     22  C   UNL d   1       0.396   3.009  -0.528  0.00  0.00     0.274 C 
ATOM     23  O   UNL d   1      -0.344   2.195  -1.073  0.00  0.00    -0.266 OA
ATOM     24  H   UNL d   1       0.569   4.944   0.296  0.00  0.00     0.190 HD
BRANCH  22  25
ATOM     25  C   UNL d   1       1.712   2.569  -0.025  0.00  0.00     0.085 A 
ATOM     26  C   UNL d   1       2.897   3.222  -0.333  0.00  0.00     0.164 A 
ATOM     27  N   UNL d   1       4.119   2.730   0.022  0.00  0.00    -0.346 N 
ATOM     28  C   UNL d   1       4.157   1.577   0.719  0.00  0.00     0.090 A 
ATOM     29  HN  UNL d   1       4.977   3.219  -0.232  1.00  0.00     0.167 HD
ATOM     30  C   UNL d   1       3.025   0.878   1.098  0.00  0.00     0.018 A 
ATOM     31  C   UNL d   1       1.783   1.378   0.709  0.00  0.00     0.023 A 
BRANCH  26  32
ATOM     32  O   UNL d   1       2.833   4.400  -1.067  0.00  0.00    -0.293 OA
BRANCH  32  33
ATOM     33  C   UNL d   1       4.003   5.103  -1.264  0.00  0.00     0.077 A 
ATOM     34  C   UNL d   1       4.326   5.450  -2.575  0.00  0.00     0.037 A 
ATOM     35  C   UNL d   1       5.501   6.161  -2.834  0.00  0.00     0.003 A 
ATOM     36  C   UNL d   1       6.341   6.531  -1.782  0.00  0.00     0.000 A 
ATOM     37  C   UNL d   1       5.997   6.215  -0.469  0.00  0.00     0.003 A 
ATOM     38  C   UNL d   1       4.817   5.518  -0.205  0.00  0.00     0.037 A 
ENDBRANCH  32  33
ENDBRANCH  26  32
ENDBRANCH  22  25
ENDBRANCH   1  21
TORSDOF 9
