REMARK  8 active torsions:
REMARK  status: ('A' for Active; 'I' for Inactive)
REMARK    1  A    between atoms: C_7  and  C_1 
REMARK    2  A    between atoms: C_19  and  C_3 
REMARK    3  A    between atoms: C_8  and  C_7 
REMARK    4  A    between atoms: C_11  and  O_16 
REMARK    5  A    between atoms: C_22  and  C_11 
REMARK    6  A    between atoms: O_16  and  C_15 
REMARK    7  A    between atoms: C_28  and  C_19 
REMARK    8  A    between atoms: O_23  and  C_22 
ROOT
ATOM      1  C   UNL d   1      -1.813  -1.301  -0.017  0.00  0.00     0.029 C 
ATOM      2  C   UNL d   1      -2.100   0.153   0.124  0.00  0.00     0.295 C 
ATOM      3  C   UNL d   1      -0.548  -1.784   0.025  0.00  0.00    -0.033 C 
ATOM      4  O   UNL d   1      -1.048   1.021  -0.065  0.00  0.00    -0.274 OA
ATOM      5  C   UNL d   1       0.270   0.551  -0.027  0.00  0.00     0.093 A 
ATOM      6  C   UNL d   1       0.568  -0.809   0.080  0.00  0.00     0.005 A 
ATOM      7  C   UNL d   1       1.248   1.545  -0.076  0.00  0.00     0.075 A 
ATOM      8  C   UNL d   1       1.927  -1.151   0.166  0.00  0.00     0.017 A 
ATOM      9  O   UNL d   1      -3.231   0.575   0.350  0.00  0.00    -0.259 OA
ATOM     10  C   UNL d   1       2.579   1.183   0.041  0.00  0.00     0.082 A 
ATOM     11  C   UNL d   1       2.929  -0.163   0.149  0.00  0.00     0.038 A 
ENDROOT
BRANCH   1  12
ATOM     12  C   UNL d   1      -3.070  -2.126  -0.188  0.00  0.00     0.089 C 
BRANCH  12  13
ATOM     13  C   UNL d   1      -3.660  -2.219  -1.589  0.00  0.00     0.007 A 
ATOM     14  C   UNL d   1      -4.856  -2.931  -1.797  0.00  0.00     0.043 A 
ATOM     15 CL   UNL d   1      -5.685  -3.724  -0.498  0.00  0.00    -0.084 Cl
ATOM     16  C   UNL d   1      -5.425  -3.043  -3.073  0.00  0.00     0.024 A 
ATOM     17  C   UNL d   1      -4.812  -2.451  -4.171  0.00  0.00     0.005 A 
ATOM     18  C   UNL d   1      -3.626  -1.749  -3.992  0.00  0.00     0.043 A 
ATOM     19  C   UNL d   1      -3.063  -1.641  -2.719  0.00  0.00     0.124 A 
ATOM     20  F   UNL d   1      -1.914  -0.959  -2.627  0.00  0.00    -0.205 F 
ENDBRANCH  12  13
ENDBRANCH   1  12
BRANCH   3  21
ATOM     21  C   UNL d   1      -0.226  -3.264  -0.117  0.00  0.00     0.040 C 
BRANCH  21  22
ATOM     22  C   UNL d   1       0.033  -4.005   1.205  0.00  0.00     0.000 C 
ATOM     23  C   UNL d   1      -1.187  -4.116   2.112  0.00  0.00     0.005 C 
ENDBRANCH  21  22
ENDBRANCH   3  21
BRANCH  10  24
ATOM     24  O   UNL d   1       3.625   2.121  -0.026  0.00  0.00    -0.277 OA
BRANCH  24  25
ATOM     25  C   UNL d   1       3.475   3.373   0.580  0.00  0.00     0.287 C 
ATOM     26  O   UNL d   1       2.550   3.728   1.300  0.00  0.00    -0.262 OA
BRANCH  25  27
ATOM     27  C   UNL d   1       4.696   4.232   0.288  0.00  0.00     0.278 C 
BRANCH  27  28
ATOM     28  O   UNL d   1       5.001   4.292  -1.099  0.00  0.00    -0.386 OA
ATOM     29  C   UNL d   1       6.121   5.128  -1.355  0.00  0.00     0.202 C 
ENDBRANCH  27  28
ENDBRANCH  25  27
ENDBRANCH  24  25
ENDBRANCH  10  24
TORSDOF 8
