REMARK  6 active torsions:
REMARK  status: ('A' for Active; 'I' for Inactive)
REMARK    1  A    between atoms: O_14  and  C_3 
REMARK    2  A    between atoms: C_9  and  C_4 
REMARK    3  A    between atoms: C_12  and  C_5 
REMARK    4  A    between atoms: C_16  and  C_8 
REMARK    5  A    between atoms: C_13  and  C_12 
REMARK    6  A    between atoms: C_20  and  C_16 
ROOT
ATOM      1  N   UNL d   1      -0.228  -1.161  -0.120  0.00  0.00    -0.321 N 
ATOM      2  HN  UNL d   1      -0.726  -2.048  -0.197  1.00  0.00     0.169 HD
ATOM      3  C   UNL d   1      -0.858   0.012  -0.201  0.00  0.00     0.150 A 
ATOM      4  C   UNL d   1       1.098  -1.105   0.070  0.00  0.00     0.134 A 
ATOM      5  C   UNL d   1      -0.286   1.264  -0.103  0.00  0.00     0.023 A 
ATOM      6  N   UNL d   1       1.783   0.050   0.194  0.00  0.00    -0.343 N 
ATOM      7  HN  UNL d   1       2.788   0.046   0.365  1.00  0.00     0.167 HD
ATOM      8  C   UNL d   1       1.100   1.220   0.085  0.00  0.00     0.022 A 
ENDROOT
BRANCH   4   9
ATOM      9  C   UNL d   1       1.847  -2.387   0.131  0.00  0.00     0.076 A 
ATOM     10  N   UNL d   1       1.131  -3.538  -0.045  0.00  0.00    -0.363 N 
ATOM     11  C   UNL d   1       1.789  -4.716  -0.007  0.00  0.00     0.088 A 
ATOM     12  HN  UNL d   1       0.124  -3.507  -0.201  1.00  0.00     0.165 HD
ATOM     13  C   UNL d   1       3.150  -4.829   0.206  0.00  0.00     0.017 A 
ATOM     14  C   UNL d   1       3.881  -3.662   0.389  0.00  0.00     0.004 A 
ATOM     15  C   UNL d   1       3.226  -2.431   0.350  0.00  0.00     0.033 A 
ENDBRANCH   4   9
BRANCH   3  16
ATOM     16  O   UNL d   1      -2.185  -0.171  -0.408  0.00  0.00    -0.346 OA
ATOM     17  H   UNL d   1      -2.219  -1.145  -0.387  0.00  0.00     0.219 HD
ENDBRANCH   3  16
BRANCH   8  18
ATOM     18  C   UNL d   1       1.927   2.475   0.279  0.00  0.00     0.057 C 
BRANCH  18  19
ATOM     19  C   UNL d   1       3.423   2.369  -0.055  0.00  0.00     0.002 C 
ATOM     20  C   UNL d   1       3.693   2.094  -1.528  0.00  0.00     0.005 C 
ENDBRANCH  18  19
ENDBRANCH   8  18
BRANCH   5  21
ATOM     21  C   UNL d   1      -1.071   2.556  -0.241  0.00  0.00     0.042 C 
ATOM     22  C   UNL d   1      -2.470   2.559   0.395  0.00  0.00     0.019 C 
BRANCH  21  23
ATOM     23  C   UNL d   1      -1.196   2.972  -1.694  0.00  0.00    -0.028 C 
ATOM     24  C   UNL d   1      -0.824   4.163  -2.183  0.00  0.00     0.007 C 
ENDBRANCH  21  23
ENDBRANCH   5  21
TORSDOF 6
