REMARK  2 active torsions:
REMARK  status: ('A' for Active; 'I' for Inactive)
REMARK    1  A    between atoms: C_10  and  N_3 
REMARK    2  A    between atoms: C_12  and  C_10 
ROOT
ATOM      1  C   UNL d   1      -1.911   0.265  -0.109  0.00  0.00     0.103 C 
ATOM      2  N   UNL d   1      -1.123  -1.024   0.042  0.00  0.00    -0.246 NA
ATOM      3  N   UNL d   1      -1.991   0.727   1.308  0.00  0.00    -0.324 N 
ATOM      4  C   UNL d   1      -1.052   1.086  -1.177  0.00  0.00     0.021 C 
ATOM      5  C   UNL d   1      -1.743  -0.352   2.194  0.00  0.00     0.235 C 
ATOM      6  C   UNL d   1       0.232  -0.591  -0.125  0.00  0.00     0.020 A 
ATOM      7  C   UNL d   1       0.331   0.653  -0.758  0.00  0.00    -0.025 A 
ATOM      8  C   UNL d   1      -1.374  -1.568   1.374  0.00  0.00     0.201 C 
ATOM      9  O   UNL d   1      -1.905  -0.367   3.404  0.00  0.00    -0.272 OA
ATOM     10  C   UNL d   1      -3.321  -0.075  -0.631  0.00  0.00     0.058 C 
ATOM     11  C   UNL d   1      -1.252   2.593  -1.241  0.00  0.00     0.024 C 
ATOM     12  C   UNL d   1      -1.256   0.546  -2.623  0.00  0.00     0.024 C 
ATOM     13  C   UNL d   1       1.383  -1.258   0.272  0.00  0.00     0.024 A 
ATOM     14  C   UNL d   1       1.555   1.283  -0.936  0.00  0.00     0.010 A 
ATOM     15  C   UNL d   1       2.621  -0.630   0.109  0.00  0.00     0.002 A 
ATOM     16  C   UNL d   1       2.705   0.639  -0.478  0.00  0.00     0.001 A 
ENDROOT
BRANCH   3  17
ATOM     17  C   UNL d   1      -2.969   1.683   1.815  0.00  0.00     0.154 C 
BRANCH  17  18
ATOM     18  C   UNL d   1      -2.610   3.123   1.684  0.00  0.00    -0.017 C 
ATOM     19  C   UNL d   1      -1.415   3.678   1.916  0.00  0.00     0.008 C 
ENDBRANCH  17  18
ENDBRANCH   3  17
TORSDOF 2
