REMARK  8 active torsions:
REMARK  status: ('A' for Active; 'I' for Inactive)
REMARK    1  A    between atoms: C_4  and  N_1 
REMARK    2  A    between atoms: C_2  and  N_3 
REMARK    3  A    between atoms: N_19  and  C_2 
REMARK    4  A    between atoms: N_5  and  C_6 
REMARK    5  A    between atoms: C_22  and  N_19 
REMARK    6  A    between atoms: C_20  and  C_22 
REMARK    7  A    between atoms: C_23  and  C_20 
REMARK    8  A    between atoms: O_21  and  C_23 
ROOT
ATOM      1  N   UNL d   1      -2.721   2.404   7.200  0.00  0.00    -0.355 N 
ATOM      2  N   UNL d   1      -1.901   1.463   4.675  0.00  0.00    -0.364 N 
ATOM      3  C   UNL d   1      -2.556   3.342   6.077  0.00  0.00     0.145 C 
ATOM      4  C   UNL d   1      -2.030   1.103   7.073  0.00  0.00     0.145 C 
ATOM      5  C   UNL d   1      -2.263   0.461   5.684  0.00  0.00     0.144 C 
ATOM      6  C   UNL d   1      -2.747   2.664   4.713  0.00  0.00     0.144 C 
ENDROOT
BRANCH   2   7
ATOM      7  C   UNL d   1      -1.282   1.085   3.510  0.00  0.00     0.103 A 
ATOM      8  C   UNL d   1      -0.468   2.007   2.845  0.00  0.00     0.051 A 
ATOM      9  C   UNL d   1       0.257   1.632   1.715  0.00  0.00     0.041 A 
ATOM     10  C   UNL d   1       0.128   0.327   1.258  0.00  0.00     0.118 A 
ATOM     11  C   UNL d   1      -0.696  -0.541   1.949  0.00  0.00     0.125 A 
ATOM     12  N   UNL d   1      -1.382  -0.189   3.070  0.00  0.00    -0.350 N 
ATOM     13  HN  UNL d   1      -1.956  -0.870   3.566  1.00  0.00     0.166 HD
BRANCH  10  14
ATOM     14  N   UNL d   1       0.863  -0.122   0.087  0.00  0.00    -0.114 N 
ATOM     15  O   UNL d   1       0.687  -1.293  -0.282  0.00  0.00    -0.532 OA
ATOM     16  O   UNL d   1       1.621   0.686  -0.467  0.00  0.00    -0.532 OA
ENDBRANCH  10  14
ENDBRANCH   2   7
BRANCH   1  17
ATOM     17  C   UNL d   1      -3.554   2.662   8.275  0.00  0.00     0.169 C 
ATOM     18  S   UNL d   1      -5.137   3.166   8.095  0.00  0.00    -0.041 SA
BRANCH  17  19
ATOM     19  N   UNL d   1      -2.913   2.424   9.467  0.00  0.00    -0.367 N 
ATOM     20  H   UNL d   1      -1.905   2.384   9.405  0.00  0.00     0.161 HD
BRANCH  19  21
ATOM     21  C   UNL d   1      -3.497   2.284  10.792  0.00  0.00     0.124 C 
BRANCH  21  22
ATOM     22  C   UNL d   1      -3.434   0.818  11.207  0.00  0.00     0.046 C 
BRANCH  22  23
ATOM     23  C   UNL d   1      -4.066   0.577  12.568  0.00  0.00     0.168 C 
BRANCH  23  24
ATOM     24  O   UNL d   1      -5.440   0.944  12.509  0.00  0.00    -0.396 OA
ATOM     25  C   UNL d   1      -6.098   0.743  13.750  0.00  0.00     0.201 C 
ENDBRANCH  23  24
ENDBRANCH  22  23
ENDBRANCH  21  22
ENDBRANCH  19  21
ENDBRANCH  17  19
ENDBRANCH   1  17
TORSDOF 8
