REMARK  7 active torsions:
REMARK  status: ('A' for Active; 'I' for Inactive)
REMARK    1  A    between atoms: C_5  and  C_1 
REMARK    2  A    between atoms: O_6  and  C_2 
REMARK    3  A    between atoms: C_3  and  C_8 
REMARK    4  A    between atoms: O_26  and  C_5 
REMARK    5  A    between atoms: C_13  and  O_6 
REMARK    6  A    between atoms: N_17  and  C_9 
REMARK    7  A    between atoms: C_16  and  N_17 
ROOT
ATOM      1  C   UNL d   1       2.932   1.027  -3.797  0.00  0.00     0.139 C 
ATOM      2  C   UNL d   1       3.974   1.388  -4.695  0.00  0.00     0.112 C 
ATOM      3  C   UNL d   1       2.029  -0.005  -4.168  0.00  0.00     0.112 C 
ATOM      4  N   UNL d   1       4.827   1.720  -5.407  0.00  0.00    -0.191 NA
ATOM      5  N   UNL d   1       1.277  -0.845  -4.456  0.00  0.00    -0.191 NA
ATOM      6  C   UNL d   1       2.780   1.657  -2.616  0.00  0.00     0.122 C 
ENDROOT
BRANCH   6   7
ATOM      7  N   UNL d   1       3.519   2.687  -2.068  0.00  0.00    -0.361 N 
ATOM      8  H   UNL d   1       4.211   3.132  -2.668  0.00  0.00     0.165 HD
BRANCH   7   9
ATOM      9  C   UNL d   1       3.192   3.420  -0.902  0.00  0.00     0.067 A 
ATOM     10  C   UNL d   1       2.752   2.830   0.303  0.00  0.00     0.102 A 
ATOM     11  C   UNL d   1       2.314   3.635   1.362  0.00  0.00     0.040 A 
ATOM     12  C   UNL d   1       2.354   5.025   1.256  0.00  0.00     0.019 A 
ATOM     13  C   UNL d   1       2.778   5.635   0.069  0.00  0.00     0.050 A 
ATOM     14  C   UNL d   1       3.201   4.823  -0.996  0.00  0.00     0.048 A 
BRANCH  10  15
ATOM     15  O   UNL d   1       2.804   1.454   0.377  0.00  0.00    -0.307 OA
BRANCH  15  16
ATOM     16  C   UNL d   1       2.689   0.734   1.519  0.00  0.00     0.099 A 
ATOM     17  C   UNL d   1       3.420   0.893   2.686  0.00  0.00     0.114 A 
ATOM     18  S   UNL d   1       2.933  -0.270   3.866  0.00  0.00    -0.093 SA
ATOM     19  C   UNL d   1       1.810  -0.995   2.809  0.00  0.00     0.053 A 
ATOM     20  C   UNL d   1       1.784  -0.368   1.586  0.00  0.00     0.046 A 
BRANCH  17  21
ATOM     21  C   UNL d   1       4.442   1.839   3.093  0.00  0.00     0.302 C 
ATOM     22  O   UNL d   1       4.646   2.210   4.245  0.00  0.00    -0.259 OA
BRANCH  21  23
ATOM     23  O   UNL d   1       5.156   2.292   2.021  0.00  0.00    -0.322 OA
ATOM     24  C   UNL d   1       6.113   3.300   2.357  0.00  0.00     0.213 C 
ENDBRANCH  21  23
ENDBRANCH  17  21
ENDBRANCH  15  16
ENDBRANCH  10  15
BRANCH  13  25
ATOM     25  C   UNL d   1       2.720   7.137  -0.064  0.00  0.00     0.417 C 
ATOM     26  F   UNL d   1       3.024   7.584  -1.313  0.00  0.00    -0.166 F 
ATOM     27  F   UNL d   1       1.481   7.629   0.217  0.00  0.00    -0.166 F 
ATOM     28  F   UNL d   1       3.577   7.770   0.782  0.00  0.00    -0.166 F 
ENDBRANCH  13  25
ENDBRANCH   7   9
ENDBRANCH   6   7
TORSDOF 7
