REMARK  3 active torsions:
REMARK  status: ('A' for Active; 'I' for Inactive)
REMARK    1  A    between atoms: C_3  and  C_1 
REMARK    2  A    between atoms: C_9  and  C_2 
REMARK    3  A    between atoms: C_15  and  C_8 
ROOT
ATOM      1  C   UNL d   1      -0.010  -1.274   0.028  0.00  0.00     0.078 A 
ATOM      2  C   UNL d   1      -1.352  -0.809   0.084  0.00  0.00     0.087 A 
ATOM      3  N   UNL d   1      -1.366   0.514   0.330  0.00  0.00    -0.259 N 
ATOM      4  HN  UNL d   1      -2.190   1.106   0.434  1.00  0.00     0.195 HD
ATOM      5  O   UNL d   1      -0.049   0.914   0.412  0.00  0.00    -0.241 OA
ATOM      6  C   UNL d   1       0.767  -0.158   0.239  0.00  0.00     0.089 A 
ATOM      7  C   UNL d   1       2.216   0.110   0.276  0.00  0.00     0.080 C 
ENDROOT
BRANCH   1   8
ATOM      8  C   UNL d   1       0.515  -2.638  -0.196  0.00  0.00     0.187 A 
ATOM      9  N   UNL d   1      -0.187  -3.635  -0.693  0.00  0.00    -0.318 N 
ATOM     10  C   UNL d   1       0.709  -4.680  -0.684  0.00  0.00     0.138 A 
ATOM     11  HN  UNL d   1      -1.157  -3.632  -1.009  1.00  0.00     0.169 HD
ATOM     12  N   UNL d   1       1.916  -4.362  -0.195  0.00  0.00    -0.242 N 
ATOM     13  O   UNL d   1       1.804  -3.006   0.092  0.00  0.00    -0.217 OA
ATOM     14  HN  UNL d   1       2.725  -4.969  -0.065  1.00  0.00     0.196 HD
BRANCH  10  15
ATOM     15  C   UNL d   1       0.380  -5.988  -1.225  0.00  0.00     0.010 A 
ATOM     16  C   UNL d   1      -0.398  -6.082  -2.384  0.00  0.00     0.016 A 
ATOM     17  C   UNL d   1      -0.668  -7.329  -2.955  0.00  0.00     0.007 A 
ATOM     18  C   UNL d   1      -0.183  -8.500  -2.361  0.00  0.00    -0.062 A 
ATOM     19  C   UNL d   1       0.583  -8.408  -1.192  0.00  0.00     0.007 A 
ATOM     20  C   UNL d   1      -0.446  -9.829  -3.006  0.00  0.00     0.048 C 
ATOM     21  C   UNL d   1       0.864  -7.158  -0.628  0.00  0.00     0.016 A 
ENDBRANCH  10  15
ENDBRANCH   1   8
BRANCH   2  22
ATOM     22  C   UNL d   1      -2.602  -1.560   0.005  0.00  0.00     0.054 A 
ATOM     23  C   UNL d   1      -3.657  -1.207  -0.851  0.00  0.00     0.049 A 
ATOM     24 CL   UNL d   1      -3.564   0.117  -1.963  0.00  0.00    -0.083 Cl
ATOM     25  C   UNL d   1      -4.847  -1.951  -0.859  0.00  0.00     0.025 A 
ATOM     26  C   UNL d   1      -4.995  -3.061  -0.028  0.00  0.00     0.005 A 
ATOM     27  C   UNL d   1      -3.957  -3.423   0.824  0.00  0.00     0.043 A 
ATOM     28  C   UNL d   1      -2.784  -2.669   0.844  0.00  0.00     0.130 A 
ATOM     29  F   UNL d   1      -1.829  -3.026   1.717  0.00  0.00    -0.205 F 
ENDBRANCH   2  22
TORSDOF 3
