REMARK  4 active torsions:
REMARK  status: ('A' for Active; 'I' for Inactive)
REMARK    1  A    between atoms: C_7  and  C_3 
REMARK    2  A    between atoms: O_15  and  C_8 
REMARK    3  A    between atoms: C_12  and  C_9 
REMARK    4  A    between atoms: O_16  and  C_10 
ROOT
ATOM      1  C   UNL d   1      -4.232   0.492   0.708  0.00  0.00     0.038 C 
ATOM      2  C   UNL d   1      -4.498  -0.550  -0.096  0.00  0.00     0.014 C 
ENDROOT
BRANCH   1   3
ATOM      3  C   UNL d   1      -2.949   1.113   0.703  0.00  0.00     0.075 A 
ATOM      4  N   UNL d   1      -1.908   0.786  -0.040  0.00  0.00    -0.349 N 
ATOM      5  C   UNL d   1      -0.839   1.629   0.213  0.00  0.00     0.050 A 
ATOM      6  HN  UNL d   1      -1.893   0.016  -0.709  1.00  0.00     0.166 HD
ATOM      7  C   UNL d   1      -1.066   2.612   1.175  0.00  0.00     0.033 A 
ATOM      8  C   UNL d   1       0.425   1.572  -0.409  0.00  0.00     0.031 A 
ATOM      9  C   UNL d   1      -0.079   3.542   1.537  0.00  0.00     0.021 A 
ATOM     10  S   UNL d   1      -2.674   2.455   1.761  0.00  0.00    -0.070 SA
ATOM     11  C   UNL d   1       1.165   3.467   0.904  0.00  0.00     0.002 A 
ATOM     12  C   UNL d   1       1.417   2.495  -0.059  0.00  0.00     0.002 A 
ENDBRANCH   1   3
BRANCH   2  13
ATOM     13  C   UNL d   1      -5.820  -1.175  -0.108  0.00  0.00    -0.033 A 
ATOM     14  C   UNL d   1      -6.107  -2.241   0.756  0.00  0.00     0.051 A 
ATOM     15  C   UNL d   1      -7.372  -2.853   0.756  0.00  0.00     0.102 A 
ATOM     16  C   UNL d   1      -8.363  -2.361  -0.113  0.00  0.00     0.101 A 
ATOM     17  C   UNL d   1      -8.063  -1.303  -0.981  0.00  0.00     0.040 A 
ATOM     18  C   UNL d   1      -6.803  -0.708  -0.978  0.00  0.00     0.014 A 
BRANCH  15  19
ATOM     19  O   UNL d   1      -7.686  -3.933   1.538  0.00  0.00    -0.353 OA
ATOM     20  C   UNL d   1      -6.677  -4.463   2.387  0.00  0.00     0.210 C 
ENDBRANCH  15  19
BRANCH  16  21
ATOM     21  O   UNL d   1      -9.639  -2.838  -0.274  0.00  0.00    -0.353 OA
ATOM     22  C   UNL d   1     -10.275  -3.376   0.879  0.00  0.00     0.210 C 
ENDBRANCH  16  21
ENDBRANCH   2  13
TORSDOF 4
