REMARK  7 active torsions:
REMARK  status: ('A' for Active; 'I' for Inactive)
REMARK    1  A    between atoms: C_14  and  N_1 
REMARK    2  A    between atoms: C_2  and  C_5 
REMARK    3  A    between atoms: C_18  and  C_8 
REMARK    4  A    between atoms: C_12  and  C_14 
REMARK    5  A    between atoms: C_21  and  C_18 
REMARK    6  A    between atoms: O_25  and  C_21 
REMARK    7  A    between atoms: C_30  and  O_25 
ROOT
ATOM      1  N   UNL d   1       2.360  -0.621  -0.285  0.00  0.00    -0.251 N 
ATOM      2  N   UNL d   1       2.359   0.753  -0.267  0.00  0.00    -0.298 N 
ATOM      3  HN  UNL d   1       3.238   1.268  -0.327  1.00  0.00     0.187 HD
ATOM      4  C   UNL d   1       1.212  -1.404  -0.190  0.00  0.00     0.273 A 
ATOM      5  C   UNL d   1       1.232   1.392  -0.173  0.00  0.00     0.046 A 
ATOM      6  C   UNL d   1      -0.068  -0.684  -0.097  0.00  0.00     0.046 A 
ATOM      7  C   UNL d   1      -0.081   0.706  -0.115  0.00  0.00     0.004 A 
ATOM      8  O   UNL d   1       1.207  -2.632  -0.217  0.00  0.00    -0.266 OA
ATOM      9  C   UNL d   1      -1.270  -1.405  -0.031  0.00  0.00     0.018 A 
ATOM     10  C   UNL d   1      -1.312   1.381  -0.091  0.00  0.00     0.014 A 
ATOM     11  C   UNL d   1      -2.489  -0.729   0.005  0.00  0.00     0.001 A 
ATOM     12  C   UNL d   1      -2.509   0.662  -0.028  0.00  0.00     0.001 A 
ENDROOT
BRANCH   1  13
ATOM     13  C   UNL d   1       3.666  -1.275  -0.387  0.00  0.00     0.217 C 
BRANCH  13  14
ATOM     14  C   UNL d   1       4.239  -1.512   0.982  0.00  0.00     0.071 A 
ATOM     15  N   UNL d   1       4.062  -2.611   1.689  0.00  0.00    -0.351 N 
ATOM     16  C   UNL d   1       4.656  -2.480   2.934  0.00  0.00     0.057 A 
ATOM     17  HN  UNL d   1       3.560  -3.438   1.366  1.00  0.00     0.166 HD
ATOM     18  C   UNL d   1       5.334  -1.294   3.135  0.00  0.00     0.082 A 
ATOM     19  S   UNL d   1       5.203  -0.303   1.742  0.00  0.00    -0.085 SA
BRANCH  16  20
ATOM     20  C   UNL d   1       4.345  -3.478   4.036  0.00  0.00     0.039 C 
ATOM     21  S   UNL d   1       4.855  -3.310   5.710  0.00  0.00    -0.087 SA
ATOM     22  C   UNL d   1       3.354  -2.417   5.933  0.00  0.00     0.016 C 
ATOM     23  C   UNL d   1       3.064  -1.417   6.865  0.00  0.00     0.019 C 
ATOM     24  C   UNL d   1       2.488  -2.746   4.872  0.00  0.00    -0.012 C 
ATOM     25  C   UNL d   1       2.064  -0.511   6.504  0.00  0.00     0.001 C 
ATOM     26  C   UNL d   1       1.332  -0.670   5.326  0.00  0.00     0.001 C 
ATOM     27  C   UNL d   1       1.482  -1.817   4.535  0.00  0.00     0.013 C 
ATOM     28  C   UNL d   1       3.032  -3.914   4.217  0.00  0.00    -0.031 C 
ATOM     29  C   UNL d   1       2.609  -5.329   4.464  0.00  0.00     0.050 C 
ENDBRANCH  16  20
ENDBRANCH  13  14
ENDBRANCH   1  13
BRANCH   5  30
ATOM     30  C   UNL d   1       1.310   2.900  -0.169  0.00  0.00     0.170 C 
BRANCH  30  31
ATOM     31  C   UNL d   1       0.817   3.556   1.094  0.00  0.00     0.264 C 
ATOM     32  O   UNL d   1       0.356   2.975   2.057  0.00  0.00    -0.265 OA
BRANCH  31  33
ATOM     33  O   UNL d   1       0.862   4.909   0.930  0.00  0.00    -0.322 OA
BRANCH  33  34
ATOM     34  C   UNL d   1       0.081   5.672   1.872  0.00  0.00     0.174 C 
ATOM     35  C   UNL d   1      -1.290   5.890   1.266  0.00  0.00     0.034 C 
ENDBRANCH  33  34
ENDBRANCH  31  33
ENDBRANCH  30  31
ENDBRANCH   5  30
TORSDOF 7
