REMARK  2 active torsions:
REMARK  status: ('A' for Active; 'I' for Inactive)
REMARK    1  A    between atoms: C_10  and  C_5 
REMARK    2  A    between atoms: C_8  and  C_9 
ROOT
ATOM      1  C   UNL d   1       0.004   0.690  -0.045  0.00  0.00     0.054 A 
ATOM      2  C   UNL d   1      -2.442   0.516  -0.454  0.00  0.00     0.018 C 
ATOM      3  C   UNL d   1      -1.273   1.402  -0.246  0.00  0.00     0.193 C 
ATOM      4  C   UNL d   1       0.015  -0.708  -0.024  0.00  0.00     0.122 A 
ATOM      5  O   UNL d   1      -1.116  -1.475  -0.111  0.00  0.00    -0.342 OA
ATOM      6  C   UNL d   1      -3.423   0.958  -1.257  0.00  0.00     0.032 C 
ATOM      7  C   UNL d   1       1.239  -1.374   0.030  0.00  0.00     0.153 A 
ATOM      8  C   UNL d   1      -2.318  -0.790   0.261  0.00  0.00     0.218 C 
ATOM      9  C   UNL d   1       2.437  -0.671   0.087  0.00  0.00     0.087 A 
ATOM     10  C   UNL d   1       1.199   1.410   0.027  0.00  0.00     0.060 A 
ATOM     11  C   UNL d   1       2.404   0.717   0.092  0.00  0.00     0.120 A 
ATOM     12  O   UNL d   1      -1.339   2.622  -0.273  0.00  0.00    -0.287 OA
ATOM     13  F   UNL d   1       1.277  -2.714   0.021  0.00  0.00    -0.203 F 
ATOM     14  F   UNL d   1       3.553   1.401   0.137  0.00  0.00    -0.206 F 
ENDROOT
BRANCH   6  15
ATOM     15  C   UNL d   1      -4.518   0.130  -1.610  0.00  0.00     0.006 A 
ATOM     16  S   UNL d   1      -6.007   0.268  -0.779  0.00  0.00    -0.089 SA
ATOM     17  C   UNL d   1      -6.729  -1.008  -1.675  0.00  0.00     0.022 A 
ATOM     18  C   UNL d   1      -5.851  -1.491  -2.629  0.00  0.00     0.021 A 
ATOM     19  C   UNL d   1      -4.586  -0.835  -2.595  0.00  0.00     0.020 A 
BRANCH  17  20
ATOM     20  C   UNL d   1      -8.073  -1.461  -1.393  0.00  0.00     0.021 A 
ATOM     21  S   UNL d   1      -8.589  -3.054  -1.791  0.00  0.00    -0.101 SA
ATOM     22  C   UNL d   1     -10.144  -2.799  -1.135  0.00  0.00     0.050 A 
ATOM     23  C   UNL d   1     -10.289  -1.526  -0.633  0.00  0.00     0.008 A 
ATOM     24  C   UNL d   1      -9.097  -0.756  -0.784  0.00  0.00     0.021 A 
ENDBRANCH  17  20
ENDBRANCH   6  15
TORSDOF 2
