REMARK  6 active torsions:
REMARK  status: ('A' for Active; 'I' for Inactive)
REMARK    1  A    between atoms: C_10  and  C_2 
REMARK    2  A    between atoms: N_15  and  C_5 
REMARK    3  A    between atoms: O_17  and  C_10 
REMARK    4  A    between atoms: C_22  and  O_17 
REMARK    5  A    between atoms: O_21  and  C_23 
REMARK    6  A    between atoms: C_23  and  C_22 
ROOT
ATOM      1  C   UNL d   1      -0.708   0.647  -0.040  0.00  0.00     0.146 A 
ATOM      2  C   UNL d   1      -1.528   0.392  -1.300  0.00  0.00     0.074 C 
ATOM      3  C   UNL d   1      -1.472   0.359   1.242  0.00  0.00     0.095 C 
ATOM      4  C   UNL d   1      -0.209   2.129   0.006  0.00  0.00     0.246 A 
ATOM      5  C   UNL d   1      -2.589  -0.391   1.213  0.00  0.00     0.139 C 
ATOM      6  C   UNL d   1      -2.665  -0.339  -1.211  0.00  0.00     0.065 C 
ATOM      7  N   UNL d   1       1.185   2.096   0.069  0.00  0.00    -0.325 N 
ATOM      8  O   UNL d   1      -3.122  -0.827   0.011  0.00  0.00    -0.302 OA
ATOM      9  C   UNL d   1       0.612  -0.114  -0.021  0.00  0.00    -0.003 A 
ATOM     10  C   UNL d   1       1.670   0.795   0.038  0.00  0.00     0.043 A 
ATOM     11  C   UNL d   1      -0.940   0.813   2.489  0.00  0.00     0.101 C 
ATOM     12  N   UNL d   1      -0.516   1.184   3.499  0.00  0.00    -0.191 NA
ATOM     13  O   UNL d   1      -0.896   3.138   0.004  0.00  0.00    -0.271 OA
ATOM     14  C   UNL d   1      -3.578  -0.795  -2.316  0.00  0.00     0.077 C 
ATOM     15  C   UNL d   1       0.846  -1.481  -0.036  0.00  0.00     0.011 A 
ATOM     16  C   UNL d   1       2.986   0.388   0.041  0.00  0.00     0.030 A 
ATOM     17  C   UNL d   1       2.173  -1.914  -0.018  0.00  0.00     0.001 A 
ATOM     18  C   UNL d   1       3.232  -0.988   0.009  0.00  0.00     0.002 A 
ATOM     19  H   UNL d   1       1.749   2.933   0.107  0.00  0.00     0.169 HD
ENDROOT
BRANCH   5  20
ATOM     20  N   UNL d   1      -3.288  -0.842   2.306  0.00  0.00    -0.282 NA
ATOM     21  H   UNL d   1      -3.189  -0.306   3.165  0.00  0.00     0.126 HD
ATOM     22  H   UNL d   1      -4.246  -1.103   2.090  0.00  0.00     0.126 HD
ENDBRANCH   5  20
BRANCH   2  23
ATOM     23  C   UNL d   1      -1.037   0.892  -2.625  0.00  0.00     0.293 C 
ATOM     24  O   UNL d   1      -1.706   1.010  -3.637  0.00  0.00    -0.259 OA
BRANCH  23  25
ATOM     25  O   UNL d   1       0.299   1.103  -2.594  0.00  0.00    -0.316 OA
BRANCH  25  26
ATOM     26  C   UNL d   1       1.032   0.456  -3.642  0.00  0.00     0.205 C 
BRANCH  26  27
ATOM     27  C   UNL d   1       1.671   1.431  -4.621  0.00  0.00     0.193 C 
BRANCH  27  28
ATOM     28  O   UNL d   1       2.445   0.676  -5.559  0.00  0.00    -0.394 OA
ATOM     29  C   UNL d   1       3.068   1.509  -6.528  0.00  0.00     0.201 C 
ENDBRANCH  27  28
ENDBRANCH  26  27
ENDBRANCH  25  26
ENDBRANCH  23  25
ENDBRANCH   2  23
TORSDOF 6
