REMARK  7 active torsions:
REMARK  status: ('A' for Active; 'I' for Inactive)
REMARK    1  A    between atoms: N_11  and  C_1 
REMARK    2  A    between atoms: C_13  and  N_6 
REMARK    3  A    between atoms: N_9  and  C_16 
REMARK    4  A    between atoms: C_18  and  C_10 
REMARK    5  A    between atoms: C_14  and  C_13 
REMARK       I    between atoms: N_26  and  C_14 
REMARK    6  A    between atoms: C_17  and  C_25 
REMARK    7  A    between atoms: N_19  and  N_26 
ROOT
ATOM      1  C   UNL d   1       3.219   0.091  -0.149  0.00  0.00     0.257 C 
ATOM      2  N   UNL d   1       3.490  -1.217  -0.506  0.00  0.00    -0.269 N 
ATOM      3  O   UNL d   1       2.126   0.633  -0.345  0.00  0.00    -0.270 OA
ATOM      4  H   UNL d   1       4.381  -1.638  -0.221  0.00  0.00     0.190 HD
ENDROOT
BRANCH   2   5
ATOM      5  N   UNL d   1       2.478  -2.022  -0.995  0.00  0.00    -0.307 N 
ATOM      6  C   UNL d   1       2.822  -3.237  -1.275  0.00  0.00     0.144 C 
ATOM      7  HN  UNL d   1       1.526  -1.680  -1.126  1.00  0.00     0.186 HD
BRANCH   6   8
ATOM      8  C   UNL d   1       1.872  -4.244  -1.675  0.00  0.00     0.093 A 
ATOM      9  O   UNL d   1       1.701  -4.570  -3.004  0.00  0.00    -0.309 OA
ATOM     10  C   UNL d   1       0.832  -5.632  -3.042  0.00  0.00     0.086 A 
ATOM     11  C   UNL d   1       0.494  -6.009  -1.757  0.00  0.00     0.041 A 
ATOM     12  C   UNL d   1       1.148  -5.114  -0.889  0.00  0.00     0.041 A 
BRANCH  10  13
ATOM     13  C   UNL d   1       0.446  -6.195  -4.332  0.00  0.00     0.000 A 
ATOM     14  C   UNL d   1      -0.898  -6.537  -4.553  0.00  0.00     0.050 A 
ATOM     15  C   UNL d   1      -1.270  -7.250  -5.700  0.00  0.00     0.103 A 
ATOM     16  C   UNL d   1      -0.309  -7.627  -6.644  0.00  0.00     0.036 A 
ATOM     17  C   UNL d   1       1.024  -7.261  -6.441  0.00  0.00     0.003 A 
ATOM     18  C   UNL d   1       1.399  -6.544  -5.297  0.00  0.00     0.014 A 
BRANCH  15  19
ATOM     19  N   UNL d   1      -2.671  -7.651  -5.886  0.00  0.00    -0.116 N 
ATOM     20  O   UNL d   1      -3.479  -7.363  -4.990  0.00  0.00    -0.532 OA
ATOM     21  O   UNL d   1      -2.967  -8.255  -6.928  0.00  0.00    -0.532 OA
ENDBRANCH  15  19
ENDBRANCH  10  13
ENDBRANCH   6   8
ENDBRANCH   2   5
BRANCH   1  22
ATOM     22  C   UNL d   1       4.342   0.922   0.419  0.00  0.00     0.276 C 
BRANCH  22  23
ATOM     23  N   UNL d   1       5.475   0.270   1.045  0.00  0.00    -0.196 N 
ATOM     24  N   UNL d   1       5.788  -1.045   0.950  0.00  0.00    -0.113 N 
ATOM     25  C   UNL d   1       6.915  -1.077   1.686  0.00  0.00     0.712 A 
ATOM     26  HN  UNL d   1       5.307  -1.799   0.458  1.00  0.00     0.207 HD
ATOM     27  N   UNL d   1       7.278   0.169   2.138  0.00  0.00    -0.115 N 
ATOM     28  N   UNL d   1       6.361   1.021   1.719  0.00  0.00    -0.211 N 
ATOM     29  HN  UNL d   1       8.103   0.394   2.694  1.00  0.00     0.207 HD
ATOM     30  HN  UNL d   1       6.332   2.029   1.874  1.00  0.00     0.210 HD
BRANCH  25  31
ATOM     31  N   UNL d   1       7.678  -2.159   2.002  0.00  0.00    -0.211 N 
ATOM     32  C   UNL d   1       8.483  -2.061   3.242  0.00  0.00     0.167 C 
ATOM     33  C   UNL d   1       9.467  -3.231   3.376  0.00  0.00     0.188 C 
ATOM     34  O   UNL d   1       8.810  -4.497   3.230  0.00  0.00    -0.388 OA
ATOM     35  C   UNL d   1       8.196  -4.575   1.936  0.00  0.00     0.188 C 
ATOM     36  C   UNL d   1       7.116  -3.496   1.767  0.00  0.00     0.167 C 
ENDBRANCH  25  31
ENDBRANCH  22  23
ENDBRANCH   1  22
TORSDOF 7
