REMARK  5 active torsions:
REMARK  status: ('A' for Active; 'I' for Inactive)
REMARK    1  A    between atoms: C_8  and  C_1 
REMARK    2  A    between atoms: C_2  and  C_4 
REMARK    3  A    between atoms: C_3  and  C_12 
REMARK       I    between atoms: C_7  and  N_9 
REMARK    4  A    between atoms: C_13  and  C_7 
REMARK    5  A    between atoms: N_9  and  C_8 
ROOT
ATOM      1  C   UNL d   1      -1.563   4.177   0.001  0.00  0.00     0.251 C 
ATOM      2  N   UNL d   1      -1.404   2.812  -0.015  0.00  0.00    -0.353 N 
ATOM      3  O   UNL d   1      -0.652   4.969   0.193  0.00  0.00    -0.268 OA
ATOM      4  H   UNL d   1      -2.211   2.214  -0.132  0.00  0.00     0.163 HD
ENDROOT
BRANCH   2   5
ATOM      5  C   UNL d   1      -0.106   2.164   0.071  0.00  0.00     0.165 C 
BRANCH   5   6
ATOM      6  C   UNL d   1      -0.091   1.065   1.112  0.00  0.00     0.003 A 
ATOM      7  C   UNL d   1      -0.963  -0.038   1.010  0.00  0.00     0.044 A 
ATOM      8  C   UNL d   1      -0.976  -1.053   1.975  0.00  0.00     0.040 A 
ATOM      9 CL   UNL d   1      -2.072  -0.217  -0.309  0.00  0.00    -0.084 Cl
ATOM     10  C   UNL d   1      -0.107  -1.012   3.068  0.00  0.00     0.051 A 
ATOM     11  C   UNL d   1       0.785   0.062   3.168  0.00  0.00     0.040 A 
ATOM     12  C   UNL d   1       0.795   1.084   2.205  0.00  0.00     0.044 A 
ATOM     13 CL   UNL d   1       1.963   2.338   2.437  0.00  0.00    -0.084 Cl
BRANCH  10  14
ATOM     14  C   UNL d   1      -0.120  -2.097   4.117  0.00  0.00     0.417 C 
ATOM     15  F   UNL d   1      -1.048  -3.065   3.879  0.00  0.00    -0.166 F 
ATOM     16  F   UNL d   1       1.075  -2.739   4.214  0.00  0.00    -0.166 F 
ATOM     17  F   UNL d   1      -0.394  -1.614   5.359  0.00  0.00    -0.166 F 
ENDBRANCH  10  14
ENDBRANCH   5   6
ENDBRANCH   2   5
BRANCH   1  18
ATOM     18  C   UNL d   1      -2.951   4.679  -0.213  0.00  0.00     0.032 A 
ATOM     19  C   UNL d   1      -3.337   5.855   0.441  0.00  0.00     0.018 A 
ATOM     20  C   UNL d   1      -4.612   6.391   0.238  0.00  0.00     0.017 A 
ATOM     21  C   UNL d   1      -5.517   5.769  -0.635  0.00  0.00     0.048 A 
ATOM     22  C   UNL d   1      -5.123   4.591  -1.291  0.00  0.00     0.017 A 
ATOM     23  C   UNL d   1      -3.849   4.046  -1.081  0.00  0.00     0.018 A 
BRANCH  21  24
ATOM     24  C   UNL d   1      -6.883   6.362  -0.892  0.00  0.00     0.417 C 
ATOM     25  F   UNL d   1      -7.135   7.489  -0.169  0.00  0.00    -0.166 F 
ATOM     26  F   UNL d   1      -7.062   6.709  -2.197  0.00  0.00    -0.166 F 
ATOM     27  F   UNL d   1      -7.891   5.496  -0.594  0.00  0.00    -0.166 F 
ENDBRANCH  21  24
ENDBRANCH   1  18
TORSDOF 5
