REMARK  7 active torsions:
REMARK  status: ('A' for Active; 'I' for Inactive)
REMARK    1  A    between atoms: C_8  and  C_1 
REMARK    2  A    between atoms: C_7  and  C_2 
REMARK    3  A    between atoms: O_17  and  C_7 
REMARK    4  A    between atoms: C_16  and  C_8 
REMARK    5  A    between atoms: C_12  and  C_16 
REMARK    6  A    between atoms: O_19  and  C_12 
REMARK    7  A    between atoms: C_20  and  O_17 
ROOT
ATOM      1  C   UNL d   1      -1.589  -1.241   0.005  0.00  0.00    -0.011 A 
ATOM      2  C   UNL d   1      -2.414  -0.114   0.013  0.00  0.00     0.116 A 
ATOM      3  N   UNL d   1      -1.605   0.988  -0.030  0.00  0.00    -0.350 N 
ATOM      4  C   UNL d   1      -0.210  -0.763  -0.001  0.00  0.00     0.021 A 
ATOM      5  C   UNL d   1      -0.285   0.639  -0.011  0.00  0.00     0.047 A 
ATOM      6  C   UNL d   1       1.105  -1.297   0.001  0.00  0.00     0.048 A 
ATOM      7  C   UNL d   1       0.840   1.481  -0.009  0.00  0.00     0.054 A 
ATOM      8  C   UNL d   1       2.248  -0.481   0.002  0.00  0.00     0.048 A 
ATOM      9  C   UNL d   1       2.103   0.897   0.000  0.00  0.00     0.037 A 
ATOM     10 CL   UNL d   1       1.295  -2.995  -0.000  0.00  0.00    -0.083 Cl
ATOM     11 CL   UNL d   1       3.496   1.909   0.005  0.00  0.00    -0.084 Cl
ATOM     12  H   UNL d   1      -1.948   1.941  -0.050  0.00  0.00     0.166 HD
ENDROOT
BRANCH   1  13
ATOM     13  C   UNL d   1      -2.117  -2.663   0.001  0.00  0.00     0.052 C 
BRANCH  13  14
ATOM     14  C   UNL d   1      -2.983  -2.967  -1.224  0.00  0.00     0.115 C 
BRANCH  14  15
ATOM     15  C   UNL d   1      -3.609  -4.332  -1.147  0.00  0.00     0.139 C 
ATOM     16  O   UNL d   1      -3.101  -5.341  -1.613  0.00  0.00    -0.650 OA
BRANCH  15  17
ATOM     17  O   UNL d   1      -4.808  -4.345  -0.521  0.00  0.00    -0.776 OA
ATOM     18  H   UNL d   1      -5.102  -3.470  -0.191  0.00  0.00     0.167 HD
ENDBRANCH  15  17
ENDBRANCH  14  15
ENDBRANCH  13  14
ENDBRANCH   1  13
BRANCH   2  19
ATOM     19  C   UNL d   1      -3.857  -0.016   0.040  0.00  0.00     0.310 C 
ATOM     20  O   UNL d   1      -4.624  -0.881   0.453  0.00  0.00    -0.258 OA
BRANCH  19  21
ATOM     21  O   UNL d   1      -4.236   1.158  -0.538  0.00  0.00    -0.317 OA
BRANCH  21  22
ATOM     22  C   UNL d   1      -5.650   1.376  -0.658  0.00  0.00     0.175 C 
ATOM     23  C   UNL d   1      -6.247   0.583  -1.810  0.00  0.00     0.034 C 
ENDBRANCH  21  22
ENDBRANCH  19  21
ENDBRANCH   2  19
TORSDOF 7
