REMARK  8 active torsions:
REMARK  status: ('A' for Active; 'I' for Inactive)
REMARK    1  A    between atoms: C_13  and  C_3 
REMARK    2  A    between atoms: C_4  and  C_7 
REMARK    3  A    between atoms: C_8  and  C_6 
REMARK    4  A    between atoms: C_12  and  C_8 
REMARK    5  A    between atoms: O_28  and  C_12 
REMARK    6  A    between atoms: C_14  and  O_17 
REMARK    7  A    between atoms: O_17  and  C_24 
REMARK    8  A    between atoms: C_29  and  O_28 
ROOT
ATOM      1  C   UNL d   1      -0.122  -2.580  -0.075  0.00  0.00    -0.002 A 
ATOM      2  C   UNL d   1       0.421  -3.346   0.969  0.00  0.00     0.017 A 
ATOM      3  C   UNL d   1      -0.854  -3.251  -1.069  0.00  0.00     0.017 A 
ATOM      4  C   UNL d   1      -0.428  -5.391  -0.008  0.00  0.00     0.077 A 
ATOM      5  C   UNL d   1       0.252  -4.729   1.017  0.00  0.00     0.038 A 
ATOM      6  C   UNL d   1      -1.008  -4.643  -1.034  0.00  0.00     0.038 A 
ENDROOT
BRANCH   1   7
ATOM      7  C   UNL d   1       0.118  -1.126  -0.066  0.00  0.00     0.084 A 
ATOM      8  N   UNL d   1       0.914  -0.532   0.805  0.00  0.00    -0.352 N 
ATOM      9  C   UNL d   1       0.943   0.836   0.602  0.00  0.00     0.025 A 
ATOM     10  HN  UNL d   1       1.439  -1.018   1.531  1.00  0.00     0.166 HD
ATOM     11  C   UNL d   1       0.175   1.270  -0.461  0.00  0.00     0.077 A 
ATOM     12  S   UNL d   1      -0.622  -0.054  -1.192  0.00  0.00    -0.081 SA
BRANCH   9  13
ATOM     13  C   UNL d   1       1.810   1.659   1.493  0.00  0.00     0.168 C 
BRANCH  13  14
ATOM     14  C   UNL d   1       1.066   2.790   2.160  0.00  0.00     0.264 C 
ATOM     15  O   UNL d   1      -0.121   3.053   2.040  0.00  0.00    -0.265 OA
BRANCH  14  16
ATOM     16  O   UNL d   1       1.967   3.557   2.847  0.00  0.00    -0.322 OA
BRANCH  16  17
ATOM     17  C   UNL d   1       1.513   4.877   3.173  0.00  0.00     0.174 C 
ATOM     18  C   UNL d   1       1.808   5.779   1.987  0.00  0.00     0.034 C 
ENDBRANCH  16  17
ENDBRANCH  14  16
ENDBRANCH  13  14
ENDBRANCH   9  13
ENDBRANCH   1   7
BRANCH   4  19
ATOM     19  O   UNL d   1      -0.621  -6.752  -0.050  0.00  0.00    -0.294 OA
BRANCH  19  20
ATOM     20  C   UNL d   1       0.381  -7.559   0.473  0.00  0.00     0.147 A 
ATOM     21  N   UNL d   1       1.672  -7.170   0.365  0.00  0.00    -0.346 N 
ATOM     22  C   UNL d   1       2.600  -7.927   0.993  0.00  0.00     0.106 A 
ATOM     23  HN  UNL d   1       1.934  -6.340  -0.167  1.00  0.00     0.167 HD
ATOM     24  C   UNL d   1       2.299  -9.077   1.703  0.00  0.00     0.063 A 
ATOM     25  C   UNL d   1       0.963  -9.497   1.728  0.00  0.00     0.022 A 
ATOM     26  C   UNL d   1      -0.015  -8.729   1.100  0.00  0.00     0.057 A 
BRANCH  24  27
ATOM     27  C   UNL d   1       3.377  -9.817   2.433  0.00  0.00     0.418 C 
ATOM     28  F   UNL d   1       4.599  -9.222   2.354  0.00  0.00    -0.166 F 
ATOM     29  F   UNL d   1       3.109  -9.937   3.763  0.00  0.00    -0.166 F 
ATOM     30  F   UNL d   1       3.548 -11.085   1.971  0.00  0.00    -0.166 F 
ENDBRANCH  24  27
ENDBRANCH  19  20
ENDBRANCH   4  19
TORSDOF 8
