REMARK  3 active torsions:
REMARK  status: ('A' for Active; 'I' for Inactive)
REMARK    1  A    between atoms: C_6  and  C_1 
REMARK       I    between atoms: N_9  and  C_6 
REMARK    2  A    between atoms: C_7  and  C_12 
REMARK    3  A    between atoms: C_12  and  N_9 
ROOT
ATOM      1  C   UNL d   1      -3.899   0.024  -0.398  0.00  0.00     0.268 C 
ATOM      2  N   UNL d   1      -4.610  -1.153  -0.479  0.00  0.00    -0.351 N 
ATOM      3  O   UNL d   1      -4.426   1.120  -0.554  0.00  0.00    -0.266 OA
ATOM      4  H   UNL d   1      -4.149  -2.032  -0.297  0.00  0.00     0.163 HD
ENDROOT
BRANCH   1   5
ATOM      5  C   UNL d   1      -2.477  -0.118  -0.171  0.00  0.00     0.102 A 
ATOM      6  N   UNL d   1      -1.649   0.981  -0.116  0.00  0.00    -0.351 N 
ATOM      7  C   UNL d   1      -0.326   0.607  -0.066  0.00  0.00     0.044 A 
ATOM      8  H   UNL d   1      -1.981   1.935  -0.191  0.00  0.00     0.166 HD
ATOM      9  C   UNL d   1       0.832   1.393  -0.097  0.00  0.00     0.037 A 
ATOM     10  C   UNL d   1      -0.299  -0.784  -0.004  0.00  0.00    -0.001 A 
ATOM     11  C   UNL d   1       2.069   0.735  -0.089  0.00  0.00    -0.059 A 
ATOM     12  C   UNL d   1       3.351   1.512  -0.188  0.00  0.00     0.048 C 
ATOM     13  C   UNL d   1       2.116  -0.662  -0.029  0.00  0.00     0.014 A 
ATOM     14  C   UNL d   1       0.948  -1.452   0.023  0.00  0.00    -0.049 A 
ATOM     15  C   UNL d   1       1.094  -2.948   0.044  0.00  0.00     0.049 C 
ATOM     16  C   UNL d   1      -1.658  -1.223  -0.019  0.00  0.00     0.049 A 
ENDBRANCH   1   5
BRANCH   2  17
ATOM     17  C   UNL d   1      -6.004  -1.136  -0.861  0.00  0.00     0.163 C 
BRANCH  17  18
ATOM     18  C   UNL d   1      -6.604  -2.519  -0.950  0.00  0.00    -0.017 A 
ATOM     19  C   UNL d   1      -7.733  -2.914  -0.212  0.00  0.00     0.042 A 
ATOM     20  C   UNL d   1      -8.279  -4.194  -0.372  0.00  0.00     0.026 A 
ATOM     21 CL   UNL d   1      -8.521  -1.863   0.909  0.00  0.00    -0.084 Cl
ATOM     22  C   UNL d   1      -7.709  -5.100  -1.267  0.00  0.00     0.025 A 
ATOM     23  C   UNL d   1      -6.594  -4.720  -2.007  0.00  0.00     0.034 A 
ATOM     24  C   UNL d   1      -6.045  -3.446  -1.855  0.00  0.00     0.034 A 
ATOM     25 CL   UNL d   1      -5.893  -5.828  -3.119  0.00  0.00    -0.084 Cl
ENDBRANCH  17  18
ENDBRANCH   2  17
TORSDOF 3
