REMARK  5 active torsions:
REMARK  status: ('A' for Active; 'I' for Inactive)
REMARK    1  A    between atoms: C_3  and  C_1 
REMARK       I    between atoms: N_7  and  C_3 
REMARK    2  A    between atoms: C_10  and  C_5 
REMARK    3  A    between atoms: C_11  and  N_7 
REMARK    4  A    between atoms: C_12  and  N_8 
REMARK    5  A    between atoms: C_18  and  C_12 
ROOT
ATOM      1  C   UNL d   1       0.170  -2.683   0.418  0.00  0.00     0.254 C 
ATOM      2  N   UNL d   1      -0.797  -3.450  -0.171  0.00  0.00    -0.352 N 
ATOM      3  O   UNL d   1       1.309  -2.844  -0.011  0.00  0.00    -0.268 OA
ATOM      4  H   UNL d   1      -0.334  -4.093  -0.803  0.00  0.00     0.163 HD
ENDROOT
BRANCH   2   5
ATOM      5  C   UNL d   1      -2.260  -3.597  -0.085  0.00  0.00     0.088 C 
ATOM      6  C   UNL d   1      -2.722  -4.606  -1.152  0.00  0.00     0.055 C 
ATOM      7  C   UNL d   1      -2.541  -4.037  -2.568  0.00  0.00     0.275 C 
ATOM      8  N   UNL d   1      -3.185  -2.725  -2.778  0.00  0.00     0.092 N 
ATOM      9  C   UNL d   1      -2.837  -1.761  -1.722  0.00  0.00     0.275 C 
ATOM     10  C   UNL d   1      -3.066  -2.320  -0.320  0.00  0.00     0.055 C 
BRANCH   8  11
ATOM     11  C   UNL d   1      -2.770  -2.213  -4.108  0.00  0.00     0.311 C 
BRANCH  11  12
ATOM     12  C   UNL d   1      -3.373  -0.887  -4.521  0.00  0.00    -0.030 A 
ATOM     13  C   UNL d   1      -2.548   0.232  -4.723  0.00  0.00     0.009 A 
ATOM     14  C   UNL d   1      -3.085   1.446  -5.156  0.00  0.00     0.001 A 
ATOM     15  C   UNL d   1      -4.453   1.555  -5.393  0.00  0.00     0.000 A 
ATOM     16  C   UNL d   1      -5.285   0.455  -5.189  0.00  0.00     0.001 A 
ATOM     17  C   UNL d   1      -4.749  -0.760  -4.753  0.00  0.00     0.009 A 
ENDBRANCH  11  12
ENDBRANCH   8  11
ENDBRANCH   2   5
BRANCH   1  18
ATOM     18  C   UNL d   1      -0.115  -1.735   1.480  0.00  0.00     0.064 A 
ATOM     19  C   UNL d   1      -1.160  -1.718   2.442  0.00  0.00     0.057 A 
ATOM     20  C   UNL d   1      -0.942  -0.647   3.286  0.00  0.00     0.087 A 
ATOM     21  O   UNL d   1       0.192   0.004   2.906  0.00  0.00    -0.314 OA
ATOM     22  C   UNL d   1       0.699  -0.662   1.828  0.00  0.00     0.065 A 
ATOM     23  C   UNL d   1       1.974  -0.118   1.297  0.00  0.00     0.077 C 
BRANCH  20  24
ATOM     24  C   UNL d   1      -1.643  -0.153   4.463  0.00  0.00    -0.002 A 
ATOM     25  C   UNL d   1      -1.029   0.686   5.406  0.00  0.00     0.014 A 
ATOM     26  C   UNL d   1      -1.702   1.052   6.577  0.00  0.00     0.001 A 
ATOM     27  C   UNL d   1      -2.997   0.593   6.815  0.00  0.00     0.000 A 
ATOM     28  C   UNL d   1      -3.632  -0.210   5.873  0.00  0.00     0.001 A 
ATOM     29  C   UNL d   1      -2.960  -0.574   4.705  0.00  0.00     0.014 A 
ENDBRANCH  20  24
ENDBRANCH   1  18
TORSDOF 5
