REMARK  7 active torsions:
REMARK  status: ('A' for Active; 'I' for Inactive)
REMARK    1  A    between atoms: C_4  and  N_1 
REMARK    2  A    between atoms: C_2  and  C_7 
REMARK       I    between atoms: N_5  and  C_2 
REMARK       I    between atoms: C_3  and  N_6 
REMARK    3  A    between atoms: C_11  and  C_3 
REMARK    4  A    between atoms: N_6  and  N_5 
REMARK    5  A    between atoms: C_12  and  C_11 
REMARK    6  A    between atoms: C_20  and  C_17 
REMARK    7  A    between atoms: C_25  and  C_20 
ROOT
ATOM      1  C   UNL d   1      -2.473  -5.965   3.797  0.00  0.00     0.244 C 
ATOM      2  N   UNL d   1      -1.509  -5.369   3.010  0.00  0.00    -0.267 N 
ATOM      3  O   UNL d   1      -3.671  -5.834   3.524  0.00  0.00    -0.271 OA
ATOM      4  H   UNL d   1      -0.509  -5.370   3.210  0.00  0.00     0.190 HD
ENDROOT
BRANCH   2   5
ATOM      5  N   UNL d   1      -1.931  -4.563   1.925  0.00  0.00    -0.263 N 
ATOM      6  C   UNL d   1      -0.969  -3.877   1.208  0.00  0.00     0.270 C 
ATOM      7  O   UNL d   1       0.230  -3.998   1.474  0.00  0.00    -0.266 OA
ATOM      8  H   UNL d   1      -2.929  -4.580   1.727  0.00  0.00     0.190 HD
BRANCH   6   9
ATOM      9  C   UNL d   1      -1.396  -2.953   0.106  0.00  0.00     0.036 A 
ATOM     10  C   UNL d   1      -0.385  -2.381  -0.689  0.00  0.00     0.053 A 
ATOM     11  C   UNL d   1      -0.707  -1.444  -1.684  0.00  0.00     0.103 A 
ATOM     12  C   UNL d   1      -2.035  -1.061  -1.900  0.00  0.00     0.036 A 
ATOM     13  C   UNL d   1      -3.042  -1.643  -1.126  0.00  0.00     0.003 A 
ATOM     14  C   UNL d   1      -2.729  -2.585  -0.132  0.00  0.00     0.017 A 
BRANCH  11  15
ATOM     15  N   UNL d   1       0.360  -0.849  -2.500  0.00  0.00    -0.116 N 
ATOM     16  O   UNL d   1       1.516  -1.255  -2.323  0.00  0.00    -0.532 OA
ATOM     17  O   UNL d   1       0.039   0.019  -3.324  0.00  0.00    -0.532 OA
ENDBRANCH  11  15
ENDBRANCH   6   9
ENDBRANCH   2   5
BRANCH   1  18
ATOM     18  C   UNL d   1      -2.009  -6.829   4.981  0.00  0.00     0.108 C 
ATOM     19  C   UNL d   1      -0.829  -6.272   5.783  0.00  0.00     0.025 C 
BRANCH  18  20
ATOM     20  C   UNL d   1      -1.759  -8.284   4.611  0.00  0.00    -0.045 A 
ATOM     21  C   UNL d   1      -0.797  -8.648   3.661  0.00  0.00     0.008 A 
ATOM     22  C   UNL d   1      -0.514  -9.994   3.413  0.00  0.00     0.007 A 
ATOM     23  C   UNL d   1      -1.183 -11.010   4.108  0.00  0.00    -0.058 A 
ATOM     24  C   UNL d   1      -2.156 -10.651   5.045  0.00  0.00     0.007 A 
ATOM     25  C   UNL d   1      -2.443  -9.306   5.291  0.00  0.00     0.008 A 
BRANCH  23  26
ATOM     26  C   UNL d   1      -0.803 -12.457   3.881  0.00  0.00     0.042 C 
BRANCH  26  27
ATOM     27  C   UNL d   1      -1.950 -13.379   3.422  0.00  0.00    -0.019 C 
ATOM     28  C   UNL d   1      -2.523 -12.957   2.067  0.00  0.00     0.010 C 
ATOM     29  C   UNL d   1      -1.448 -14.824   3.337  0.00  0.00     0.010 C 
ENDBRANCH  26  27
ENDBRANCH  23  26
ENDBRANCH  18  20
ENDBRANCH   1  18
TORSDOF 7
