REMARK  0 active torsions:
REMARK  status: ('A' for Active; 'I' for Inactive)
ROOT
ATOM      1  C   UNL d   1      -0.587  -1.041   0.894  0.00  0.00     0.032 A 
ATOM      2  C   UNL d   1       0.983  -1.206   0.726  0.00  0.00     0.076 A 
ATOM      3  C   UNL d   1      -1.259  -0.915  -0.552  0.00  0.00     0.141 C 
ATOM      4  C   UNL d   1      -0.351   0.437   1.322  0.00  0.00     0.012 A 
ATOM      5  C   UNL d   1      -0.636   0.347  -1.128  0.00  0.00     0.072 C 
ATOM      6  C   UNL d   1       0.912   0.182  -1.292  0.00  0.00     0.072 C 
ATOM      7  C   UNL d   1       1.378  -1.191  -0.816  0.00  0.00     0.138 C 
ATOM      8  C   UNL d   1       1.165   0.273   1.157  0.00  0.00     0.008 A 
ATOM      9  C   UNL d   1      -0.741   1.311   0.097  0.00  0.00     0.004 C 
ATOM     10  C   UNL d   1       1.457   1.085  -0.141  0.00  0.00     0.003 C 
ATOM     11  C   UNL d   1       0.458   2.228  -0.064  0.00  0.00     0.011 C 
ATOM     12  O   UNL d   1      -2.042  -1.638  -1.146  0.00  0.00    -0.297 OA
ATOM     13  O   UNL d   1       1.915  -2.031  -1.516  0.00  0.00    -0.297 OA
ATOM     14  C   UNL d   1      -1.323  -1.925   1.870  0.00  0.00     0.025 C 
ENDROOT
TORSDOF 0
