REMARK  3 active torsions:
REMARK  status: ('A' for Active; 'I' for Inactive)
REMARK    1  A    between atoms: N_2  and  C_1 
REMARK    2  A    between atoms: C_8  and  C_5 
REMARK    3  A    between atoms: N_12  and  N_6 
ROOT
ATOM      1  C   UNL d   1      -0.135   1.058  -0.004  0.00  0.00     0.215 A 
ATOM      2  O   UNL d   1      -0.994   0.001  -0.010  0.00  0.00    -0.287 OA
ATOM      3  C   UNL d   1       1.177   0.648  -0.007  0.00  0.00     0.065 A 
ATOM      4  C   UNL d   1      -0.213  -1.125  -0.018  0.00  0.00     0.095 A 
ATOM      5  C   UNL d   1       1.125  -0.767  -0.017  0.00  0.00     0.043 A 
ENDROOT
BRANCH   4   6
ATOM      6  C   UNL d   1      -0.854  -2.415  -0.022  0.00  0.00     0.144 C 
ATOM      7  N   UNL d   1      -0.118  -3.476  -0.033  0.00  0.00    -0.312 N 
ATOM      8  HN  UNL d   1       0.897  -3.382  -0.050  1.00  0.00     0.185 HD
BRANCH   7   9
ATOM      9  N   UNL d   1      -0.669  -4.706  -0.022  0.00  0.00    -0.337 N 
ATOM     10  C   UNL d   1      -2.071  -5.087  -0.009  0.00  0.00     0.170 C 
ATOM     11  C   UNL d   1       0.228  -5.854  -0.075  0.00  0.00     0.170 C 
ENDBRANCH   7   9
ENDBRANCH   4   6
BRANCH   1  12
ATOM     12  N   UNL d   1      -0.718   2.363   0.006  0.00  0.00    -0.090 N 
ATOM     13  O   UNL d   1       0.073   3.316   0.014  0.00  0.00    -0.530 OA
ATOM     14  O   UNL d   1      -1.953   2.444   0.006  0.00  0.00    -0.530 OA
ENDBRANCH   1  12
TORSDOF 3
