REMARK  7 active torsions:
REMARK  status: ('A' for Active; 'I' for Inactive)
REMARK    1  A    between atoms: C_8  and  C_1 
REMARK    2  A    between atoms: O_15  and  C_2 
REMARK    3  A    between atoms: C_3  and  C_16 
REMARK    4  A    between atoms: C_17  and  N_5 
REMARK    5  A    between atoms: S_13  and  C_20 
REMARK    6  A    between atoms: C_16  and  S_13 
REMARK    7  A    between atoms: C_20  and  C_17 
ROOT
ATOM      1  N   UNL d   1      -4.142  -2.357  -0.052  0.00  0.00    -0.397 N 
ATOM      2  HN  UNL d   1      -4.700  -1.504  -0.076  1.00  0.00     0.158 HD
ATOM      3  C   UNL d   1      -2.848  -2.372  -0.022  0.00  0.00     0.097 C 
ENDROOT
BRANCH   1   4
ATOM      4  C   UNL d   1      -4.715  -3.714  -0.046  0.00  0.00     0.129 C 
BRANCH   4   5
ATOM      5  C   UNL d   1      -6.239  -3.606   0.024  0.00  0.00     0.093 C 
BRANCH   5   6
ATOM      6  S   UNL d   1      -7.061  -5.233  -0.020  0.00  0.00    -0.163 SA
BRANCH   6   7
ATOM      7  C   UNL d   1      -6.479  -5.913   1.566  0.00  0.00     0.114 C 
BRANCH   7   8
ATOM      8  C   UNL d   1      -6.930  -7.338   1.760  0.00  0.00    -0.027 A 
ATOM      9  C   UNL d   1      -6.204  -8.435   1.269  0.00  0.00     0.041 A 
ATOM     10 CL   UNL d   1      -4.724  -8.241   0.394  0.00  0.00    -0.084 Cl
ATOM     11  C   UNL d   1      -6.658  -9.741   1.483  0.00  0.00     0.024 A 
ATOM     12  C   UNL d   1      -7.843  -9.965   2.183  0.00  0.00     0.002 A 
ATOM     13  C   UNL d   1      -8.580  -8.886   2.663  0.00  0.00     0.001 A 
ATOM     14  C   UNL d   1      -8.130  -7.582   2.450  0.00  0.00     0.009 A 
ENDBRANCH   7   8
ENDBRANCH   6   7
ENDBRANCH   5   6
ENDBRANCH   4   5
ENDBRANCH   1   4
BRANCH   3  15
ATOM     15  C   UNL d   1      -2.074  -1.116  -0.003  0.00  0.00     0.013 A 
ATOM     16  C   UNL d   1      -2.703   0.134  -0.001  0.00  0.00     0.077 A 
ATOM     17  C   UNL d   1      -1.948   1.302   0.024  0.00  0.00     0.039 A 
ATOM     18  C   UNL d   1      -0.554   1.225   0.048  0.00  0.00     0.022 A 
ATOM     19  C   UNL d   1       0.072  -0.022   0.047  0.00  0.00     0.011 A 
ATOM     20  C   UNL d   1      -0.678  -1.198   0.022  0.00  0.00     0.034 A 
ATOM     21 BR   UNL d   1       1.960  -0.120   0.081  0.00  0.00    -0.051 Br
BRANCH  16  22
ATOM     22  O   UNL d   1      -4.063   0.280  -0.023  0.00  0.00    -0.360 OA
ATOM     23  H   UNL d   1      -4.446  -0.628  -0.052  0.00  0.00     0.217 HD
ENDBRANCH  16  22
ENDBRANCH   3  15
TORSDOF 7
