REMARK  2 active torsions:
REMARK  status: ('A' for Active; 'I' for Inactive)
REMARK    1  A    between atoms: C_8  and  C_2 
REMARK    2  A    between atoms: S_9  and  C_5 
ROOT
ATOM      1  N   UNL d   1      -1.576  -0.255   0.969  0.00  0.00    -0.324 N 
ATOM      2  C   UNL d   1      -1.839   0.669  -0.015  0.00  0.00     0.105 A 
ATOM      3  N   UNL d   1      -0.867   0.613  -0.906  0.00  0.00    -0.286 N 
ATOM      4  HN  UNL d   1      -0.795   1.183  -1.748  1.00  0.00     0.188 HD
ATOM      5  C   UNL d   1      -0.408  -0.855   0.619  0.00  0.00     0.157 A 
ATOM      6  N   UNL d   1       0.035  -0.349  -0.504  0.00  0.00    -0.279 N 
ATOM      7  HN  UNL d   1       0.889  -0.618  -0.992  1.00  0.00     0.189 HD
ATOM      8  H   UNL d   1      -2.135  -0.447   1.784  0.00  0.00     0.169 HD
ENDROOT
BRANCH   2   9
ATOM      9  C   UNL d   1      -3.044   1.577  -0.030  0.00  0.00     0.009 C 
ATOM     10  C   UNL d   1      -3.045   2.480   1.215  0.00  0.00     0.023 C 
ATOM     11  C   UNL d   1      -3.012   2.472  -1.285  0.00  0.00     0.023 C 
ATOM     12  C   UNL d   1      -4.338   0.745  -0.059  0.00  0.00     0.023 C 
ENDBRANCH   2   9
BRANCH   5  13
ATOM     13  S   UNL d   1       0.325  -2.091   1.565  0.00  0.00    -0.106 SA
ATOM     14  H   UNL d   1      -0.565  -2.185   2.559  0.00  0.00     0.110 HD
ENDBRANCH   5  13
TORSDOF 2
