REMARK  3 active torsions:
REMARK  status: ('A' for Active; 'I' for Inactive)
REMARK    1  A    between atoms: C_2  and  N_1 
REMARK    2  A    between atoms: C_3  and  C_5 
REMARK    3  A    between atoms: C_4  and  C_6 
ROOT
ATOM      1  C   UNL d   1       0.080  -2.310  -0.259  0.00  0.00     0.046 A 
ATOM      2  C   UNL d   1      -0.502  -4.247  -1.624  0.00  0.00     0.050 A 
ATOM      3  C   UNL d   1       0.994  -4.506   0.296  0.00  0.00     0.050 A 
ATOM      4  C   UNL d   1      -0.634  -2.884  -1.321  0.00  0.00     0.046 A 
ATOM      5  C   UNL d   1       0.890  -3.129   0.540  0.00  0.00     0.046 A 
ATOM      6  C   UNL d   1       0.301  -5.054  -0.798  0.00  0.00     0.032 A 
ENDROOT
BRANCH   1   7
ATOM      7  N   UNL d   1       0.025  -0.897  -0.032  0.00  0.00    -0.252 N 
ATOM      8  C   UNL d   1       1.245  -0.202  -0.016  0.00  0.00     0.231 C 
ATOM      9  O   UNL d   1       2.355  -0.736  -0.078  0.00  0.00    -0.273 OA
ATOM     10  C   UNL d   1       1.178   1.307   0.086  0.00  0.00     0.104 C 
ATOM     11  C   UNL d   1      -0.161   1.867  -0.337  0.00  0.00     0.019 C 
ATOM     12  C   UNL d   1      -1.240   1.162   0.450  0.00  0.00     0.104 C 
ATOM     13  C   UNL d   1      -1.241  -0.308   0.113  0.00  0.00     0.231 C 
ATOM     14  O   UNL d   1      -2.312  -0.917   0.079  0.00  0.00    -0.273 OA
ENDBRANCH   1   7
BRANCH   2  15
ATOM     15  C   UNL d   1      -1.172  -4.843  -2.839  0.00  0.00     0.417 C 
ATOM     16  F   UNL d   1      -1.864  -3.935  -3.583  0.00  0.00    -0.166 F 
ATOM     17  F   UNL d   1      -0.277  -5.417  -3.690  0.00  0.00    -0.166 F 
ATOM     18  F   UNL d   1      -2.061  -5.820  -2.516  0.00  0.00    -0.166 F 
ENDBRANCH   2  15
BRANCH   3  19
ATOM     19  C   UNL d   1       1.844  -5.392   1.175  0.00  0.00     0.417 C 
ATOM     20  F   UNL d   1       2.437  -4.731   2.207  0.00  0.00    -0.166 F 
ATOM     21  F   UNL d   1       1.123  -6.397   1.744  0.00  0.00    -0.166 F 
ATOM     22  F   UNL d   1       2.848  -5.996   0.485  0.00  0.00    -0.166 F 
ENDBRANCH   3  19
TORSDOF 3
