REMARK  5 active torsions:
REMARK  status: ('A' for Active; 'I' for Inactive)
REMARK    1  A    between atoms: C_12  and  C_1 
REMARK    2  A    between atoms: N_10  and  C_6 
REMARK    3  A    between atoms: N_11  and  C_7 
REMARK       I    between atoms: C_13  and  N_10 
REMARK       I    between atoms: C_14  and  N_11 
REMARK    4  A    between atoms: C_20  and  C_13 
REMARK    5  A    between atoms: C_19  and  C_14 
ROOT
ATOM      1  C   UNL d   1      -1.301  -0.194  -0.088  0.00  0.00     0.147 A 
ATOM      2  N   UNL d   1      -0.506  -1.256  -0.143  0.00  0.00    -0.174 N 
ATOM      3  HN  UNL d   1      -0.865  -2.209  -0.198  1.00  0.00     0.186 HD
ATOM      4  N   UNL d   1      -0.864   1.054  -0.018  0.00  0.00    -0.174 N 
ATOM      5  HN  UNL d   1      -1.507   1.845   0.003  1.00  0.00     0.186 HD
ATOM      6  C   UNL d   1       0.794  -0.982  -0.122  0.00  0.00     0.701 A 
ATOM      7  C   UNL d   1       0.440   1.222   0.022  0.00  0.00     0.701 A 
ATOM      8  N   UNL d   1       1.318   0.237  -0.056  0.00  0.00    -0.022 N 
ATOM      9  HN  UNL d   1       2.325   0.401  -0.065  1.00  0.00     0.203 HD
ENDROOT
BRANCH   1  10
ATOM     10  C   UNL d   1      -2.767  -0.364  -0.118  0.00  0.00     0.015 A 
ATOM     11  C   UNL d   1      -3.464  -1.435   0.486  0.00  0.00    -0.048 A 
ATOM     12  C   UNL d   1      -2.801  -2.545   1.260  0.00  0.00     0.049 C 
ATOM     13  C   UNL d   1      -4.871  -1.494   0.390  0.00  0.00     0.007 A 
ATOM     14  C   UNL d   1      -5.598  -0.494  -0.259  0.00  0.00     0.001 A 
ATOM     15  C   UNL d   1      -4.932   0.579  -0.826  0.00  0.00     0.001 A 
ATOM     16  C   UNL d   1      -3.540   0.639  -0.758  0.00  0.00     0.016 A 
ENDBRANCH   1  10
BRANCH   6  17
ATOM     17  N   UNL d   1       1.599  -2.115  -0.123  0.00  0.00    -0.159 N 
ATOM     18  C   UNL d   1       2.965  -2.127  -0.226  0.00  0.00     0.235 C 
ATOM     19  O   UNL d   1       3.685  -1.142  -0.362  0.00  0.00    -0.273 OA
ATOM     20  H   UNL d   1       1.075  -2.979  -0.081  0.00  0.00     0.187 HD
BRANCH  18  21
ATOM     21  C   UNL d   1       3.534  -3.533  -0.140  0.00  0.00     0.099 C 
ATOM     22  C   UNL d   1       5.018  -3.560  -0.469  0.00  0.00     0.014 C 
ENDBRANCH  18  21
ENDBRANCH   6  17
BRANCH   7  23
ATOM     23  N   UNL d   1       0.963   2.505   0.168  0.00  0.00    -0.159 N 
ATOM     24  C   UNL d   1       0.196   3.602   0.489  0.00  0.00     0.235 C 
ATOM     25  O   UNL d   1      -1.009   3.599   0.717  0.00  0.00    -0.273 OA
ATOM     26  H   UNL d   1       1.970   2.552   0.134  0.00  0.00     0.187 HD
BRANCH  24  27
ATOM     27  C   UNL d   1       0.994   4.890   0.546  0.00  0.00     0.099 C 
ATOM     28  C   UNL d   1       0.120   6.053   0.995  0.00  0.00     0.014 C 
ENDBRANCH  24  27
ENDBRANCH   7  23
TORSDOF 5
