REMARK  3 active torsions:
REMARK  status: ('A' for Active; 'I' for Inactive)
REMARK       I    between atoms: N_2  and  C_1 
REMARK    1  A    between atoms: O_3  and  C_1 
REMARK    2  A    between atoms: C_4  and  O_3 
REMARK    3  A    between atoms: C_5  and  C_4 
ROOT
ATOM      1  C   UNL d   1       0.904   0.186   0.077  0.00  0.00     0.363 C 
ATOM      2  N   UNL d   1       0.346  -0.158   1.295  0.00  0.00    -0.327 N 
ATOM      3  O   UNL d   1       1.902   0.884  -0.025  0.00  0.00    -0.238 OA
ATOM      4  S   UNL d   1      -1.367   0.565   3.865  0.00  0.00    -0.166 SA
ATOM      5  C   UNL d   1       1.044   0.207   2.530  0.00  0.00     0.138 C 
ATOM      6  C   UNL d   1      -0.952  -0.815   1.459  0.00  0.00     0.138 C 
ATOM      7  C   UNL d   1       0.267   1.215   3.376  0.00  0.00     0.093 C 
ATOM      8  C   UNL d   1      -1.959   0.066   2.210  0.00  0.00     0.093 C 
ENDROOT
BRANCH   1   9
ATOM      9  O   UNL d   1       0.237  -0.323  -0.998  0.00  0.00    -0.285 OA
BRANCH   9  10
ATOM     10  C   UNL d   1       0.740   0.004  -2.315  0.00  0.00     0.125 C 
ATOM     11  C   UNL d   1       2.104  -0.660  -2.575  0.00  0.00     0.055 C 
ATOM     12  C   UNL d   1      -0.253  -0.598  -3.326  0.00  0.00     0.055 C 
BRANCH  10  13
ATOM     13  C   UNL d   1       0.768   1.525  -2.609  0.00  0.00     0.157 C 
ATOM     14  O   UNL d   1       1.611   2.039  -3.352  0.00  0.00    -0.295 OA
ATOM     15  C   UNL d   1      -0.332   2.371  -2.015  0.00  0.00     0.094 C 
ENDBRANCH  10  13
ENDBRANCH   9  10
ENDBRANCH   1   9
TORSDOF 3
