REMARK  3 active torsions:
REMARK  status: ('A' for Active; 'I' for Inactive)
REMARK    1  A    between atoms: C_8  and  N_1 
REMARK    2  A    between atoms: N_10  and  C_7 
REMARK    3  A    between atoms: C_13  and  N_10 
ROOT
ATOM      1  N   UNL d   1       0.575   1.411   0.022  0.00  0.00    -0.220 N 
ATOM      2  C   UNL d   1       0.068  -0.775   0.001  0.00  0.00     0.073 A 
ATOM      3  N   UNL d   1      -0.824   1.343   0.048  0.00  0.00    -0.294 N 
ATOM      4  HN  UNL d   1      -1.475   2.127   0.081  1.00  0.00     0.187 HD
ATOM      5  C   UNL d   1       1.207   0.162  -0.012  0.00  0.00     0.280 A 
ATOM      6  C   UNL d   1      -1.127   0.070   0.023  0.00  0.00     0.039 A 
ATOM      7  C   UNL d   1       0.195  -2.108   0.009  0.00  0.00     0.107 C 
ATOM      8  O   UNL d   1       2.379  -0.170  -0.042  0.00  0.00    -0.265 OA
ATOM      9  C   UNL d   1      -2.520  -0.459   0.020  0.00  0.00     0.071 C 
ENDROOT
BRANCH   7  10
ATOM     10  N   UNL d   1       1.387  -2.787   0.071  0.00  0.00    -0.365 N 
ATOM     11  H   UNL d   1       2.224  -2.196   0.140  0.00  0.00     0.165 HD
BRANCH  10  12
ATOM     12  C   UNL d   1       1.637  -4.160  -0.026  0.00  0.00     0.032 A 
ATOM     13  C   UNL d   1       0.752  -5.055  -0.633  0.00  0.00     0.031 A 
ATOM     14  C   UNL d   1       1.030  -6.426  -0.663  0.00  0.00     0.026 A 
ATOM     15  C   UNL d   1       2.183  -6.913  -0.054  0.00  0.00     0.034 A 
ATOM     16  C   UNL d   1       3.065  -6.043   0.577  0.00  0.00     0.026 A 
ATOM     17 CL   UNL d   1       2.518  -8.600  -0.082  0.00  0.00    -0.084 Cl
ATOM     18  C   UNL d   1       2.791  -4.673   0.588  0.00  0.00     0.031 A 
ENDBRANCH  10  12
ENDBRANCH   7  10
BRANCH   1  19
ATOM     19  C   UNL d   1       1.202   2.679  -0.035  0.00  0.00     0.060 A 
ATOM     20  C   UNL d   1       2.580   2.799  -0.255  0.00  0.00     0.032 A 
ATOM     21  C   UNL d   1       3.186   4.054  -0.367  0.00  0.00     0.009 A 
ATOM     22  C   UNL d   1       2.428   5.219  -0.244  0.00  0.00    -0.062 A 
ATOM     23  C   UNL d   1       1.057   5.112   0.004  0.00  0.00     0.009 A 
ATOM     24  C   UNL d   1       3.089   6.553  -0.417  0.00  0.00     0.048 C 
ATOM     25  C   UNL d   1       0.451   3.853   0.105  0.00  0.00     0.032 A 
ENDBRANCH   1  19
TORSDOF 3
