REMARK  3 active torsions:
REMARK  status: ('A' for Active; 'I' for Inactive)
REMARK    1  A    between atoms: C_13  and  C_6 
REMARK    2  A    between atoms: C_8  and  C_11 
REMARK    3  A    between atoms: O_26  and  C_24 
ROOT
ATOM      1  N   UNL d   1      -1.679   1.480  -0.227  0.00  0.00    -0.305 N 
ATOM      2  HN  UNL d   1      -1.364   2.363  -0.628  1.00  0.00     0.186 HD
ATOM      3  C   UNL d   1      -0.959   0.446   0.076  0.00  0.00     0.043 C 
ATOM      4  N   UNL d   1      -2.945   1.128   0.110  0.00  0.00    -0.322 N 
ATOM      5  C   UNL d   1      -1.717  -0.712   0.669  0.00  0.00     0.067 C 
ATOM      6  C   UNL d   1      -3.147  -0.330   0.252  0.00  0.00     0.144 C 
ATOM      7  C   UNL d   1       0.494   0.345  -0.033  0.00  0.00    -0.005 A 
ATOM      8  C   UNL d   1       1.036  -0.932  -0.227  0.00  0.00    -0.043 A 
ATOM      9  C   UNL d   1      -1.143  -2.093   0.372  0.00  0.00     0.018 C 
ATOM     10  C   UNL d   1       1.304   1.466   0.125  0.00  0.00     0.017 A 
ATOM     11  C   UNL d   1       0.110  -2.088  -0.514  0.00  0.00     0.040 C 
ATOM     12  C   UNL d   1       2.431  -1.077  -0.246  0.00  0.00     0.044 A 
ATOM     13  C   UNL d   1      -4.077   1.921  -0.325  0.00  0.00     0.171 C 
ATOM     14  C   UNL d   1       3.259   0.035  -0.053  0.00  0.00     0.068 A 
ATOM     15  C   UNL d   1       2.689   1.303   0.121  0.00  0.00     0.037 A 
ENDROOT
BRANCH   6  16
ATOM     16  C   UNL d   1      -3.757  -0.996  -0.972  0.00  0.00    -0.033 A 
ATOM     17  C   UNL d   1      -3.145  -0.989  -2.235  0.00  0.00     0.010 A 
ATOM     18  C   UNL d   1      -3.809  -1.503  -3.354  0.00  0.00     0.017 A 
ATOM     19  C   UNL d   1      -5.105  -2.028  -3.245  0.00  0.00     0.047 A 
ATOM     20  C   UNL d   1      -5.707  -2.068  -1.980  0.00  0.00     0.017 A 
ATOM     21  C   UNL d   1      -5.041  -1.559  -0.863  0.00  0.00     0.010 A 
BRANCH  19  22
ATOM     22  C   UNL d   1      -5.872  -2.508  -4.454  0.00  0.00     0.417 C 
ATOM     23  F   UNL d   1      -5.184  -2.386  -5.623  0.00  0.00    -0.166 F 
ATOM     24  F   UNL d   1      -6.221  -3.821  -4.363  0.00  0.00    -0.166 F 
ATOM     25  F   UNL d   1      -7.039  -1.826  -4.637  0.00  0.00    -0.166 F 
ENDBRANCH  19  22
ENDBRANCH   6  16
BRANCH  14  26
ATOM     26  O   UNL d   1       4.627   0.024  -0.019  0.00  0.00    -0.356 OA
ATOM     27  C   UNL d   1       5.268  -1.238  -0.143  0.00  0.00     0.210 C 
ENDBRANCH  14  26
TORSDOF 3
