REMARK  3 active torsions:
REMARK  status: ('A' for Active; 'I' for Inactive)
REMARK    1  A    between atoms: N_9  and  N_4 
REMARK       I    between atoms: C_10  and  N_9 
REMARK    2  A    between atoms: C_14  and  C_10 
REMARK    3  A    between atoms: N_17  and  C_16 
ROOT
ATOM      1  C   UNL d   1      -2.398   0.658  -0.436  0.00  0.00     0.085 C 
ATOM      2  C   UNL d   1      -2.533  -0.607   0.365  0.00  0.00     0.207 C 
ATOM      3  C   UNL d   1      -2.421  -0.469   1.844  0.00  0.00     0.028 A 
ATOM      4  N   UNL d   1      -3.258   1.027  -1.342  0.00  0.00    -0.297 N 
ATOM      5  HN  UNL d   1      -3.165   1.921  -1.824  1.00  0.00     0.187 HD
ATOM      6  C   UNL d   1      -1.232   1.530   0.001  0.00  0.00     0.004 C 
ATOM      7  C   UNL d   1      -1.958   0.773   2.348  0.00  0.00    -0.042 A 
ATOM      8  C   UNL d   1      -2.747  -1.517   2.726  0.00  0.00    -0.047 A 
ATOM      9  C   UNL d   1      -1.569   1.936   1.449  0.00  0.00     0.054 C 
ATOM     10  O   UNL d   1      -2.733  -1.641  -0.256  0.00  0.00    -0.285 OA
ATOM     11  C   UNL d   1      -1.873   0.969   3.735  0.00  0.00     0.014 A 
ATOM     12  C   UNL d   1      -2.628  -1.287   4.111  0.00  0.00     0.014 A 
ATOM     13  C   UNL d   1      -2.203  -0.055   4.622  0.00  0.00    -0.061 A 
ATOM     14  C   UNL d   1       0.087   0.731  -0.055  0.00  0.00     0.022 C 
ATOM     15  C   UNL d   1      -1.080   2.773  -0.882  0.00  0.00     0.022 C 
ATOM     16  C   UNL d   1      -3.222  -2.886   2.321  0.00  0.00     0.049 C 
ATOM     17  C   UNL d   1      -2.105   0.148   6.106  0.00  0.00     0.048 C 
ENDROOT
BRANCH   4  18
ATOM     18  N   UNL d   1      -4.297   0.171  -1.627  0.00  0.00    -0.266 N 
ATOM     19  C   UNL d   1      -5.225   0.503  -2.613  0.00  0.00     0.270 C 
ATOM     20  O   UNL d   1      -5.219   1.550  -3.255  0.00  0.00    -0.266 OA
ATOM     21  H   UNL d   1      -4.252  -0.779  -1.264  0.00  0.00     0.190 HD
BRANCH  19  22
ATOM     22  C   UNL d   1      -6.273  -0.526  -2.904  0.00  0.00     0.033 A 
ATOM     23  C   UNL d   1      -6.716  -1.452  -1.960  0.00  0.00     0.019 A 
ATOM     24  C   UNL d   1      -7.719  -2.385  -2.292  0.00  0.00     0.030 A 
ATOM     25  C   UNL d   1      -8.329  -2.430  -3.559  0.00  0.00     0.029 A 
ATOM     26  C   UNL d   1      -7.879  -1.472  -4.481  0.00  0.00     0.030 A 
ATOM     27  C   UNL d   1      -6.874  -0.536  -4.166  0.00  0.00     0.019 A 
BRANCH  25  28
ATOM     28  N   UNL d   1      -9.317  -3.349  -3.864  0.00  0.00    -0.390 N 
ATOM     29  C   UNL d   1      -9.377  -4.670  -3.245  0.00  0.00     0.149 C 
ATOM     30  C   UNL d   1     -10.348  -3.103  -4.869  0.00  0.00     0.149 C 
ENDBRANCH  25  28
ENDBRANCH  19  22
ENDBRANCH   4  18
TORSDOF 3
