REMARK  3 active torsions:
REMARK  status: ('A' for Active; 'I' for Inactive)
REMARK    1  A    between atoms: N_7  and  C_1 
REMARK       I    between atoms: C_4  and  N_9 
REMARK    2  A    between atoms: C_8  and  C_4 
REMARK    3  A    between atoms: C_25  and  C_10 
ROOT
ATOM      1  C   UNL d   1       7.503  -2.696  -0.867  0.00  0.00     0.254 C 
ATOM      2  N   UNL d   1       3.632  -1.236   0.012  0.00  0.00    -0.363 N 
ATOM      3  N   UNL d   1       6.221  -2.184  -0.686  0.00  0.00    -0.345 N 
ATOM      4  C   UNL d   1       4.646  -1.355   1.065  0.00  0.00     0.144 C 
ATOM      5  C   UNL d   1       3.706  -2.341  -0.951  0.00  0.00     0.144 C 
ATOM      6  C   UNL d   1       6.028  -1.203   0.398  0.00  0.00     0.146 C 
ATOM      7  C   UNL d   1       5.089  -2.311  -1.628  0.00  0.00     0.146 C 
ATOM      8  O   UNL d   1       8.449  -2.407  -0.136  0.00  0.00    -0.267 OA
ENDROOT
BRANCH   2   9
ATOM      9  C   UNL d   1       2.429  -0.575   0.154  0.00  0.00     0.127 A 
ATOM     10  N   UNL d   1       1.343  -1.179  -0.386  0.00  0.00    -0.339 N 
ATOM     11  C   UNL d   1       0.163  -0.528  -0.395  0.00  0.00     0.060 A 
ATOM     12  HN  UNL d   1       1.418  -2.117  -0.781  1.00  0.00     0.167 HD
ATOM     13  C   UNL d   1      -0.942  -1.111  -1.005  0.00  0.00     0.032 A 
ATOM     14  C   UNL d   1       0.033   0.747   0.178  0.00  0.00     0.059 A 
ATOM     15  C   UNL d   1      -2.174  -0.454  -1.060  0.00  0.00     0.002 A 
ATOM     16  C   UNL d   1      -2.302   0.805  -0.489  0.00  0.00     0.002 A 
ATOM     17  C   UNL d   1      -1.196   1.393   0.131  0.00  0.00     0.032 A 
ATOM     18  N   UNL d   1       1.085   1.361   0.745  0.00  0.00    -0.355 N 
ATOM     19  C   UNL d   1       2.288   0.721   0.694  0.00  0.00     0.053 A 
ATOM     20  HN  UNL d   1       0.988   2.271   1.195  1.00  0.00     0.166 HD
BRANCH  19  21
ATOM     21  C   UNL d   1       3.455   1.528   1.214  0.00  0.00     0.056 C 
ATOM     22  C   UNL d   1       3.320   3.035   1.038  0.00  0.00     0.011 C 
ENDBRANCH  19  21
ENDBRANCH   2   9
BRANCH   1  23
ATOM     23  C   UNL d   1       7.753  -3.726  -1.901  0.00  0.00     0.035 A 
ATOM     24  C   UNL d   1       7.409  -3.554  -3.243  0.00  0.00     0.041 A 
ATOM     25  C   UNL d   1       7.569  -4.618  -4.129  0.00  0.00     0.036 A 
ATOM     26 CL   UNL d   1       7.019  -4.458  -5.751  0.00  0.00    -0.084 Cl
ATOM     27  C   UNL d   1       8.137  -5.819  -3.708  0.00  0.00     0.047 A 
ATOM     28  C   UNL d   1       8.559  -5.948  -2.388  0.00  0.00     0.036 A 
ATOM     29  C   UNL d   1       8.367  -4.912  -1.479  0.00  0.00     0.041 A 
ATOM     30 CL   UNL d   1       9.302  -7.410  -1.867  0.00  0.00    -0.084 Cl
ENDBRANCH   1  23
TORSDOF 3
