REMARK  4 active torsions:
REMARK  status: ('A' for Active; 'I' for Inactive)
REMARK    1  A    between atoms: C_3  and  C_1 
REMARK       I    between atoms: N_8  and  C_3 
REMARK    2  A    between atoms: N_5  and  C_9 
REMARK    3  A    between atoms: C_15  and  C_6 
REMARK    4  A    between atoms: C_13  and  N_8 
ROOT
ATOM      1  C   UNL d   1       0.241  -2.632   0.214  0.00  0.00     0.258 C 
ATOM      2  N   UNL d   1      -0.789  -3.547   0.372  0.00  0.00    -0.323 N 
ATOM      3  O   UNL d   1       1.414  -2.937   0.025  0.00  0.00    -0.267 OA
ATOM      4  H   UNL d   1      -1.727  -3.179   0.428  0.00  0.00     0.169 HD
ENDROOT
BRANCH   1   5
ATOM      5  C   UNL d   1      -0.170  -1.231   0.234  0.00  0.00     0.064 A 
ATOM      6  C   UNL d   1      -1.463  -0.648   0.417  0.00  0.00     0.057 A 
ATOM      7  C   UNL d   1      -1.323   0.719   0.299  0.00  0.00     0.087 A 
ATOM      8  O   UNL d   1      -0.011   1.021   0.090  0.00  0.00    -0.314 OA
ATOM      9  C   UNL d   1       0.684  -0.151   0.053  0.00  0.00     0.065 A 
ATOM     10  C   UNL d   1       2.140   0.002  -0.174  0.00  0.00     0.077 C 
BRANCH   7  11
ATOM     11  C   UNL d   1      -2.254   1.842   0.339  0.00  0.00    -0.002 A 
ATOM     12  C   UNL d   1      -1.803   3.160   0.505  0.00  0.00     0.014 A 
ATOM     13  C   UNL d   1      -2.707   4.224   0.558  0.00  0.00     0.001 A 
ATOM     14  C   UNL d   1      -4.074   3.986   0.439  0.00  0.00     0.000 A 
ATOM     15  C   UNL d   1      -4.538   2.685   0.263  0.00  0.00     0.001 A 
ATOM     16  C   UNL d   1      -3.634   1.622   0.213  0.00  0.00     0.014 A 
ENDBRANCH   7  11
ENDBRANCH   1   5
BRANCH   2  17
ATOM     17  C   UNL d   1      -0.676  -4.953   0.291  0.00  0.00     0.037 A 
ATOM     18  C   UNL d   1       0.547  -5.628   0.286  0.00  0.00     0.065 A 
ATOM     19  C   UNL d   1       0.581  -7.017   0.099  0.00  0.00     0.105 A 
ATOM     20  C   UNL d   1      -0.603  -7.746  -0.057  0.00  0.00     0.036 A 
ATOM     21  C   UNL d   1      -1.826  -7.079  -0.003  0.00  0.00     0.005 A 
ATOM     22  C   UNL d   1      -1.862  -5.692   0.179  0.00  0.00     0.029 A 
BRANCH  19  23
ATOM     23  N   UNL d   1       1.877  -7.707   0.052  0.00  0.00    -0.116 N 
ATOM     24  O   UNL d   1       2.901  -7.040   0.244  0.00  0.00    -0.532 OA
ATOM     25  O   UNL d   1       1.865  -8.926  -0.174  0.00  0.00    -0.532 OA
ENDBRANCH  19  23
ENDBRANCH   2  17
TORSDOF 4
