REMARK  4 active torsions:
REMARK  status: ('A' for Active; 'I' for Inactive)
REMARK    1  A    between atoms: C_3  and  C_1 
REMARK       I    between atoms: N_7  and  C_1 
REMARK       I    between atoms: C_2  and  N_8 
REMARK    2  A    between atoms: C_4  and  C_2 
REMARK    3  A    between atoms: C_5  and  N_7 
REMARK    4  A    between atoms: N_8  and  C_6 
ROOT
ATOM      1  C   UNL d   1      -1.443  -0.497  -0.804  0.00  0.00     0.065 A 
ATOM      2  C   UNL d   1      -1.831  -1.842  -0.995  0.00  0.00     0.063 A 
ATOM      3  C   UNL d   1      -2.419   0.513  -0.893  0.00  0.00     0.076 A 
ATOM      4  C   UNL d   1      -3.206  -2.127  -1.158  0.00  0.00     0.058 A 
ATOM      5  C   UNL d   1      -4.163  -1.114  -1.187  0.00  0.00     0.074 A 
ATOM      6  C   UNL d   1      -3.761   0.204  -1.080  0.00  0.00     0.140 A 
ATOM      7 CL   UNL d   1      -5.826  -1.524  -1.350  0.00  0.00    -0.081 Cl
ATOM      8  F   UNL d   1      -4.655   1.202  -1.141  0.00  0.00    -0.204 F 
ENDROOT
BRANCH   1   9
ATOM      9  N   UNL d   1      -0.116  -0.143  -0.483  0.00  0.00    -0.321 N 
ATOM     10  C   UNL d   1       0.257   0.969   0.249  0.00  0.00     0.257 C 
ATOM     11  O   UNL d   1      -0.482   1.816   0.740  0.00  0.00    -0.267 OA
ATOM     12  H   UNL d   1       0.594  -0.864  -0.628  0.00  0.00     0.169 HD
BRANCH  10  13
ATOM     13  C   UNL d   1       1.688   1.053   0.577  0.00  0.00     0.054 A 
ATOM     14  C   UNL d   1       2.658   1.348  -0.382  0.00  0.00     0.049 A 
ATOM     15 CL   UNL d   1       2.272   1.615  -2.042  0.00  0.00    -0.083 Cl
ATOM     16  C   UNL d   1       3.993   1.474   0.014  0.00  0.00     0.025 A 
ATOM     17  C   UNL d   1       4.352   1.309   1.356  0.00  0.00     0.002 A 
ATOM     18  C   UNL d   1       3.377   1.025   2.312  0.00  0.00     0.001 A 
ATOM     19  C   UNL d   1       2.043   0.903   1.925  0.00  0.00     0.019 A 
ENDBRANCH  10  13
ENDBRANCH   1   9
BRANCH   2  20
ATOM     20  N   UNL d   1      -1.021  -3.004  -0.992  0.00  0.00    -0.321 N 
ATOM     21  C   UNL d   1       0.344  -3.182  -0.989  0.00  0.00     0.257 C 
ATOM     22  O   UNL d   1       1.184  -2.291  -0.951  0.00  0.00    -0.267 OA
ATOM     23  H   UNL d   1      -1.550  -3.867  -1.077  0.00  0.00     0.169 HD
BRANCH  21  24
ATOM     24  C   UNL d   1       0.803  -4.614  -0.956  0.00  0.00     0.054 A 
ATOM     25  C   UNL d   1       0.108  -5.699  -1.517  0.00  0.00     0.049 A 
ATOM     26 CL   UNL d   1      -1.314  -5.530  -2.490  0.00  0.00    -0.083 Cl
ATOM     27  C   UNL d   1       0.566  -7.009  -1.323  0.00  0.00     0.025 A 
ATOM     28  C   UNL d   1       1.730  -7.247  -0.594  0.00  0.00     0.002 A 
ATOM     29  C   UNL d   1       2.455  -6.178  -0.078  0.00  0.00     0.001 A 
ATOM     30  C   UNL d   1       1.998  -4.869  -0.261  0.00  0.00     0.019 A 
ENDBRANCH  21  24
ENDBRANCH   2  20
TORSDOF 4
