REMARK  12 active torsions:
REMARK  status: ('A' for Active; 'I' for Inactive)
REMARK    1  A    between atoms: N_4  and  C_1 
REMARK    2  A    between atoms: N_14  and  C_1 
REMARK    3  A    between atoms: C_2  and  N_3 
REMARK    4  A    between atoms: N_13  and  C_2 
REMARK    5  A    between atoms: N_7  and  C_18 
REMARK    6  A    between atoms: N_8  and  C_17 
REMARK    7  A    between atoms: C_26  and  N_13 
REMARK    8  A    between atoms: C_25  and  N_14 
REMARK    9  A    between atoms: C_17  and  C_20 
REMARK   10  A    between atoms: C_18  and  C_19 
REMARK   11  A    between atoms: C_19  and  C_25 
REMARK   12  A    between atoms: C_20  and  C_26 
ROOT
ATOM      1  N   UNL d   1      -0.462   2.055   3.450  0.00  0.00    -0.355 N 
ATOM      2  N   UNL d   1       0.011   1.073   0.795  0.00  0.00    -0.355 N 
ATOM      3  C   UNL d   1       0.532   2.725   2.599  0.00  0.00     0.145 C 
ATOM      4  C   UNL d   1      -0.701   0.638   3.132  0.00  0.00     0.145 C 
ATOM      5  C   UNL d   1      -1.025   0.457   1.635  0.00  0.00     0.145 C 
ATOM      6  C   UNL d   1       0.274   2.491   1.107  0.00  0.00     0.145 C 
ENDROOT
BRANCH   1   7
ATOM      7  C   UNL d   1      -1.298   2.711   4.351  0.00  0.00     0.169 C 
ATOM      8  S   UNL d   1      -2.080   4.151   4.046  0.00  0.00    -0.041 SA
BRANCH   7   9
ATOM      9  N   UNL d   1      -1.402   1.986   5.512  0.00  0.00    -0.367 N 
ATOM     10  H   UNL d   1      -0.553   1.466   5.696  0.00  0.00     0.161 HD
BRANCH   9  11
ATOM     11  C   UNL d   1      -2.288   2.170   6.661  0.00  0.00     0.123 C 
BRANCH  11  12
ATOM     12  C   UNL d   1      -2.090   0.961   7.570  0.00  0.00     0.039 C 
BRANCH  12  13
ATOM     13  C   UNL d   1      -3.139   0.769   8.668  0.00  0.00     0.118 C 
BRANCH  13  14
ATOM     14  N   UNL d   1      -2.766  -0.392   9.473  0.00  0.00    -0.408 N 
ATOM     15  C   UNL d   1      -2.780  -1.705   8.820  0.00  0.00     0.143 C 
ATOM     16  C   UNL d   1      -3.823  -2.716   9.322  0.00  0.00     0.187 C 
ATOM     17  O   UNL d   1      -3.908  -2.741  10.746  0.00  0.00    -0.388 OA
ATOM     18  C   UNL d   1      -4.271  -1.439  11.221  0.00  0.00     0.187 C 
ATOM     19  C   UNL d   1      -3.192  -0.406  10.873  0.00  0.00     0.143 C 
ENDBRANCH  13  14
ENDBRANCH  12  13
ENDBRANCH  11  12
ENDBRANCH   9  11
ENDBRANCH   7   9
ENDBRANCH   1   7
BRANCH   2  20
ATOM     20  C   UNL d   1       0.864   0.268   0.040  0.00  0.00     0.169 C 
ATOM     21  S   UNL d   1       2.532   0.342   0.113  0.00  0.00    -0.041 SA
BRANCH  20  22
ATOM     22  N   UNL d   1       0.153  -0.574  -0.771  0.00  0.00    -0.367 N 
ATOM     23  H   UNL d   1      -0.855  -0.416  -0.776  0.00  0.00     0.161 HD
BRANCH  22  24
ATOM     24  C   UNL d   1       0.587  -1.675  -1.611  0.00  0.00     0.123 C 
BRANCH  24  25
ATOM     25  C   UNL d   1      -0.381  -1.940  -2.777  0.00  0.00     0.050 C 
BRANCH  25  26
ATOM     26  C   UNL d   1      -1.866  -2.085  -2.380  0.00  0.00     0.274 C 
BRANCH  26  27
ATOM     27  N   UNL d   1      -2.429  -0.900  -1.706  0.00  0.00     0.092 N 
ATOM     28  C   UNL d   1      -2.533   0.294  -2.583  0.00  0.00     0.298 C 
ATOM     29  C   UNL d   1      -3.698   0.248  -3.580  0.00  0.00     0.198 C 
ATOM     30  O   UNL d   1      -4.944   0.051  -2.902  0.00  0.00    -0.388 OA
ATOM     31  C   UNL d   1      -4.918  -1.160  -2.139  0.00  0.00     0.198 C 
ATOM     32  C   UNL d   1      -3.763  -1.165  -1.124  0.00  0.00     0.298 C 
ENDBRANCH  26  27
ENDBRANCH  25  26
ENDBRANCH  24  25
ENDBRANCH  22  24
ENDBRANCH  20  22
ENDBRANCH   2  20
TORSDOF 12
