REMARK  5 active torsions:
REMARK  status: ('A' for Active; 'I' for Inactive)
REMARK    1  A    between atoms: C_7  and  C_1 
REMARK    2  A    between atoms: O_15  and  C_7 
REMARK    3  A    between atoms: N_9  and  N_8 
REMARK    4  A    between atoms: C_11  and  C_12 
REMARK    5  A    between atoms: C_21  and  O_15 
ROOT
ATOM      1  C   UNL d   1      -0.127   1.315  -0.085  0.00  0.00     0.109 A 
ATOM      2  C   UNL d   1      -0.337   2.681  -0.093  0.00  0.00     0.153 A 
ATOM      3  N   UNL d   1       1.913   2.356   0.038  0.00  0.00    -0.302 N 
ATOM      4  HN  UNL d   1       2.915   2.539   0.093  1.00  0.00     0.186 HD
ATOM      5  N   UNL d   1       0.910   3.245  -0.032  0.00  0.00    -0.283 N 
ATOM      6  C   UNL d   1       1.291   1.174   0.018  0.00  0.00     0.042 A 
ATOM      7  N   UNL d   1      -1.461   3.446  -0.123  0.00  0.00    -0.283 N 
ATOM      8  C   UNL d   1       2.069  -0.091   0.042  0.00  0.00     0.071 C 
ATOM      9  H   UNL d   1       1.141   4.229  -0.005  0.00  0.00     0.188 HD
ATOM     10  H   UNL d   1      -1.369   4.464  -0.129  0.00  0.00     0.188 HD
ENDROOT
BRANCH   1  11
ATOM     11  C   UNL d   1      -1.093   0.242  -0.216  0.00  0.00     0.299 C 
ATOM     12  O   UNL d   1      -0.865  -0.906   0.158  0.00  0.00    -0.259 OA
BRANCH  11  13
ATOM     13  O   UNL d   1      -2.181   0.596  -0.958  0.00  0.00    -0.318 OA
BRANCH  13  14
ATOM     14  C   UNL d   1      -2.943  -0.480  -1.508  0.00  0.00     0.174 C 
ATOM     15  C   UNL d   1      -2.333  -0.835  -2.852  0.00  0.00     0.034 C 
ENDBRANCH  13  14
ENDBRANCH  11  13
ENDBRANCH   1  11
BRANCH   7  16
ATOM     16  N   UNL d   1      -2.571   2.961   0.486  0.00  0.00    -0.303 N 
ATOM     17  C   UNL d   1      -3.736   3.410   0.138  0.00  0.00     0.034 C 
ATOM     18  C   UNL d   1      -3.929   4.435  -0.964  0.00  0.00     0.070 C 
ATOM     19  HN  UNL d   1      -2.489   2.249   1.211  1.00  0.00     0.186 HD
BRANCH  17  20
ATOM     20  C   UNL d   1      -4.943   2.831   0.809  0.00  0.00     0.009 A 
ATOM     21  C   UNL d   1      -4.944   2.450   2.163  0.00  0.00     0.046 A 
ATOM     22 CL   UNL d   1      -3.629   2.740   3.252  0.00  0.00    -0.083 Cl
ATOM     23  C   UNL d   1      -6.075   1.840   2.721  0.00  0.00     0.025 A 
ATOM     24  C   UNL d   1      -7.217   1.624   1.951  0.00  0.00     0.002 A 
ATOM     25  C   UNL d   1      -7.230   2.007   0.614  0.00  0.00     0.001 A 
ATOM     26  C   UNL d   1      -6.098   2.593   0.041  0.00  0.00     0.015 A 
ENDBRANCH  17  20
ENDBRANCH   7  16
TORSDOF 5
