REMARK  5 active torsions:
REMARK  status: ('A' for Active; 'I' for Inactive)
REMARK    1  A    between atoms: N_2  and  C_1 
REMARK    2  A    between atoms: N_9  and  C_1 
REMARK    3  A    between atoms: C_3  and  N_2 
REMARK    4  A    between atoms: N_5  and  N_9 
REMARK    5  A    between atoms: C_18  and  C_17 
ROOT
ATOM      1  N   UNL d   1       0.704  -0.414   0.992  0.00  0.00    -0.277 N 
ATOM      2  H   UNL d   1       1.222  -0.657   1.831  0.00  0.00     0.189 HD
ENDROOT
BRANCH   1   3
ATOM      3  N   UNL d   1      -0.627  -0.692   0.885  0.00  0.00    -0.309 N 
ATOM      4  C   UNL d   1      -1.115  -1.367   1.877  0.00  0.00     0.118 C 
ATOM      5  HN  UNL d   1      -1.191  -0.394   0.089  1.00  0.00     0.186 HD
BRANCH   4   6
ATOM      6  C   UNL d   1      -2.556  -1.662   1.972  0.00  0.00    -0.018 A 
ATOM      7  C   UNL d   1      -3.441  -1.201   0.989  0.00  0.00     0.038 A 
ATOM      8  C   UNL d   1      -4.814  -1.413   1.133  0.00  0.00     0.056 A 
ATOM      9 CL   UNL d   1      -5.852  -0.801  -0.103  0.00  0.00    -0.083 Cl
ATOM     10  C   UNL d   1      -5.301  -2.089   2.259  0.00  0.00     0.055 A 
ATOM     11  C   UNL d   1      -4.412  -2.565   3.228  0.00  0.00     0.026 A 
ATOM     12 CL   UNL d   1      -6.989  -2.357   2.518  0.00  0.00    -0.083 Cl
ATOM     13  C   UNL d   1      -3.038  -2.352   3.087  0.00  0.00     0.014 A 
ENDBRANCH   4   6
ENDBRANCH   1   3
BRANCH   1  14
ATOM     14  C   UNL d   1       1.381   0.272   0.009  0.00  0.00     0.186 C 
ATOM     15  S   UNL d   1       2.985   0.662   0.251  0.00  0.00    -0.040 SA
BRANCH  14  16
ATOM     16  N   UNL d   1       0.619   0.546  -1.098  0.00  0.00    -0.361 N 
ATOM     17  H   UNL d   1      -0.302   0.123  -1.020  0.00  0.00     0.162 HD
BRANCH  16  18
ATOM     18  C   UNL d   1       1.123   0.901  -2.410  0.00  0.00     0.088 C 
ATOM     19  C   UNL d   1       1.803  -0.279  -3.146  0.00  0.00     0.009 C 
ATOM     20  C   UNL d   1       1.814   0.243  -4.582  0.00  0.00     0.011 C 
ATOM     21  C   UNL d   1       0.841  -1.479  -3.261  0.00  0.00     0.007 C 
ATOM     22  C   UNL d   1       0.296   0.417  -4.627  0.00  0.00    -0.012 C 
ATOM     23  C   UNL d   1       0.029   1.330  -3.411  0.00  0.00     0.030 C 
ATOM     24  C   UNL d   1      -0.189  -1.002  -4.293  0.00  0.00     0.005 C 
ENDBRANCH  16  18
ENDBRANCH  14  16
ENDBRANCH   1  14
TORSDOF 5
