REMARK  7 active torsions:
REMARK  status: ('A' for Active; 'I' for Inactive)
REMARK    1  A    between atoms: S_2  and  C_1 
REMARK    2  A    between atoms: N_9  and  S_2 
REMARK    3  A    between atoms: C_16  and  N_9 
REMARK    4  A    between atoms: C_10  and  C_18 
REMARK    5  A    between atoms: C_20  and  C_16 
REMARK    6  A    between atoms: S_17  and  C_20 
REMARK    7  A    between atoms: C_18  and  S_17 
ROOT
ATOM      1  N   UNL d   1       0.200  -5.255   1.333  0.00  0.00    -0.315 N 
ATOM      2  H   UNL d   1       0.223  -6.102   1.910  0.00  0.00     0.172 HD
ENDROOT
BRANCH   1   3
ATOM      3  S   UNL d   1      -1.259  -4.422   1.407  0.00  0.00     0.262 S 
ATOM      4  O   UNL d   1      -1.132  -3.250   0.580  0.00  0.00    -0.200 OA
ATOM      5  O   UNL d   1      -1.649  -4.336   2.795  0.00  0.00    -0.200 OA
BRANCH   3   6
ATOM      6  C   UNL d   1      -2.483  -5.417   0.693  0.00  0.00     0.127 A 
ATOM      7  C   UNL d   1      -3.271  -5.161  -0.477  0.00  0.00     0.065 A 
ATOM      8  C   UNL d   1      -4.135  -6.196  -0.748  0.00  0.00     0.095 A 
ATOM      9 BR   UNL d   1      -3.186  -3.610  -1.566  0.00  0.00    -0.047 Br
ATOM     10 CL   UNL d   1      -5.264  -6.345  -2.040  0.00  0.00    -0.075 Cl
ATOM     11  S   UNL d   1      -4.026  -7.464   0.366  0.00  0.00    -0.063 SA
ATOM     12  C   UNL d   1      -2.834  -6.633   1.243  0.00  0.00     0.101 A 
ATOM     13 CL   UNL d   1      -2.227  -7.403   2.662  0.00  0.00    -0.074 Cl
ENDBRANCH   3   6
ENDBRANCH   1   3
BRANCH   1  14
ATOM     14  C   UNL d   1       0.861  -5.358   0.018  0.00  0.00     0.142 C 
BRANCH  14  15
ATOM     15  C   UNL d   1       2.155  -6.171   0.127  0.00  0.00     0.094 C 
BRANCH  15  16
ATOM     16  S   UNL d   1       1.898  -7.846   0.827  0.00  0.00    -0.163 SA
BRANCH  16  17
ATOM     17  C   UNL d   1       0.957  -8.608  -0.533  0.00  0.00     0.114 C 
BRANCH  17  18
ATOM     18  C   UNL d   1       0.544 -10.020  -0.203  0.00  0.00    -0.027 A 
ATOM     19  C   UNL d   1       1.247 -11.152  -0.638  0.00  0.00     0.041 A 
ATOM     20 CL   UNL d   1       2.679 -11.028  -1.595  0.00  0.00    -0.084 Cl
ATOM     21  C   UNL d   1       0.798 -12.437  -0.309  0.00  0.00     0.024 A 
ATOM     22  C   UNL d   1      -0.348 -12.609   0.468  0.00  0.00     0.002 A 
ATOM     23  C   UNL d   1      -1.045 -11.496   0.924  0.00  0.00     0.001 A 
ATOM     24  C   UNL d   1      -0.602 -10.217   0.590  0.00  0.00     0.009 A 
ENDBRANCH  17  18
ENDBRANCH  16  17
ENDBRANCH  15  16
ENDBRANCH  14  15
ENDBRANCH   1  14
TORSDOF 7
