REMARK  4 active torsions:
REMARK  status: ('A' for Active; 'I' for Inactive)
REMARK    1  A    between atoms: C_5  and  N_1 
REMARK    2  A    between atoms: S_7  and  C_4 
REMARK    3  A    between atoms: C_10  and  S_7 
REMARK    4  A    between atoms: N_18  and  C_15 
ROOT
ATOM      1  N   UNL d   1      -0.012   0.876  -0.032  0.00  0.00    -0.251 N 
ATOM      2  C   UNL d   1      -1.138   0.109   0.158  0.00  0.00     0.232 A 
ATOM      3  C   UNL d   1       1.111   0.089  -0.178  0.00  0.00     0.245 A 
ATOM      4  C   UNL d   1       0.698  -1.365  -0.212  0.00  0.00     0.154 A 
ATOM      5  C   UNL d   1      -0.791  -1.342   0.051  0.00  0.00     0.129 A 
ATOM      6  O   UNL d   1      -2.289   0.471   0.363  0.00  0.00    -0.273 OA
ATOM      7  O   UNL d   1       2.282   0.446  -0.218  0.00  0.00    -0.271 OA
ENDROOT
BRANCH   4   8
ATOM      8  S   UNL d   1       1.135  -2.071  -1.843  0.00  0.00    -0.113 SA
BRANCH   8   9
ATOM      9  C   UNL d   1       0.541  -3.754  -1.630  0.00  0.00     0.022 A 
ATOM     10  C   UNL d   1      -0.410  -4.288  -2.527  0.00  0.00     0.022 A 
ATOM     11  C   UNL d   1      -0.900  -5.579  -2.300  0.00  0.00     0.024 A 
ATOM     12  C   UNL d   1      -0.393  -6.365  -1.265  0.00  0.00     0.002 A 
ATOM     13  C   UNL d   1       0.587  -5.855  -0.418  0.00  0.00     0.001 A 
ATOM     14  C   UNL d   1       1.053  -4.552  -0.598  0.00  0.00     0.020 A 
BRANCH  10  15
ATOM     15  N   UNL d   1      -1.045  -3.478  -3.491  0.00  0.00    -0.302 NA
ATOM     16  H   UNL d   1      -0.446  -2.707  -3.781  0.00  0.00     0.124 HD
ATOM     17  H   UNL d   1      -1.410  -3.999  -4.282  0.00  0.00     0.124 HD
ENDBRANCH  10  15
ENDBRANCH   8   9
ENDBRANCH   4   8
BRANCH   1  18
ATOM     18  C   UNL d   1      -0.015   2.305  -0.099  0.00  0.00     0.047 A 
ATOM     19  C   UNL d   1      -1.076   3.064   0.420  0.00  0.00     0.055 A 
ATOM     20  C   UNL d   1      -1.139   4.455   0.252  0.00  0.00     0.053 A 
ATOM     21 CL   UNL d   1      -2.504   5.278   0.923  0.00  0.00    -0.083 Cl
ATOM     22  C   UNL d   1      -0.129   5.119  -0.443  0.00  0.00     0.032 A 
ATOM     23  C   UNL d   1       0.956   4.391  -0.929  0.00  0.00     0.023 A 
ATOM     24 BR   UNL d   1      -0.167   6.984  -0.788  0.00  0.00    -0.049 Br
ATOM     25  C   UNL d   1       1.016   3.003  -0.749  0.00  0.00     0.031 A 
ENDBRANCH   1  18
TORSDOF 4
