REMARK  6 active torsions:
REMARK  status: ('A' for Active; 'I' for Inactive)
REMARK    1  A    between atoms: C_2  and  C_1 
REMARK    2  A    between atoms: C_4  and  C_1 
REMARK    3  A    between atoms: C_3  and  C_2 
REMARK    4  A    between atoms: C_5  and  C_4 
REMARK    5  A    between atoms: C_12  and  C_4 
REMARK    6  A    between atoms: O_13  and  C_5 
ROOT
ATOM      1  C   UNL d   1       2.719   0.094  -0.089  0.00  0.00     0.125 C 
ENDROOT
BRANCH   1   2
ATOM      2  C   UNL d   1       1.195   0.108   0.124  0.00  0.00     0.103 C 
BRANCH   2   3
ATOM      3  C   UNL d   1       0.551  -1.266  -0.012  0.00  0.00     0.167 C 
ATOM      4  O   UNL d   1       1.218  -2.285   0.188  0.00  0.00    -0.292 OA
BRANCH   3   5
ATOM      5  C   UNL d   1      -0.866  -1.322  -0.386  0.00  0.00     0.050 A 
ATOM      6  S   UNL d   1      -1.905   0.033  -0.213  0.00  0.00    -0.098 SA
ATOM      7  C   UNL d   1      -3.216  -0.780  -0.943  0.00  0.00     0.050 A 
ATOM      8  C   UNL d   1      -2.900  -2.082  -1.257  0.00  0.00     0.009 A 
ATOM      9  C   UNL d   1      -1.557  -2.407  -0.896  0.00  0.00     0.023 A 
ENDBRANCH   3   5
ENDBRANCH   2   3
ENDBRANCH   1   2
BRANCH   1  10
ATOM     10  C   UNL d   1       3.063  -0.434  -1.479  0.00  0.00     0.267 C 
ATOM     11  O   UNL d   1       2.300  -0.392  -2.442  0.00  0.00    -0.265 OA
BRANCH  10  12
ATOM     12  O   UNL d   1       4.350  -0.877  -1.525  0.00  0.00    -0.326 OA
ATOM     13  C   UNL d   1       4.794  -1.244  -2.833  0.00  0.00     0.213 C 
ENDBRANCH  10  12
ENDBRANCH   1  10
BRANCH   1  14
ATOM     14  C   UNL d   1       3.299   1.497   0.080  0.00  0.00    -0.044 A 
ATOM     15  C   UNL d   1       4.285   1.750   1.043  0.00  0.00     0.008 A 
ATOM     16  C   UNL d   1       4.885   3.010   1.127  0.00  0.00     0.001 A 
ATOM     17  C   UNL d   1       4.502   4.032   0.259  0.00  0.00     0.000 A 
ATOM     18  C   UNL d   1       3.503   3.803  -0.682  0.00  0.00     0.001 A 
ATOM     19  C   UNL d   1       2.904   2.546  -0.770  0.00  0.00     0.008 A 
ENDBRANCH   1  14
TORSDOF 6
