REMARK  0 active torsions:
REMARK  status: ('A' for Active; 'I' for Inactive)
ROOT
ATOM      1  N   UNL d   1       0.018   0.630  -0.049  0.00  0.00    -0.272 N 
ATOM      2  C   UNL d   1       0.135  -0.741  -0.046  0.00  0.00     0.153 A 
ATOM      3  C   UNL d   1       1.155   1.409   0.050  0.00  0.00     0.252 A 
ATOM      4  S   UNL d   1      -1.283  -1.755  -0.056  0.00  0.00    -0.067 SA
ATOM      5  N   UNL d   1       1.266  -1.374  -0.049  0.00  0.00    -0.346 N 
ATOM      6  HN  UNL d   1       1.300  -2.393  -0.052  1.00  0.00     0.167 HD
ATOM      7  C   UNL d   1       2.439   0.700  -0.006  0.00  0.00     0.091 A 
ATOM      8  C   UNL d   1       2.407  -0.631  -0.050  0.00  0.00     0.096 A 
ATOM      9  O   UNL d   1      -2.345   0.625  -0.382  0.00  0.00    -0.361 OA
ATOM     10  C   UNL d   1      -1.224   1.357   0.076  0.00  0.00     0.305 C 
ATOM     11  C   UNL d   1      -2.511  -0.547   0.385  0.00  0.00     0.252 C 
ATOM     12  O   UNL d   1       1.156   2.627   0.212  0.00  0.00    -0.268 OA
ENDROOT
TORSDOF 0
