REMARK  5 active torsions:
REMARK  status: ('A' for Active; 'I' for Inactive)
REMARK    1  A    between atoms: S_2  and  C_1 
REMARK    2  A    between atoms: C_8  and  S_2 
REMARK    3  A    between atoms: S_11  and  C_4 
REMARK    4  A    between atoms: C_7  and  C_5 
REMARK    5  A    between atoms: O_16  and  C_7 
ROOT
ATOM      1  C   UNL d   1       0.600   1.311   0.065  0.00  0.00     0.095 C 
ATOM      2  C   UNL d   1       1.232  -0.008  -0.011  0.00  0.00    -0.015 C 
ATOM      3  C   UNL d   1      -0.767   1.215   0.285  0.00  0.00     0.064 C 
ATOM      4  C   UNL d   1       0.268  -1.023  -0.022  0.00  0.00     0.088 C 
ATOM      5  S   UNL d   1      -1.315  -0.389   0.125  0.00  0.00    -0.075 SA
ATOM      6  C   UNL d   1       2.710  -0.289  -0.040  0.00  0.00     0.051 C 
ENDROOT
BRANCH   1   7
ATOM      7  S   UNL d   1       1.447   2.845   0.044  0.00  0.00     0.209 S 
ATOM      8  O   UNL d   1       2.734   2.588  -0.559  0.00  0.00    -0.217 OA
ATOM      9  O   UNL d   1       0.531   3.791  -0.562  0.00  0.00    -0.217 OA
BRANCH   7  10
ATOM     10  C   UNL d   1       1.727   3.335   1.727  0.00  0.00     0.064 A 
ATOM     11  C   UNL d   1       1.396   2.511   2.808  0.00  0.00     0.025 A 
ATOM     12  C   UNL d   1       1.616   2.962   4.112  0.00  0.00     0.025 A 
ATOM     13  C   UNL d   1       2.171   4.222   4.329  0.00  0.00     0.034 A 
ATOM     14  C   UNL d   1       2.513   5.040   3.253  0.00  0.00     0.025 A 
ATOM     15 CL   UNL d   1       2.433   4.771   5.939  0.00  0.00    -0.084 Cl
ATOM     16  C   UNL d   1       2.289   4.599   1.946  0.00  0.00     0.025 A 
ENDBRANCH   7  10
ENDBRANCH   1   7
BRANCH   3  17
ATOM     17  S   UNL d   1      -1.891   2.477   0.805  0.00  0.00    -0.126 SA
ATOM     18  C   UNL d   1      -3.042   2.542  -0.584  0.00  0.00     0.096 C 
ENDBRANCH   3  17
BRANCH   4  19
ATOM     19  C   UNL d   1       0.386  -2.481  -0.099  0.00  0.00     0.300 C 
ATOM     20  O   UNL d   1      -0.544  -3.280  -0.122  0.00  0.00    -0.259 OA
BRANCH  19  21
ATOM     21  O   UNL d   1       1.696  -2.860  -0.112  0.00  0.00    -0.322 OA
ATOM     22  C   UNL d   1       1.910  -4.271  -0.110  0.00  0.00     0.213 C 
ENDBRANCH  19  21
ENDBRANCH   4  19
TORSDOF 5
