REMARK  6 active torsions:
REMARK  status: ('A' for Active; 'I' for Inactive)
REMARK    1  A    between atoms: C_4  and  C_1 
REMARK    2  A    between atoms: C_2  and  C_4 
REMARK       I    between atoms: N_10  and  C_2 
REMARK    3  A    between atoms: N_5  and  N_10 
REMARK    4  A    between atoms: C_9  and  C_15 
REMARK    5  A    between atoms: O_20  and  C_14 
REMARK    6  A    between atoms: O_21  and  C_18 
ROOT
ATOM      1  C   UNL d   1       3.893  -2.264  -1.420  0.00  0.00     0.244 C 
ATOM      2  N   UNL d   1       4.425  -1.661  -2.553  0.00  0.00    -0.270 N 
ATOM      3  O   UNL d   1       3.533  -3.445  -1.391  0.00  0.00    -0.271 OA
ATOM      4  H   UNL d   1       4.671  -0.678  -2.572  0.00  0.00     0.190 HD
ENDROOT
BRANCH   1   5
ATOM      5  C   UNL d   1       3.746  -1.382  -0.173  0.00  0.00     0.108 C 
ATOM      6  C   UNL d   1       4.968  -0.512   0.126  0.00  0.00     0.025 C 
BRANCH   5   7
ATOM      7  C   UNL d   1       2.426  -0.628  -0.147  0.00  0.00    -0.044 A 
ATOM      8  C   UNL d   1       1.295  -1.249   0.416  0.00  0.00     0.020 A 
ATOM      9  C   UNL d   1       0.051  -0.596   0.488  0.00  0.00    -0.025 A 
ATOM     10  C   UNL d   1      -1.077  -1.210   1.056  0.00  0.00     0.015 A 
ATOM     11  C   UNL d   1      -0.069   0.711  -0.025  0.00  0.00    -0.023 A 
ATOM     12  C   UNL d   1      -2.311  -0.550   1.105  0.00  0.00     0.037 A 
ATOM     13  C   UNL d   1      -2.434   0.737   0.588  0.00  0.00     0.069 A 
ATOM     14  C   UNL d   1      -1.312   1.362   0.035  0.00  0.00     0.049 A 
ATOM     15  C   UNL d   1       1.056   1.330  -0.590  0.00  0.00     0.013 A 
ATOM     16  C   UNL d   1       2.286   0.668  -0.657  0.00  0.00     0.009 A 
BRANCH  13  17
ATOM     17  O   UNL d   1      -3.577   1.488   0.559  0.00  0.00    -0.356 OA
ATOM     18  C   UNL d   1      -4.760   0.881   1.062  0.00  0.00     0.210 C 
ENDBRANCH  13  17
ENDBRANCH   5   7
ENDBRANCH   1   5
BRANCH   2  19
ATOM     19  N   UNL d   1       4.634  -2.435  -3.657  0.00  0.00    -0.308 N 
ATOM     20  C   UNL d   1       5.163  -1.874  -4.699  0.00  0.00     0.121 C 
ATOM     21  HN  UNL d   1       4.381  -3.424  -3.662  1.00  0.00     0.186 HD
BRANCH  20  22
ATOM     22  C   UNL d   1       5.447  -2.672  -5.915  0.00  0.00     0.014 A 
ATOM     23  C   UNL d   1       5.112  -4.030  -6.010  0.00  0.00     0.077 A 
ATOM     24  C   UNL d   1       5.430  -4.758  -7.155  0.00  0.00     0.037 A 
ATOM     25  C   UNL d   1       6.086  -4.138  -8.217  0.00  0.00     0.003 A 
ATOM     26  C   UNL d   1       6.414  -2.784  -8.138  0.00  0.00     0.001 A 
ATOM     27  C   UNL d   1       6.094  -2.048  -6.990  0.00  0.00     0.015 A 
BRANCH  23  28
ATOM     28  O   UNL d   1       4.469  -4.719  -5.017  0.00  0.00    -0.360 OA
ATOM     29  H   UNL d   1       4.323  -4.111  -4.256  0.00  0.00     0.217 HD
ENDBRANCH  23  28
ENDBRANCH  20  22
ENDBRANCH   2  19
TORSDOF 6
