REMARK  5 active torsions:
REMARK  status: ('A' for Active; 'I' for Inactive)
REMARK    1  A    between atoms: O_4  and  C_1 
REMARK    2  A    between atoms: C_7  and  C_2 
REMARK    3  A    between atoms: C_6  and  C_3 
REMARK    4  A    between atoms: C_5  and  O_4 
REMARK    5  A    between atoms: C_12  and  C_5 
ROOT
ATOM      1  C   UNL d   1       0.613   0.856  -0.219  0.00  0.00     0.093 A 
ATOM      2  C   UNL d   1      -0.791   1.100  -0.067  0.00  0.00    -0.015 A 
ATOM      3  C   UNL d   1       1.166  -0.467  -0.151  0.00  0.00    -0.015 A 
ATOM      4  C   UNL d   1      -1.622  -0.039   0.051  0.00  0.00     0.017 A 
ATOM      5  C   UNL d   1       0.251  -1.521   0.069  0.00  0.00     0.017 A 
ATOM      6  C   UNL d   1      -1.123  -1.335   0.113  0.00  0.00    -0.061 A 
ATOM      7  C   UNL d   1      -2.060  -2.505   0.188  0.00  0.00     0.048 C 
ENDROOT
BRANCH   1   8
ATOM      8  O   UNL d   1       1.429   1.911  -0.729  0.00  0.00    -0.277 OA
BRANCH   8   9
ATOM      9  C   UNL d   1       2.358   2.614   0.056  0.00  0.00     0.267 C 
ATOM     10  O   UNL d   1       2.400   2.616   1.283  0.00  0.00    -0.264 OA
BRANCH   9  11
ATOM     11  C   UNL d   1       3.357   3.318  -0.877  0.00  0.00     0.078 C 
ATOM     12  C   UNL d   1       2.878   4.682  -1.347  0.00  0.00     0.020 C 
ATOM     13  C   UNL d   1       4.749   3.421  -0.243  0.00  0.00     0.020 C 
ENDBRANCH   9  11
ENDBRANCH   8   9
ENDBRANCH   1   8
BRANCH   2  14
ATOM     14  C   UNL d   1      -1.510   2.479  -0.079  0.00  0.00    -0.021 C 
ATOM     15  C   UNL d   1      -1.845   2.851  -1.536  0.00  0.00     0.019 C 
ATOM     16  C   UNL d   1      -2.857   2.458   0.716  0.00  0.00     0.019 C 
ATOM     17  C   UNL d   1      -0.703   3.620   0.566  0.00  0.00     0.019 C 
ENDBRANCH   2  14
BRANCH   3  18
ATOM     18  C   UNL d   1       2.661  -0.885  -0.257  0.00  0.00    -0.021 C 
ATOM     19  C   UNL d   1       3.237  -0.899   1.176  0.00  0.00     0.019 C 
ATOM     20  C   UNL d   1       2.857  -2.310  -0.858  0.00  0.00     0.019 C 
ATOM     21  C   UNL d   1       3.546  -0.001  -1.147  0.00  0.00     0.019 C 
ENDBRANCH   3  18
TORSDOF 5
