REMARK  9 active torsions:
REMARK  status: ('A' for Active; 'I' for Inactive)
REMARK    1  A    between atoms: N_6  and  C_1 
REMARK    2  A    between atoms: N_9  and  C_1 
REMARK    3  A    between atoms: N_2  and  N_6 
REMARK    4  A    between atoms: C_4  and  C_8 
REMARK    5  A    between atoms: O_10  and  C_7 
REMARK    6  A    between atoms: C_14  and  N_9 
REMARK    7  A    between atoms: C_11  and  C_14 
REMARK    8  A    between atoms: C_15  and  C_11 
REMARK    9  A    between atoms: O_12  and  C_15 
ROOT
ATOM      1  N   UNL d   1       1.045   1.642  -1.487  0.00  0.00    -0.309 N 
ATOM      2  HN  UNL d   1       2.031   1.435  -1.644  1.00  0.00     0.186 HD
ATOM      3  C   UNL d   1       0.391   2.454  -2.255  0.00  0.00     0.121 C 
ENDROOT
BRANCH   1   4
ATOM      4  N   UNL d   1       0.352   1.078  -0.458  0.00  0.00    -0.277 N 
ATOM      5  H   UNL d   1      -0.654   1.201  -0.389  0.00  0.00     0.189 HD
BRANCH   4   6
ATOM      6  C   UNL d   1       0.901  -0.005   0.205  0.00  0.00     0.186 C 
ATOM      7  S   UNL d   1      -0.069  -1.000   1.121  0.00  0.00    -0.040 SA
BRANCH   6   8
ATOM      8  N   UNL d   1       2.243  -0.159  -0.035  0.00  0.00    -0.366 N 
ATOM      9  H   UNL d   1       2.683   0.682  -0.393  0.00  0.00     0.161 HD
BRANCH   8  10
ATOM     10  C   UNL d   1       3.057  -1.331   0.228  0.00  0.00     0.124 C 
BRANCH  10  11
ATOM     11  C   UNL d   1       4.359  -1.285  -0.572  0.00  0.00     0.046 C 
BRANCH  11  12
ATOM     12  C   UNL d   1       5.152  -2.577  -0.424  0.00  0.00     0.168 C 
BRANCH  12  13
ATOM     13  O   UNL d   1       4.371  -3.656  -0.932  0.00  0.00    -0.396 OA
ATOM     14  C   UNL d   1       5.014  -4.910  -0.762  0.00  0.00     0.201 C 
ENDBRANCH  12  13
ENDBRANCH  11  12
ENDBRANCH  10  11
ENDBRANCH   8  10
ENDBRANCH   6   8
ENDBRANCH   4   6
ENDBRANCH   1   4
BRANCH   3  15
ATOM     15  C   UNL d   1       1.051   3.009  -3.454  0.00  0.00     0.014 A 
ATOM     16  C   UNL d   1       2.289   2.522  -3.899  0.00  0.00     0.077 A 
ATOM     17  C   UNL d   1       2.891   3.062  -5.033  0.00  0.00     0.037 A 
ATOM     18  C   UNL d   1       2.254   4.086  -5.731  0.00  0.00     0.003 A 
ATOM     19  C   UNL d   1       1.013   4.563  -5.302  0.00  0.00     0.001 A 
ATOM     20  C   UNL d   1       0.405   4.024  -4.164  0.00  0.00     0.015 A 
BRANCH  16  21
ATOM     21  O   UNL d   1       2.961   1.500  -3.282  0.00  0.00    -0.360 OA
ATOM     22  H   UNL d   1       2.397   1.192  -2.541  0.00  0.00     0.217 HD
ENDBRANCH  16  21
ENDBRANCH   3  15
TORSDOF 9
