REMARK  2 active torsions:
REMARK  status: ('A' for Active; 'I' for Inactive)
REMARK    1  A    between atoms: C_4  and  C_1 
REMARK    2  A    between atoms: C_7  and  C_4 
ROOT
ATOM      1  C   UNL d   1       3.216   0.664  -0.039  0.00  0.00     0.127 A 
ATOM      2  O   UNL d   1       2.723  -0.533   0.408  0.00  0.00    -0.306 OA
ATOM      3  C   UNL d   1       2.169   1.473  -0.443  0.00  0.00     0.055 A 
ATOM      4  C   UNL d   1       0.973   0.739  -0.245  0.00  0.00     0.002 A 
ATOM      5  C   UNL d   1       1.366  -0.480   0.293  0.00  0.00     0.086 A 
ATOM      6  C   UNL d   1      -0.395   0.981  -0.452  0.00  0.00     0.038 A 
ATOM      7  C   UNL d   1       0.480  -1.491   0.662  0.00  0.00     0.040 A 
ATOM      8  C   UNL d   1      -1.308  -0.019  -0.093  0.00  0.00     0.035 A 
ATOM      9  C   UNL d   1      -0.881  -1.231   0.457  0.00  0.00     0.026 A 
ATOM     10 CL   UNL d   1      -2.991   0.256  -0.333  0.00  0.00    -0.084 Cl
ENDROOT
BRANCH   1  11
ATOM     11  C   UNL d   1       4.633   0.946   0.016  0.00  0.00     0.215 C 
ATOM     12  O   UNL d   1       5.072   2.094   0.076  0.00  0.00    -0.284 OA
BRANCH  11  13
ATOM     13  C   UNL d   1       5.626  -0.166  -0.034  0.00  0.00     0.017 A 
ATOM     14  C   UNL d   1       5.386  -1.348  -0.750  0.00  0.00     0.024 A 
ATOM     15  C   UNL d   1       6.369  -2.351  -0.838  0.00  0.00    -0.039 A 
ATOM     16  C   UNL d   1       6.084  -3.596  -1.631  0.00  0.00     0.050 C 
ATOM     17  C   UNL d   1       7.598  -2.151  -0.190  0.00  0.00     0.040 A 
ATOM     18  C   UNL d   1       7.847  -0.969   0.513  0.00  0.00     0.025 A 
ATOM     19 CL   UNL d   1       8.851  -3.337  -0.243  0.00  0.00    -0.084 Cl
ATOM     20  C   UNL d   1       6.868   0.024   0.584  0.00  0.00     0.017 A 
ENDBRANCH  11  13
ENDBRANCH   1  11
TORSDOF 2
