REMARK  7 active torsions:
REMARK  status: ('A' for Active; 'I' for Inactive)
REMARK    1  A    between atoms: C_8  and  C_1 
REMARK    2  A    between atoms: C_9  and  C_1 
REMARK    3  A    between atoms: C_3  and  C_2 
REMARK    4  A    between atoms: C_4  and  C_11 
REMARK    5  A    between atoms: C_7  and  C_6 
REMARK    6  A    between atoms: O_23  and  C_8 
REMARK    7  A    between atoms: O_22  and  C_9 
ROOT
ATOM      1  C   UNL d   1       1.915  -1.813   4.226  0.00  0.00     0.088 A 
ATOM      2  O   UNL d   1       1.054  -1.908   3.167  0.00  0.00    -0.310 OA
ATOM      3  C   UNL d   1       1.172  -0.772   2.400  0.00  0.00     0.077 A 
ATOM      4  C   UNL d   1       2.582  -0.610   4.160  0.00  0.00     0.041 A 
ATOM      5  C   UNL d   1       2.139   0.033   2.983  0.00  0.00     0.040 A 
ENDROOT
BRANCH   1   6
ATOM      6  C   UNL d   1       1.946  -2.959   5.137  0.00  0.00     0.020 A 
ATOM      7  C   UNL d   1       0.747  -3.651   5.415  0.00  0.00     0.032 A 
ATOM      8  C   UNL d   1       0.716  -4.766   6.275  0.00  0.00     0.048 A 
ATOM      9  C   UNL d   1       1.910  -5.192   6.870  0.00  0.00     0.018 A 
ATOM     10  C   UNL d   1       3.103  -4.521   6.613  0.00  0.00     0.026 A 
ATOM     11  C   UNL d   1       3.126  -3.416   5.753  0.00  0.00     0.047 A 
ATOM     12 CL   UNL d   1       4.682  -2.709   5.473  0.00  0.00    -0.083 Cl
BRANCH   8  13
ATOM     13  C   UNL d   1      -0.562  -5.518   6.560  0.00  0.00     0.417 C 
ATOM     14  F   UNL d   1      -1.662  -4.982   5.963  0.00  0.00    -0.166 F 
ATOM     15  F   UNL d   1      -0.502  -6.813   6.143  0.00  0.00    -0.166 F 
ATOM     16  F   UNL d   1      -0.847  -5.570   7.891  0.00  0.00    -0.166 F 
ENDBRANCH   8  13
ENDBRANCH   1   6
BRANCH   3  17
ATOM     17  C   UNL d   1       0.431  -0.557   1.207  0.00  0.00     0.061 C 
ATOM     18  C   UNL d   1      -0.671   0.217   1.132  0.00  0.00     0.117 C 
BRANCH  18  19
ATOM     19  C   UNL d   1      -1.352   0.386  -0.179  0.00  0.00     0.299 C 
ATOM     20  O   UNL d   1      -2.086   1.329  -0.447  0.00  0.00    -0.259 OA
BRANCH  19  21
ATOM     21  O   UNL d   1      -1.048  -0.620  -1.044  0.00  0.00    -0.322 OA
ATOM     22  C   UNL d   1      -1.687  -0.514  -2.320  0.00  0.00     0.213 C 
ENDBRANCH  19  21
ENDBRANCH  18  19
BRANCH  18  23
ATOM     23  C   UNL d   1      -1.197   0.953   2.311  0.00  0.00     0.299 C 
ATOM     24  O   UNL d   1      -0.510   1.438   3.195  0.00  0.00    -0.259 OA
BRANCH  23  25
ATOM     25  O   UNL d   1      -2.554   0.989   2.274  0.00  0.00    -0.322 OA
ATOM     26  C   UNL d   1      -3.166   1.723   3.337  0.00  0.00     0.213 C 
ENDBRANCH  23  25
ENDBRANCH  18  23
ENDBRANCH   3  17
TORSDOF 7
