REMARK  3 active torsions:
REMARK  status: ('A' for Active; 'I' for Inactive)
REMARK    1  A    between atoms: C_10  and  C_2 
REMARK    2  A    between atoms: C_7  and  C_3 
REMARK    3  A    between atoms: N_13  and  C_4 
ROOT
ATOM      1  C   UNL d   1       0.837  -0.308   0.068  0.00  0.00     0.082 A 
ATOM      2  C   UNL d   1      -1.438  -1.401  -0.120  0.00  0.00     0.032 A 
ATOM      3  C   UNL d   1       0.060  -1.617   0.097  0.00  0.00     0.129 A 
ATOM      4  C   UNL d   1       0.223   0.884  -0.065  0.00  0.00     0.138 A 
ATOM      5  C   UNL d   1      -1.956  -0.157  -0.187  0.00  0.00     0.062 A 
ATOM      6  O   UNL d   1      -1.153   0.974  -0.153  0.00  0.00    -0.302 OA
ATOM      7  C   UNL d   1       2.252  -0.360   0.205  0.00  0.00     0.100 C 
ATOM      8  N   UNL d   1       3.406  -0.389   0.347  0.00  0.00    -0.191 NA
ATOM      9  C   UNL d   1      -3.406   0.228  -0.204  0.00  0.00     0.077 C 
ENDROOT
BRANCH   3  10
ATOM     10  C   UNL d   1       0.707  -2.671  -0.775  0.00  0.00     0.066 A 
ATOM     11  O   UNL d   1       0.296  -2.769  -2.071  0.00  0.00    -0.326 OA
ATOM     12  C   UNL d   1       1.050  -3.740  -2.649  0.00  0.00     0.142 A 
ATOM     13  C   UNL d   1       1.952  -4.258  -1.748  0.00  0.00     0.027 A 
ATOM     14  C   UNL d   1       1.724  -3.577  -0.532  0.00  0.00     0.035 A 
ENDBRANCH   3  10
BRANCH   4  15
ATOM     15  N   UNL d   1       0.839   2.113  -0.104  0.00  0.00    -0.282 NA
ATOM     16  H   UNL d   1       1.781   2.160   0.276  0.00  0.00     0.126 HD
ATOM     17  H   UNL d   1       0.232   2.862   0.219  0.00  0.00     0.126 HD
ENDBRANCH   4  15
BRANCH   2  18
ATOM     18  C   UNL d   1      -2.250  -2.661  -0.129  0.00  0.00     0.155 C 
ATOM     19  O   UNL d   1      -1.903  -3.595   0.598  0.00  0.00    -0.293 OA
ATOM     20  C   UNL d   1      -3.414  -2.836  -1.076  0.00  0.00     0.096 C 
ENDBRANCH   2  18
TORSDOF 3
