REMARK  2 active torsions:
REMARK  status: ('A' for Active; 'I' for Inactive)
REMARK    1  A    between atoms: C_15  and  N_8 
REMARK    2  A    between atoms: C_13  and  C_15 
ROOT
ATOM      1  C   UNL d   1       0.070  -0.730   0.046  0.00  0.00     0.101 A 
ATOM      2  C   UNL d   1       0.023   0.615   0.047  0.00  0.00     0.077 A 
ATOM      3  N   UNL d   1       1.287  -1.374  -0.062  0.00  0.00    -0.293 N 
ATOM      4  N   UNL d   1       2.449   0.679  -0.018  0.00  0.00    -0.270 N 
ATOM      5  C   UNL d   1       2.509  -0.701  -0.097  0.00  0.00     0.332 A 
ATOM      6  C   UNL d   1       1.272   1.399   0.033  0.00  0.00     0.262 A 
ATOM      7  N   UNL d   1      -1.126  -1.430   0.154  0.00  0.00    -0.252 NA
ATOM      8  N   UNL d   1      -2.449   0.577  -0.367  0.00  0.00     0.110 N 
ATOM      9  C   UNL d   1      -1.278   1.382   0.053  0.00  0.00     0.322 C 
ATOM     10  C   UNL d   1      -2.374  -0.704   0.320  0.00  0.00     0.369 C 
ATOM     11  O   UNL d   1       3.579  -1.310  -0.186  0.00  0.00    -0.246 OA
ATOM     12  O   UNL d   1       1.226   2.628   0.084  0.00  0.00    -0.267 OA
ATOM     13  C   UNL d   1       1.373  -2.828  -0.091  0.00  0.00     0.162 C 
ATOM     14  C   UNL d   1       3.689   1.433   0.017  0.00  0.00     0.164 C 
ATOM     15  H   UNL d   1      -1.200  -2.133  -0.575  0.00  0.00     0.130 HD
ENDROOT
BRANCH   8  16
ATOM     16  C   UNL d   1      -3.699   1.294  -0.079  0.00  0.00     0.320 C 
BRANCH  16  17
ATOM     17  C   UNL d   1      -4.925   0.551  -0.547  0.00  0.00     0.011 A 
ATOM     18  S   UNL d   1      -6.149   0.120   0.577  0.00  0.00    -0.105 SA
ATOM     19  C   UNL d   1      -7.112  -0.591  -0.643  0.00  0.00     0.050 A 
ATOM     20  C   UNL d   1      -6.517  -0.515  -1.882  0.00  0.00     0.008 A 
ATOM     21  C   UNL d   1      -5.249   0.136  -1.825  0.00  0.00     0.017 A 
ENDBRANCH  16  17
ENDBRANCH   8  16
TORSDOF 2
