REMARK  14 active torsions:
REMARK  status: ('A' for Active; 'I' for Inactive)
REMARK    1  A    between atoms: N_4  and  S_1 
REMARK    2  A    between atoms: C_8  and  S_1 
REMARK    3  A    between atoms: C_6  and  C_2 
REMARK    4  A    between atoms: C_3  and  N_4 
REMARK    5  A    between atoms: O_16  and  C_6 
REMARK    6  A    between atoms: O_17  and  C_9 
REMARK    7  A    between atoms: O_18  and  C_10 
REMARK    8  A    between atoms: C_24  and  O_16 
REMARK    9  A    between atoms: C_26  and  O_17 
REMARK   10  A    between atoms: C_25  and  O_18 
REMARK   11  A    between atoms: O_22  and  C_27 
REMARK   12  A    between atoms: O_23  and  C_28 
REMARK   13  A    between atoms: C_27  and  C_25 
REMARK   14  A    between atoms: C_28  and  C_26 
ROOT
ATOM      1  C   UNL d   1       1.999   2.673   1.061  0.00  0.00     0.064 A 
ATOM      2  C   UNL d   1       0.725   2.452   0.514  0.00  0.00     0.042 A 
ATOM      3  C   UNL d   1       2.160   3.675   2.036  0.00  0.00     0.059 A 
ATOM      4  C   UNL d   1      -0.354   3.249   0.944  0.00  0.00     0.065 A 
ATOM      5  C   UNL d   1       1.081   4.444   2.484  0.00  0.00     0.103 A 
ATOM      6  C   UNL d   1      -0.182   4.264   1.897  0.00  0.00     0.103 A 
ENDROOT
BRANCH   2   7
ATOM      7  N   UNL d   1       0.430   1.375  -0.408  0.00  0.00    -0.180 NA
ATOM      8  H   UNL d   1      -0.310   1.614  -1.069  0.00  0.00     0.146 HD
BRANCH   7   9
ATOM      9  S   UNL d   1       0.030  -0.097   0.358  0.00  0.00     0.245 S 
ATOM     10  O   UNL d   1      -1.249   0.117   1.006  0.00  0.00    -0.206 OA
ATOM     11  O   UNL d   1       1.183  -0.580   1.088  0.00  0.00    -0.206 OA
BRANCH   9  12
ATOM     12  C   UNL d   1      -0.241  -1.191  -1.019  0.00  0.00     0.074 A 
ATOM     13  C   UNL d   1       0.797  -1.439  -1.921  0.00  0.00     0.025 A 
ATOM     14  C   UNL d   1       0.601  -2.352  -2.964  0.00  0.00     0.008 A 
ATOM     15  C   UNL d   1      -0.621  -3.025  -3.105  0.00  0.00    -0.062 A 
ATOM     16  C   UNL d   1      -1.660  -2.748  -2.207  0.00  0.00     0.008 A 
ATOM     17  C   UNL d   1      -0.802  -4.039  -4.199  0.00  0.00     0.048 C 
ATOM     18  C   UNL d   1      -1.474  -1.835  -1.165  0.00  0.00     0.025 A 
ENDBRANCH   9  12
ENDBRANCH   7   9
ENDBRANCH   2   7
BRANCH   1  19
ATOM     19  C   UNL d   1       3.246   1.981   0.647  0.00  0.00     0.295 C 
ATOM     20  O   UNL d   1       4.237   1.922   1.362  0.00  0.00    -0.259 OA
BRANCH  19  21
ATOM     21  O   UNL d   1       3.204   1.661  -0.672  0.00  0.00    -0.318 OA
BRANCH  21  22
ATOM     22  C   UNL d   1       4.486   1.462  -1.286  0.00  0.00     0.174 C 
ATOM     23  C   UNL d   1       4.949   2.797  -1.842  0.00  0.00     0.034 C 
ENDBRANCH  21  22
ENDBRANCH  19  21
ENDBRANCH   1  19
BRANCH   6  24
ATOM     24  O   UNL d   1      -1.171   5.126   2.280  0.00  0.00    -0.346 OA
BRANCH  24  25
ATOM     25  C   UNL d   1      -2.485   4.986   1.748  0.00  0.00     0.201 C 
BRANCH  25  26
ATOM     26  C   UNL d   1      -3.357   6.066   2.387  0.00  0.00     0.193 C 
BRANCH  26  27
ATOM     27  O   UNL d   1      -4.687   5.984   1.880  0.00  0.00    -0.394 OA
ATOM     28  C   UNL d   1      -5.524   6.978   2.462  0.00  0.00     0.201 C 
ENDBRANCH  26  27
ENDBRANCH  25  26
ENDBRANCH  24  25
ENDBRANCH   6  24
BRANCH   5  29
ATOM     29  O   UNL d   1       1.414   5.343   3.473  0.00  0.00    -0.346 OA
BRANCH  29  30
ATOM     30  C   UNL d   1       0.379   5.672   4.404  0.00  0.00     0.201 C 
BRANCH  30  31
ATOM     31  C   UNL d   1       0.970   6.052   5.761  0.00  0.00     0.193 C 
BRANCH  31  32
ATOM     32  O   UNL d   1      -0.109   6.363   6.648  0.00  0.00    -0.394 OA
ATOM     33  C   UNL d   1       0.342   6.692   7.954  0.00  0.00     0.201 C 
ENDBRANCH  31  32
ENDBRANCH  30  31
ENDBRANCH  29  30
ENDBRANCH   5  29
TORSDOF 14
