REMARK  5 active torsions:
REMARK  status: ('A' for Active; 'I' for Inactive)
REMARK    1  A    between atoms: C_9  and  N_1 
REMARK    2  A    between atoms: C_11  and  N_6 
REMARK    3  A    between atoms: C_10  and  C_8 
REMARK    4  A    between atoms: O_19  and  C_10 
REMARK    5  A    between atoms: S_18  and  C_17 
ROOT
ATOM      1  N   UNL d   1      -0.827  -1.069  -0.107  0.00  0.00    -0.257 N 
ATOM      2  C   UNL d   1      -1.216   0.259  -0.288  0.00  0.00     0.161 C 
ATOM      3  C   UNL d   1       1.001   0.088   0.868  0.00  0.00     0.082 C 
ATOM      4  C   UNL d   1       0.410  -1.233   0.519  0.00  0.00     0.271 C 
ATOM      5  S   UNL d   1      -0.173   1.302   0.662  0.00  0.00    -0.048 SA
ATOM      6  N   UNL d   1      -2.186   0.635  -1.062  0.00  0.00    -0.322 N 
ATOM      7  HN  UNL d   1      -2.739  -0.078  -1.538  1.00  0.00     0.169 HD
ATOM      8  C   UNL d   1       2.284   0.212   1.234  0.00  0.00     0.106 C 
ATOM      9  O   UNL d   1       0.997  -2.270   0.814  0.00  0.00    -0.266 OA
ENDROOT
BRANCH   1  10
ATOM     10  C   UNL d   1      -1.628  -2.202  -0.518  0.00  0.00     0.046 A 
ATOM     11  C   UNL d   1      -1.062  -3.477  -0.717  0.00  0.00     0.048 A 
ATOM     12  C   UNL d   1      -1.837  -4.600  -1.050  0.00  0.00     0.002 A 
ATOM     13  C   UNL d   1      -3.211  -4.444  -1.234  0.00  0.00     0.018 A 
ATOM     14  C   UNL d   1      -3.800  -3.197  -1.059  0.00  0.00     0.004 A 
ATOM     15  C   UNL d   1      -3.018  -2.095  -0.694  0.00  0.00     0.030 A 
BRANCH  12  16
ATOM     16  S   UNL d   1      -1.144  -6.230  -1.302  0.00  0.00    -0.134 SA
ATOM     17  C   UNL d   1       0.180  -6.271  -0.060  0.00  0.00     0.095 C 
ENDBRANCH  12  16
ENDBRANCH   1  10
BRANCH   6  18
ATOM     18  C   UNL d   1      -2.501   1.982  -1.267  0.00  0.00     0.106 A 
ATOM     19  N   UNL d   1      -1.487   2.845  -1.475  0.00  0.00    -0.352 N 
ATOM     20  C   UNL d   1      -1.797   4.151  -1.619  0.00  0.00     0.089 A 
ATOM     21  HN  UNL d   1      -0.520   2.522  -1.521  1.00  0.00     0.166 HD
ATOM     22  C   UNL d   1      -3.091   4.635  -1.644  0.00  0.00     0.017 A 
ATOM     23  C   UNL d   1      -4.130   3.723  -1.513  0.00  0.00     0.005 A 
ATOM     24  C   UNL d   1      -3.832   2.375  -1.319  0.00  0.00     0.048 A 
ENDBRANCH   6  18
BRANCH   8  25
ATOM     25  C   UNL d   1       2.938   1.496   1.547  0.00  0.00     0.283 C 
ATOM     26  O   UNL d   1       2.380   2.537   1.845  0.00  0.00    -0.260 OA
BRANCH  25  27
ATOM     27  O   UNL d   1       4.280   1.322   1.433  0.00  0.00    -0.323 OA
ATOM     28  C   UNL d   1       5.025   2.522   1.651  0.00  0.00     0.213 C 
ENDBRANCH  25  27
ENDBRANCH   8  25
TORSDOF 5
