REMARK  7 active torsions:
REMARK  status: ('A' for Active; 'I' for Inactive)
REMARK    1  A    between atoms: O_9  and  C_2 
REMARK    2  A    between atoms: C_7  and  C_5 
REMARK    3  A    between atoms: O_16  and  C_6 
REMARK    4  A    between atoms: O_17  and  C_7 
REMARK    5  A    between atoms: C_11  and  O_9 
REMARK    6  A    between atoms: O_18  and  C_12 
REMARK    7  A    between atoms: C_20  and  O_17 
ROOT
ATOM      1  C   UNL d   1       0.171  -0.769  -0.039  0.00  0.00     0.014 A 
ATOM      2  C   UNL d   1       1.418   1.369  -0.037  0.00  0.00     0.091 A 
ATOM      3  C   UNL d   1       0.182   0.661  -0.013  0.00  0.00     0.011 A 
ATOM      4  C   UNL d   1       1.451  -1.377  -0.096  0.00  0.00     0.033 A 
ATOM      5  C   UNL d   1       2.660  -0.667  -0.142  0.00  0.00     0.043 A 
ATOM      6  C   UNL d   1      -1.093  -1.465  -0.005  0.00  0.00     0.112 A 
ATOM      7  C   UNL d   1       2.643   0.717  -0.139  0.00  0.00     0.055 A 
ATOM      8  C   UNL d   1      -1.036   1.352   0.030  0.00  0.00     0.018 A 
ATOM      9  C   UNL d   1      -2.297  -0.720   0.027  0.00  0.00     0.102 A 
ATOM     10  C   UNL d   1      -2.250   0.674   0.044  0.00  0.00     0.040 A 
ENDROOT
BRANCH   5  11
ATOM     11  C   UNL d   1       3.914  -1.461  -0.103  0.00  0.00     0.293 C 
ATOM     12  O   UNL d   1       3.936  -2.679  -0.044  0.00  0.00    -0.259 OA
BRANCH  11  13
ATOM     13  O   UNL d   1       4.988  -0.637  -0.014  0.00  0.00    -0.318 OA
BRANCH  13  14
ATOM     14  C   UNL d   1       6.169  -1.246   0.520  0.00  0.00     0.174 C 
ATOM     15  C   UNL d   1       6.117  -1.120   2.032  0.00  0.00     0.034 C 
ENDBRANCH  13  14
ENDBRANCH  11  13
ENDBRANCH   5  11
BRANCH   2  16
ATOM     16  O   UNL d   1       1.379   2.794  -0.017  0.00  0.00    -0.278 OA
BRANCH  16  17
ATOM     17  C   UNL d   1       2.337   3.540   0.679  0.00  0.00     0.260 C 
ATOM     18  O   UNL d   1       3.270   3.102   1.335  0.00  0.00    -0.265 OA
ATOM     19  C   UNL d   1       2.074   5.007   0.490  0.00  0.00     0.126 C 
ENDBRANCH  16  17
ENDBRANCH   2  16
BRANCH   6  20
ATOM     20  O   UNL d   1      -1.303  -2.816  -0.010  0.00  0.00    -0.352 OA
ATOM     21  C   UNL d   1      -0.310  -3.817   0.036  0.00  0.00     0.210 C 
ENDBRANCH   6  20
BRANCH   9  22
ATOM     22  O   UNL d   1      -3.595  -1.170   0.043  0.00  0.00    -0.353 OA
ATOM     23  C   UNL d   1      -3.874  -2.562   0.007  0.00  0.00     0.210 C 
ENDBRANCH   9  22
TORSDOF 7
