REMARK  16 active torsions:
REMARK  status: ('A' for Active; 'I' for Inactive)
REMARK       I    between atoms: N_17  and  C1_1 
REMARK    1  A    between atoms: O1_4  and  C1_1 
REMARK    2  A    between atoms: C2_2  and  C3_3 
REMARK    3  A    between atoms: C3_3  and  O1_4 
REMARK    4  A    between atoms: O7_11  and  C10_9 
REMARK    5  A    between atoms: O8_12  and  C11_10 
REMARK    6  A    between atoms: C_20  and  N_17 
REMARK       I    between atoms: C_18  and  N_24 
REMARK    7  A    between atoms: O_23  and  C_18 
REMARK    8  A    between atoms: O_25  and  C_19 
REMARK    9  A    between atoms: C_20  and  C_19 
REMARK   10  A    between atoms: C_28  and  C_20 
REMARK   11  A    between atoms: C_26  and  O_23 
REMARK   12  A    between atoms: N_24  and  C_29 
REMARK   13  A    between atoms: C_27  and  C_26 
REMARK   14  A    between atoms: C_32  and  C_28 
REMARK   15  A    between atoms: C_29  and  C_33 
REMARK   16  A    between atoms: C_33  and  C_32 
ROOT
ATOM      1  C   UNK d   1       2.083   1.948   2.600  0.00  0.00     0.184 C 
ENDROOT
BRANCH   1   2
ATOM      2  C   UNK d   1       2.899   3.028   1.858  0.00  0.00     0.036 C 
BRANCH   2   3
ATOM      3  C   UNK d   1       2.939   2.832   0.333  0.00  0.00     0.004 C 
BRANCH   3   4
ATOM      4  C   UNK d   1       3.769   3.873  -0.427  0.00  0.00     0.020 C 
BRANCH   4   5
ATOM      5  C   UNK d   1       5.191   4.068   0.090  0.00  0.00     0.125 C 
BRANCH   5   6
ATOM      6  N   UNK d   1       5.887   2.814   0.234  0.00  0.00    -0.337 N 
ATOM      7  C   UNK d   1       6.571   2.211  -0.769  0.00  0.00     0.360 C 
ATOM      8  O   UNK d   1       6.790   2.701  -1.876  0.00  0.00    -0.239 OA
ATOM      9  H   UNK d   1       5.700   2.207   1.033  0.00  0.00     0.164 HD
BRANCH   7  10
ATOM     10  O   UNK d   1       6.970   1.004  -0.346  0.00  0.00    -0.299 OA
BRANCH  10  11
ATOM     11  C   UNK d   1       7.816   0.245  -1.212  0.00  0.00     0.219 C 
BRANCH  11  12
ATOM     12  C   UNK d   1       9.116   0.019  -0.484  0.00  0.00    -0.034 A 
ATOM     13  C   UNK d   1       9.530  -1.267  -0.113  0.00  0.00     0.009 A 
ATOM     14  C   UNK d   1      10.727  -1.450   0.581  0.00  0.00     0.001 A 
ATOM     15  C   UNK d   1      11.521  -0.351   0.907  0.00  0.00     0.000 A 
ATOM     16  C   UNK d   1      11.118   0.932   0.544  0.00  0.00     0.001 A 
ATOM     17  C   UNK d   1       9.923   1.117  -0.148  0.00  0.00     0.009 A 
ENDBRANCH  11  12
ENDBRANCH  10  11
ENDBRANCH   7  10
ENDBRANCH   5   6
ENDBRANCH   4   5
ENDBRANCH   3   4
ENDBRANCH   2   3
ENDBRANCH   1   2
BRANCH   1  18
ATOM     18  N   UNK d   1       2.591   0.560   2.562  0.00  0.00    -0.322 N 
ATOM     19  C1  <1> d   1       3.869   0.104   2.399  0.00  0.00     0.362 C 
ATOM     20  O2  <1> d   1       4.818   0.805   2.101  0.00  0.00    -0.238 OA
ATOM     21  H   UNK d   1       1.923  -0.165   2.797  0.00  0.00     0.165 HD
BRANCH  19  22
ATOM     22  O1  <1> d   1       3.882  -1.244   2.582  0.00  0.00    -0.289 OA
BRANCH  22  23
ATOM     23  C3  <1> d   1       4.943  -2.149   2.135  0.00  0.00     0.092 C 
ATOM     24  C14 <1> d   1       4.250  -3.049   1.073  0.00  0.00     0.052 C 
ATOM     25  C15 <1> d   1       6.119  -1.506   1.384  0.00  0.00     0.052 C 
BRANCH  23  26
ATOM     26  C2  <1> d   1       5.447  -3.032   3.302  0.00  0.00    -0.019 C 
ATOM     27  C7  <1> d   1       4.701  -4.138   3.749  0.00  0.00     0.047 C 
ATOM     28  C11 <1> d   1       5.252  -5.089   4.620  0.00  0.00     0.071 C 
ATOM     29  C9  <1> d   1       6.578  -4.977   5.032  0.00  0.00     0.073 C 
ATOM     30  C10 <1> d   1       7.320  -3.865   4.648  0.00  0.00     0.071 C 
ATOM     31  C8  <1> d   1       6.734  -2.871   3.854  0.00  0.00     0.047 C 
BRANCH  28  32
ATOM     32  O8  <1> d   1       4.585  -6.203   5.060  0.00  0.00    -0.356 OA
ATOM     33  C19 <1> d   1       3.186  -6.011   5.248  0.00  0.00     0.210 C 
ENDBRANCH  28  32
BRANCH  30  34
ATOM     34  O7  <1> d   1       8.626  -3.654   5.000  0.00  0.00    -0.356 OA
ATOM     35  C18 <1> d   1       9.457  -4.813   4.948  0.00  0.00     0.210 C 
ENDBRANCH  30  34
ENDBRANCH  23  26
ENDBRANCH  22  23
ENDBRANCH  19  22
ENDBRANCH   1  18
BRANCH   1  36
ATOM     36  C   UNK d   1       0.638   1.934   2.073  0.00  0.00     0.163 C 
ATOM     37  O   UNK d   1      -0.075   0.948   1.956  0.00  0.00    -0.648 OA
BRANCH  36  38
ATOM     38  O   UNK d   1       0.182   3.151   1.704  0.00  0.00    -0.775 OA
ATOM     39  H   UNK d   1      -0.613   2.980   1.156  0.00  0.00     0.167 HD
ENDBRANCH  36  38
ENDBRANCH   1  36
TORSDOF 16
