REMARK  1 active torsions:
REMARK  status: ('A' for Active; 'I' for Inactive)
REMARK    1  A    between atoms: C_8  and  C_7 
ROOT
ATOM      1  C   UNL d   1      -1.252   0.115  -0.095  0.00  0.00     0.116 C 
ATOM      2  C   UNL d   1      -0.511   1.337   0.244  0.00  0.00     0.302 C 
ATOM      3  C   UNL d   1      -0.647  -1.189   0.203  0.00  0.00     0.302 C 
ATOM      4  O   UNL d   1       0.831   1.199   0.257  0.00  0.00    -0.280 OA
ATOM      5  O   UNL d   1       0.698  -1.179   0.318  0.00  0.00    -0.280 OA
ATOM      6  C   UNL d   1       1.410  -0.037  -0.158  0.00  0.00     0.175 C 
ATOM      7  C   UNL d   1      -2.447   0.093  -0.717  0.00  0.00     0.042 C 
ATOM      8  O   UNL d   1      -1.039   2.399   0.537  0.00  0.00    -0.259 OA
ATOM      9  O   UNL d   1      -1.296  -2.218   0.334  0.00  0.00    -0.259 OA
ATOM     10  C   UNL d   1       1.550  -0.085  -1.683  0.00  0.00     0.080 C 
ATOM     11  C   UNL d   1       2.799  -0.089   0.478  0.00  0.00     0.080 C 
ENDROOT
BRANCH   7  12
ATOM     12  C   UNL d   1      -3.107   1.256  -1.193  0.00  0.00     0.006 A 
ATOM     13  S   UNL d   1      -2.861   1.771  -2.815  0.00  0.00    -0.102 SA
ATOM     14  C   UNL d   1      -3.935   3.088  -2.635  0.00  0.00     0.050 A 
ATOM     15  C   UNL d   1      -4.480   3.140  -1.373  0.00  0.00     0.008 A 
ATOM     16  C   UNL d   1      -4.005   2.083  -0.543  0.00  0.00     0.019 A 
ENDBRANCH   7  12
TORSDOF 1
