REMARK  5 active torsions:
REMARK  status: ('A' for Active; 'I' for Inactive)
REMARK    1  A    between atoms: C_9  and  N_1 
REMARK    2  A    between atoms: C_10  and  C_4 
REMARK    3  A    between atoms: N_8  and  C_12 
REMARK    4  A    between atoms: C_11  and  C_9 
REMARK    5  A    between atoms: C_13  and  C_11 
ROOT
ATOM      1  N   UNL d   1      -0.109  -1.070  -0.256  0.00  0.00    -0.209 N 
ATOM      2  N   UNL d   1      -0.297  -0.293   0.832  0.00  0.00    -0.268 N 
ATOM      3  HN  UNL d   1      -0.286  -0.543   1.821  1.00  0.00     0.190 HD
ATOM      4  C   UNL d   1      -0.503   0.902   0.252  0.00  0.00     0.144 A 
ATOM      5  N   UNL d   1      -0.431   0.840  -1.119  0.00  0.00    -0.266 N 
ATOM      6  HN  UNL d   1      -0.533   1.620  -1.768  1.00  0.00     0.186 HD
ATOM      7  N   UNL d   1      -0.204  -0.427  -1.436  0.00  0.00    -0.002 NA
ENDROOT
BRANCH   1   8
ATOM      8  C   UNL d   1      -0.342  -2.497  -0.172  0.00  0.00     0.251 C 
BRANCH   8   9
ATOM      9  C   UNL d   1       0.934  -3.295  -0.122  0.00  0.00     0.180 C 
ATOM     10  O   UNL d   1       2.045  -2.807  -0.302  0.00  0.00    -0.290 OA
BRANCH   9  11
ATOM     11  C   UNL d   1       0.828  -4.761   0.166  0.00  0.00     0.014 A 
ATOM     12  C   UNL d   1      -0.403  -5.421   0.286  0.00  0.00     0.051 A 
ATOM     13  C   UNL d   1      -0.431  -6.787   0.615  0.00  0.00     0.103 A 
ATOM     14  C   UNL d   1       0.755  -7.505   0.808  0.00  0.00     0.036 A 
ATOM     15  C   UNL d   1       1.978  -6.853   0.662  0.00  0.00     0.003 A 
ATOM     16  C   UNL d   1       2.014  -5.492   0.344  0.00  0.00     0.015 A 
BRANCH  13  17
ATOM     17  N   UNL d   1      -1.725  -7.468   0.777  0.00  0.00    -0.116 N 
ATOM     18  O   UNL d   1      -2.749  -6.791   0.602  0.00  0.00    -0.532 OA
ATOM     19  O   UNL d   1      -1.713  -8.666   1.082  0.00  0.00    -0.532 OA
ENDBRANCH  13  17
ENDBRANCH   9  11
ENDBRANCH   8   9
ENDBRANCH   1   8
BRANCH   4  20
ATOM     20  C   UNL d   1      -0.933   2.088   0.979  0.00  0.00     0.014 A 
ATOM     21  C   UNL d   1      -1.005   2.068   2.381  0.00  0.00     0.039 A 
ATOM     22  C   UNL d   1      -1.547   3.148   3.074  0.00  0.00     0.036 A 
ATOM     23 CL   UNL d   1      -1.676   3.080   4.788  0.00  0.00    -0.084 Cl
ATOM     24  C   UNL d   1      -2.012   4.267   2.389  0.00  0.00     0.047 A 
ATOM     25  C   UNL d   1      -1.912   4.304   1.001  0.00  0.00     0.036 A 
ATOM     26  C   UNL d   1      -1.372   3.229   0.293  0.00  0.00     0.039 A 
ATOM     27 CL   UNL d   1      -2.497   5.678   0.146  0.00  0.00    -0.084 Cl
ENDBRANCH   4  20
TORSDOF 5
