REMARK  4 active torsions:
REMARK  status: ('A' for Active; 'I' for Inactive)
REMARK    1  A    between atoms: C_5  and  C_4 
REMARK    2  A    between atoms: O_16  and  C_9 
REMARK    3  A    between atoms: O_17  and  C_10 
REMARK    4  A    between atoms: O_18  and  C_15 
ROOT
ATOM      1  C   UNL d   1      -3.077   1.221  -1.161  0.00  0.00     0.032 A 
ATOM      2  C   UNL d   1      -2.532   2.102  -2.121  0.00  0.00     0.083 A 
ATOM      3  C   UNL d   1      -4.364   1.496  -0.659  0.00  0.00     0.083 A 
ATOM      4  C   UNL d   1      -5.057   2.631  -1.102  0.00  0.00     0.074 A 
ATOM      5  C   UNL d   1      -3.223   3.253  -2.527  0.00  0.00     0.074 A 
ATOM      6  C   UNL d   1      -4.486   3.525  -2.009  0.00  0.00     0.073 A 
ENDROOT
BRANCH   1   7
ATOM      7  C   UNL d   1      -2.317   0.041  -0.721  0.00  0.00     0.041 C 
ATOM      8  C   UNL d   1      -1.249   0.050   0.100  0.00  0.00     0.115 C 
ATOM      9  C   UNL d   1      -0.630  -1.248   0.408  0.00  0.00     0.302 C 
ATOM     10  C   UNL d   1      -0.702   1.269   0.709  0.00  0.00     0.302 C 
ATOM     11  O   UNL d   1       0.607  -1.181   0.935  0.00  0.00    -0.280 OA
ATOM     12  O   UNL d   1      -1.197  -2.322   0.234  0.00  0.00    -0.259 OA
ATOM     13  C   UNL d   1       1.348   0.021   0.730  0.00  0.00     0.175 C 
ATOM     14  O   UNL d   1       0.606   1.201   1.031  0.00  0.00    -0.280 OA
ATOM     15  C   UNL d   1       1.895   0.068  -0.699  0.00  0.00     0.080 C 
ATOM     16  C   UNL d   1       2.513  -0.004   1.717  0.00  0.00     0.080 C 
ATOM     17  O   UNL d   1      -1.365   2.265   0.959  0.00  0.00    -0.259 OA
ENDBRANCH   1   7
BRANCH   2  18
ATOM     18  O   UNL d   1      -1.274   1.949  -2.661  0.00  0.00    -0.355 OA
ATOM     19  C   UNL d   1      -1.144   0.784  -3.475  0.00  0.00     0.210 C 
ENDBRANCH   2  18
BRANCH   3  20
ATOM     20  O   UNL d   1      -5.106   0.710   0.188  0.00  0.00    -0.355 OA
ATOM     21  C   UNL d   1      -4.440   0.147   1.311  0.00  0.00     0.210 C 
ENDBRANCH   3  20
BRANCH   6  22
ATOM     22  O   UNL d   1      -5.273   4.592  -2.341  0.00  0.00    -0.356 OA
ATOM     23  C   UNL d   1      -4.587   5.756  -2.792  0.00  0.00     0.210 C 
ENDBRANCH   6  22
TORSDOF 4
