REMARK  1 active torsions:
REMARK  status: ('A' for Active; 'I' for Inactive)
REMARK    1  A    between atoms: C_2  and  N_1 
ROOT
ATOM      1  N   UNL d   1       0.590   1.197  -0.436  0.00  0.00    -0.235 N 
ATOM      2  C   UNL d   1       1.379   0.060  -0.234  0.00  0.00     0.232 C 
ATOM      3  C   UNL d   1      -0.745   1.237  -0.040  0.00  0.00     0.232 C 
ATOM      4  C   UNL d   1      -1.500  -0.063  -0.194  0.00  0.00     0.108 C 
ATOM      5  C   UNL d   1       0.648  -1.269  -0.302  0.00  0.00     0.108 C 
ATOM      6  O   UNL d   1       2.586   0.041   0.003  0.00  0.00    -0.273 OA
ATOM      7  O   UNL d   1      -1.346   2.220   0.393  0.00  0.00    -0.273 OA
ATOM      8  C   UNL d   1      -0.724  -1.248   0.346  0.00  0.00    -0.001 C 
ATOM      9  C   UNL d   1      -0.650  -1.240   1.873  0.00  0.00     0.011 C 
ENDROOT
BRANCH   1  10
ATOM     10  C   UNL d   1       1.232   2.404  -0.802  0.00  0.00     0.139 A 
ATOM     11  N   UNL d   1       2.494   2.462  -1.261  0.00  0.00    -0.244 N 
ATOM     12  O   UNL d   1       2.761   3.775  -1.571  0.00  0.00    -0.241 OA
ATOM     13  HN  UNL d   1       3.136   1.676  -1.361  1.00  0.00     0.196 HD
ATOM     14  C   UNL d   1       1.663   4.527  -1.332  0.00  0.00     0.076 A 
ATOM     15  C   UNL d   1       0.662   3.711  -0.869  0.00  0.00     0.085 A 
ATOM     16  C   UNL d   1       1.771   5.969  -1.610  0.00  0.00     0.079 C 
ENDBRANCH   1  10
TORSDOF 1
