REMARK  7 active torsions:
REMARK  status: ('A' for Active; 'I' for Inactive)
REMARK    1  A    between atoms: C_4  and  C_1 
REMARK    2  A    between atoms: C_8  and  C_2 
REMARK    3  A    between atoms: O_13  and  C_3 
REMARK    4  A    between atoms: O_14  and  C_4 
REMARK    5  A    between atoms: O_15  and  C_6 
REMARK    6  A    between atoms: O_16  and  C_7 
REMARK    7  A    between atoms: C_17  and  O_14 
ROOT
ATOM      1  C   UNL d   1      -0.715   1.282  -0.074  0.00  0.00     0.120 C 
ATOM      2  C   UNL d   1       0.347   0.909   0.665  0.00  0.00     0.040 C 
ATOM      3  C   UNL d   1      -1.298   2.579   0.009  0.00  0.00     0.105 C 
ATOM      4  N   UNL d   1      -1.767   3.636   0.080  0.00  0.00    -0.191 NA
ENDROOT
BRANCH   1   5
ATOM      5  C   UNL d   1      -1.234   0.307  -1.063  0.00  0.00     0.303 C 
ATOM      6  O   UNL d   1      -0.758  -0.802  -1.253  0.00  0.00    -0.258 OA
BRANCH   5   7
ATOM      7  O   UNL d   1      -2.245   0.866  -1.772  0.00  0.00    -0.317 OA
BRANCH   7   8
ATOM      8  C   UNL d   1      -2.593   0.212  -2.999  0.00  0.00     0.174 C 
ATOM      9  C   UNL d   1      -1.685   0.744  -4.093  0.00  0.00     0.034 C 
ENDBRANCH   7   8
ENDBRANCH   5   7
ENDBRANCH   1   5
BRANCH   2  10
ATOM     10  C   UNL d   1       1.017   1.803   1.610  0.00  0.00    -0.029 A 
ATOM     11  C   UNL d   1       0.549   1.934   2.914  0.00  0.00     0.051 A 
ATOM     12  C   UNL d   1       1.160   2.827   3.809  0.00  0.00     0.105 A 
ATOM     13  C   UNL d   1       2.259   3.616   3.389  0.00  0.00     0.135 A 
ATOM     14  C   UNL d   1       2.704   3.500   2.053  0.00  0.00     0.105 A 
ATOM     15  C   UNL d   1       2.084   2.588   1.186  0.00  0.00     0.051 A 
BRANCH  12  16
ATOM     16  O   UNL d   1       0.644   3.013   5.069  0.00  0.00    -0.353 OA
ATOM     17  C   UNL d   1       0.016   1.886   5.674  0.00  0.00     0.210 C 
ENDBRANCH  12  16
BRANCH  13  18
ATOM     18  O   UNL d   1       2.940   4.511   4.172  0.00  0.00    -0.351 OA
ATOM     19  C   UNL d   1       2.750   4.528   5.577  0.00  0.00     0.210 C 
ENDBRANCH  13  18
BRANCH  14  20
ATOM     20  O   UNL d   1       3.696   4.190   1.403  0.00  0.00    -0.353 OA
ATOM     21  C   UNL d   1       4.505   5.112   2.113  0.00  0.00     0.210 C 
ENDBRANCH  14  20
ENDBRANCH   2  10
TORSDOF 7
