REMARK  5 active torsions:
REMARK  status: ('A' for Active; 'I' for Inactive)
REMARK    1  A    between atoms: O_2  and  C_1 
REMARK    2  A    between atoms: N_6  and  C_1 
REMARK    3  A    between atoms: C_3  and  O_2 
REMARK    4  A    between atoms: C_13  and  N_6 
REMARK    5  A    between atoms: C_14  and  N_6 
ROOT
ATOM      1  C   UNL d   1      -0.628   0.545   1.719  0.00  0.00     0.100 A 
ATOM      2  C   UNL d   1      -1.579   1.549   1.527  0.00  0.00     0.069 A 
ATOM      3  C   UNL d   1      -2.764   1.514   2.261  0.00  0.00     0.050 A 
ATOM      4  C   UNL d   1      -0.831  -0.489   2.631  0.00  0.00     0.041 A 
ATOM      5  C   UNL d   1      -2.971   0.484   3.182  0.00  0.00     0.035 A 
ATOM      6 CL   UNL d   1      -1.311   2.846   0.426  0.00  0.00    -0.081 Cl
ATOM      7  C   UNL d   1      -2.017  -0.520   3.364  0.00  0.00     0.026 A 
ATOM      8 CL   UNL d   1      -4.407   0.468   4.131  0.00  0.00    -0.084 Cl
ENDROOT
BRANCH   1   9
ATOM      9  O   UNL d   1       0.653   0.652   1.119  0.00  0.00    -0.283 OA
BRANCH   9  10
ATOM     10  C   UNL d   1       1.180  -0.101   0.055  0.00  0.00     0.217 C 
ATOM     11  S   UNL d   1       0.190  -1.086  -0.860  0.00  0.00    -0.033 SA
BRANCH  10  12
ATOM     12  N   UNL d   1       2.551   0.113  -0.105  0.00  0.00    -0.353 N 
BRANCH  12  13
ATOM     13  C   UNL d   1       3.326  -0.403  -1.242  0.00  0.00     0.121 C 
ATOM     14  C   UNL d   1       4.086  -1.673  -0.892  0.00  0.00     0.026 C 
ENDBRANCH  12  13
BRANCH  12  15
ATOM     15  C   UNL d   1       3.292   0.904   0.885  0.00  0.00     0.121 C 
ATOM     16  C   UNL d   1       3.232   2.394   0.594  0.00  0.00     0.026 C 
ENDBRANCH  12  15
ENDBRANCH  10  12
ENDBRANCH   9  10
ENDBRANCH   1   9
TORSDOF 5
