REMARK  3 active torsions:
REMARK  status: ('A' for Active; 'I' for Inactive)
REMARK    1  A    between atoms: C_9  and  C_7 
REMARK    2  A    between atoms: C_8  and  C_9 
REMARK    3  A    between atoms: O_13  and  C_8 
ROOT
ATOM      1  C   UNL d   1      -1.199  -0.836   0.001  0.00  0.00     0.097 A 
ATOM      2  C   UNL d   1       0.036   1.304  -0.024  0.00  0.00     0.198 A 
ATOM      3  O   UNL d   1      -0.028  -1.558  -0.051  0.00  0.00    -0.308 OA
ATOM      4  C   UNL d   1      -1.232   0.560   0.002  0.00  0.00     0.049 A 
ATOM      5  C   UNL d   1       1.268   0.508  -0.003  0.00  0.00     0.049 A 
ATOM      6  C   UNL d   1       1.165  -0.879  -0.017  0.00  0.00     0.090 A 
ATOM      7  C   UNL d   1      -2.404  -1.562   0.040  0.00  0.00    -0.014 A 
ATOM      8  O   UNL d   1       0.063   2.528  -0.059  0.00  0.00    -0.286 OA
ATOM      9  C   UNL d   1      -2.448   1.250   0.028  0.00  0.00     0.018 A 
ATOM     10  C   UNL d   1       2.520   1.133   0.033  0.00  0.00     0.018 A 
ATOM     11  C   UNL d   1      -3.621  -0.860   0.073  0.00  0.00     0.010 A 
ATOM     12  C   UNL d   1       2.326  -1.654   0.001  0.00  0.00     0.038 A 
ATOM     13  C   UNL d   1      -3.642   0.536   0.064  0.00  0.00     0.002 A 
ATOM     14  C   UNL d   1       3.676   0.355   0.054  0.00  0.00     0.001 A 
ATOM     15  C   UNL d   1       3.580  -1.037   0.038  0.00  0.00     0.003 A 
ENDROOT
BRANCH   7  16
ATOM     16  C   UNL d   1      -2.414  -3.075   0.012  0.00  0.00     0.152 C 
BRANCH  16  17
ATOM     17  C   UNL d   1      -1.725  -3.729   1.190  0.00  0.00     0.262 C 
ATOM     18  O   UNL d   1      -1.613  -3.249   2.311  0.00  0.00    -0.265 OA
BRANCH  17  19
ATOM     19  O   UNL d   1      -1.290  -4.973   0.829  0.00  0.00    -0.326 OA
ATOM     20  C   UNL d   1      -0.630  -5.688   1.874  0.00  0.00     0.213 C 
ENDBRANCH  17  19
ENDBRANCH  16  17
ENDBRANCH   7  16
TORSDOF 3
