REMARK  1 active torsions:
REMARK  status: ('A' for Active; 'I' for Inactive)
REMARK    1  A    between atoms: O_12  and  N_10 
ROOT
ATOM      1  C   UNL d   1      -2.575   1.680  -0.560  0.00  0.00     0.021 A 
ATOM      2  N   UNL d   1      -4.385   0.605  -1.718  0.00  0.00    -0.304 N 
ATOM      3  HN  UNL d   1      -4.733  -0.168  -2.284  1.00  0.00     0.186 HD
ATOM      4  N   UNL d   1      -5.207   1.628  -1.388  0.00  0.00    -0.304 N 
ATOM      5  HN  UNL d   1      -6.168   1.638  -1.730  1.00  0.00     0.186 HD
ATOM      6  C   UNL d   1      -3.430   2.730  -0.176  0.00  0.00    -0.020 A 
ATOM      7  C   UNL d   1      -1.155   1.517  -0.131  0.00  0.00     0.044 C 
ATOM      8  C   UNL d   1      -3.104   0.612  -1.295  0.00  0.00     0.038 A 
ATOM      9  C   UNL d   1      -4.759   2.638  -0.608  0.00  0.00     0.033 A 
ATOM     10  N   UNL d   1      -0.186   2.379  -0.145  0.00  0.00    -0.273 N 
ATOM     11  HN  UNL d   1       0.725   2.203   0.278  1.00  0.00     0.194 HD
ATOM     12  C   UNL d   1      -3.036   3.822   0.794  0.00  0.00     0.042 C 
ATOM     13  C   UNL d   1      -0.763   0.091   0.208  0.00  0.00     0.060 C 
ATOM     14  C   UNL d   1      -0.904  -0.675  -1.101  0.00  0.00     0.012 C 
ATOM     15  C   UNL d   1      -2.363  -0.677  -1.548  0.00  0.00     0.060 C 
ATOM     16  C   UNL d   1      -5.808   3.650  -0.234  0.00  0.00     0.059 C 
ATOM     17  C   UNL d   1      -4.057   4.956   0.931  0.00  0.00     0.005 C 
ATOM     18  C   UNL d   1      -5.467   4.405   1.042  0.00  0.00     0.006 C 
ENDROOT
BRANCH  10  19
ATOM     19  O   UNL d   1      -0.508   3.566  -0.794  0.00  0.00    -0.290 OA
ATOM     20  H   UNL d   1       0.298   4.099  -0.663  0.00  0.00     0.244 HD
ENDBRANCH  10  19
TORSDOF 1
