REMARK  2 active torsions:
REMARK  status: ('A' for Active; 'I' for Inactive)
REMARK    1  A    between atoms: S_8  and  C_3 
REMARK    2  A    between atoms: C_7  and  N_4 
ROOT
ATOM      1  N   UNL d   1      -1.856  -0.222  -1.022  0.00  0.00    -0.346 N 
ATOM      2  HN  UNL d   1      -2.011  -0.428  -2.009  1.00  0.00     0.163 HD
ATOM      3  C   UNL d   1      -2.735  -0.018  -0.078  0.00  0.00     0.156 A 
ATOM      4  N   UNL d   1      -2.262   0.268   1.176  0.00  0.00    -0.254 N 
ATOM      5  N   UNL d   1      -0.852   0.315   1.111  0.00  0.00    -0.202 NA
ATOM      6  C   UNL d   1      -0.567  -0.075  -0.285  0.00  0.00     0.103 A 
ATOM      7  C   UNL d   1       0.247   0.979  -1.067  0.00  0.00     0.049 C 
ATOM      8  C   UNL d   1       0.116  -1.460  -0.330  0.00  0.00     0.049 C 
ATOM      9  C   UNL d   1       1.436   1.639  -0.368  0.00  0.00     0.004 C 
ATOM     10  C   UNL d   1       1.422  -1.614   0.448  0.00  0.00     0.004 C 
ATOM     11  C   UNL d   1       2.296   0.774   0.545  0.00  0.00     0.000 C 
ATOM     12  C   UNL d   1       2.536  -0.648   0.054  0.00  0.00     0.000 C 
ATOM     13  H   UNL d   1      -0.574   1.288   1.240  0.00  0.00     0.150 HD
ENDROOT
BRANCH   4  14
ATOM     14  C   UNL d   1      -2.901   0.737   2.348  0.00  0.00     0.053 A 
ATOM     15  C   UNL d   1      -2.363   0.427   3.612  0.00  0.00     0.031 A 
ATOM     16  C   UNL d   1      -2.968   0.868   4.793  0.00  0.00     0.002 A 
ATOM     17  C   UNL d   1      -4.121   1.643   4.733  0.00  0.00     0.000 A 
ATOM     18  C   UNL d   1      -4.660   1.983   3.497  0.00  0.00     0.002 A 
ATOM     19  C   UNL d   1      -4.050   1.538   2.317  0.00  0.00     0.031 A 
ENDBRANCH   4  14
BRANCH   3  20
ATOM     20  S   UNL d   1      -4.411  -0.189  -0.510  0.00  0.00    -0.106 SA
ATOM     21  H   UNL d   1      -4.169  -0.345  -1.817  0.00  0.00     0.110 HD
ENDBRANCH   3  20
TORSDOF 2
