REMARK  2 active torsions:
REMARK  status: ('A' for Active; 'I' for Inactive)
REMARK    1  A    between atoms: C_12  and  C_5 
REMARK    2  A    between atoms: C_13  and  C_10 
ROOT
ATOM      1  N   UNL d   1      -0.247  -0.635   0.016  0.00  0.00    -0.243 N 
ATOM      2  C   UNL d   1      -0.219   0.761   0.005  0.00  0.00     0.129 A 
ATOM      3  N   UNL d   1      -1.525  -1.097   0.009  0.00  0.00    -0.292 N 
ATOM      4  HN  UNL d   1      -1.827  -2.071   0.032  1.00  0.00     0.187 HD
ATOM      5  C   UNL d   1       2.131  -0.740   0.058  0.00  0.00     0.049 A 
ATOM      6  C   UNL d   1       0.942  -1.393   0.029  0.00  0.00     0.047 A 
ATOM      7  C   UNL d   1      -1.526   1.172  -0.042  0.00  0.00     0.082 A 
ATOM      8  N   UNL d   1       0.944   1.470   0.046  0.00  0.00    -0.350 N 
ATOM      9  HN  UNL d   1       0.963   2.489   0.047  1.00  0.00     0.166 HD
ATOM     10  C   UNL d   1      -2.309  -0.008  -0.036  0.00  0.00     0.062 A 
ATOM     11  C   UNL d   1       2.027   0.755   0.083  0.00  0.00     0.107 A 
ATOM     12  C   UNL d   1       0.744  -2.886  -0.009  0.00  0.00     0.071 C 
ENDROOT
BRANCH  10  13
ATOM     13  C   UNL d   1      -3.768  -0.107  -0.060  0.00  0.00    -0.008 A 
ATOM     14  C   UNL d   1      -4.420  -1.182   0.561  0.00  0.00     0.014 A 
ATOM     15  C   UNL d   1      -5.815  -1.266   0.558  0.00  0.00     0.001 A 
ATOM     16  C   UNL d   1      -6.573  -0.281  -0.073  0.00  0.00     0.000 A 
ATOM     17  C   UNL d   1      -5.938   0.787  -0.702  0.00  0.00     0.001 A 
ATOM     18  C   UNL d   1      -4.543   0.876  -0.694  0.00  0.00     0.014 A 
ENDBRANCH  10  13
BRANCH   5  19
ATOM     19  C   UNL d   1       3.466  -1.413   0.083  0.00  0.00     0.159 C 
ATOM     20  O   UNL d   1       3.618  -2.512   0.617  0.00  0.00    -0.293 OA
ATOM     21  C   UNL d   1       4.653  -0.715  -0.535  0.00  0.00     0.097 C 
ENDBRANCH   5  19
TORSDOF 2
