REMARK  4 active torsions:
REMARK  status: ('A' for Active; 'I' for Inactive)
REMARK    1  A    between atoms: C_2  and  N_1 
REMARK    2  A    between atoms: N_3  and  C_4 
REMARK    3  A    between atoms: C_7  and  C_12 
REMARK    4  A    between atoms: C_11  and  C_7 
ROOT
ATOM      1  N   UNL d   1      -2.126   4.341  -1.401  0.00  0.00    -0.367 N 
ATOM      2  C   UNL d   1      -4.573   5.787  -1.934  0.00  0.00     0.064 C 
ATOM      3  C   UNL d   1      -2.295   5.628  -0.736  0.00  0.00     0.125 C 
ATOM      4  C   UNL d   1      -2.727   4.231  -2.728  0.00  0.00     0.125 C 
ATOM      5  C   UNL d   1      -3.795   5.933  -0.610  0.00  0.00     0.032 C 
ATOM      6  C   UNL d   1      -4.231   4.452  -2.606  0.00  0.00     0.032 C 
ENDROOT
BRANCH   1   7
ATOM      7  C   UNL d   1      -1.141   3.433  -1.075  0.00  0.00     0.103 A 
ATOM      8  C   UNL d   1      -0.088   3.730  -0.208  0.00  0.00     0.051 A 
ATOM      9  C   UNL d   1       0.844   2.748   0.143  0.00  0.00     0.041 A 
ATOM     10  C   UNL d   1       0.696   1.470  -0.384  0.00  0.00     0.118 A 
ATOM     11  C   UNL d   1      -0.356   1.230  -1.241  0.00  0.00     0.125 A 
ATOM     12  N   UNL d   1      -1.255   2.184  -1.590  0.00  0.00    -0.350 N 
ATOM     13  HN  UNL d   1      -2.012   1.963  -2.236  1.00  0.00     0.166 HD
BRANCH  10  14
ATOM     14  N   UNL d   1       1.621   0.401  -0.050  0.00  0.00    -0.114 N 
ATOM     15  O   UNL d   1       1.420  -0.715  -0.552  0.00  0.00    -0.532 OA
ATOM     16  O   UNL d   1       2.556   0.667   0.718  0.00  0.00    -0.532 OA
ENDBRANCH  10  14
ENDBRANCH   1   7
BRANCH   2  17
ATOM     17  C   UNL d   1      -4.299   6.990  -2.835  0.00  0.00     0.163 C 
ATOM     18  O   UNL d   1      -3.233   7.600  -2.804  0.00  0.00    -0.292 OA
BRANCH  17  19
ATOM     19  C   UNL d   1      -5.354   7.491  -3.759  0.00  0.00     0.010 A 
ATOM     20  C   UNL d   1      -5.350   8.863  -4.060  0.00  0.00     0.017 A 
ATOM     21  C   UNL d   1      -6.266   9.393  -4.971  0.00  0.00     0.025 A 
ATOM     22  C   UNL d   1      -7.179   8.549  -5.596  0.00  0.00     0.034 A 
ATOM     23  C   UNL d   1      -7.202   7.187  -5.295  0.00  0.00     0.025 A 
ATOM     24 CL   UNL d   1      -8.278   9.187  -6.754  0.00  0.00    -0.084 Cl
ATOM     25  C   UNL d   1      -6.298   6.658  -4.366  0.00  0.00     0.017 A 
ENDBRANCH  17  19
ENDBRANCH   2  17
TORSDOF 4
