REMARK  2 active torsions:
REMARK  status: ('A' for Active; 'I' for Inactive)
REMARK    1  A    between atoms: N_6  and  C_1 
REMARK    2  A    between atoms: C_9  and  N_2 
REMARK       I    between atoms: C_7  and  N_6 
REMARK       I    between atoms: N_11  and  C_7 
ROOT
ATOM      1  C   UNL d   1      -0.520  -1.169   0.045  0.00  0.00     0.128 C 
ATOM      2  N   UNL d   1       0.794  -0.757  -0.082  0.00  0.00    -0.267 N 
ATOM      3  N   UNL d   1       0.887   0.594  -0.194  0.00  0.00    -0.301 N 
ATOM      4  HN  UNL d   1       1.723   1.145  -0.391  1.00  0.00     0.187 HD
ATOM      5  C   UNL d   1      -1.262  -0.015   0.181  0.00  0.00     0.076 C 
ATOM      6  C   UNL d   1      -0.353   1.043   0.011  0.00  0.00     0.025 C 
ATOM      7  C   UNL d   1      -0.631   2.498   0.018  0.00  0.00     0.070 C 
ENDROOT
BRANCH   1   8
ATOM      8  N   UNL d   1      -0.963  -2.479   0.037  0.00  0.00    -0.293 N 
ATOM      9  C   UNL d   1      -1.936  -2.896   0.923  0.00  0.00     0.321 C 
ATOM     10  O   UNL d   1      -2.500  -2.201   1.761  0.00  0.00    -0.247 OA
ATOM     11  N   UNL d   1      -2.144  -4.257   0.814  0.00  0.00    -0.347 N 
ATOM     12  C   UNL d   1      -3.033  -4.954   1.711  0.00  0.00     0.151 C 
ATOM     13  H   UNL d   1      -1.970  -4.673  -0.088  0.00  0.00     0.163 HD
ATOM     14  H   UNL d   1      -0.366  -3.202  -0.323  0.00  0.00     0.172 HD
ENDBRANCH   1   8
BRANCH   2  15
ATOM     15  C   UNL d   1       2.055  -1.530  -0.063  0.00  0.00     0.044 C 
ATOM     16  C   UNL d   1       2.479  -1.804  -1.514  0.00  0.00     0.039 C 
ATOM     17  C   UNL d   1       3.173  -0.719   0.645  0.00  0.00     0.039 C 
ATOM     18  C   UNL d   1       1.976  -2.868   0.706  0.00  0.00     0.039 C 
ENDBRANCH   2  15
TORSDOF 2
