REMARK  3 active torsions:
REMARK  status: ('A' for Active; 'I' for Inactive)
REMARK    1  A    between atoms: C_5  and  N_1 
REMARK    2  A    between atoms: N_12  and  C_4 
REMARK    3  A    between atoms: C_11  and  C_13 
ROOT
ATOM      1  N   UNL d   1      -0.684   1.126   0.037  0.00  0.00    -0.216 N 
ATOM      2  C   UNL d   1      -1.423  -0.055  -0.048  0.00  0.00     0.291 A 
ATOM      3  C   UNL d   1      -0.616  -1.315  -0.042  0.00  0.00     0.131 A 
ATOM      4  C   UNL d   1       0.725  -1.303  -0.051  0.00  0.00     0.075 A 
ATOM      5  N   UNL d   1       0.684   1.183   0.048  0.00  0.00    -0.300 N 
ATOM      6  HN  UNL d   1       1.181   2.073   0.088  1.00  0.00     0.186 HD
ATOM      7  C   UNL d   1       1.315   0.059   0.006  0.00  0.00     0.139 A 
ATOM      8  O   UNL d   1      -2.650  -0.092  -0.166  0.00  0.00    -0.264 OA
ATOM      9 CL   UNL d   1      -1.518  -2.796  -0.012  0.00  0.00    -0.076 Cl
ENDROOT
BRANCH   1  10
ATOM     10  C   UNL d   1      -1.326   2.398   0.019  0.00  0.00     0.103 A 
ATOM     11  C   UNL d   1      -2.248   2.761   1.020  0.00  0.00     0.065 A 
ATOM     12  C   UNL d   1      -2.905   4.000   0.979  0.00  0.00     0.042 A 
ATOM     13 CL   UNL d   1      -2.535   1.778   2.419  0.00  0.00    -0.082 Cl
ATOM     14  C   UNL d   1      -2.655   4.912  -0.055  0.00  0.00     0.051 A 
ATOM     15  C   UNL d   1      -1.726   4.564  -1.042  0.00  0.00     0.042 A 
ATOM     16  C   UNL d   1      -1.067   3.327  -1.008  0.00  0.00     0.065 A 
ATOM     17 CL   UNL d   1      -0.023   2.978  -2.348  0.00  0.00    -0.082 Cl
BRANCH  14  18
ATOM     18  C   UNL d   1      -3.380   6.235  -0.095  0.00  0.00     0.417 C 
ATOM     19  F   UNL d   1      -3.030   7.012  -1.158  0.00  0.00    -0.166 F 
ATOM     20  F   UNL d   1      -4.730   6.084  -0.170  0.00  0.00    -0.166 F 
ATOM     21  F   UNL d   1      -3.144   6.989   1.013  0.00  0.00    -0.166 F 
ENDBRANCH  14  18
ENDBRANCH   1  10
BRANCH   4  22
ATOM     22  N   UNL d   1       1.644  -2.353  -0.097  0.00  0.00    -0.378 N 
ATOM     23  C   UNL d   1       1.648  -3.363  -1.161  0.00  0.00     0.123 C 
ATOM     24  C   UNL d   1       1.735  -4.691  -0.427  0.00  0.00     0.021 C 
ATOM     25  C   UNL d   1       2.603  -4.357   0.772  0.00  0.00     0.021 C 
ATOM     26  C   UNL d   1       2.196  -2.931   1.138  0.00  0.00     0.123 C 
ENDBRANCH   4  22
TORSDOF 3
