REMARK  5 active torsions:
REMARK  status: ('A' for Active; 'I' for Inactive)
REMARK    1  A    between atoms: C_2  and  C_1 
REMARK       I    between atoms: N_3  and  C_2 
REMARK    2  A    between atoms: C_8  and  N_3 
REMARK    3  A    between atoms: C_4  and  C_8 
REMARK    4  A    between atoms: O_10  and  C_4 
REMARK    5  A    between atoms: C_13  and  O_10 
ROOT
ATOM      1  C   UNL d   1      -0.363   2.557  -0.061  0.00  0.00     0.253 C 
ATOM      2  N   UNL d   1       0.259   3.771  -0.139  0.00  0.00    -0.348 N 
ATOM      3  O   UNL d   1       0.282   1.513  -0.000  0.00  0.00    -0.268 OA
ATOM      4  H   UNL d   1      -0.288   4.626  -0.153  0.00  0.00     0.163 HD
ENDROOT
BRANCH   1   5
ATOM      5  C   UNL d   1      -1.865   2.524  -0.060  0.00  0.00     0.053 A 
ATOM      6  C   UNL d   1      -2.728   3.634  -0.080  0.00  0.00     0.049 A 
ATOM      7 CL   UNL d   1      -2.224   5.288  -0.085  0.00  0.00    -0.083 Cl
ATOM      8  C   UNL d   1      -4.122   3.445  -0.089  0.00  0.00     0.025 A 
ATOM      9  C   UNL d   1      -4.668   2.166  -0.073  0.00  0.00     0.002 A 
ATOM     10  C   UNL d   1      -3.831   1.061  -0.043  0.00  0.00     0.001 A 
ATOM     11  C   UNL d   1      -2.442   1.239  -0.036  0.00  0.00     0.019 A 
ENDBRANCH   1   5
BRANCH   2  12
ATOM     12  C   UNL d   1       1.706   3.935  -0.112  0.00  0.00     0.233 C 
BRANCH  12  13
ATOM     13  C   UNL d   1       2.110   5.405  -0.017  0.00  0.00     0.276 C 
ATOM     14  O   UNL d   1       3.263   5.801   0.069  0.00  0.00    -0.263 OA
BRANCH  13  15
ATOM     15  O   UNL d   1       1.000   6.202   0.031  0.00  0.00    -0.321 OA
BRANCH  15  16
ATOM     16  C   UNL d   1       1.191   7.530   0.534  0.00  0.00     0.174 C 
ATOM     17  C   UNL d   1       1.056   7.479   2.045  0.00  0.00     0.034 C 
ENDBRANCH  15  16
ENDBRANCH  13  15
ENDBRANCH  12  13
ENDBRANCH   2  12
TORSDOF 5
