REMARK  3 active torsions:
REMARK  status: ('A' for Active; 'I' for Inactive)
REMARK    1  A    between atoms: C_8  and  N_1 
REMARK    2  A    between atoms: C_11  and  C_5 
REMARK    3  A    between atoms: N_9  and  C_8 
ROOT
ATOM      1  N   UNL d   1       2.173  -0.624  -0.444  0.00  0.00    -0.228 N 
ATOM      2  N   UNL d   1       2.115   0.758  -0.452  0.00  0.00    -0.292 N 
ATOM      3  HN  UNL d   1       2.967   1.302  -0.587  1.00  0.00     0.187 HD
ATOM      4  C   UNL d   1       1.082  -1.415  -0.099  0.00  0.00     0.274 C 
ATOM      5  C   UNL d   1       0.977   1.367  -0.287  0.00  0.00     0.070 C 
ATOM      6  C   UNL d   1      -0.232  -0.755  -0.082  0.00  0.00     0.046 A 
ATOM      7  C   UNL d   1      -0.309   0.627  -0.207  0.00  0.00     0.009 A 
ATOM      8  O   UNL d   1       1.138  -2.614   0.174  0.00  0.00    -0.266 OA
ATOM      9  C   UNL d   1      -1.397  -1.528   0.039  0.00  0.00     0.018 A 
ATOM     10  C   UNL d   1      -1.573   1.232  -0.270  0.00  0.00     0.015 A 
ATOM     11  C   UNL d   1      -2.648  -0.914   0.025  0.00  0.00     0.001 A 
ATOM     12  C   UNL d   1      -2.735   0.466  -0.133  0.00  0.00     0.001 A 
ENDROOT
BRANCH   1  13
ATOM     13  C   UNL d   1       3.514  -1.209  -0.433  0.00  0.00     0.424 C 
BRANCH  13  14
ATOM     14  N   UNL d   1       4.009  -1.661  -1.736  0.00  0.00     0.107 N 
ATOM     15  C   UNL d   1       4.097  -0.632  -2.764  0.00  0.00     0.274 C 
ATOM     16  C   UNL d   1       2.885  -0.831  -3.654  0.00  0.00     0.032 C 
ATOM     17  C   UNL d   1       2.578  -2.315  -3.554  0.00  0.00     0.032 C 
ATOM     18  C   UNL d   1       3.300  -2.804  -2.306  0.00  0.00     0.274 C 
ENDBRANCH  13  14
ENDBRANCH   1  13
BRANCH   5  19
ATOM     19  C   UNL d   1       1.034   2.855  -0.130  0.00  0.00    -0.007 A 
ATOM     20  C   UNL d   1       1.951   3.587  -0.894  0.00  0.00     0.014 A 
ATOM     21  C   UNL d   1       2.072   4.967  -0.714  0.00  0.00     0.001 A 
ATOM     22  C   UNL d   1       1.277   5.623   0.226  0.00  0.00     0.000 A 
ATOM     23  C   UNL d   1       0.377   4.898   1.004  0.00  0.00     0.001 A 
ATOM     24  C   UNL d   1       0.274   3.515   0.845  0.00  0.00     0.014 A 
ENDBRANCH   5  19
TORSDOF 3
