REMARK  6 active torsions:
REMARK  status: ('A' for Active; 'I' for Inactive)
REMARK    1  A    between atoms: N_7  and  S_1 
REMARK    2  A    between atoms: C_10  and  S_1 
REMARK    3  A    between atoms: N_15  and  N_7 
REMARK    4  A    between atoms: C_8  and  C_13 
REMARK    5  A    between atoms: C_9  and  C_14 
REMARK    6  A    between atoms: C_12  and  N_15 
ROOT
ATOM      1  S   UNL d   1       1.099  -0.148  -0.188  0.00  0.00     0.276 S 
ATOM      2  O   UNL d   1       0.558  -0.782  -1.373  0.00  0.00    -0.199 OA
ATOM      3  O   UNL d   1       2.527  -0.067   0.022  0.00  0.00    -0.199 OA
ENDROOT
BRANCH   1   4
ATOM      4  N   UNL d   1       0.420  -0.907   1.160  0.00  0.00    -0.221 N 
ATOM      5  H   UNL d   1      -0.249  -0.421   1.762  0.00  0.00     0.200 HD
BRANCH   4   6
ATOM      6  N   UNL d   1       0.763  -2.300   1.444  0.00  0.00    -0.275 N 
ATOM      7  H   UNL d   1       1.435  -2.745   0.825  0.00  0.00     0.189 HD
BRANCH   6   8
ATOM      8  C   UNL d   1       0.243  -3.039   2.509  0.00  0.00     0.137 A 
ATOM      9  C   UNL d   1       0.575  -4.385   2.725  0.00  0.00     0.072 A 
ATOM     10  C   UNL d   1       0.011  -5.014   3.822  0.00  0.00     0.138 A 
ATOM     11  C   UNL d   1       1.371  -5.383   2.124  0.00  0.00     0.126 A 
ATOM     12  N   UNL d   1       0.496  -6.295   3.814  0.00  0.00    -0.281 N 
ATOM     13  N   UNL d   1      -0.833  -4.467   4.712  0.00  0.00    -0.337 N 
ATOM     14  C   UNL d   1       0.230  -7.332   4.780  0.00  0.00     0.179 C 
ATOM     15  N   UNL d   1       1.328  -6.549   2.777  0.00  0.00    -0.307 N 
ATOM     16  HN  UNL d   1       1.808  -7.420   2.550  1.00  0.00     0.186 HD
ATOM     17  C   UNL d   1      -1.091  -3.181   4.415  0.00  0.00     0.183 A 
ATOM     18  HN  UNL d   1      -1.227  -4.963   5.512  1.00  0.00     0.168 HD
ATOM     19  N   UNL d   1      -0.616  -2.449   3.385  0.00  0.00    -0.337 N 
ATOM     20  HN  UNL d   1      -0.895  -1.475   3.265  1.00  0.00     0.168 HD
ENDBRANCH   6   8
ENDBRANCH   4   6
ENDBRANCH   1   4
BRANCH   1  21
ATOM     21  C   UNL d   1       0.434   1.500  -0.097  0.00  0.00     0.082 A 
ATOM     22  C   UNL d   1       1.147   2.497   0.579  0.00  0.00     0.041 A 
ATOM     23  C   UNL d   1       0.667   3.816   0.594  0.00  0.00     0.050 A 
ATOM     24  C   UNL d   1      -0.529   4.114  -0.085  0.00  0.00     0.032 A 
ATOM     25  C   UNL d   1      -1.231   3.123  -0.798  0.00  0.00     0.050 A 
ATOM     26  C   UNL d   1      -0.738   1.809  -0.795  0.00  0.00     0.041 A 
BRANCH  23  27
ATOM     27  C   UNL d   1       1.426   4.917   1.306  0.00  0.00     0.417 C 
ATOM     28  F   UNL d   1       2.589   4.497   1.872  0.00  0.00    -0.166 F 
ATOM     29  F   UNL d   1       1.760   5.938   0.470  0.00  0.00    -0.166 F 
ATOM     30  F   UNL d   1       0.698   5.475   2.311  0.00  0.00    -0.166 F 
ENDBRANCH  23  27
BRANCH  25  31
ATOM     31  C   UNL d   1      -2.477   3.487  -1.577  0.00  0.00     0.417 C 
ATOM     32  F   UNL d   1      -3.014   2.441  -2.260  0.00  0.00    -0.166 F 
ATOM     33  F   UNL d   1      -3.468   3.960  -0.773  0.00  0.00    -0.166 F 
ATOM     34  F   UNL d   1      -2.244   4.460  -2.500  0.00  0.00    -0.166 F 
ENDBRANCH  25  31
ENDBRANCH   1  21
TORSDOF 6
