REMARK  1 active torsions:
REMARK  status: ('A' for Active; 'I' for Inactive)
REMARK    1  A    between atoms: C_8  and  C_3 
ROOT
ATOM      1  N   UNL d   1       1.623  -1.184  -0.009  0.00  0.00    -0.334 N 
ATOM      2  HN  UNL d   1       1.965  -2.144  -0.038  1.00  0.00     0.168 HD
ATOM      3  C   UNL d   1       2.329  -0.067   0.027  0.00  0.00     0.159 A 
ATOM      4  O   UNL d   1       1.576   1.081   0.064  0.00  0.00    -0.291 OA
ATOM      5  C   UNL d   1       0.320  -0.750   0.003  0.00  0.00     0.070 A 
ATOM      6  C   UNL d   1       0.289   0.634   0.045  0.00  0.00     0.104 A 
ATOM      7  C   UNL d   1      -0.888  -1.458  -0.024  0.00  0.00     0.056 A 
ATOM      8  C   UNL d   1      -0.866   1.404   0.060  0.00  0.00     0.041 A 
ATOM      9  C   UNL d   1      -2.076  -0.714  -0.011  0.00  0.00     0.036 A 
ATOM     10  C   UNL d   1      -2.069   0.687   0.030  0.00  0.00     0.026 A 
ATOM     11 CL   UNL d   1      -3.586  -1.543  -0.048  0.00  0.00    -0.084 Cl
ENDROOT
BRANCH   3  12
ATOM     12  C   UNL d   1       3.780   0.110   0.015  0.00  0.00     0.015 A 
ATOM     13  C   UNL d   1       4.620  -1.011  -0.107  0.00  0.00     0.019 A 
ATOM     14  C   UNL d   1       6.009  -0.863  -0.134  0.00  0.00     0.043 A 
ATOM     15  C   UNL d   1       6.565   0.407  -0.034  0.00  0.00     0.116 A 
ATOM     16  C   UNL d   1       5.759   1.530   0.092  0.00  0.00     0.043 A 
ATOM     17  F   UNL d   1       7.896   0.550  -0.063  0.00  0.00    -0.206 F 
ATOM     18  C   UNL d   1       4.370   1.382   0.117  0.00  0.00     0.019 A 
ENDBRANCH   3  12
TORSDOF 1
