REMARK  7 active torsions:
REMARK  status: ('A' for Active; 'I' for Inactive)
REMARK    1  A    between atoms: C_8  and  N_6 
REMARK    2  A    between atoms: C_9  and  C_8 
REMARK    3  A    between atoms: C_15  and  C_9 
REMARK    4  A    between atoms: O_14  and  N_11 
REMARK    5  A    between atoms: C_13  and  O_14 
REMARK    6  A    between atoms: C_16  and  C_13 
REMARK    7  A    between atoms: C_17  and  C_18 
ROOT
ATOM      1  C   UNL d   1       3.264   0.718  -0.135  0.00  0.00     0.064 C 
ATOM      2  N   UNL d   1       3.390  -0.565  -0.342  0.00  0.00    -0.259 N 
ATOM      3  HN  UNL d   1       4.293  -1.026  -0.459  1.00  0.00     0.194 HD
ENDROOT
BRANCH   1   4
ATOM      4  C   UNL d   1       1.947   1.438   0.139  0.00  0.00     0.227 C 
BRANCH   4   5
ATOM      5  N   UNL d   1       1.741   2.537  -0.771  0.00  0.00    -0.197 N 
ATOM      6  N   UNL d   1       1.767   2.350  -2.094  0.00  0.00    -0.116 N 
ATOM      7  C   UNL d   1       1.516   3.594  -2.504  0.00  0.00     0.709 A 
ATOM      8  HN  UNL d   1       1.930   1.501  -2.634  1.00  0.00     0.207 HD
ATOM      9  N   UNL d   1       1.289   4.464  -1.464  0.00  0.00    -0.113 N 
ATOM     10  N   UNL d   1       1.482   3.989  -3.778  0.00  0.00    -0.215 N 
ATOM     11  N   UNL d   1       1.420   3.763  -0.345  0.00  0.00     0.011 NA
ATOM     12  HN  UNL d   1       1.063   5.456  -1.538  1.00  0.00     0.203 HD
ATOM     13  C   UNL d   1       1.106   5.327  -4.196  0.00  0.00     0.141 C 
ATOM     14  C   UNL d   1       1.729   3.099  -4.891  0.00  0.00     0.141 C 
ATOM     15  C   UNL d   1       0.710   5.130  -5.656  0.00  0.00     0.022 C 
ATOM     16  C   UNL d   1       1.625   4.003  -6.118  0.00  0.00     0.022 C 
ENDBRANCH   4   5
ENDBRANCH   1   4
BRANCH   1  17
ATOM     17  C   UNL d   1       4.501   1.557  -0.163  0.00  0.00    -0.010 A 
ATOM     18  C   UNL d   1       4.618   2.688   0.652  0.00  0.00     0.015 A 
ATOM     19  C   UNL d   1       5.730   3.523   0.531  0.00  0.00     0.024 A 
ATOM     20  C   UNL d   1       6.729   3.218  -0.391  0.00  0.00     0.034 A 
ATOM     21  C   UNL d   1       6.637   2.074  -1.182  0.00  0.00     0.024 A 
ATOM     22 CL   UNL d   1       8.077   4.272  -0.560  0.00  0.00    -0.084 Cl
ATOM     23  C   UNL d   1       5.522   1.238  -1.068  0.00  0.00     0.015 A 
ENDBRANCH   1  17
BRANCH   2  24
ATOM     24  O   UNL d   1       2.160  -1.253  -0.389  0.00  0.00    -0.195 OA
BRANCH  24  25
ATOM     25  C   UNL d   1       1.609  -1.416   0.853  0.00  0.00     0.315 C 
ATOM     26  O   UNL d   1       2.129  -1.166   1.928  0.00  0.00    -0.257 OA
BRANCH  25  27
ATOM     27  C   UNL d   1       0.142  -1.621   0.686  0.00  0.00     0.041 A 
ATOM     28  C   UNL d   1      -0.496  -1.630  -0.562  0.00  0.00     0.018 A 
ATOM     29  C   UNL d   1      -1.894  -1.588  -0.638  0.00  0.00     0.009 A 
ATOM     30  C   UNL d   1      -2.686  -1.525   0.523  0.00  0.00    -0.051 A 
ATOM     31  C   UNL d   1      -2.023  -1.569   1.761  0.00  0.00     0.009 A 
ATOM     32  C   UNL d   1      -0.631  -1.608   1.845  0.00  0.00     0.018 A 
BRANCH  30  33
ATOM     33  C   UNL d   1      -4.212  -1.340   0.425  0.00  0.00    -0.024 C 
ATOM     34  C   UNL d   1      -4.892  -1.223   1.808  0.00  0.00     0.019 C 
ATOM     35  C   UNL d   1      -4.522  -0.037  -0.346  0.00  0.00     0.019 C 
ATOM     36  C   UNL d   1      -4.860  -2.528  -0.311  0.00  0.00     0.019 C 
ENDBRANCH  30  33
ENDBRANCH  25  27
ENDBRANCH  24  25
ENDBRANCH   2  24
TORSDOF 7
