REMARK  5 active torsions:
REMARK  status: ('A' for Active; 'I' for Inactive)
REMARK    1  A    between atoms: N_3  and  C_1 
REMARK       I    between atoms: C_2  and  N_3 
REMARK       I    between atoms: N_5  and  C_2 
REMARK    2  A    between atoms: C_8  and  N_5 
REMARK    3  A    between atoms: C_13  and  C_7 
REMARK    4  A    between atoms: S_12  and  C_13 
REMARK    5  A    between atoms: C_14  and  S_12 
ROOT
ATOM      1  C   UNL d   1      -0.290   0.958   0.210  0.00  0.00     0.151 A 
ATOM      2  O   UNL d   1      -1.001  -0.095  -0.280  0.00  0.00    -0.297 OA
ATOM      3  C   UNL d   1       0.574   0.535   1.193  0.00  0.00     0.059 A 
ATOM      4  C   UNL d   1      -0.544  -1.218   0.353  0.00  0.00     0.065 A 
ATOM      5  C   UNL d   1       0.455  -0.871   1.243  0.00  0.00     0.038 A 
ENDROOT
BRANCH   1   6
ATOM      6  N   UNL d   1      -0.475   2.218  -0.280  0.00  0.00    -0.289 N 
ATOM      7  C   UNL d   1      -1.292   2.640  -1.289  0.00  0.00     0.326 C 
ATOM      8  N   UNL d   1      -2.053   1.691  -1.914  0.00  0.00    -0.306 N 
ATOM      9  O   UNL d   1      -1.307   3.847  -1.518  0.00  0.00    -0.247 OA
ATOM     10  H   UNL d   1      -2.152   0.829  -1.400  0.00  0.00     0.171 HD
ATOM     11  H   UNL d   1       0.063   2.970   0.122  0.00  0.00     0.172 HD
BRANCH   8  12
ATOM     12  C   UNL d   1      -3.035   1.981  -2.897  0.00  0.00     0.075 A 
ATOM     13  C   UNL d   1      -2.952   3.045  -3.800  0.00  0.00     0.143 A 
ATOM     14  F   UNL d   1      -1.821   3.749  -3.953  0.00  0.00    -0.204 F 
ATOM     15  C   UNL d   1      -4.027   3.370  -4.626  0.00  0.00     0.044 A 
ATOM     16  C   UNL d   1      -5.188   2.604  -4.585  0.00  0.00     0.003 A 
ATOM     17  C   UNL d   1      -5.245   1.477  -3.764  0.00  0.00     0.002 A 
ATOM     18  C   UNL d   1      -4.163   1.151  -2.939  0.00  0.00     0.033 A 
ENDBRANCH   8  12
ENDBRANCH   1   6
BRANCH   4  19
ATOM     19  C   UNL d   1      -1.163  -2.513  -0.055  0.00  0.00     0.144 C 
BRANCH  19  20
ATOM     20  S   UNL d   1      -1.095  -3.718   1.323  0.00  0.00    -0.123 SA
BRANCH  20  21
ATOM     21  C   UNL d   1      -1.622  -5.245   0.575  0.00  0.00     0.001 A 
ATOM     22  C   UNL d   1      -1.057  -6.428   1.073  0.00  0.00     0.020 A 
ATOM     23  C   UNL d   1      -1.460  -7.675   0.588  0.00  0.00     0.025 A 
ATOM     24  C   UNL d   1      -2.438  -7.745  -0.398  0.00  0.00     0.034 A 
ATOM     25  C   UNL d   1      -3.020  -6.579  -0.893  0.00  0.00     0.025 A 
ATOM     26 CL   UNL d   1      -2.938  -9.276  -1.000  0.00  0.00    -0.084 Cl
ATOM     27  C   UNL d   1      -2.614  -5.331  -0.407  0.00  0.00     0.020 A 
ENDBRANCH  20  21
ENDBRANCH  19  20
ENDBRANCH   4  19
TORSDOF 5
