REMARK  5 active torsions:
REMARK  status: ('A' for Active; 'I' for Inactive)
REMARK    1  A    between atoms: N_6  and  C_1 
REMARK       I    between atoms: C_5  and  N_8 
REMARK       I    between atoms: N_9  and  C_5 
REMARK    2  A    between atoms: C_11  and  N_9 
REMARK    3  A    between atoms: C_29  and  C_22 
REMARK    4  A    between atoms: C_30  and  C_29 
REMARK    5  A    between atoms: C_31  and  C_30 
ROOT
ATOM      1  C   UNL d   1      -8.265   1.290   0.427  0.00  0.00     0.323 C 
ATOM      2  N   UNL d   1      -4.594  -0.101   0.375  0.00  0.00    -0.360 N 
ATOM      3  N   UNL d   1      -6.939   1.710   0.575  0.00  0.00    -0.332 N 
ATOM      4  N   UNL d   1      -9.081   1.666   1.471  0.00  0.00    -0.308 N 
ATOM      5  O   UNL d   1      -8.649   0.709  -0.586  0.00  0.00    -0.247 OA
ATOM      6  C   UNL d   1      -5.321   0.332  -0.828  0.00  0.00     0.145 C 
ATOM      7  C   UNL d   1      -6.059   1.663  -0.607  0.00  0.00     0.147 C 
ATOM      8  C   UNL d   1      -5.797   0.479   2.461  0.00  0.00     0.040 C 
ATOM      9  C   UNL d   1      -5.420  -0.610   1.459  0.00  0.00     0.126 C 
ATOM     10  C   UNL d   1      -6.250   1.815   1.864  0.00  0.00     0.129 C 
ATOM     11  H   UNL d   1      -8.767   2.499   1.939  0.00  0.00     0.170 HD
ENDROOT
BRANCH   4  12
ATOM     12  C   UNL d   1     -10.439   1.315   1.655  0.00  0.00     0.042 A 
ATOM     13  C   UNL d   1     -11.310   2.191   2.332  0.00  0.00    -0.035 A 
ATOM     14  C   UNL d   1     -12.603   1.747   2.685  0.00  0.00     0.016 A 
ATOM     15  C   UNL d   1     -10.968   3.616   2.679  0.00  0.00     0.050 C 
ATOM     16  C   UNL d   1     -13.058   0.467   2.350  0.00  0.00    -0.058 A 
ATOM     17  C   UNL d   1     -12.212  -0.359   1.604  0.00  0.00     0.009 A 
ATOM     18  C   UNL d   1     -10.919   0.060   1.259  0.00  0.00     0.031 A 
BRANCH  16  19
ATOM     19  C   UNL d   1     -14.388  -0.042   2.856  0.00  0.00     0.038 C 
BRANCH  19  20
ATOM     20  C   UNL d   1     -15.623   0.761   2.435  0.00  0.00     0.004 C 
BRANCH  20  21
ATOM     21  C   UNL d   1     -15.937   0.637   0.944  0.00  0.00    -0.004 C 
ATOM     22  C   UNL d   1     -17.221   1.370   0.586  0.00  0.00     0.005 C 
ENDBRANCH  20  21
ENDBRANCH  19  20
ENDBRANCH  16  19
ENDBRANCH   4  12
BRANCH   2  23
ATOM     23  C   UNL d   1      -3.228  -0.032   0.419  0.00  0.00     0.147 A 
ATOM     24  N   UNL d   1      -2.486   0.452  -0.554  0.00  0.00    -0.336 N 
ATOM     25  C   UNL d   1      -1.133   0.350  -0.266  0.00  0.00     0.051 A 
ATOM     26  HN  UNL d   1      -2.860   0.852  -1.414  1.00  0.00     0.168 HD
ATOM     27  C   UNL d   1      -0.069   0.744  -1.105  0.00  0.00     0.032 A 
ATOM     28  C   UNL d   1      -0.832  -0.201   0.976  0.00  0.00     0.036 A 
ATOM     29  C   UNL d   1       1.256   0.577  -0.679  0.00  0.00     0.026 A 
ATOM     30  C   UNL d   1       1.523   0.022   0.568  0.00  0.00     0.035 A 
ATOM     31  C   UNL d   1       0.491  -0.377   1.419  0.00  0.00     0.045 A 
ATOM     32 CL   UNL d   1       3.157  -0.178   1.076  0.00  0.00    -0.084 Cl
ATOM     33  S   UNL d   1      -2.296  -0.585   1.778  0.00  0.00    -0.052 SA
ENDBRANCH   2  23
TORSDOF 5
