REMARK  5 active torsions:
REMARK  status: ('A' for Active; 'I' for Inactive)
REMARK    1  A    between atoms: O_8  and  C_1 
REMARK    2  A    between atoms: C_11  and  N_2 
REMARK    3  A    between atoms: S_10  and  C_3 
REMARK    4  A    between atoms: C_9  and  O_8 
REMARK       I    between atoms: N_12  and  C_9 
REMARK    5  A    between atoms: C_14  and  S_10 
ROOT
ATOM      1  C   UNL d   1       0.116  -1.205  -0.046  0.00  0.00     0.256 A 
ATOM      2  N   UNL d   1       1.337  -0.533  -0.118  0.00  0.00    -0.255 N 
ATOM      3  C   UNL d   1       0.976   0.812  -0.021  0.00  0.00     0.169 A 
ATOM      4  N   UNL d   1      -0.862  -0.343   0.127  0.00  0.00    -0.262 N 
ATOM      5  HN  UNL d   1      -1.851  -0.572   0.223  1.00  0.00     0.190 HD
ATOM      6  N   UNL d   1      -0.321   0.921   0.157  0.00  0.00    -0.276 N 
ATOM      7  HN  UNL d   1      -0.836   1.791   0.294  1.00  0.00     0.189 HD
ENDROOT
BRANCH   1   8
ATOM      8  O   UNL d   1       0.002  -2.519  -0.167  0.00  0.00    -0.226 OA
BRANCH   8   9
ATOM      9  C   UNL d   1      -1.044  -3.185   0.372  0.00  0.00     0.369 C 
ATOM     10  N   UNL d   1      -1.039  -4.548   0.034  0.00  0.00    -0.336 N 
ATOM     11  C   UNL d   1      -1.965  -5.419   0.732  0.00  0.00     0.154 C 
ATOM     12  C   UNL d   1       0.054  -5.191  -0.675  0.00  0.00     0.154 C 
ATOM     13  O   UNL d   1      -1.890  -2.713   1.118  0.00  0.00    -0.238 OA
ENDBRANCH   8   9
ENDBRANCH   1   8
BRANCH   2  14
ATOM     14  C   UNL d   1       2.633  -1.132  -0.245  0.00  0.00     0.045 A 
ATOM     15  C   UNL d   1       2.790  -2.354  -0.914  0.00  0.00     0.030 A 
ATOM     16  C   UNL d   1       4.043  -2.964  -1.014  0.00  0.00     0.002 A 
ATOM     17  C   UNL d   1       5.164  -2.347  -0.468  0.00  0.00     0.000 A 
ATOM     18  C   UNL d   1       5.027  -1.129   0.189  0.00  0.00     0.002 A 
ATOM     19  C   UNL d   1       3.769  -0.531   0.316  0.00  0.00     0.030 A 
ENDBRANCH   2  14
BRANCH   3  20
ATOM     20  S   UNL d   1       2.065   2.132  -0.328  0.00  0.00    -0.088 SA
BRANCH  20  21
ATOM     21  C   UNL d   1       1.110   3.680  -0.258  0.00  0.00     0.047 C 
ATOM     22  C   UNL d   1      -0.037   3.744  -1.259  0.00  0.00     0.021 C 
ATOM     23  C   UNL d   1       0.673   4.055   1.153  0.00  0.00     0.021 C 
ENDBRANCH  20  21
ENDBRANCH   3  20
TORSDOF 5
