REMARK  1 active torsions:
REMARK  status: ('A' for Active; 'I' for Inactive)
REMARK       I    between atoms: C_2  and  N_1 
REMARK       I    between atoms: C_3  and  N_1 
REMARK       I    between atoms: N_4  and  C_2 
REMARK    1  A    between atoms: C_5  and  C_3 
ROOT
ATOM      1  N   UNL d   1       1.159  -0.424   0.154  0.00  0.00    -0.275 N 
ATOM      2  C   UNL d   1       0.500  -0.529  -1.045  0.00  0.00     0.325 C 
ATOM      3  C   UNL d   1       0.800   0.430   1.183  0.00  0.00     0.259 C 
ATOM      4  N   UNL d   1       1.106  -1.335  -2.000  0.00  0.00    -0.330 N 
ATOM      5  O   UNL d   1      -0.553   0.054  -1.288  0.00  0.00    -0.247 OA
ATOM      6  O   UNL d   1      -0.245   1.050   1.307  0.00  0.00    -0.267 OA
ATOM      7  O   UNL d   1       2.648  -1.577  -4.390  0.00  0.00    -0.388 OA
ATOM      8  C   UNL d   1       2.436  -1.961  -1.973  0.00  0.00     0.153 C 
ATOM      9  C   UNL d   1       0.460  -1.445  -3.316  0.00  0.00     0.153 C 
ATOM     10  C   UNL d   1       3.303  -1.425  -3.123  0.00  0.00     0.187 C 
ATOM     11  C   UNL d   1       1.386  -0.887  -4.401  0.00  0.00     0.187 C 
ATOM     12  H   UNL d   1       1.920  -1.051   0.328  0.00  0.00     0.173 HD
ENDROOT
BRANCH   3  13
ATOM     13  C   UNL d   1       1.798   0.521   2.275  0.00  0.00     0.035 A 
ATOM     14  C   UNL d   1       3.161   0.653   1.986  0.00  0.00     0.036 A 
ATOM     15  C   UNL d   1       4.077   0.729   3.034  0.00  0.00     0.013 A 
ATOM     16 BR   UNL d   1       5.920   0.895   2.649  0.00  0.00    -0.051 Br
ATOM     17  C   UNL d   1       3.648   0.681   4.360  0.00  0.00     0.038 A 
ATOM     18  C   UNL d   1       2.284   0.577   4.635  0.00  0.00     0.013 A 
ATOM     19  C   UNL d   1       1.353   0.507   3.601  0.00  0.00     0.036 A 
ATOM     20 BR   UNL d   1       1.696   0.518   6.431  0.00  0.00    -0.051 Br
ENDBRANCH   3  13
TORSDOF 1
