REMARK  9 active torsions:
REMARK  status: ('A' for Active; 'I' for Inactive)
REMARK    1  A    between atoms: N_2  and  S_1 
REMARK    2  A    between atoms: C_10  and  S_1 
REMARK    3  A    between atoms: C_3  and  N_2 
REMARK    4  A    between atoms: N_8  and  C_4 
REMARK    5  A    between atoms: O_16  and  C_7 
REMARK    6  A    between atoms: O_17  and  C_9 
REMARK    7  A    between atoms: C_26  and  O_16 
REMARK    8  A    between atoms: C_27  and  O_17 
REMARK    9  A    between atoms: C_25  and  C_20 
ROOT
ATOM      1  C   UNL d   1       0.755  -0.163   2.763  0.00  0.00     0.078 A 
ATOM      2  C   UNL d   1       1.606  -1.270   5.231  0.00  0.00     0.067 A 
ATOM      3  C   UNL d   1       0.266  -0.900   4.993  0.00  0.00     0.071 A 
ATOM      4  C   UNL d   1       2.099  -0.483   2.978  0.00  0.00     0.072 A 
ATOM      5  C   UNL d   1       2.529  -1.056   4.184  0.00  0.00     0.097 A 
ATOM      6  C   UNL d   1      -0.181  -0.356   3.782  0.00  0.00     0.098 A 
ENDROOT
BRANCH   1   7
ATOM      7  N   UNL d   1       0.401   0.430   1.519  0.00  0.00    -0.278 N 
ATOM      8  H   UNL d   1       0.567   1.420   1.365  0.00  0.00     0.179 HD
BRANCH   7   9
ATOM      9  S   UNL d   1       0.037  -0.498   0.172  0.00  0.00     0.263 S 
ATOM     10  O   UNL d   1      -0.080   0.433  -0.935  0.00  0.00    -0.200 OA
ATOM     11  O   UNL d   1      -1.024  -1.423   0.488  0.00  0.00    -0.200 OA
BRANCH   9  12
ATOM     12  C   UNL d   1       1.524  -1.446  -0.100  0.00  0.00     0.079 A 
ATOM     13  C   UNL d   1       1.609  -2.746   0.409  0.00  0.00     0.026 A 
ATOM     14  C   UNL d   1       2.783  -3.481   0.235  0.00  0.00     0.009 A 
ATOM     15  C   UNL d   1       3.870  -2.934  -0.462  0.00  0.00    -0.058 A 
ATOM     16  C   UNL d   1       3.760  -1.639  -0.993  0.00  0.00     0.009 A 
ATOM     17  C   UNL d   1       2.587  -0.897  -0.822  0.00  0.00     0.026 A 
BRANCH  15  18
ATOM     18  C   UNL d   1       5.148  -3.721  -0.615  0.00  0.00     0.034 C 
ATOM     19  C   UNL d   1       6.104  -3.483   0.544  0.00  0.00     0.010 C 
ENDBRANCH  15  18
ENDBRANCH   9  12
ENDBRANCH   7   9
ENDBRANCH   1   7
BRANCH   6  20
ATOM     20  O   UNL d   1      -1.481   0.033   3.552  0.00  0.00    -0.349 OA
BRANCH  20  21
ATOM     21  C   UNL d   1      -2.407  -0.217   4.614  0.00  0.00     0.171 C 
ATOM     22  C   UNL d   1      -3.801   0.214   4.204  0.00  0.00     0.034 C 
ENDBRANCH  20  21
ENDBRANCH   6  20
BRANCH   5  23
ATOM     23  O   UNL d   1       3.822  -1.470   4.394  0.00  0.00    -0.349 OA
BRANCH  23  24
ATOM     24  C   UNL d   1       4.765  -1.305   3.338  0.00  0.00     0.171 C 
ATOM     25  C   UNL d   1       6.109  -1.806   3.831  0.00  0.00     0.034 C 
ENDBRANCH  23  24
ENDBRANCH   5  23
BRANCH   2  26
ATOM     26  N   UNL d   1       1.927  -1.793   6.473  0.00  0.00    -0.374 N 
ATOM     27  C   UNL d   1       3.208  -1.567   7.154  0.00  0.00     0.149 C 
ATOM     28  C   UNL d   1       3.915  -2.909   7.393  0.00  0.00     0.187 C 
ATOM     29  O   UNL d   1       3.073  -3.817   8.130  0.00  0.00    -0.388 OA
ATOM     30  C   UNL d   1       1.862  -4.074   7.400  0.00  0.00     0.187 C 
ATOM     31  C   UNL d   1       1.065  -2.785   7.135  0.00  0.00     0.149 C 
ENDBRANCH   2  26
TORSDOF 9
