REMARK  0 active torsions:
REMARK  status: ('A' for Active; 'I' for Inactive)
ROOT
ATOM      1  C   UNL d   1      -1.871  -0.744  -0.225  0.00  0.00     0.222 C 
ATOM      2  N   UNL d   1      -1.843   0.521   0.274  0.00  0.00    -0.356 N 
ATOM      3  C   UNL d   1      -0.558  -1.412  -0.585  0.00  0.00     0.078 C 
ATOM      4  C   UNL d   1      -0.676   1.325   0.586  0.00  0.00     0.085 C 
ATOM      5  C   UNL d   1       1.012   0.542  -1.173  0.00  0.00    -0.012 C 
ATOM      6  C   UNL d   1       1.102  -0.448   1.121  0.00  0.00    -0.012 C 
ATOM      7  C   UNL d   1       0.299  -1.671   0.659  0.00  0.00     0.018 C 
ATOM      8  C   UNL d   1       0.180  -0.642  -1.687  0.00  0.00     0.018 C 
ATOM      9  O   UNL d   1      -2.953  -1.314  -0.364  0.00  0.00    -0.273 OA
ATOM     10  C   UNL d   1       0.192   0.665   1.664  0.00  0.00     0.029 C 
ATOM     11  C   UNL d   1       0.125   1.688  -0.670  0.00  0.00     0.029 C 
ATOM     12  C   UNL d   1       1.938   0.082  -0.045  0.00  0.00     0.009 C 
ATOM     13  H   UNL d   1      -2.761   0.890   0.493  0.00  0.00     0.162 HD
ENDROOT
TORSDOF 0
