REMARK  3 active torsions:
REMARK  status: ('A' for Active; 'I' for Inactive)
REMARK    1  A    between atoms: C_3  and  C_1 
REMARK    2  A    between atoms: C_5  and  CA_2 
REMARK       I    between atoms: N_4  and  C_3 
REMARK    3  A    between atoms: OXT_12  and  C_5 
ROOT
ATOM      1  C   UNL d   1      -0.744  -1.798   1.488  0.00  0.00     0.134 A 
ATOM      2  CA  UNL d   1      -1.532  -0.974   2.274  0.00  0.00     0.139 A 
ATOM      3  N   UNL d   1       0.597  -1.936   1.740  0.00  0.00    -0.358 N 
ATOM      4  HN  UNL d   1       1.192  -2.534   1.167  1.00  0.00     0.165 HD
ATOM      5  N   UNL d   1      -1.021  -0.239   3.327  0.00  0.00    -0.357 N 
ATOM      6  HN  UNL d   1      -1.601   0.383   3.891  1.00  0.00     0.165 HD
ATOM      7  C   UNL d   1       1.090  -1.238   2.788  0.00  0.00     0.105 A 
ATOM      8  C   UNL d   1       0.302  -0.402   3.558  0.00  0.00     0.105 A 
ENDROOT
BRANCH   1   9
ATOM      9  C   UNL d   1      -1.227  -2.386   0.208  0.00  0.00     0.272 C 
ATOM     10  N   UNL d   1      -0.902  -3.719  -0.122  0.00  0.00    -0.347 N 
ATOM     11  C   UNL d   1      -1.195  -4.176  -1.481  0.00  0.00     0.126 C 
ATOM     12  C   UNL d   1      -0.225  -4.613   0.818  0.00  0.00     0.126 C 
ATOM     13  C   UNL d   1      -2.300  -5.227  -1.540  0.00  0.00     0.020 C 
ATOM     14  C   UNL d   1      -1.809  -6.646  -1.272  0.00  0.00     0.002 C 
ATOM     15  C   UNL d   1      -1.254  -6.860   0.131  0.00  0.00     0.002 C 
ATOM     16  C   UNL d   1       0.015  -6.062   0.400  0.00  0.00     0.020 C 
ATOM     17  O   UNL d   1      -1.823  -1.625  -0.555  0.00  0.00    -0.266 OA
ENDBRANCH   1   9
BRANCH   2  18
ATOM     18  C   UNL d   1      -3.005  -0.863   2.134  0.00  0.00     0.196 C 
ATOM     19  O   UNL d   1      -3.734  -1.663   1.578  0.00  0.00    -0.645 OA
BRANCH  18  20
ATOM     20  OXT UNL d   1      -3.460   0.217   2.823  0.00  0.00    -0.772 OA
ATOM     21  HXT UNL d   1      -2.710   0.645   3.297  0.00  0.00     0.167 HD
ENDBRANCH  18  20
ENDBRANCH   2  18
TORSDOF 3
