REMARK  4 active torsions:
REMARK  status: ('A' for Active; 'I' for Inactive)
REMARK    1  A    between atoms: N_7  and  C_4 
REMARK    2  A    between atoms: C_9  and  N_7 
REMARK    3  A    between atoms: N_8  and  C_10 
REMARK    4  A    between atoms: C_11  and  N_8 
ROOT
ATOM      1  C   UNL d   1      -0.969  -4.213   0.203  0.00  0.00     0.008 A 
ATOM      2  C   UNL d   1      -2.983  -6.063   0.981  0.00  0.00     0.032 A 
ATOM      3  C   UNL d   1      -2.587  -5.033   1.835  0.00  0.00     0.031 A 
ATOM      4  C   UNL d   1      -1.299  -5.305  -0.605  0.00  0.00     0.026 A 
ATOM      5  C   UNL d   1      -1.586  -4.129   1.455  0.00  0.00     0.026 A 
ATOM      6  C   UNL d   1      -2.297  -6.207  -0.229  0.00  0.00     0.031 A 
ENDROOT
BRANCH   1   7
ATOM      7  N   UNL d   1       0.024  -3.331  -0.236  0.00  0.00    -0.288 NA
ATOM      8  H   UNL d   1       0.178  -3.421  -1.238  0.00  0.00     0.128 HD
BRANCH   7   9
ATOM      9  C   UNL d   1       0.006  -1.927   0.200  0.00  0.00     0.065 C 
ATOM     10  C   UNL d   1      -1.226  -1.197  -0.346  0.00  0.00     0.060 C 
ATOM     11  C   UNL d   1      -1.225   0.302   0.004  0.00  0.00     0.153 C 
ATOM     12  N   UNL d   1       0.050   0.958  -0.340  0.00  0.00     0.101 N 
ATOM     13  C   UNL d   1      -2.320   0.992  -0.844  0.00  0.00     0.048 C 
ATOM     14  C   UNL d   1      -1.603   0.533   1.478  0.00  0.00     0.048 C 
ATOM     15  C   UNL d   1       1.306   0.262  -0.002  0.00  0.00     0.153 C 
ATOM     16  H   UNL d   1       0.050   1.153  -1.343  0.00  0.00     0.317 HD
ATOM     17  C   UNL d   1       1.257  -1.237  -0.354  0.00  0.00     0.060 C 
ATOM     18  C   UNL d   1       2.415   0.920  -0.857  0.00  0.00     0.048 C 
ATOM     19  C   UNL d   1       1.700   0.478   1.470  0.00  0.00     0.048 C 
ENDBRANCH   7   9
ENDBRANCH   1   7
BRANCH   2  20
ATOM     20  N   UNL d   1      -4.034  -6.926   1.341  0.00  0.00    -0.356 N 
ATOM     21  H   UNL d   1      -4.377  -6.804   2.288  0.00  0.00     0.166 HD
BRANCH  20  22
ATOM     22  C   UNL d   1      -4.981  -7.550   0.504  0.00  0.00     0.032 A 
ATOM     23  C   UNL d   1      -5.539  -8.772   0.897  0.00  0.00     0.029 A 
ATOM     24  C   UNL d   1      -6.439  -9.447   0.068  0.00  0.00     0.002 A 
ATOM     25  C   UNL d   1      -6.803  -8.899  -1.160  0.00  0.00     0.000 A 
ATOM     26  C   UNL d   1      -6.276  -7.673  -1.555  0.00  0.00     0.002 A 
ATOM     27  C   UNL d   1      -5.371  -7.005  -0.727  0.00  0.00     0.029 A 
ENDBRANCH  20  22
ENDBRANCH   2  20
TORSDOF 4
