REMARK  14 active torsions:
REMARK  status: ('A' for Active; 'I' for Inactive)
REMARK    1  A    between atoms: C_5  and  C_16 
REMARK    2  A    between atoms: C_15  and  C_6 
REMARK    3  A    between atoms: C_22  and  C_11 
REMARK    4  A    between atoms: C_21  and  C_12 
REMARK    5  A    between atoms: C_23  and  C_21 
REMARK    6  A    between atoms: C_24  and  C_22 
REMARK    7  A    between atoms: C_31  and  C_23 
REMARK    8  A    between atoms: C_29  and  C_24 
REMARK    9  A    between atoms: C_25  and  C_28 
REMARK   10  A    between atoms: C_26  and  C_27 
REMARK   11  A    between atoms: C_27  and  C_30 
REMARK   12  A    between atoms: C_28  and  C_32 
REMARK   13  A    between atoms: C_30  and  C_29 
REMARK   14  A    between atoms: C_32  and  C_31 
ROOT
ATOM      1  C   UNL d   1       7.985   2.253  -3.385  0.00  0.00    -0.036 A 
ATOM      2  C   UNL d   1       7.209   0.713  -1.199  0.00  0.00    -0.036 A 
ATOM      3  C   UNL d   1       6.554   1.917  -1.471  0.00  0.00     0.012 A 
ATOM      4  C   UNL d   1       8.645   1.052  -3.107  0.00  0.00     0.012 A 
ATOM      5  C   UNL d   1       8.250   0.276  -2.019  0.00  0.00     0.012 A 
ATOM      6  C   UNL d   1       6.937   2.686  -2.569  0.00  0.00     0.012 A 
ENDROOT
BRANCH   1   7
ATOM      7  C   UNL d   1       8.407   3.046  -4.530  0.00  0.00     0.022 C 
ATOM      8  C   UNL d   1       7.889   2.891  -5.753  0.00  0.00    -0.011 C 
ATOM      9  C   UNL d   1       8.425   3.668  -6.903  0.00  0.00     0.159 C 
ATOM     10  C   UNL d   1       6.817   1.984  -6.269  0.00  0.00     0.043 C 
ATOM     11  O   UNL d   1       9.296   4.518  -6.813  0.00  0.00    -0.292 OA
ATOM     12  C   UNL d   1       7.705   3.272  -8.163  0.00  0.00     0.060 C 
ATOM     13  C   UNL d   1       7.098   1.917  -7.768  0.00  0.00     0.017 C 
BRANCH  12  14
ATOM     14  C   UNL d   1       8.640   3.169  -9.362  0.00  0.00     0.012 C 
BRANCH  14  15
ATOM     15  C   UNL d   1       7.867   2.791 -10.621  0.00  0.00     0.001 C 
BRANCH  15  16
ATOM     16  C   UNL d   1       8.790   2.669 -11.825  0.00  0.00     0.000 C 
BRANCH  16  17
ATOM     17  C   UNL d   1       7.984   2.285 -13.061  0.00  0.00     0.000 C 
BRANCH  17  18
ATOM     18  C   UNL d   1       8.888   2.158 -14.280  0.00  0.00    -0.000 C 
BRANCH  18  19
ATOM     19  C   UNL d   1       8.084   1.776 -15.518  0.00  0.00    -0.005 C 
ATOM     20  C   UNL d   1       8.988   1.653 -16.730  0.00  0.00     0.005 C 
ENDBRANCH  18  19
ENDBRANCH  17  18
ENDBRANCH  16  17
ENDBRANCH  15  16
ENDBRANCH  14  15
ENDBRANCH  12  14
ENDBRANCH   1   7
BRANCH   2  21
ATOM     21  C   UNL d   1       6.793  -0.092  -0.056  0.00  0.00     0.022 C 
ATOM     22  C   UNL d   1       5.885  -1.062  -0.142  0.00  0.00    -0.011 C 
ATOM     23  C   UNL d   1       5.454  -1.815   1.061  0.00  0.00     0.159 C 
ATOM     24  C   UNL d   1       5.092  -1.570  -1.308  0.00  0.00     0.043 C 
ATOM     25  O   UNL d   1       5.934  -1.665   2.171  0.00  0.00    -0.292 OA
ATOM     26  C   UNL d   1       4.392  -2.811   0.691  0.00  0.00     0.060 C 
ATOM     27  C   UNL d   1       3.897  -2.253  -0.651  0.00  0.00     0.017 C 
BRANCH  26  28
ATOM     28  C   UNL d   1       3.288  -2.896   1.737  0.00  0.00     0.012 C 
BRANCH  28  29
ATOM     29  C   UNL d   1       2.241  -3.930   1.337  0.00  0.00     0.001 C 
BRANCH  29  30
ATOM     30  C   UNL d   1       1.124  -4.016   2.367  0.00  0.00     0.000 C 
BRANCH  30  31
ATOM     31  C   UNL d   1       0.093  -5.051   1.930  0.00  0.00     0.000 C 
BRANCH  31  32
ATOM     32  C   UNL d   1      -1.034  -5.157   2.950  0.00  0.00    -0.000 C 
BRANCH  32  33
ATOM     33  C   UNL d   1      -2.065  -6.194   2.518  0.00  0.00    -0.005 C 
ATOM     34  C   UNL d   1      -3.184  -6.299   3.538  0.00  0.00     0.005 C 
ENDBRANCH  32  33
ENDBRANCH  31  32
ENDBRANCH  30  31
ENDBRANCH  29  30
ENDBRANCH  28  29
ENDBRANCH  26  28
ENDBRANCH   2  21
TORSDOF 14
