REMARK  8 active torsions:
REMARK  status: ('A' for Active; 'I' for Inactive)
REMARK    1  A    between atoms: C_8  and  C_1 
REMARK    2  A    between atoms: C_2  and  C_9 
REMARK    3  A    between atoms: C_3  and  C_6 
REMARK    4  A    between atoms: C_4  and  C_7 
REMARK    5  A    between atoms: C_10  and  C_5 
REMARK       I    between atoms: N_16  and  C_10 
REMARK    6  A    between atoms: C_11  and  N_17 
REMARK    7  A    between atoms: C_14  and  N_16 
REMARK    8  A    between atoms: N_17  and  C_15 
ROOT
ATOM      1  C   UNL d   1      -1.958  -0.050  -5.474  0.00  0.00     0.099 C 
ATOM      2  C   UNL d   1      -1.981   1.298  -5.585  0.00  0.00     0.011 C 
ATOM      3  C   UNL d   1      -0.903   2.210  -5.035  0.00  0.00     0.068 C 
ENDROOT
BRANCH   1   4
ATOM      4  C   UNL d   1      -0.939  -0.812  -4.693  0.00  0.00     0.247 C 
ATOM      5  N   UNL d   1      -0.749  -2.101  -5.167  0.00  0.00    -0.324 N 
ATOM      6  H   UNL d   1      -1.280  -2.386  -5.979  0.00  0.00     0.169 HD
ATOM      7  O   UNL d   1      -0.356  -0.291  -3.757  0.00  0.00    -0.268 OA
BRANCH   5   8
ATOM      8  C   UNL d   1       0.311  -2.961  -4.775  0.00  0.00     0.036 A 
ATOM      9  C   UNL d   1       1.128  -2.711  -3.671  0.00  0.00     0.045 A 
ATOM     10  C   UNL d   1       2.305  -3.442  -3.451  0.00  0.00     0.050 A 
ATOM     11  C   UNL d   1       2.622  -4.494  -4.319  0.00  0.00     0.032 A 
ATOM     12  C   UNL d   1       1.790  -4.798  -5.407  0.00  0.00     0.050 A 
ATOM     13  C   UNL d   1       0.615  -4.047  -5.606  0.00  0.00     0.045 A 
BRANCH  10  14
ATOM     14  C   UNL d   1       3.239  -3.019  -2.341  0.00  0.00     0.417 C 
ATOM     15  F   UNL d   1       4.445  -3.651  -2.386  0.00  0.00    -0.166 F 
ATOM     16  F   UNL d   1       3.523  -1.686  -2.382  0.00  0.00    -0.166 F 
ATOM     17  F   UNL d   1       2.733  -3.261  -1.103  0.00  0.00    -0.166 F 
ENDBRANCH  10  14
BRANCH  12  18
ATOM     18  C   UNL d   1       2.192  -5.849  -6.415  0.00  0.00     0.417 C 
ATOM     19  F   UNL d   1       3.454  -6.326  -6.229  0.00  0.00    -0.166 F 
ATOM     20  F   UNL d   1       1.372  -6.934  -6.403  0.00  0.00    -0.166 F 
ATOM     21  F   UNL d   1       2.163  -5.370  -7.691  0.00  0.00    -0.166 F 
ENDBRANCH  12  18
ENDBRANCH   5   8
ENDBRANCH   1   4
BRANCH   2  22
ATOM     22  N   UNL d   1      -3.046   1.993  -6.148  0.00  0.00    -0.360 N 
ATOM     23  H   UNL d   1      -3.109   2.963  -5.841  0.00  0.00     0.166 HD
BRANCH  22  24
ATOM     24  C   UNL d   1      -3.685   1.787  -7.383  0.00  0.00     0.033 A 
ATOM     25  C   UNL d   1      -3.176   0.965  -8.390  0.00  0.00     0.045 A 
ATOM     26  C   UNL d   1      -3.880   0.756  -9.589  0.00  0.00     0.050 A 
ATOM     27  C   UNL d   1      -5.134   1.368  -9.760  0.00  0.00     0.032 A 
ATOM     28  C   UNL d   1      -5.678   2.178  -8.753  0.00  0.00     0.050 A 
ATOM     29  C   UNL d   1      -4.934   2.391  -7.584  0.00  0.00     0.045 A 
BRANCH  26  30
ATOM     30  C   UNL d   1      -3.282  -0.122 -10.658  0.00  0.00     0.417 C 
ATOM     31  F   UNL d   1      -4.096  -0.304 -11.735  0.00  0.00    -0.166 F 
ATOM     32  F   UNL d   1      -2.991  -1.371 -10.195  0.00  0.00    -0.166 F 
ATOM     33  F   UNL d   1      -2.115   0.376 -11.149  0.00  0.00    -0.166 F 
ENDBRANCH  26  30
BRANCH  28  34
ATOM     34  C   UNL d   1      -7.041   2.812  -8.893  0.00  0.00     0.417 C 
ATOM     35  F   UNL d   1      -7.750   2.341  -9.954  0.00  0.00    -0.166 F 
ATOM     36  F   UNL d   1      -7.824   2.602  -7.798  0.00  0.00    -0.166 F 
ATOM     37  F   UNL d   1      -6.973   4.162  -9.052  0.00  0.00    -0.166 F 
ENDBRANCH  28  34
ENDBRANCH  22  24
ENDBRANCH   2  22
TORSDOF 8
