REMARK  5 active torsions:
REMARK  status: ('A' for Active; 'I' for Inactive)
REMARK    1  A    between atoms: C_7  and  C_1 
REMARK    2  A    between atoms: C_11  and  C_6 
REMARK    3  A    between atoms: C_8  and  O_13 
REMARK    4  A    between atoms: C_20  and  C_12 
REMARK    5  A    between atoms: O_13  and  C_21 
ROOT
ATOM      1  C   UNL d   1       1.134  -2.298   0.006  0.00  0.00     0.059 C 
ATOM      2  C   UNL d   1       2.455  -2.524   0.014  0.00  0.00     0.016 C 
ENDROOT
BRANCH   1   3
ATOM      3  C   UNL d   1       0.588  -0.989   0.054  0.00  0.00     0.172 A 
ATOM      4  N   UNL d   1       1.238   0.159   0.144  0.00  0.00    -0.319 N 
ATOM      5  C   UNL d   1       0.234   1.094   0.216  0.00  0.00     0.145 A 
ATOM      6  HN  UNL d   1       2.246   0.313   0.158  1.00  0.00     0.169 HD
ATOM      7  N   UNL d   1      -0.999   0.583   0.130  0.00  0.00    -0.242 N 
ATOM      8  O   UNL d   1      -0.776  -0.780   0.022  0.00  0.00    -0.218 OA
ATOM      9  HN  UNL d   1      -1.890   1.079   0.142  1.00  0.00     0.196 HD
BRANCH   5  10
ATOM     10  C   UNL d   1       0.508   2.547   0.426  0.00  0.00     0.050 A 
ATOM     11  S   UNL d   1      -0.700   3.735   0.632  0.00  0.00    -0.098 SA
ATOM     12  C   UNL d   1       0.465   4.962   0.882  0.00  0.00     0.050 A 
ATOM     13  C   UNL d   1       1.752   4.483   0.771  0.00  0.00     0.009 A 
ATOM     14  C   UNL d   1       1.777   3.082   0.503  0.00  0.00     0.023 A 
ENDBRANCH   5  10
ENDBRANCH   1   3
BRANCH   2  15
ATOM     15  C   UNL d   1       3.038  -3.874  -0.042  0.00  0.00    -0.036 A 
ATOM     16  C   UNL d   1       2.384  -4.933  -0.687  0.00  0.00     0.014 A 
ATOM     17  C   UNL d   1       2.964  -6.205  -0.751  0.00  0.00     0.038 A 
ATOM     18  C   UNL d   1       4.231  -6.422  -0.229  0.00  0.00     0.078 A 
ATOM     19  C   UNL d   1       4.881  -5.377   0.436  0.00  0.00     0.038 A 
ATOM     20  C   UNL d   1       4.294  -4.110   0.522  0.00  0.00     0.014 A 
BRANCH  18  21
ATOM     21  O   UNL d   1       4.922  -7.593  -0.265  0.00  0.00    -0.255 OA
BRANCH  21  22
ATOM     22  C   UNL d   1       4.691  -8.515  -1.323  0.00  0.00     0.530 C 
ATOM     23  F   UNL d   1       3.948  -8.027  -2.338  0.00  0.00    -0.144 F 
ATOM     24  F   UNL d   1       5.888  -8.883  -1.836  0.00  0.00    -0.144 F 
ATOM     25  F   UNL d   1       4.087  -9.618  -0.832  0.00  0.00    -0.144 F 
ENDBRANCH  21  22
ENDBRANCH  18  21
ENDBRANCH   2  15
TORSDOF 5
