REMARK  7 active torsions:
REMARK  status: ('A' for Active; 'I' for Inactive)
REMARK    1  A    between atoms: N_2  and  C_1 
REMARK    2  A    between atoms: N_8  and  C_1 
REMARK    3  A    between atoms: C_3  and  N_2 
REMARK    4  A    between atoms: N_4  and  N_8 
REMARK    5  A    between atoms: C_6  and  C_11 
REMARK    6  A    between atoms: O_12  and  C_9 
REMARK    7  A    between atoms: O_13  and  C_10 
ROOT
ATOM      1  N   UNL d   1       2.624  -0.587   0.668  0.00  0.00    -0.276 N 
ATOM      2  H   UNL d   1       3.056  -1.419   0.281  0.00  0.00     0.189 HD
ENDROOT
BRANCH   1   3
ATOM      3  N   UNL d   1       3.396   0.332   1.304  0.00  0.00    -0.309 N 
ATOM      4  C   UNL d   1       4.673   0.289   1.063  0.00  0.00     0.121 C 
ATOM      5  HN  UNL d   1       2.993   1.021   1.939  1.00  0.00     0.186 HD
BRANCH   4   6
ATOM      6  C   UNL d   1       5.549   1.348   1.599  0.00  0.00     0.014 A 
ATOM      7  C   UNL d   1       5.120   2.241   2.590  0.00  0.00     0.077 A 
ATOM      8  C   UNL d   1       5.949   3.275   3.014  0.00  0.00     0.037 A 
ATOM      9  C   UNL d   1       7.207   3.436   2.434  0.00  0.00     0.003 A 
ATOM     10  C   UNL d   1       7.643   2.550   1.448  0.00  0.00     0.001 A 
ATOM     11  C   UNL d   1       6.819   1.500   1.031  0.00  0.00     0.015 A 
BRANCH   7  12
ATOM     12  O   UNL d   1       3.890   2.163   3.185  0.00  0.00    -0.360 OA
ATOM     13  H   UNL d   1       3.346   1.543   2.650  0.00  0.00     0.217 HD
ENDBRANCH   7  12
ENDBRANCH   4   6
ENDBRANCH   1   3
BRANCH   1  14
ATOM     14  C   UNL d   1       1.255  -0.563   0.737  0.00  0.00     0.191 C 
ATOM     15  S   UNL d   1       0.397  -1.929   0.296  0.00  0.00    -0.039 SA
BRANCH  14  16
ATOM     16  N   UNL d   1       0.591   0.516   1.237  0.00  0.00    -0.330 N 
ATOM     17  H   UNL d   1      -0.357   0.333   1.545  0.00  0.00     0.168 HD
BRANCH  16  18
ATOM     18  C   UNL d   1       0.934   1.886   1.192  0.00  0.00     0.068 A 
ATOM     19  C   UNL d   1       0.410   2.792   2.126  0.00  0.00     0.095 A 
ATOM     20  C   UNL d   1       0.700   4.160   2.005  0.00  0.00     0.039 A 
ATOM     21  C   UNL d   1       1.500   4.633   0.963  0.00  0.00     0.003 A 
ATOM     22  C   UNL d   1       2.005   3.743   0.023  0.00  0.00     0.002 A 
ATOM     23  C   UNL d   1       1.718   2.382   0.136  0.00  0.00     0.032 A 
BRANCH  19  24
ATOM     24  O   UNL d   1      -0.427   2.488   3.169  0.00  0.00    -0.354 OA
ATOM     25  C   UNL d   1      -0.069   1.353   3.954  0.00  0.00     0.210 C 
ENDBRANCH  19  24
ENDBRANCH  16  18
ENDBRANCH  14  16
ENDBRANCH   1  14
TORSDOF 7
