REMARK  1 active torsions:
REMARK  status: ('A' for Active; 'I' for Inactive)
REMARK    1  A    between atoms: C_11  and  C_4 
ROOT
ATOM      1  C   UNL d   1      -0.715  -0.862  -0.001  0.00  0.00     0.058 C 
ATOM      2  C   UNL d   1       0.732  -1.309   0.068  0.00  0.00     0.174 C 
ATOM      3  N   UNL d   1      -0.804   0.547  -0.029  0.00  0.00    -0.280 NA
ATOM      4  C   UNL d   1      -1.707  -1.761  -0.014  0.00  0.00     0.038 C 
ATOM      5  C   UNL d   1       1.662  -0.095   0.116  0.00  0.00     0.064 C 
ATOM      6  C   UNL d   1      -0.240   1.171   1.204  0.00  0.00     0.096 C 
ATOM      7  C   UNL d   1      -0.109   1.132  -1.212  0.00  0.00     0.096 C 
ATOM      8  O   UNL d   1       1.109  -2.473   0.084  0.00  0.00    -0.291 OA
ATOM      9  C   UNL d   1       1.384   0.733  -1.155  0.00  0.00     0.027 C 
ATOM     10  C   UNL d   1       1.237   0.735   1.346  0.00  0.00     0.027 C 
ENDROOT
BRANCH   4  11
ATOM     11  C   UNL d   1      -3.118  -1.381  -0.075  0.00  0.00    -0.034 A 
ATOM     12  C   UNL d   1      -3.750  -1.218  -1.311  0.00  0.00     0.012 A 
ATOM     13  C   UNL d   1      -5.102  -0.870  -1.371  0.00  0.00     0.007 A 
ATOM     14  C   UNL d   1      -5.839  -0.678  -0.195  0.00  0.00    -0.062 A 
ATOM     15  C   UNL d   1      -5.198  -0.825   1.040  0.00  0.00     0.007 A 
ATOM     16  C   UNL d   1      -7.295  -0.328  -0.273  0.00  0.00     0.048 C 
ATOM     17  C   UNL d   1      -3.846  -1.173   1.100  0.00  0.00     0.012 A 
ENDBRANCH   4  11
TORSDOF 1
