REMARK  3 active torsions:
REMARK  status: ('A' for Active; 'I' for Inactive)
REMARK    1  A    between atoms: C_14  and  C_3 
REMARK    2  A    between atoms: O_13  and  C_10 
REMARK    3  A    between atoms: O_15  and  C_14 
ROOT
ATOM      1  C   UNL d   1      -0.052   0.672  -0.034  0.00  0.00     0.093 A 
ATOM      2  C   UNL d   1      -0.049  -0.727  -0.020  0.00  0.00     0.008 A 
ATOM      3  C   UNL d   1       1.244  -1.431  -0.047  0.00  0.00    -0.016 A 
ATOM      4  O   UNL d   1       1.146   1.409  -0.076  0.00  0.00    -0.275 OA
ATOM      5  C   UNL d   1       2.374   0.777  -0.047  0.00  0.00     0.288 A 
ATOM      6  C   UNL d   1       2.365  -0.693  -0.048  0.00  0.00     0.092 A 
ATOM      7  C   UNL d   1      -1.231   1.417   0.021  0.00  0.00     0.076 A 
ATOM      8  C   UNL d   1      -1.287  -1.382   0.039  0.00  0.00     0.041 A 
ATOM      9  C   UNL d   1      -2.475  -0.648   0.112  0.00  0.00     0.068 A 
ATOM     10  C   UNL d   1      -2.442   0.747   0.111  0.00  0.00     0.090 A 
ATOM     11  O   UNL d   1       3.434   1.394  -0.013  0.00  0.00    -0.260 OA
ATOM     12 CL   UNL d   1      -3.980  -1.485   0.224  0.00  0.00    -0.081 Cl
ENDROOT
BRANCH   3  13
ATOM     13  C   UNL d   1       1.305  -2.936  -0.018  0.00  0.00     0.206 C 
BRANCH  13  14
ATOM     14  O   UNL d   1       0.693  -3.452  -1.198  0.00  0.00    -0.391 OA
ATOM     15  C   UNL d   1       0.654  -4.873  -1.190  0.00  0.00     0.201 C 
ENDBRANCH  13  14
ENDBRANCH   3  13
BRANCH  10  16
ATOM     16  O   UNL d   1      -3.578   1.501   0.212  0.00  0.00    -0.359 OA
ATOM     17  H   UNL d   1      -4.327   0.885   0.321  0.00  0.00     0.217 HD
ENDBRANCH  10  16
TORSDOF 3
