REMARK  8 active torsions:
REMARK  status: ('A' for Active; 'I' for Inactive)
REMARK    1  A    between atoms: N_8  and  C_3 
REMARK    2  A    between atoms: C_10  and  C_4 
REMARK    3  A    between atoms: C_13  and  N_9 
REMARK    4  A    between atoms: C_17  and  C_13 
REMARK    5  A    between atoms: O_16  and  C_20 
REMARK    6  A    between atoms: C_18  and  O_16 
REMARK    7  A    between atoms: C_20  and  C_17 
REMARK    8  A    between atoms: O_26  and  C_17 
ROOT
ATOM      1  N   UNL d   1      -0.117  -2.437  -0.276  0.00  0.00    -0.357 N 
ATOM      2  N   UNL d   1      -0.612  -5.368  -0.484  0.00  0.00     0.094 N 
ATOM      3  C   UNL d   1       0.676  -3.379   0.528  0.00  0.00     0.155 C 
ATOM      4  C   UNL d   1      -1.432  -2.942  -0.712  0.00  0.00     0.155 C 
ATOM      5  C   UNL d   1       0.720  -4.771  -0.160  0.00  0.00     0.292 C 
ATOM      6  C   UNL d   1      -1.334  -4.370  -1.305  0.00  0.00     0.292 C 
ENDROOT
BRANCH   1   7
ATOM      7  C   UNL d   1       0.071  -1.097  -0.060  0.00  0.00     0.165 A 
ATOM      8  N   UNL d   1       1.008  -0.562   0.706  0.00  0.00    -0.321 N 
ATOM      9  C   UNL d   1       0.967   0.840   0.611  0.00  0.00     0.123 A 
ATOM     10  HN  UNL d   1       1.664  -1.090   1.282  1.00  0.00     0.169 HD
ATOM     11  N   UNL d   1       0.017   1.389  -0.152  0.00  0.00    -0.309 N 
ATOM     12  S   UNL d   1      -0.846   0.159  -0.836  0.00  0.00     0.024 SA
ATOM     13  HN  UNL d   1      -0.146   2.387  -0.287  1.00  0.00     0.176 HD
BRANCH   9  14
ATOM     14  C   UNL d   1       1.969   1.683   1.276  0.00  0.00     0.009 A 
ATOM     15  C   UNL d   1       2.904   1.145   2.172  0.00  0.00     0.015 A 
ATOM     16  C   UNL d   1       3.892   1.958   2.743  0.00  0.00     0.001 A 
ATOM     17  C   UNL d   1       3.958   3.315   2.427  0.00  0.00     0.000 A 
ATOM     18  C   UNL d   1       3.027   3.868   1.555  0.00  0.00     0.001 A 
ATOM     19  C   UNL d   1       2.039   3.058   0.990  0.00  0.00     0.015 A 
ENDBRANCH   9  14
ENDBRANCH   1   7
BRANCH   2  20
ATOM     20  C   UNL d   1      -1.317  -5.733   0.757  0.00  0.00     0.306 C 
BRANCH  20  21
ATOM     21  C   UNL d   1      -2.717  -6.395   0.682  0.00  0.00     0.170 C 
BRANCH  21  22
ATOM     22  C   UNL d   1      -2.766  -7.727  -0.091  0.00  0.00     0.209 C 
BRANCH  22  23
ATOM     23  O   UNL d   1      -4.119  -8.229  -0.044  0.00  0.00    -0.349 OA
BRANCH  23  24
ATOM     24  C   UNL d   1      -4.403  -9.349  -0.778  0.00  0.00     0.069 A 
ATOM     25  C   UNL d   1      -5.454 -10.148  -0.285  0.00  0.00     0.040 A 
ATOM     26  C   UNL d   1      -5.863 -11.291  -0.980  0.00  0.00     0.045 A 
ATOM     27  C   UNL d   1      -5.240 -11.627  -2.174  0.00  0.00     0.116 A 
ATOM     28  C   UNL d   1      -4.213 -10.836  -2.680  0.00  0.00     0.045 A 
ATOM     29  F   UNL d   1      -5.637 -12.711  -2.850  0.00  0.00    -0.206 F 
ATOM     30  C   UNL d   1      -3.797  -9.698  -1.982  0.00  0.00     0.040 A 
ENDBRANCH  23  24
ENDBRANCH  22  23
ENDBRANCH  21  22
BRANCH  21  31
ATOM     31  O   UNL d   1      -3.152  -6.591   2.043  0.00  0.00    -0.392 OA
ATOM     32  H   UNL d   1      -2.614  -7.303   2.429  0.00  0.00     0.210 HD
ENDBRANCH  21  31
ENDBRANCH  20  21
ENDBRANCH   2  20
TORSDOF 8
