REMARK  6 active torsions:
REMARK  status: ('A' for Active; 'I' for Inactive)
REMARK    1  A    between atoms: C_2  and  CA_1 
REMARK    2  A    between atoms: N_3  and  CA_1 
REMARK    3  A    between atoms: C_5  and  CA_1 
REMARK    4  A    between atoms: OXT_7  and  C_2 
REMARK    5  A    between atoms: C_6  and  N_3 
REMARK    6  A    between atoms: O_13  and  C_8 
ROOT
ATOM      1  CA  UNL d   1       1.077  -0.022  -0.032  0.00  0.00     0.192 C 
ENDROOT
BRANCH   1   2
ATOM      2  C   UNL d   1       1.380  -0.304   1.459  0.00  0.00     0.163 C 
ATOM      3  O   UNL d   1       1.546   0.571   2.304  0.00  0.00    -0.649 OA
BRANCH   2   4
ATOM      4  OXT UNL d   1       1.472  -1.622   1.772  0.00  0.00    -0.775 OA
ATOM      5  HXT UNL d   1       1.348  -2.226   1.016  0.00  0.00     0.167 HD
ENDBRANCH   2   4
ENDBRANCH   1   2
BRANCH   1   6
ATOM      6  N   UNL d   1       0.433   1.298  -0.181  0.00  0.00    -0.275 NA
ATOM      7  H   UNL d   1       0.819   1.940   0.516  0.00  0.00     0.129 HD
BRANCH   6   8
ATOM      8  C   UNL d   1      -0.954   1.427  -0.263  0.00  0.00     0.009 A 
ATOM      9  C   UNL d   1      -1.536   2.639   0.140  0.00  0.00     0.026 A 
ATOM     10  C   UNL d   1      -2.912   2.878   0.010  0.00  0.00     0.038 A 
ATOM     11  C   UNL d   1      -3.736   1.910  -0.552  0.00  0.00     0.068 A 
ATOM     12  C   UNL d   1      -3.165   0.719  -0.998  0.00  0.00     0.038 A 
ATOM     13  C   UNL d   1      -1.789   0.490  -0.877  0.00  0.00     0.026 A 
BRANCH  11  14
ATOM     14  O   UNL d   1      -5.087   2.003  -0.735  0.00  0.00    -0.356 OA
ATOM     15  C   UNL d   1      -5.703   3.227  -0.359  0.00  0.00     0.210 C 
ENDBRANCH  11  14
ENDBRANCH   6   8
ENDBRANCH   1   6
BRANCH   1  16
ATOM     16  C   UNL d   1       2.352  -0.034  -0.863  0.00  0.00    -0.030 A 
ATOM     17  C   UNL d   1       2.519  -0.974  -1.894  0.00  0.00     0.009 A 
ATOM     18  C   UNL d   1       3.668  -0.961  -2.688  0.00  0.00     0.001 A 
ATOM     19  C   UNL d   1       4.662  -0.009  -2.467  0.00  0.00     0.000 A 
ATOM     20  C   UNL d   1       4.515   0.924  -1.443  0.00  0.00     0.001 A 
ATOM     21  C   UNL d   1       3.372   0.908  -0.643  0.00  0.00     0.009 A 
ENDBRANCH   1  16
TORSDOF 6
