REMARK  3 active torsions:
REMARK  status: ('A' for Active; 'I' for Inactive)
REMARK    1  A    between atoms: C_10  and  C_1 
REMARK    2  A    between atoms: C_2  and  C_9 
REMARK    3  A    between atoms: N_5  and  N_7 
ROOT
ATOM      1  N   UNL d   1       0.403   4.944   0.177  0.00  0.00    -0.311 N 
ATOM      2  HN  UNL d   1      -0.562   5.174   0.416  1.00  0.00     0.186 HD
ATOM      3  C   UNL d   1       1.326   5.817  -0.086  0.00  0.00     0.125 C 
ENDROOT
BRANCH   1   4
ATOM      4  N   UNL d   1       0.909   3.647   0.089  0.00  0.00    -0.311 N 
ATOM      5  C   UNL d   1      -0.007   2.764   0.343  0.00  0.00     0.125 C 
ATOM      6  HN  UNL d   1       1.876   3.421  -0.144  1.00  0.00     0.186 HD
BRANCH   5   7
ATOM      7  C   UNL d   1       0.314   1.359   0.344  0.00  0.00     0.021 A 
ATOM      8  S   UNL d   1      -0.908   0.216   0.688  0.00  0.00    -0.101 SA
ATOM      9  C   UNL d   1       0.186  -1.092   0.542  0.00  0.00     0.050 A 
ATOM     10  C   UNL d   1       1.458  -0.668   0.227  0.00  0.00     0.008 A 
ATOM     11  C   UNL d   1       1.531   0.750   0.108  0.00  0.00     0.021 A 
ENDBRANCH   5   7
ENDBRANCH   1   4
BRANCH   3  12
ATOM     12  C   UNL d   1       1.045   7.229  -0.029  0.00  0.00     0.021 A 
ATOM     13  S   UNL d   1       2.285   8.343  -0.415  0.00  0.00    -0.101 SA
ATOM     14  C   UNL d   1       1.256   9.681  -0.133  0.00  0.00     0.050 A 
ATOM     15  C   UNL d   1      -0.007   9.289   0.252  0.00  0.00     0.008 A 
ATOM     16  C   UNL d   1      -0.128   7.870   0.313  0.00  0.00     0.021 A 
ENDBRANCH   3  12
TORSDOF 3
