REMARK  5 active torsions:
REMARK  status: ('A' for Active; 'I' for Inactive)
REMARK    1  A    between atoms: C_4  and  C_1 
REMARK    2  A    between atoms: S_5  and  C_13 
REMARK    3  A    between atoms: C_16  and  S_5 
REMARK    4  A    between atoms: C_13  and  C_6 
REMARK    5  A    between atoms: C_17  and  C_16 
ROOT
ATOM      1  C   UNL d   1       0.514  -1.008  -0.032  0.00  0.00     0.186 A 
ATOM      2  N   UNL d   1       1.167   0.064   0.364  0.00  0.00    -0.322 N 
ATOM      3  HN  UNL d   1       2.089   0.119   0.799  1.00  0.00     0.169 HD
ATOM      4  C   UNL d   1       0.312   1.088   0.052  0.00  0.00     0.118 A 
ATOM      5  N   UNL d   1      -0.847   0.691  -0.488  0.00  0.00    -0.246 N 
ATOM      6  HN  UNL d   1      -1.632   1.266  -0.792  1.00  0.00     0.196 HD
ATOM      7  O   UNL d   1      -0.723  -0.698  -0.536  0.00  0.00    -0.217 OA
ENDROOT
BRANCH   4   8
ATOM      8  C   UNL d   1       0.703   2.508   0.126  0.00  0.00     0.218 C 
BRANCH   8   9
ATOM      9  S   UNL d   1       1.029   3.072   1.782  0.00  0.00     0.157 S 
ATOM     10  O   UNL d   1       1.453   4.462   1.690  0.00  0.00    -0.227 OA
ATOM     11  O   UNL d   1      -0.127   2.751   2.605  0.00  0.00    -0.227 OA
BRANCH   9  12
ATOM     12  C   UNL d   1       2.405   2.118   2.407  0.00  0.00     0.205 C 
BRANCH  12  13
ATOM     13  C   UNL d   1       3.594   2.298   1.547  0.00  0.00     0.066 A 
ATOM     14  O   UNL d   1       3.740   1.419   0.516  0.00  0.00    -0.326 OA
ATOM     15  C   UNL d   1       4.900   1.726  -0.116  0.00  0.00     0.142 A 
ATOM     16  C   UNL d   1       5.511   2.792   0.498  0.00  0.00     0.027 A 
ATOM     17  C   UNL d   1       4.667   3.165   1.573  0.00  0.00     0.035 A 
ENDBRANCH  12  13
ENDBRANCH   9  12
ENDBRANCH   8   9
ENDBRANCH   4   8
BRANCH   1  18
ATOM     18  C   UNL d   1       1.069  -2.378   0.016  0.00  0.00     0.073 A 
ATOM     19  C   UNL d   1       2.282  -2.745   0.549  0.00  0.00     0.089 A 
ATOM     20  O   UNL d   1       2.444  -4.087   0.384  0.00  0.00    -0.242 OA
ATOM     21  C   UNL d   1       3.382  -2.031   1.222  0.00  0.00     0.080 C 
ATOM     22  N   UNL d   1       1.342  -4.612  -0.267  0.00  0.00    -0.265 N 
ATOM     23  C   UNL d   1       0.519  -3.578  -0.488  0.00  0.00     0.045 A 
ATOM     24  HN  UNL d   1       1.188  -5.587  -0.525  1.00  0.00     0.194 HD
ATOM     25  C   UNL d   1      -0.759  -3.790  -1.206  0.00  0.00     0.071 C 
ENDBRANCH   1  18
TORSDOF 5
