REMARK  0 active torsions:
REMARK  status: ('A' for Active; 'I' for Inactive)
ROOT
ATOM      1  S   UNL d   1      -1.341   1.704   0.126  0.00  0.00     0.176 S 
ATOM      2  C   UNL d   1       0.121   0.727   0.077  0.00  0.00     0.073 A 
ATOM      3  C   UNL d   1       0.056  -0.665  -0.010  0.00  0.00     0.031 A 
ATOM      4  C   UNL d   1      -1.226  -1.422  -0.024  0.00  0.00     0.162 C 
ATOM      5  C   UNL d   1      -2.614   0.592  -0.400  0.00  0.00     0.153 C 
ATOM      6  O   UNL d   1      -1.206   2.732  -0.888  0.00  0.00    -0.223 OA
ATOM      7  O   UNL d   1      -1.569   2.033   1.517  0.00  0.00    -0.223 OA
ATOM      8  C   UNL d   1      -2.497  -0.706   0.359  0.00  0.00     0.099 C 
ATOM      9  O   UNL d   1      -1.231  -2.617  -0.303  0.00  0.00    -0.292 OA
ATOM     10  C   UNL d   1       1.253  -1.391  -0.080  0.00  0.00     0.017 A 
ATOM     11  C   UNL d   1       1.353   1.393   0.091  0.00  0.00     0.024 A 
ATOM     12  C   UNL d   1       2.485  -0.732  -0.055  0.00  0.00     0.001 A 
ATOM     13  C   UNL d   1       2.535   0.659   0.030  0.00  0.00     0.002 A 
ENDROOT
TORSDOF 0
