REMARK  2 active torsions:
REMARK  status: ('A' for Active; 'I' for Inactive)
REMARK    1  A    between atoms: C_3  and  N_1 
REMARK    2  A    between atoms: C_7  and  C_2 
ROOT
ATOM      1  N   UNL d   1      -0.641  -1.217   0.215  0.00  0.00    -0.296 N 
ATOM      2  C   UNL d   1       0.752  -1.407  -0.173  0.00  0.00     0.190 C 
ATOM      3  S   UNL d   1       1.536   0.231  -0.119  0.00  0.00    -0.129 SA
ATOM      4  C   UNL d   1      -1.108   0.100   0.222  0.00  0.00     0.235 C 
ATOM      5  C   UNL d   1      -0.037   1.095  -0.162  0.00  0.00     0.179 C 
ATOM      6  O   UNL d   1      -2.262   0.459   0.436  0.00  0.00    -0.272 OA
ENDROOT
BRANCH   1   7
ATOM      7  C   UNL d   1      -1.508  -2.333   0.430  0.00  0.00     0.077 A 
ATOM      8  C   UNL d   1      -1.344  -3.545  -0.263  0.00  0.00     0.144 A 
ATOM      9  C   UNL d   1      -2.140  -4.658  -0.002  0.00  0.00     0.062 A 
ATOM     10  F   UNL d   1      -0.443  -3.647  -1.251  0.00  0.00    -0.204 F 
ATOM     11  C   UNL d   1      -3.128  -4.574   0.974  0.00  0.00     0.009 A 
ATOM     12  C   UNL d   1      -3.325  -3.383   1.669  0.00  0.00     0.020 A 
ATOM     13  I   UNL d   1      -4.308  -6.229   1.393  0.00  0.00    -0.044 I 
ATOM     14  C   UNL d   1      -2.526  -2.268   1.391  0.00  0.00     0.034 A 
ENDBRANCH   1   7
BRANCH   2  15
ATOM     15  C   UNL d   1       1.508  -2.390   0.696  0.00  0.00    -0.010 A 
ATOM     16  C   UNL d   1       2.215  -3.438   0.110  0.00  0.00     0.097 A 
ATOM     17  N   UNL d   1       2.857  -4.408   0.801  0.00  0.00    -0.375 N 
ATOM     18  C   UNL d   1       2.806  -4.331   2.147  0.00  0.00     0.087 A 
ATOM     19  HN  UNL d   1       3.355  -5.162   0.327  1.00  0.00     0.164 HD
ATOM     20  C   UNL d   1       2.155  -3.322   2.834  0.00  0.00     0.018 A 
ATOM     21  C   UNL d   1       1.500  -2.336   2.097  0.00  0.00     0.013 A 
ENDBRANCH   2  15
TORSDOF 2
