REMARK  3 active torsions:
REMARK  status: ('A' for Active; 'I' for Inactive)
REMARK    1  A    between atoms: N_6  and  C_1 
REMARK       I    between atoms: C_2  and  N_6 
REMARK    2  A    between atoms: C_9  and  C_2 
REMARK    3  A    between atoms: C_10  and  C_5 
ROOT
ATOM      1  C   UNL d   1      -1.536   0.165  -0.138  0.00  0.00     0.152 A 
ATOM      2  N   UNL d   1      -1.376  -1.127  -0.185  0.00  0.00    -0.335 N 
ATOM      3  HN  UNL d   1      -2.134  -1.805  -0.259  1.00  0.00     0.168 HD
ATOM      4  C   UNL d   1      -0.034  -1.449  -0.122  0.00  0.00     0.057 A 
ATOM      5  S   UNL d   1      -0.111   1.095  -0.134  0.00  0.00    -0.057 SA
ATOM      6  C   UNL d   1       0.825  -0.359  -0.083  0.00  0.00     0.010 A 
ATOM      7  C   UNL d   1       2.311  -0.285  -0.019  0.00  0.00     0.059 C 
ENDROOT
BRANCH   1   8
ATOM      8  N   UNL d   1      -2.703   0.877  -0.055  0.00  0.00    -0.303 N 
ATOM      9  C   UNL d   1      -3.910   0.237   0.169  0.00  0.00     0.263 C 
ATOM     10  O   UNL d   1      -4.058  -0.979   0.237  0.00  0.00    -0.267 OA
ATOM     11  H   UNL d   1      -2.627   1.883  -0.064  0.00  0.00     0.171 HD
BRANCH   9  12
ATOM     12  C   UNL d   1      -5.103   1.103   0.377  0.00  0.00     0.109 A 
ATOM     13  C   UNL d   1      -5.071   2.486   0.201  0.00  0.00     0.135 A 
ATOM     14  F   UNL d   1      -3.948   3.107  -0.195  0.00  0.00    -0.205 F 
ATOM     15  C   UNL d   1      -6.199   3.276   0.434  0.00  0.00     0.043 A 
ATOM     16  C   UNL d   1      -7.390   2.688   0.854  0.00  0.00     0.006 A 
ATOM     17  C   UNL d   1      -7.444   1.308   1.027  0.00  0.00     0.043 A 
ATOM     18  C   UNL d   1      -6.311   0.526   0.789  0.00  0.00     0.135 A 
ATOM     19  F   UNL d   1      -6.438  -0.792   0.987  0.00  0.00    -0.205 F 
ENDBRANCH   9  12
ENDBRANCH   1   8
BRANCH   4  20
ATOM     20  C   UNL d   1       0.341  -2.857  -0.103  0.00  0.00    -0.007 A 
ATOM     21  C   UNL d   1      -0.380  -3.763  -0.895  0.00  0.00     0.038 A 
ATOM     22  C   UNL d   1      -0.093  -5.129  -0.860  0.00  0.00     0.040 A 
ATOM     23 CL   UNL d   1      -1.033  -6.184  -1.857  0.00  0.00    -0.084 Cl
ATOM     24  C   UNL d   1       0.923  -5.624  -0.029  0.00  0.00    -0.040 A 
ATOM     25  C   UNL d   1       1.630  -4.718   0.774  0.00  0.00     0.009 A 
ATOM     26  C   UNL d   1       1.256  -7.087   0.040  0.00  0.00     0.050 C 
ATOM     27  C   UNL d   1       1.335  -3.350   0.743  0.00  0.00     0.014 A 
ENDBRANCH   4  20
TORSDOF 3
