REMARK  2 active torsions:
REMARK  status: ('A' for Active; 'I' for Inactive)
REMARK    1  A    between atoms: C_3  and  C_4 
REMARK    2  A    between atoms: C_4  and  C_7 
ROOT
ATOM      1  N   UNL d   1       1.914  -0.277   1.421  0.00  0.00    -0.197 NA
ATOM      2  C   UNL d   1       2.778  -0.056   0.679  0.00  0.00     0.067 C 
ATOM      3  C   UNL d   1       3.850   0.229  -0.276  0.00  0.00     0.207 C 
ENDROOT
BRANCH   3   4
ATOM      4  C   UNL d   1       4.361  -1.037  -0.917  0.00  0.00     0.172 C 
ATOM      5  O   UNL d   1       5.542  -1.370  -0.819  0.00  0.00    -0.291 OA
BRANCH   4   6
ATOM      6  C   UNL d   1       3.435  -1.905  -1.702  0.00  0.00     0.012 A 
ATOM      7  C   UNL d   1       2.324  -1.392  -2.379  0.00  0.00     0.039 A 
ATOM      8  C   UNL d   1       1.493  -2.262  -3.090  0.00  0.00     0.035 A 
ATOM      9 CL   UNL d   1       0.127  -1.635  -3.929  0.00  0.00    -0.084 Cl
ATOM     10  C   UNL d   1       1.758  -3.630  -3.132  0.00  0.00     0.024 A 
ATOM     11  C   UNL d   1       2.873  -4.139  -2.469  0.00  0.00     0.003 A 
ATOM     12  C   UNL d   1       3.713  -3.278  -1.762  0.00  0.00     0.015 A 
ENDBRANCH   4   6
ENDBRANCH   3   4
TORSDOF 2
