REMARK  4 active torsions:
REMARK  status: ('A' for Active; 'I' for Inactive)
REMARK    1  A    between atoms: C_9  and  C_6 
REMARK    2  A    between atoms: C_10  and  C_20 
REMARK    3  A    between atoms: O_19  and  C_12 
REMARK    4  A    between atoms: C_20  and  O_19 
ROOT
ATOM      1  C   UNL d   1       1.907  -0.011   0.627  0.00  0.00     0.067 A 
ATOM      2  C   UNL d   1       1.238  -1.073   1.426  0.00  0.00     0.197 A 
ATOM      3  C   UNL d   1       1.052   1.208   0.643  0.00  0.00     0.197 A 
ATOM      4  C   UNL d   1      -0.018  -0.474   1.886  0.00  0.00     0.029 A 
ATOM      5  C   UNL d   1      -0.128   0.840   1.435  0.00  0.00     0.029 A 
ATOM      6  C   UNL d   1       3.066  -0.076  -0.038  0.00  0.00     0.031 C 
ATOM      7  O   UNL d   1       1.607  -2.198   1.680  0.00  0.00    -0.286 OA
ATOM      8  O   UNL d   1       1.265   2.281   0.119  0.00  0.00    -0.286 OA
ATOM      9  C   UNL d   1      -1.239   1.609   1.733  0.00  0.00     0.016 A 
ATOM     10  C   UNL d   1      -1.000  -1.071   2.653  0.00  0.00     0.016 A 
ATOM     11  C   UNL d   1      -2.127  -0.307   2.962  0.00  0.00     0.001 A 
ATOM     12  C   UNL d   1      -2.246   1.021   2.505  0.00  0.00     0.001 A 
ENDROOT
BRANCH   6  13
ATOM     13  C   UNL d   1       3.894  -1.279  -0.102  0.00  0.00    -0.035 A 
ATOM     14  C   UNL d   1       3.685  -2.226  -1.110  0.00  0.00     0.014 A 
ATOM     15  C   UNL d   1       4.471  -3.380  -1.162  0.00  0.00     0.037 A 
ATOM     16  C   UNL d   1       5.479  -3.591  -0.220  0.00  0.00     0.069 A 
ATOM     17  C   UNL d   1       5.657  -2.667   0.812  0.00  0.00     0.037 A 
ATOM     18  C   UNL d   1       4.875  -1.510   0.865  0.00  0.00     0.014 A 
BRANCH  16  19
ATOM     19  O   UNL d   1       6.225  -4.727  -0.395  0.00  0.00    -0.348 OA
BRANCH  19  20
ATOM     20  C   UNL d   1       7.518  -4.695   0.210  0.00  0.00     0.202 C 
BRANCH  20  21
ATOM     21  C   UNL d   1       8.380  -5.726  -0.454  0.00  0.00    -0.011 C 
ATOM     22  C   UNL d   1       9.486  -5.434  -1.152  0.00  0.00     0.009 C 
ENDBRANCH  20  21
ENDBRANCH  19  20
ENDBRANCH  16  19
ENDBRANCH   6  13
TORSDOF 4
