REMARK  3 active torsions:
REMARK  status: ('A' for Active; 'I' for Inactive)
REMARK    1  A    between atoms: C_16  and  N_8 
REMARK    2  A    between atoms: C_10  and  C_17 
REMARK    3  A    between atoms: C_17  and  C_16 
ROOT
ATOM      1  S   UNL d   1       1.808   1.589  -0.047  0.00  0.00    -0.022 SA
ATOM      2  C   UNL d   1       0.086   1.338   0.042  0.00  0.00     0.160 A 
ATOM      3  C   UNL d   1       2.011  -0.146   0.031  0.00  0.00     0.162 A 
ATOM      4  N   UNL d   1       0.922  -0.843   0.093  0.00  0.00    -0.278 N 
ATOM      5  HN  UNL d   1       0.877  -1.861   0.139  1.00  0.00     0.189 HD
ATOM      6  N   UNL d   1      -0.155  -0.007   0.089  0.00  0.00    -0.282 N 
ATOM      7  S   UNL d   1      -1.092   2.500   0.068  0.00  0.00    -0.051 SA
ATOM      8  N   UNL d   1       3.291  -0.608   0.015  0.00  0.00    -0.369 N 
ATOM      9  H   UNL d   1      -1.089  -0.400   0.145  0.00  0.00     0.188 HD
ATOM     10  H   UNL d   1       4.003   0.059  -0.260  0.00  0.00     0.161 HD
ENDROOT
BRANCH   8  11
ATOM     11  C   UNL d   1       3.593  -2.022  -0.096  0.00  0.00     0.126 C 
BRANCH  11  12
ATOM     12  C   UNL d   1       5.105  -2.256  -0.134  0.00  0.00     0.058 C 
BRANCH  12  13
ATOM     13  C   UNL d   1       5.440  -3.728  -0.189  0.00  0.00    -0.057 A 
ATOM     14  C   UNL d   1       5.528  -4.393  -1.420  0.00  0.00     0.009 A 
ATOM     15  C   UNL d   1       5.810  -5.760  -1.466  0.00  0.00     0.024 A 
ATOM     16  C   UNL d   1       6.002  -6.468  -0.281  0.00  0.00     0.034 A 
ATOM     17  C   UNL d   1       5.912  -5.821   0.949  0.00  0.00     0.024 A 
ATOM     18 CL   UNL d   1       6.349  -8.152  -0.339  0.00  0.00    -0.084 Cl
ATOM     19  C   UNL d   1       5.629  -4.454   0.996  0.00  0.00     0.009 A 
ENDBRANCH  12  13
ENDBRANCH  11  12
ENDBRANCH   8  11
TORSDOF 3
