REMARK  4 active torsions:
REMARK  status: ('A' for Active; 'I' for Inactive)
REMARK    1  A    between atoms: C_5  and  N_1 
REMARK    2  A    between atoms: S_2  and  C_3 
REMARK    3  A    between atoms: O_16  and  S_2 
REMARK    4  A    between atoms: O_17  and  C_4 
ROOT
ATOM      1  C   UNL d   1       4.414  -3.043  -0.064  0.00  0.00     0.095 A 
ATOM      2  C   UNL d   1       2.086  -1.472   0.050  0.00  0.00     0.082 A 
ATOM      3  C   UNL d   1       4.211  -2.142   0.993  0.00  0.00     0.053 A 
ATOM      4  C   UNL d   1       2.312  -2.362  -1.019  0.00  0.00     0.058 A 
ATOM      5  C   UNL d   1       3.474  -3.144  -1.083  0.00  0.00     0.059 A 
ATOM      6  C   UNL d   1       3.060  -1.347   1.052  0.00  0.00     0.064 A 
ATOM      7 CL   UNL d   1       3.648  -4.130  -2.487  0.00  0.00    -0.083 Cl
ATOM      8 CL   UNL d   1       2.909  -0.363   2.466  0.00  0.00    -0.082 Cl
ENDROOT
BRANCH   2   9
ATOM      9  N   UNL d   1       0.886  -0.707   0.057  0.00  0.00    -0.232 N 
ATOM     10  C   UNL d   1      -0.370  -1.068  -0.439  0.00  0.00     0.163 A 
ATOM     11  C   UNL d   1      -1.163   0.049  -0.318  0.00  0.00     0.083 A 
ATOM     12  C   UNL d   1      -0.343   1.032   0.264  0.00  0.00     0.026 A 
ATOM     13  N   UNL d   1       0.887   0.571   0.500  0.00  0.00    -0.296 N 
ATOM     14  C   UNL d   1      -0.708   2.425   0.616  0.00  0.00     0.070 C 
ATOM     15  HN  UNL d   1       1.664   1.076   0.926  1.00  0.00     0.187 HD
BRANCH  10  16
ATOM     16  O   UNL d   1      -0.722  -2.277  -0.882  0.00  0.00    -0.345 OA
ATOM     17  H   UNL d   1      -0.112  -2.950  -0.535  0.00  0.00     0.219 HD
ENDBRANCH  10  16
ENDBRANCH   2   9
BRANCH   1  18
ATOM     18  S   UNL d   1       5.895  -4.008   0.001  0.00  0.00     0.131 S 
ATOM     19  O   UNL d   1       6.887  -3.278  -0.760  0.00  0.00    -0.598 OA
ATOM     20  O   UNL d   1       6.101  -4.376   1.382  0.00  0.00    -0.598 OA
BRANCH  18  21
ATOM     21  O   UNL d   1       5.612  -5.367  -0.811  0.00  0.00    -0.292 OA
ATOM     22  H   UNL d   1       5.848  -5.221  -1.753  0.00  0.00     0.232 HD
ENDBRANCH  18  21
ENDBRANCH   1  18
TORSDOF 4
