REMARK  4 active torsions:
REMARK  status: ('A' for Active; 'I' for Inactive)
REMARK    1  A    between atoms: C_10  and  C_5 
REMARK    2  A    between atoms: C_18  and  C_6 
REMARK    3  A    between atoms: C_19  and  C_7 
REMARK    4  A    between atoms: O_21  and  C_8 
ROOT
ATOM      1  C   UNL d   1       4.576   2.351  -1.114  0.00  0.00    -0.016 A 
ATOM      2  C   UNL d   1       3.882   3.371   1.061  0.00  0.00    -0.016 A 
ATOM      3  C   UNL d   1       4.806   3.206  -0.004  0.00  0.00     0.079 A 
ATOM      4  C   UNL d   1       2.482   1.663  -0.019  0.00  0.00    -0.008 A 
ATOM      5  C   UNL d   1       2.723   2.577   1.012  0.00  0.00     0.024 A 
ATOM      6  C   UNL d   1       3.395   1.583  -1.075  0.00  0.00     0.024 A 
ENDROOT
BRANCH   4   7
ATOM      7  C   UNL d   1       1.301   0.802  -0.006  0.00  0.00     0.050 A 
ATOM      8  N   UNL d   1       0.732   0.325  -1.180  0.00  0.00    -0.347 N 
ATOM      9  C   UNL d   1      -0.316  -0.430  -0.898  0.00  0.00     0.111 A 
ATOM     10  HN  UNL d   1       1.071   0.527  -2.121  1.00  0.00     0.167 HD
ATOM     11  C   UNL d   1      -1.112  -1.058  -1.911  0.00  0.00     0.134 A 
ATOM     12  S   UNL d   1      -0.659  -0.621   0.771  0.00  0.00    -0.079 SA
ATOM     13  O   UNL d   1      -2.221  -1.821  -1.641  0.00  0.00    -0.236 OA
ATOM     14  C   UNL d   1      -0.945  -1.037  -3.282  0.00  0.00     0.061 A 
ATOM     15  N   UNL d   1      -2.778  -2.290  -2.817  0.00  0.00    -0.272 N 
ATOM     16  C   UNL d   1      -2.003  -1.813  -3.788  0.00  0.00     0.117 A 
ATOM     17  HN  UNL d   1      -3.607  -2.876  -2.919  1.00  0.00     0.194 HD
ATOM     18  C   UNL d   1       0.686   0.365   1.152  0.00  0.00     0.082 A 
ENDBRANCH   4   7
BRANCH   2  19
ATOM     19  C   UNL d   1       4.083   4.370   2.231  0.00  0.00    -0.021 C 
ATOM     20  C   UNL d   1       2.897   4.389   3.238  0.00  0.00     0.019 C 
ATOM     21  C   UNL d   1       5.336   4.014   3.056  0.00  0.00     0.019 C 
ATOM     22  C   UNL d   1       4.201   5.818   1.704  0.00  0.00     0.019 C 
ENDBRANCH   2  19
BRANCH   1  23
ATOM     23  C   UNL d   1       5.523   2.246  -2.340  0.00  0.00    -0.021 C 
ATOM     24  C   UNL d   1       5.031   1.233  -3.412  0.00  0.00     0.019 C 
ATOM     25  C   UNL d   1       5.612   3.607  -3.067  0.00  0.00     0.019 C 
ATOM     26  C   UNL d   1       6.941   1.784  -1.944  0.00  0.00     0.019 C 
ENDBRANCH   1  23
BRANCH   3  27
ATOM     27  O   UNL d   1       5.989   3.888   0.069  0.00  0.00    -0.360 OA
ATOM     28  H   UNL d   1       5.894   4.668  -0.500  0.00  0.00     0.217 HD
ENDBRANCH   3  27
TORSDOF 4
