REMARK  4 active torsions:
REMARK  status: ('A' for Active; 'I' for Inactive)
REMARK    1  A    between atoms: C_2  and  C_1 
REMARK    2  A    between atoms: C_17  and  C_10 
REMARK    3  A    between atoms: O_13  and  C_17 
REMARK    4  A    between atoms: C_14  and  O_13 
ROOT
ATOM      1  C   UNL d   1       3.969   0.156   0.140  0.00  0.00     0.057 A 
ATOM      2  N   UNL d   1       4.717  -0.510  -0.819  0.00  0.00    -0.351 N 
ATOM      3  HN  UNL d   1       4.326  -1.085  -1.564  1.00  0.00     0.166 HD
ATOM      4  C   UNL d   1       4.718   0.907   1.022  0.00  0.00     0.082 A 
ATOM      5  C   UNL d   1       6.004  -0.295  -0.632  0.00  0.00     0.075 A 
ATOM      6  S   UNL d   1       6.391   0.735   0.686  0.00  0.00    -0.084 SA
ENDROOT
BRANCH   1   7
ATOM      7  C   UNL d   1       2.464   0.072   0.128  0.00  0.00     0.039 A 
ATOM      8  S   UNL d   1       1.639  -0.336  -1.316  0.00  0.00    -0.087 SA
ATOM      9  C   UNL d   1       0.097  -0.080  -0.617  0.00  0.00     0.016 A 
ATOM     10  C   UNL d   1      -1.152  -0.166  -1.267  0.00  0.00     0.021 A 
ATOM     11  C   UNL d   1       0.202   0.222   0.739  0.00  0.00    -0.010 A 
ATOM     12  C   UNL d   1      -2.318   0.049  -0.529  0.00  0.00     0.025 A 
ATOM     13  C   UNL d   1      -2.240   0.335   0.824  0.00  0.00     0.035 A 
ATOM     14  C   UNL d   1      -1.004   0.420   1.466  0.00  0.00     0.037 A 
ATOM     15 CL   UNL d   1      -3.683   0.588   1.729  0.00  0.00    -0.084 Cl
ATOM     16  C   UNL d   1       1.588   0.272   1.185  0.00  0.00    -0.031 A 
ATOM     17  C   UNL d   1       1.928   0.479   2.629  0.00  0.00     0.050 C 
ENDBRANCH   1   7
BRANCH   5  18
ATOM     18  C   UNL d   1       7.089  -0.917  -1.455  0.00  0.00     0.240 C 
BRANCH  18  19
ATOM     19  O   UNL d   1       7.354  -0.037  -2.548  0.00  0.00    -0.343 OA
BRANCH  19  20
ATOM     20  C   UNL d   1       8.393  -0.407  -3.364  0.00  0.00     0.090 A 
ATOM     21  C   UNL d   1       9.116   0.614  -3.998  0.00  0.00     0.067 A 
ATOM     22 CL   UNL d   1       8.743   2.282  -3.736  0.00  0.00    -0.081 Cl
ATOM     23  C   UNL d   1      10.179   0.304  -4.851  0.00  0.00     0.026 A 
ATOM     24  C   UNL d   1      10.518  -1.027  -5.087  0.00  0.00     0.002 A 
ATOM     25  C   UNL d   1       9.787  -2.047  -4.484  0.00  0.00     0.003 A 
ATOM     26  C   UNL d   1       8.724  -1.740  -3.631  0.00  0.00     0.038 A 
ENDBRANCH  19  20
ENDBRANCH  18  19
ENDBRANCH   5  18
TORSDOF 4
