REMARK  8 active torsions:
REMARK  status: ('A' for Active; 'I' for Inactive)
REMARK    1  A    between atoms: N_6  and  C_1 
REMARK    2  A    between atoms: C_9  and  N_2 
REMARK       I    between atoms: C_8  and  N_6 
REMARK    3  A    between atoms: C_14  and  C_7 
REMARK       I    between atoms: N_13  and  C_8 
REMARK    4  A    between atoms: C_10  and  O_17 
REMARK    5  A    between atoms: C_11  and  O_16 
REMARK    6  A    between atoms: C_30  and  N_13 
REMARK    7  A    between atoms: O_16  and  C_32 
REMARK    8  A    between atoms: O_17  and  C_31 
ROOT
ATOM      1  C   UNL d   1      -0.172  -1.129   0.554  0.00  0.00     0.133 C 
ATOM      2  N   UNL d   1       1.131  -0.735   0.276  0.00  0.00    -0.239 N 
ATOM      3  N   UNL d   1       1.260   0.607   0.400  0.00  0.00    -0.291 N 
ATOM      4  HN  UNL d   1       2.078   1.170   0.167  1.00  0.00     0.187 HD
ATOM      5  C   UNL d   1      -0.783  -0.046   1.142  0.00  0.00     0.082 C 
ATOM      6  C   UNL d   1       0.092   1.047   0.892  0.00  0.00     0.062 C 
ENDROOT
BRANCH   1   7
ATOM      7  N   UNL d   1      -0.721  -2.329   0.139  0.00  0.00    -0.293 N 
ATOM      8  C   UNL d   1      -1.472  -3.208   0.858  0.00  0.00     0.326 C 
ATOM      9  N   UNL d   1      -1.505  -3.027   2.214  0.00  0.00    -0.309 N 
ATOM     10  O   UNL d   1      -1.956  -4.158   0.237  0.00  0.00    -0.247 OA
ATOM     11  H   UNL d   1      -1.065  -2.190   2.566  0.00  0.00     0.170 HD
ATOM     12  H   UNL d   1      -0.436  -2.700  -0.762  0.00  0.00     0.172 HD
BRANCH   9  13
ATOM     13  C   UNL d   1      -2.078  -3.890   3.169  0.00  0.00     0.036 A 
ATOM     14  C   UNL d   1      -2.623  -5.139   2.861  0.00  0.00     0.032 A 
ATOM     15  C   UNL d   1      -3.256  -5.909   3.843  0.00  0.00     0.039 A 
ATOM     16  C   UNL d   1      -3.382  -5.420   5.138  0.00  0.00     0.078 A 
ATOM     17  C   UNL d   1      -2.754  -4.220   5.475  0.00  0.00     0.039 A 
ATOM     18  C   UNL d   1      -2.102  -3.460   4.497  0.00  0.00     0.032 A 
BRANCH  16  19
ATOM     19  O   UNL d   1      -4.009  -6.072   6.154  0.00  0.00    -0.255 OA
BRANCH  19  20
ATOM     20  C   UNL d   1      -5.251  -6.715   5.878  0.00  0.00     0.530 C 
ATOM     21  F   UNL d   1      -5.621  -6.703   4.582  0.00  0.00    -0.144 F 
ATOM     22  F   UNL d   1      -5.174  -8.000   6.288  0.00  0.00    -0.144 F 
ATOM     23  F   UNL d   1      -6.225  -6.106   6.594  0.00  0.00    -0.144 F 
ENDBRANCH  19  20
ENDBRANCH  16  19
ENDBRANCH   9  13
ENDBRANCH   1   7
BRANCH   2  24
ATOM     24  C   UNL d   1       2.273  -1.548  -0.002  0.00  0.00     0.059 A 
ATOM     25  C   UNL d   1       2.227  -2.948   0.098  0.00  0.00     0.039 A 
ATOM     26  C   UNL d   1       3.372  -3.735  -0.108  0.00  0.00    -0.054 A 
ATOM     27  C   UNL d   1       3.257  -5.232   0.001  0.00  0.00     0.049 C 
ATOM     28  C   UNL d   1       4.599  -3.105  -0.384  0.00  0.00    -0.056 A 
ATOM     29  C   UNL d   1       4.643  -1.707  -0.486  0.00  0.00     0.009 A 
ATOM     30  C   UNL d   1       5.863  -3.901  -0.551  0.00  0.00     0.049 C 
ATOM     31  C   UNL d   1       3.494  -0.934  -0.301  0.00  0.00     0.032 A 
ENDBRANCH   2  24
BRANCH   6  32
ATOM     32  C   UNL d   1      -0.188   2.486   0.996  0.00  0.00    -0.008 A 
ATOM     33  C   UNL d   1      -1.416   2.967   1.470  0.00  0.00     0.016 A 
ATOM     34  C   UNL d   1      -1.720   4.339   1.436  0.00  0.00     0.038 A 
ATOM     35  C   UNL d   1      -0.786   5.258   0.961  0.00  0.00     0.078 A 
ATOM     36  C   UNL d   1       0.443   4.784   0.497  0.00  0.00     0.038 A 
ATOM     37  C   UNL d   1       0.742   3.419   0.518  0.00  0.00     0.016 A 
BRANCH  35  38
ATOM     38  O   UNL d   1      -0.915   6.610   0.884  0.00  0.00    -0.255 OA
BRANCH  38  39
ATOM     39  C   UNL d   1      -2.022   7.260   1.481  0.00  0.00     0.530 C 
ATOM     40  F   UNL d   1      -2.428   6.669   2.626  0.00  0.00    -0.144 F 
ATOM     41  F   UNL d   1      -1.654   8.525   1.786  0.00  0.00    -0.144 F 
ATOM     42  F   UNL d   1      -3.055   7.317   0.616  0.00  0.00    -0.144 F 
ENDBRANCH  38  39
ENDBRANCH  35  38
ENDBRANCH   6  32
TORSDOF 8
