REMARK  3 active torsions:
REMARK  status: ('A' for Active; 'I' for Inactive)
REMARK    1  A    between atoms: C_5  and  C_1 
REMARK    2  A    between atoms: C_4  and  C_6 
REMARK    3  A    between atoms: C_10  and  C_5 
ROOT
ATOM      1  C   UNL d   1      -0.181   0.638  -0.207  0.00  0.00     0.058 A 
ATOM      2  C   UNL d   1       1.019   0.033   0.198  0.00  0.00     0.050 A 
ATOM      3  C   UNL d   1      -1.285  -0.175  -0.509  0.00  0.00     0.050 A 
ATOM      4  C   UNL d   1       0.010  -2.177   0.001  0.00  0.00     0.051 A 
ATOM      5  C   UNL d   1       1.111  -1.363   0.297  0.00  0.00     0.041 A 
ATOM      6  C   UNL d   1      -1.193  -1.566  -0.384  0.00  0.00     0.041 A 
ATOM      7 CL   UNL d   1      -2.787   0.449  -1.096  0.00  0.00    -0.083 Cl
ATOM      8 CL   UNL d   1       2.426   0.941   0.627  0.00  0.00    -0.083 Cl
ENDROOT
BRANCH   1   9
ATOM      9  C   UNL d   1      -0.231   2.098  -0.429  0.00  0.00     0.195 C 
ATOM     10  O   UNL d   1       0.524   2.571  -1.274  0.00  0.00    -0.287 OA
BRANCH   9  11
ATOM     11  C   UNL d   1      -1.199   2.977   0.284  0.00  0.00     0.015 A 
ATOM     12  C   UNL d   1      -1.496   4.221  -0.291  0.00  0.00     0.015 A 
ATOM     13  C   UNL d   1      -2.453   5.056   0.289  0.00  0.00     0.001 A 
ATOM     14  C   UNL d   1      -3.112   4.655   1.448  0.00  0.00     0.000 A 
ATOM     15  C   UNL d   1      -2.801   3.432   2.042  0.00  0.00     0.001 A 
ATOM     16  C   UNL d   1      -1.839   2.592   1.468  0.00  0.00     0.015 A 
ENDBRANCH   9  11
ENDBRANCH   1   9
BRANCH   4  17
ATOM     17  C   UNL d   1       0.095  -3.681   0.096  0.00  0.00     0.417 C 
ATOM     18  F   UNL d   1       1.370  -4.145   0.197  0.00  0.00    -0.166 F 
ATOM     19  F   UNL d   1      -0.570  -4.163   1.180  0.00  0.00    -0.166 F 
ATOM     20  F   UNL d   1      -0.447  -4.301  -0.987  0.00  0.00    -0.166 F 
ENDBRANCH   4  17
TORSDOF 3
