REMARK  7 active torsions:
REMARK  status: ('A' for Active; 'I' for Inactive)
REMARK    1  A    between atoms: C_4  and  N_1 
REMARK    2  A    between atoms: C_3  and  C_2 
REMARK    3  A    between atoms: O_18  and  C_3 
REMARK    4  A    between atoms: S_6  and  C_11 
REMARK    5  A    between atoms: C_7  and  S_6 
REMARK    6  A    between atoms: C_8  and  C_10 
REMARK    7  A    between atoms: C_11  and  C_8 
ROOT
ATOM      1  C   UNL d   1      -3.254   4.890   1.236  0.00  0.00     0.163 C 
ENDROOT
BRANCH   1   2
ATOM      2  S   UNL d   1      -3.366   3.497   2.443  0.00  0.00    -0.121 SA
BRANCH   2   3
ATOM      3  C   UNL d   1      -4.777   3.923   3.454  0.00  0.00     0.017 A 
ATOM      4  C   UNL d   1      -4.765   4.836   4.523  0.00  0.00     0.054 A 
ATOM      5  C   UNL d   1      -5.899   4.961   5.350  0.00  0.00     0.020 A 
ATOM      6  C   UNL d   1      -7.026   4.167   5.141  0.00  0.00     0.001 A 
ATOM      7  C   UNL d   1      -7.040   3.259   4.089  0.00  0.00     0.001 A 
ATOM      8  C   UNL d   1      -5.927   3.139   3.253  0.00  0.00     0.019 A 
BRANCH   4   9
ATOM      9  C   UNL d   1      -3.616   5.705   4.883  0.00  0.00     0.177 C 
ATOM     10  O   UNL d   1      -3.769   6.836   5.315  0.00  0.00    -0.646 OA
BRANCH   9  11
ATOM     11  O   UNL d   1      -2.406   5.127   4.764  0.00  0.00    -0.773 OA
ATOM     12  H   UNL d   1      -2.422   4.221   4.389  0.00  0.00     0.167 HD
ENDBRANCH   9  11
ENDBRANCH   4   9
ENDBRANCH   2   3
ENDBRANCH   1   2
BRANCH   1  13
ATOM     13  C   UNL d   1      -2.072   4.630   0.298  0.00  0.00     0.169 C 
ATOM     14  O   UNL d   1      -1.258   3.719   0.461  0.00  0.00    -0.291 OA
BRANCH  13  15
ATOM     15  C   UNL d   1      -1.865   5.501  -0.897  0.00  0.00     0.011 A 
ATOM     16  C   UNL d   1      -2.313   6.825  -0.968  0.00  0.00     0.017 A 
ATOM     17  C   UNL d   1      -2.022   7.603  -2.103  0.00  0.00     0.037 A 
ATOM     18  C   UNL d   1      -1.292   7.051  -3.164  0.00  0.00     0.102 A 
ATOM     19  C   UNL d   1      -0.846   5.729  -3.107  0.00  0.00     0.037 A 
ATOM     20  C   UNL d   1      -1.131   4.963  -1.973  0.00  0.00     0.017 A 
BRANCH  18  21
ATOM     21  N   UNL d   1      -0.979   7.867  -4.349  0.00  0.00    -0.116 N 
ATOM     22  O   UNL d   1      -0.287   7.356  -5.241  0.00  0.00    -0.532 OA
ATOM     23  O   UNL d   1      -1.433   9.022  -4.384  0.00  0.00    -0.532 OA
ENDBRANCH  18  21
ENDBRANCH  13  15
ENDBRANCH   1  13
TORSDOF 7
