REMARK  4 active torsions:
REMARK  status: ('A' for Active; 'I' for Inactive)
REMARK    1  A    between atoms: N_8  and  C_1 
REMARK       I    between atoms: C_9  and  N_8 
REMARK    2  A    between atoms: C_11  and  C_9 
REMARK    3  A    between atoms: O_21  and  C_13 
REMARK    4  A    between atoms: O_22  and  C_14 
ROOT
ATOM      1  C   UNL d   1       2.334   0.640   0.368  0.00  0.00     0.155 C 
ATOM      2  S   UNL d   1       2.376  -0.906   1.153  0.00  0.00    -0.011 SA
ATOM      3  C   UNL d   1      -0.089  -0.821   0.057  0.00  0.00     0.051 A 
ATOM      4  C   UNL d   1       1.130  -1.620   0.190  0.00  0.00     0.229 C 
ATOM      5  N   UNL d   1       1.255   1.230  -0.046  0.00  0.00    -0.336 N 
ATOM      6  HN  UNL d   1       1.305   2.174  -0.430  1.00  0.00     0.168 HD
ATOM      7  C   UNL d   1       0.010   0.564   0.037  0.00  0.00     0.051 A 
ATOM      8  C   UNL d   1      -1.318  -1.487   0.025  0.00  0.00     0.058 A 
ATOM      9  C   UNL d   1      -1.185   1.288   0.020  0.00  0.00     0.070 A 
ATOM     10  C   UNL d   1      -2.506  -0.762   0.055  0.00  0.00     0.102 A 
ATOM     11  C   UNL d   1      -2.443   0.645   0.053  0.00  0.00     0.103 A 
ATOM     12  O   UNL d   1       1.203  -2.763  -0.246  0.00  0.00    -0.279 OA
ENDROOT
BRANCH   1  13
ATOM     13  N   UNL d   1       3.534   1.296   0.163  0.00  0.00    -0.302 N 
ATOM     14  C   UNL d   1       4.845   0.894   0.428  0.00  0.00     0.264 C 
ATOM     15  O   UNL d   1       5.136  -0.150   1.001  0.00  0.00    -0.267 OA
ATOM     16  H   UNL d   1       3.425   2.177  -0.321  0.00  0.00     0.171 HD
BRANCH  14  17
ATOM     17  C   UNL d   1       5.896   1.810   0.002  0.00  0.00     0.072 A 
ATOM     18  S   UNL d   1       5.594   3.247  -0.874  0.00  0.00    -0.097 SA
ATOM     19  C   UNL d   1       7.255   3.667  -0.885  0.00  0.00     0.050 A 
ATOM     20  C   UNL d   1       8.032   2.724  -0.255  0.00  0.00     0.009 A 
ATOM     21  C   UNL d   1       7.250   1.645   0.241  0.00  0.00     0.025 A 
ENDBRANCH  14  17
ENDBRANCH   1  13
BRANCH  11  22
ATOM     22  O   UNL d   1      -3.491   1.532   0.091  0.00  0.00    -0.353 OA
ATOM     23  C   UNL d   1      -4.809   1.024   0.265  0.00  0.00     0.210 C 
ENDBRANCH  11  22
BRANCH  10  24
ATOM     24  O   UNL d   1      -3.718  -1.398   0.050  0.00  0.00    -0.353 OA
ATOM     25  C   UNL d   1      -3.756  -2.676   0.685  0.00  0.00     0.210 C 
ENDBRANCH  10  24
TORSDOF 4
