REMARK  3 active torsions:
REMARK  status: ('A' for Active; 'I' for Inactive)
REMARK    1  A    between atoms: N_2  and  C_3 
REMARK    2  A    between atoms: C_8  and  C_9 
REMARK    3  A    between atoms: C_11  and  C_8 
ROOT
ATOM      1  C   UNL d   1      -1.157  -2.147  -0.541  0.00  0.00     0.139 C 
ATOM      2  C   UNL d   1       0.083  -1.858  -0.101  0.00  0.00     0.119 C 
ATOM      3  C   UNL d   1      -1.598  -3.480  -0.775  0.00  0.00     0.112 C 
ATOM      4  C   UNL d   1      -2.091  -1.093  -0.723  0.00  0.00     0.112 C 
ATOM      5  N   UNL d   1      -1.957  -4.565  -0.967  0.00  0.00    -0.191 NA
ATOM      6  N   UNL d   1      -2.844  -0.221  -0.869  0.00  0.00    -0.191 NA
ENDROOT
BRANCH   2   7
ATOM      7  N   UNL d   1       1.185  -2.671   0.146  0.00  0.00    -0.388 N 
ATOM      8  C   UNL d   1       1.574  -3.775  -0.752  0.00  0.00     0.123 C 
ATOM      9  C   UNL d   1       1.993  -4.974   0.091  0.00  0.00     0.032 C 
ATOM     10  C   UNL d   1       3.109  -4.626   1.089  0.00  0.00     0.064 C 
ATOM     11  C   UNL d   1       2.744  -3.371   1.893  0.00  0.00     0.032 C 
ATOM     12  C   UNL d   1       2.303  -2.215   0.991  0.00  0.00     0.123 C 
BRANCH  10  13
ATOM     13  C   UNL d   1       4.453  -4.441   0.382  0.00  0.00     0.163 C 
ATOM     14  O   UNL d   1       4.524  -4.059  -0.786  0.00  0.00    -0.292 OA
BRANCH  13  15
ATOM     15  C   UNL d   1       5.729  -4.694   1.116  0.00  0.00     0.010 A 
ATOM     16  C   UNL d   1       5.772  -5.083   2.459  0.00  0.00     0.015 A 
ATOM     17  C   UNL d   1       7.001  -5.309   3.084  0.00  0.00     0.001 A 
ATOM     18  C   UNL d   1       8.190  -5.146   2.375  0.00  0.00     0.000 A 
ATOM     19  C   UNL d   1       8.157  -4.754   1.039  0.00  0.00     0.001 A 
ATOM     20  C   UNL d   1       6.932  -4.529   0.412  0.00  0.00     0.015 A 
ENDBRANCH  13  15
ENDBRANCH  10  13
ENDBRANCH   2   7
TORSDOF 3
