REMARK  2 active torsions:
REMARK  status: ('A' for Active; 'I' for Inactive)
REMARK    1  A    between atoms: N_3  and  C_1 
REMARK    2  A    between atoms: C_6  and  C_2 
ROOT
ATOM      1  C   UNL d   1       2.358  -0.868  -0.028  0.00  0.00     0.115 A 
ATOM      2  C   UNL d   1       2.469   0.631   0.015  0.00  0.00     0.220 A 
ATOM      3  C   UNL d   1       1.213  -1.558  -0.043  0.00  0.00     0.049 A 
ATOM      4  O   UNL d   1       1.193   1.334  -0.038  0.00  0.00    -0.334 OA
ATOM      5  C   UNL d   1      -0.019  -0.784  -0.018  0.00  0.00     0.001 A 
ATOM      6  C   UNL d   1       0.031   0.614  -0.024  0.00  0.00     0.080 A 
ATOM      7  C   UNL d   1      -1.258  -1.435  -0.007  0.00  0.00     0.038 A 
ATOM      8  C   UNL d   1      -1.152   1.354  -0.017  0.00  0.00     0.039 A 
ATOM      9  C   UNL d   1      -2.435  -0.689   0.001  0.00  0.00     0.035 A 
ATOM     10  C   UNL d   1      -2.389   0.703  -0.004  0.00  0.00     0.026 A 
ATOM     11 CL   UNL d   1      -3.954  -1.497   0.014  0.00  0.00    -0.084 Cl
ENDROOT
BRANCH   2  12
ATOM     12  C   UNL d   1       3.179   1.170   1.256  0.00  0.00    -0.001 A 
ATOM     13  C   UNL d   1       4.354   1.944   1.187  0.00  0.00     0.044 A 
ATOM     14  C   UNL d   1       5.018   2.347   2.351  0.00  0.00     0.048 A 
ATOM     15 CL   UNL d   1       5.040   2.456  -0.316  0.00  0.00    -0.084 Cl
ATOM     16  C   UNL d   1       4.494   2.018   3.596  0.00  0.00     0.035 A 
ATOM     17  C   UNL d   1       3.312   1.293   3.693  0.00  0.00     0.024 A 
ATOM     18 CL   UNL d   1       5.304   2.524   5.027  0.00  0.00    -0.084 Cl
ATOM     19  C   UNL d   1       2.660   0.869   2.533  0.00  0.00     0.013 A 
ENDBRANCH   2  12
BRANCH   1  20
ATOM     20  N   UNL d   1       3.603  -1.617  -0.121  0.00  0.00    -0.117 N 
ATOM     21  O   UNL d   1       3.536  -2.855  -0.158  0.00  0.00    -0.532 OA
ATOM     22  O   UNL d   1       4.657  -0.978  -0.163  0.00  0.00    -0.532 OA
ENDBRANCH   1  20
TORSDOF 2
