REMARK  5 active torsions:
REMARK  status: ('A' for Active; 'I' for Inactive)
REMARK       I    between atoms: C_3  and  N_5 
REMARK    1  A    between atoms: C_13  and  C_3 
REMARK    2  A    between atoms: N_5  and  C_7 
REMARK    3  A    between atoms: C_6  and  C_14 
REMARK    4  A    between atoms: O_16  and  C_6 
REMARK    5  A    between atoms: C_14  and  C_13 
ROOT
ATOM      1  C   UNL d   1       0.289  -0.660   0.101  0.00  0.00     0.104 A 
ATOM      2  C   UNL d   1       1.509  -1.325   0.251  0.00  0.00     0.069 A 
ATOM      3  C   UNL d   1       0.267   0.726  -0.088  0.00  0.00     0.102 A 
ATOM      4  C   UNL d   1       2.719  -0.635   0.151  0.00  0.00     0.037 A 
ATOM      5  O   UNL d   1      -0.817  -1.472   0.169  0.00  0.00    -0.348 OA
ATOM      6  O   UNL d   1      -0.866   1.505  -0.155  0.00  0.00    -0.348 OA
ATOM      7  C   UNL d   1       1.472   1.413  -0.236  0.00  0.00     0.042 A 
ATOM      8  C   UNL d   1       2.691   0.736  -0.123  0.00  0.00     0.032 A 
ATOM      9  C   UNL d   1      -2.750  -0.028  -0.065  0.00  0.00     0.053 C 
ATOM     10  C   UNL d   1      -1.861  -1.072  -0.718  0.00  0.00     0.178 C 
ATOM     11  C   UNL d   1      -1.935   1.028   0.666  0.00  0.00     0.178 C 
ENDROOT
BRANCH   4  12
ATOM     12  N   UNL d   1       3.982  -1.250   0.296  0.00  0.00    -0.327 N 
ATOM     13  C   UNL d   1       4.220  -2.567   0.627  0.00  0.00     0.222 C 
ATOM     14  O   UNL d   1       3.381  -3.424   0.899  0.00  0.00    -0.273 OA
ATOM     15  H   UNL d   1       4.785  -0.660   0.112  0.00  0.00     0.169 HD
BRANCH  13  16
ATOM     16  C   UNL d   1       5.680  -2.960   0.559  0.00  0.00     0.113 C 
BRANCH  16  17
ATOM     17  C   UNL d   1       5.782  -4.326  -0.110  0.00  0.00     0.119 C 
BRANCH  17  18
ATOM     18  C   UNL d   1       5.266  -4.243  -1.524  0.00  0.00     0.139 C 
ATOM     19  O   UNL d   1       5.968  -3.943  -2.478  0.00  0.00    -0.650 OA
BRANCH  18  20
ATOM     20  O   UNL d   1       3.937  -4.457  -1.635  0.00  0.00    -0.776 OA
ATOM     21  H   UNL d   1       3.469  -4.545  -0.772  0.00  0.00     0.167 HD
ENDBRANCH  18  20
ENDBRANCH  17  18
ENDBRANCH  16  17
ENDBRANCH  13  16
ENDBRANCH   4  12
TORSDOF 5
