REMARK  3 active torsions:
REMARK  status: ('A' for Active; 'I' for Inactive)
REMARK       I    between atoms: N_8  and  C_1 
REMARK       I    between atoms: N_9  and  C_1 
REMARK    1  A    between atoms: N_4  and  N_2 
REMARK    2  A    between atoms: C_6  and  C_10 
REMARK    3  A    between atoms: C_11  and  C_7 
ROOT
ATOM      1  N   UNL d   1       1.148  -0.165  -2.405  0.00  0.00    -0.310 N 
ATOM      2  HN  UNL d   1       2.163  -0.235  -2.336  1.00  0.00     0.186 HD
ATOM      3  C   UNL d   1       0.482  -0.235  -3.512  0.00  0.00     0.107 C 
ENDROOT
BRANCH   1   4
ATOM      4  N   UNL d   1       0.292   0.022  -1.312  0.00  0.00    -0.281 N 
ATOM      5  C   UNL d   1       0.943   0.056  -0.192  0.00  0.00     0.141 C 
ATOM      6  N   UNL d   1       0.351   0.263   1.006  0.00  0.00    -0.278 NA
ATOM      7  N   UNL d   1       2.281  -0.103  -0.048  0.00  0.00    -0.278 NA
ATOM      8  H   UNL d   1      -0.655   0.158   0.938  0.00  0.00     0.126 HD
ATOM      9  H   UNL d   1       0.741  -0.329   1.729  0.00  0.00     0.126 HD
ATOM     10  H   UNL d   1       2.679  -0.115  -0.987  0.00  0.00     0.126 HD
ATOM     11  H   UNL d   1       2.691   0.642   0.499  0.00  0.00     0.126 HD
ATOM     12  HN  UNL d   1      -0.720   0.118  -1.389  1.00  0.00     0.189 HD
ENDBRANCH   1   4
BRANCH   3  13
ATOM     13  C   UNL d   1       1.188  -0.415  -4.797  0.00  0.00     0.019 C 
ATOM     14  C   UNL d   1       0.520  -0.508  -5.954  0.00  0.00     0.013 C 
BRANCH  14  15
ATOM     15  C   UNL d   1       1.189  -0.688  -7.254  0.00  0.00    -0.036 A 
ATOM     16  C   UNL d   1       2.395  -1.393  -7.382  0.00  0.00     0.011 A 
ATOM     17  C   UNL d   1       3.001  -1.553  -8.631  0.00  0.00     0.001 A 
ATOM     18  C   UNL d   1       2.402  -1.025  -9.770  0.00  0.00     0.000 A 
ATOM     19  C   UNL d   1       1.193  -0.341  -9.663  0.00  0.00     0.001 A 
ATOM     20  C   UNL d   1       0.587  -0.178  -8.412  0.00  0.00     0.011 A 
ENDBRANCH  14  15
ENDBRANCH   3  13
TORSDOF 3
