REMARK  3 active torsions:
REMARK  status: ('A' for Active; 'I' for Inactive)
REMARK    1  A    between atoms: C_5  and  C_3 
REMARK    2  A    between atoms: C_11  and  C_4 
REMARK    3  A    between atoms: C_9  and  C_12 
ROOT
ATOM      1  N   UNL d   1       1.271   0.154   0.001  0.00  0.00    -0.318 N 
ATOM      2  HN  UNL d   1       2.280   0.297  -0.040  1.00  0.00     0.169 HD
ATOM      3  C   UNL d   1       0.601  -0.977   0.003  0.00  0.00     0.183 A 
ATOM      4  C   UNL d   1       0.270   1.101   0.068  0.00  0.00     0.138 A 
ATOM      5  N   UNL d   1      -0.964   0.579   0.163  0.00  0.00    -0.242 N 
ATOM      6  HN  UNL d   1      -1.852   1.073   0.240  1.00  0.00     0.196 HD
ATOM      7  O   UNL d   1      -0.744  -0.796   0.132  0.00  0.00    -0.217 OA
ENDROOT
BRANCH   4   8
ATOM      8  C   UNL d   1       0.549   2.533   0.018  0.00  0.00     0.011 A 
ATOM      9  C   UNL d   1       1.873   2.991  -0.096  0.00  0.00     0.031 A 
ATOM     10  C   UNL d   1       2.161   4.364  -0.176  0.00  0.00     0.048 A 
ATOM     11  C   UNL d   1       1.103   5.283  -0.134  0.00  0.00     0.016 A 
ATOM     12  C   UNL d   1      -0.214   4.842  -0.016  0.00  0.00     0.002 A 
ATOM     13  C   UNL d   1      -0.489   3.474   0.059  0.00  0.00     0.015 A 
BRANCH  10  14
ATOM     14  C   UNL d   1       3.581   4.856  -0.318  0.00  0.00     0.417 C 
ATOM     15  F   UNL d   1       4.507   3.857  -0.338  0.00  0.00    -0.166 F 
ATOM     16  F   UNL d   1       3.772   5.564  -1.466  0.00  0.00    -0.166 F 
ATOM     17  F   UNL d   1       3.949   5.685   0.698  0.00  0.00    -0.166 F 
ENDBRANCH  10  14
ENDBRANCH   4   8
BRANCH   3  18
ATOM     18  C   UNL d   1       1.105  -2.345  -0.031  0.00  0.00     0.039 A 
ATOM     19  C   UNL d   1       0.435  -3.423  -0.639  0.00  0.00     0.051 A 
ATOM     20  C   UNL d   1       0.999  -4.704  -0.641  0.00  0.00     0.067 A 
ATOM     21 CL   UNL d   1      -1.074  -3.251  -1.470  0.00  0.00    -0.083 Cl
ATOM     22  C   UNL d   1       2.234  -4.914  -0.044  0.00  0.00     0.118 A 
ATOM     23  C   UNL d   1       2.924  -3.870   0.554  0.00  0.00     0.043 A 
ATOM     24  F   UNL d   1       2.772  -6.140  -0.056  0.00  0.00    -0.206 F 
ATOM     25  C   UNL d   1       2.364  -2.591   0.557  0.00  0.00     0.020 A 
ENDBRANCH   3  18
TORSDOF 3
