REMARK  12 active torsions:
REMARK  status: ('A' for Active; 'I' for Inactive)
REMARK    1  A    between atoms: C_6  and  C_1 
REMARK    2  A    between atoms: C_10  and  C_2 
REMARK    3  A    between atoms: C_13  and  N_3 
REMARK    4  A    between atoms: C_11  and  C_7 
REMARK    5  A    between atoms: C_12  and  C_7 
REMARK    6  A    between atoms: N_8  and  C_14 
REMARK       I    between atoms: N_19  and  C_10 
REMARK    7  A    between atoms: O_31  and  C_11 
REMARK    8  A    between atoms: O_30  and  C_12 
REMARK    9  A    between atoms: C_15  and  N_18 
REMARK   10  A    between atoms: N_18  and  N_19 
REMARK   11  A    between atoms: C_33  and  O_30 
REMARK   12  A    between atoms: C_32  and  O_31 
ROOT
ATOM      1  C   UNL d   1      -2.646  -3.990  -0.732  0.00  0.00     0.157 C 
ATOM      2  C   UNL d   1      -1.888  -2.835  -0.496  0.00  0.00     0.084 C 
ATOM      3  N   UNL d   1      -3.731  -3.607  -1.519  0.00  0.00    -0.251 N 
ATOM      4  N   UNL d   1      -3.760  -2.261  -1.681  0.00  0.00    -0.303 N 
ATOM      5  HN  UNL d   1      -4.456  -1.714  -2.188  1.00  0.00     0.186 HD
ATOM      6  C   UNL d   1      -2.690  -1.807  -1.037  0.00  0.00     0.127 C 
ENDROOT
BRANCH   2   7
ATOM      7  C   UNL d   1      -0.576  -2.601   0.128  0.00  0.00     0.273 C 
ATOM      8  N   UNL d   1       0.284  -3.688   0.176  0.00  0.00    -0.266 N 
ATOM      9  H   UNL d   1       0.009  -4.617  -0.119  0.00  0.00     0.190 HD
ATOM     10  O   UNL d   1      -0.241  -1.486   0.513  0.00  0.00    -0.266 OA
BRANCH   8  11
ATOM     11  N   UNL d   1       1.595  -3.550   0.643  0.00  0.00    -0.308 N 
ATOM     12  H   UNL d   1       1.876  -2.625   0.989  0.00  0.00     0.186 HD
BRANCH  11  13
ATOM     13  C   UNL d   1       2.472  -4.610   0.698  0.00  0.00     0.131 C 
ATOM     14  C   UNL d   1       3.753  -4.730   1.101  0.00  0.00     0.131 C 
BRANCH  14  15
ATOM     15  C   UNL d   1       4.593  -3.638   1.635  0.00  0.00     0.300 C 
ATOM     16  O   UNL d   1       5.797  -3.549   1.437  0.00  0.00    -0.259 OA
BRANCH  15  17
ATOM     17  O   UNL d   1       3.875  -2.845   2.469  0.00  0.00    -0.318 OA
BRANCH  17  18
ATOM     18  C   UNL d   1       4.654  -2.080   3.404  0.00  0.00     0.174 C 
ATOM     19  C   UNL d   1       5.105  -0.752   2.829  0.00  0.00     0.034 C 
ENDBRANCH  17  18
ENDBRANCH  15  17
ENDBRANCH  14  15
BRANCH  14  20
ATOM     20  C   UNL d   1       4.332  -6.096   0.996  0.00  0.00     0.300 C 
ATOM     21  O   UNL d   1       3.937  -6.959   0.226  0.00  0.00    -0.259 OA
BRANCH  20  22
ATOM     22  O   UNL d   1       5.293  -6.265   1.941  0.00  0.00    -0.318 OA
BRANCH  22  23
ATOM     23  C   UNL d   1       5.923  -7.554   2.004  0.00  0.00     0.174 C 
ATOM     24  C   UNL d   1       7.058  -7.643   1.001  0.00  0.00     0.034 C 
ENDBRANCH  22  23
ENDBRANCH  20  22
ENDBRANCH  14  20
ENDBRANCH  11  13
ENDBRANCH   8  11
ENDBRANCH   2   7
BRANCH   1  25
ATOM     25  C   UNL d   1      -2.421  -5.394  -0.363  0.00  0.00     0.435 C 
ATOM     26  F   UNL d   1      -1.195  -5.603   0.178  0.00  0.00    -0.165 F 
ATOM     27  F   UNL d   1      -3.311  -5.821   0.564  0.00  0.00    -0.165 F 
ATOM     28  F   UNL d   1      -2.485  -6.234  -1.423  0.00  0.00    -0.165 F 
ENDBRANCH   1  25
BRANCH   3  29
ATOM     29  C   UNL d   1      -4.660  -4.403  -2.273  0.00  0.00     0.057 C 
ATOM     30  C   UNL d   1      -5.087  -5.669  -1.857  0.00  0.00     0.034 C 
ATOM     31  C   UNL d   1      -5.757  -6.522  -2.741  0.00  0.00     0.038 C 
ATOM     32  C   UNL d   1      -6.038  -6.093  -4.041  0.00  0.00     0.103 C 
ATOM     33  C   UNL d   1      -5.743  -4.782  -4.428  0.00  0.00     0.038 C 
ATOM     34  C   UNL d   1      -5.071  -3.933  -3.536  0.00  0.00     0.034 C 
BRANCH  32  35
ATOM     35  N   UNL d   1      -6.599  -7.041  -5.013  0.00  0.00    -0.116 N 
ATOM     36  O   UNL d   1      -6.809  -6.632  -6.163  0.00  0.00    -0.532 OA
ATOM     37  O   UNL d   1      -6.803  -8.203  -4.631  0.00  0.00    -0.532 OA
ENDBRANCH  32  35
ENDBRANCH   3  29
TORSDOF 12
