REMARK  3 active torsions:
REMARK  status: ('A' for Active; 'I' for Inactive)
REMARK    1  A    between atoms: C_6  and  N_1 
REMARK    2  A    between atoms: N_7  and  C_6 
REMARK    3  A    between atoms: C_8  and  N_7 
ROOT
ATOM      1  N   UNL d   1       1.892   0.066  -0.044  0.00  0.00    -0.267 N 
ATOM      2  C   UNL d   1       1.187  -0.270  -1.163  0.00  0.00     0.262 A 
ATOM      3  C   UNL d   1       1.074   0.285   1.028  0.00  0.00     0.262 A 
ATOM      4  C   UNL d   1      -0.226  -0.153  -0.814  0.00  0.00     0.048 A 
ATOM      5  C   UNL d   1      -0.297   0.183   0.526  0.00  0.00     0.048 A 
ATOM      6  O   UNL d   1       1.364   0.492   2.189  0.00  0.00    -0.267 OA
ATOM      7  O   UNL d   1       1.581  -0.656  -2.246  0.00  0.00    -0.267 OA
ATOM      8  C   UNL d   1      -1.507   0.348   1.170  0.00  0.00     0.018 A 
ATOM      9  C   UNL d   1      -1.353  -0.347  -1.585  0.00  0.00     0.018 A 
ATOM     10  C   UNL d   1      -2.667   0.167   0.407  0.00  0.00     0.001 A 
ATOM     11  C   UNL d   1      -2.591  -0.178  -0.958  0.00  0.00     0.001 A 
ENDROOT
BRANCH   1  12
ATOM     12  C   UNL d   1       3.323  -0.004   0.034  0.00  0.00     0.230 C 
BRANCH  12  13
ATOM     13  N   UNL d   1       3.858   1.304  -0.324  0.00  0.00    -0.275 NA
ATOM     14  H   UNL d   1       3.378   2.022   0.204  0.00  0.00     0.129 HD
BRANCH  13  15
ATOM     15  C   UNL d   1       5.258   1.461  -0.291  0.00  0.00     0.018 A 
ATOM     16  C   UNL d   1       6.112   0.403  -0.651  0.00  0.00     0.066 A 
ATOM     17  C   UNL d   1       7.495   0.559  -0.672  0.00  0.00     0.118 A 
ATOM     18  F   UNL d   1       8.271  -0.490  -0.978  0.00  0.00    -0.206 F 
ATOM     19  C   UNL d   1       8.078   1.779  -0.389  0.00  0.00     0.043 A 
ATOM     20  C   UNL d   1       7.257   2.861  -0.089  0.00  0.00     0.011 A 
ATOM     21  C   UNL d   1       5.851   2.720  -0.032  0.00  0.00    -0.041 A 
ATOM     22  C   UNL d   1       5.074   3.972   0.288  0.00  0.00     0.050 C 
ENDBRANCH  13  15
ENDBRANCH  12  13
ENDBRANCH   1  12
TORSDOF 3
