REMARK  7 active torsions:
REMARK  status: ('A' for Active; 'I' for Inactive)
REMARK    1  A    between atoms: C_2  and  S_1 
REMARK    2  A    between atoms: C_6  and  S_1 
REMARK    3  A    between atoms: C_4  and  C_2 
REMARK    4  A    between atoms: C_3  and  C_5 
REMARK    5  A    between atoms: N_16  and  C_4 
REMARK    6  A    between atoms: C_5  and  O_9 
REMARK    7  A    between atoms: O_9  and  N_7 
ROOT
ATOM      1  C   UNL d   1       1.052   0.681   2.602  0.00  0.00     0.110 C 
ATOM      2  N   UNL d   1       1.908  -0.279   2.772  0.00  0.00    -0.245 N 
ATOM      3  HN  UNL d   1       2.368  -0.480   3.660  1.00  0.00     0.196 HD
ENDROOT
BRANCH   1   4
ATOM      4  C   UNL d   1       0.664   1.472   3.825  0.00  0.00     0.224 C 
BRANCH   4   5
ATOM      5  S   UNL d   1       1.766   2.817   4.137  0.00  0.00     0.197 S 
ATOM      6  O   UNL d   1       3.136   2.331   4.164  0.00  0.00    -0.221 OA
ATOM      7  O   UNL d   1       1.251   3.565   5.273  0.00  0.00    -0.221 OA
BRANCH   5   8
ATOM      8  C   UNL d   1       1.615   3.887   2.716  0.00  0.00     0.128 A 
ATOM      9  N   UNL d   1       0.334   4.221   2.399  0.00  0.00    -0.357 N 
ATOM     10  C   UNL d   1       0.199   5.172   1.448  0.00  0.00     0.089 A 
ATOM     11  HN  UNL d   1      -0.469   3.782   2.848  1.00  0.00     0.166 HD
ATOM     12  C   UNL d   1       1.266   5.741   0.766  0.00  0.00     0.017 A 
ATOM     13  C   UNL d   1       2.557   5.317   1.073  0.00  0.00     0.004 A 
ATOM     14  C   UNL d   1       2.746   4.375   2.079  0.00  0.00     0.042 A 
ENDBRANCH   5   8
ENDBRANCH   4   5
ENDBRANCH   1   4
BRANCH   1  15
ATOM     15  N   UNL d   1       0.447   0.982   1.405  0.00  0.00    -0.387 N 
ATOM     16  H   UNL d   1       0.045   1.905   1.270  0.00  0.00     0.157 HD
ATOM     17  H   UNL d   1       0.893   0.585   0.584  0.00  0.00     0.157 HD
ENDBRANCH   1  15
BRANCH   2  18
ATOM     18  O   UNL d   1       2.131  -1.013   1.586  0.00  0.00    -0.193 OA
BRANCH  18  19
ATOM     19  C   UNL d   1       3.092  -1.958   1.809  0.00  0.00     0.316 C 
ATOM     20  O   UNL d   1       3.721  -2.154   2.841  0.00  0.00    -0.257 OA
BRANCH  19  21
ATOM     21  C   UNL d   1       3.238  -2.866   0.640  0.00  0.00     0.063 A 
ATOM     22  C   UNL d   1       3.098  -2.488  -0.701  0.00  0.00     0.050 A 
ATOM     23 CL   UNL d   1       2.775  -0.870  -1.219  0.00  0.00    -0.083 Cl
ATOM     24  C   UNL d   1       3.271  -3.443  -1.716  0.00  0.00     0.025 A 
ATOM     25  C   UNL d   1       3.596  -4.766  -1.406  0.00  0.00     0.002 A 
ATOM     26  C   UNL d   1       3.757  -5.143  -0.077  0.00  0.00     0.001 A 
ATOM     27  C   UNL d   1       3.581  -4.200   0.938  0.00  0.00     0.019 A 
ENDBRANCH  19  21
ENDBRANCH  18  19
ENDBRANCH   2  18
TORSDOF 7
