REMARK  6 active torsions:
REMARK  status: ('A' for Active; 'I' for Inactive)
REMARK    1  A    between atoms: N_6  and  N_1 
REMARK       I    between atoms: C_3  and  N_6 
REMARK       I    between atoms: N_12  and  C_3 
REMARK    2  A    between atoms: C_4  and  C_5 
REMARK    3  A    between atoms: C_7  and  C_13 
REMARK    4  A    between atoms: O_14  and  C_7 
REMARK    5  A    between atoms: O_9  and  C_8 
REMARK    6  A    between atoms: C_13  and  O_9 
ROOT
ATOM      1  C   UNL d   1       1.199   1.581  -1.760  0.00  0.00     0.021 A 
ATOM      2  C   UNL d   1       2.234   0.959  -2.485  0.00  0.00     0.081 A 
ATOM      3  C   UNL d   1       0.875   2.926  -2.046  0.00  0.00     0.016 A 
ATOM      4  C   UNL d   1       2.873   1.693  -3.505  0.00  0.00     0.038 A 
ATOM      5  C   UNL d   1       1.540   3.643  -3.036  0.00  0.00     0.001 A 
ATOM      6  C   UNL d   1       2.535   3.022  -3.772  0.00  0.00     0.003 A 
ENDROOT
BRANCH   1   7
ATOM      7  C   UNL d   1       0.361   0.952  -0.676  0.00  0.00     0.035 C 
ATOM      8  N   UNL d   1      -0.862   1.392  -0.547  0.00  0.00    -0.300 N 
ATOM      9  HN  UNL d   1      -1.239   2.062  -1.218  1.00  0.00     0.186 HD
ATOM     10  C   UNL d   1       0.958  -0.093   0.239  0.00  0.00     0.070 C 
BRANCH   8  11
ATOM     11  N   UNL d   1      -1.632   0.952   0.490  0.00  0.00    -0.252 N 
ATOM     12  C   UNL d   1      -2.911   1.419   0.679  0.00  0.00     0.332 C 
ATOM     13  O   UNL d   1      -3.570   1.179   1.684  0.00  0.00    -0.246 OA
ATOM     14  N   UNL d   1      -3.389   2.170  -0.345  0.00  0.00    -0.351 N 
ATOM     15  H   UNL d   1      -2.695   2.496  -1.004  0.00  0.00     0.160 HD
ATOM     16  H   UNL d   1      -4.255   2.668  -0.215  0.00  0.00     0.160 HD
ATOM     17  H   UNL d   1      -1.240   0.416   1.254  0.00  0.00     0.191 HD
ENDBRANCH   8  11
ENDBRANCH   1   7
BRANCH   2  18
ATOM     18  O   UNL d   1       2.568  -0.351  -2.217  0.00  0.00    -0.340 OA
BRANCH  18  19
ATOM     19  C   UNL d   1       3.881  -0.746  -2.649  0.00  0.00     0.285 C 
BRANCH  19  20
ATOM     20  C   UNL d   1       4.325  -2.053  -2.013  0.00  0.00     0.164 C 
ATOM     21  O   UNL d   1       5.457  -2.504  -2.115  0.00  0.00    -0.648 OA
BRANCH  20  22
ATOM     22  O   UNL d   1       3.339  -2.692  -1.340  0.00  0.00    -0.775 OA
ATOM     23  H   UNL d   1       2.509  -2.180  -1.390  0.00  0.00     0.167 HD
ENDBRANCH  20  22
ENDBRANCH  19  20
ENDBRANCH  18  19
ENDBRANCH   2  18
TORSDOF 6
