REMARK  4 active torsions:
REMARK  status: ('A' for Active; 'I' for Inactive)
REMARK    1  A    between atoms: C_2  and  S_1 
REMARK    2  A    between atoms: C_3  and  S_1 
REMARK    3  A    between atoms: C_5  and  C_4 
REMARK    4  A    between atoms: O_15  and  C_7 
ROOT
ATOM      1  C   UNL d   1       0.502  -1.242   1.031  0.00  0.00     0.145 C 
ATOM      2  C   UNL d   1      -0.384  -0.968   2.022  0.00  0.00     0.054 C 
ATOM      3  C   UNL d   1       1.020  -0.250   0.117  0.00  0.00     0.112 C 
ATOM      4  N   UNL d   1       1.414   0.562  -0.601  0.00  0.00    -0.191 NA
ENDROOT
BRANCH   1   5
ATOM      5  S   UNL d   1       0.894  -2.926   0.778  0.00  0.00     0.218 S 
ATOM      6  O   UNL d   1       0.131  -3.378  -0.373  0.00  0.00    -0.216 OA
ATOM      7  O   UNL d   1       0.799  -3.701   2.009  0.00  0.00    -0.216 OA
BRANCH   5   8
ATOM      8  C   UNL d   1       2.611  -2.983   0.306  0.00  0.00     0.086 A 
ATOM      9  C   UNL d   1       3.625  -2.555   1.165  0.00  0.00     0.056 A 
ATOM     10 CL   UNL d   1       3.339  -1.920   2.743  0.00  0.00    -0.083 Cl
ATOM     11  C   UNL d   1       4.959  -2.632   0.744  0.00  0.00     0.025 A 
ATOM     12  C   UNL d   1       5.280  -3.141  -0.516  0.00  0.00     0.002 A 
ATOM     13  C   UNL d   1       4.269  -3.591  -1.360  0.00  0.00     0.002 A 
ATOM     14  C   UNL d   1       2.937  -3.520  -0.951  0.00  0.00     0.025 A 
ENDBRANCH   5   8
ENDBRANCH   1   5
BRANCH   2  15
ATOM     15  C   UNL d   1      -0.811   0.368   2.254  0.00  0.00     0.009 A 
ATOM     16  S   UNL d   1      -0.035   1.321   3.448  0.00  0.00    -0.066 SA
ATOM     17  C   UNL d   1      -0.929   2.732   3.046  0.00  0.00     0.109 A 
ATOM     18  C   UNL d   1      -1.833   2.458   2.038  0.00  0.00     0.046 A 
ATOM     19  C   UNL d   1      -1.775   1.102   1.592  0.00  0.00     0.022 A 
BRANCH  17  20
ATOM     20  O   UNL d   1      -0.656   3.856   3.722  0.00  0.00    -0.349 OA
ATOM     21  C   UNL d   1      -1.400   5.015   3.369  0.00  0.00     0.211 C 
ENDBRANCH  17  20
ENDBRANCH   2  15
TORSDOF 4
