REMARK  4 active torsions:
REMARK  status: ('A' for Active; 'I' for Inactive)
REMARK    1  A    between atoms: C_5  and  N_1 
REMARK    2  A    between atoms: C_8  and  C_4 
REMARK       I    between atoms: N_9  and  C_8 
REMARK       I    between atoms: C_13  and  N_9 
REMARK    3  A    between atoms: C_10  and  N_14 
REMARK       I    between atoms: N_19  and  C_13 
REMARK    4  A    between atoms: N_14  and  N_19 
ROOT
ATOM      1  C   UNL d   1      -0.622   2.308   0.045  0.00  0.00     0.277 C 
ATOM      2  N   UNL d   1       0.318   3.105   0.669  0.00  0.00    -0.273 N 
ATOM      3  C   UNL d   1       0.262   4.445   0.950  0.00  0.00     0.337 C 
ATOM      4  N   UNL d   1      -0.821   5.142   0.454  0.00  0.00    -0.268 N 
ATOM      5  O   UNL d   1      -1.673   2.730  -0.437  0.00  0.00    -0.266 OA
ATOM      6  O   UNL d   1       1.136   4.982   1.632  0.00  0.00    -0.246 OA
ATOM      7  H   UNL d   1       1.128   2.623   1.044  0.00  0.00     0.173 HD
ATOM      8  H   UNL d   1      -1.341   4.724  -0.321  0.00  0.00     0.185 HD
ENDROOT
BRANCH   1   9
ATOM      9  C   UNL d   1      -0.267   0.882   0.030  0.00  0.00     0.118 C 
ATOM     10  N   UNL d   1       0.993   0.459   0.196  0.00  0.00    -0.288 N 
ATOM     11  N   UNL d   1       0.958  -0.906   0.133  0.00  0.00    -0.257 N 
ATOM     12  HN  UNL d   1       1.817   1.042   0.341  1.00  0.00     0.188 HD
ATOM     13  C   UNL d   1      -0.375  -1.333   0.135  0.00  0.00     0.033 C 
ATOM     14  C   UNL d   1      -1.145  -0.206  -0.078  0.00  0.00     0.063 C 
ATOM     15  C   UNL d   1      -0.899  -2.696   0.419  0.00  0.00     0.070 C 
BRANCH  11  16
ATOM     16  C   UNL d   1       2.201  -1.630   0.082  0.00  0.00     0.100 A 
ATOM     17  C   UNL d   1       3.381  -1.082   0.656  0.00  0.00     0.066 A 
ATOM     18  C   UNL d   1       4.617  -1.746   0.561  0.00  0.00     0.050 A 
ATOM     19 CL   UNL d   1       3.465   0.379   1.597  0.00  0.00    -0.082 Cl
ATOM     20  C   UNL d   1       4.703  -2.982  -0.056  0.00  0.00     0.037 A 
ATOM     21  C   UNL d   1       3.571  -3.546  -0.622  0.00  0.00     0.050 A 
ATOM     22 CL   UNL d   1       6.215  -3.792  -0.159  0.00  0.00    -0.084 Cl
ATOM     23  C   UNL d   1       2.341  -2.860  -0.600  0.00  0.00     0.066 A 
ATOM     24 CL   UNL d   1       1.165  -3.554  -1.663  0.00  0.00    -0.082 Cl
ENDBRANCH  11  16
ENDBRANCH   1   9
BRANCH   4  25
ATOM     25  N   UNL d   1      -0.673   6.551   0.387  0.00  0.00    -0.198 NA
ATOM     26  H   UNL d   1       0.087   6.847   1.021  0.00  0.00     0.153 HD
BRANCH  25  27
ATOM     27  C   UNL d   1      -1.859   7.304   0.659  0.00  0.00     0.073 A 
ATOM     28  C   UNL d   1      -1.741   8.533   1.342  0.00  0.00     0.073 A 
ATOM     29 CL   UNL d   1      -0.212   9.086   1.940  0.00  0.00    -0.081 Cl
ATOM     30  C   UNL d   1      -2.859   9.332   1.544  0.00  0.00     0.113 A 
ATOM     31  N   UNL d   1      -4.096   9.015   1.101  0.00  0.00    -0.372 N 
ATOM     32  C   UNL d   1      -4.198   7.860   0.410  0.00  0.00     0.113 A 
ATOM     33  HN  UNL d   1      -4.904   9.612   1.279  1.00  0.00     0.164 HD
ATOM     34  C   UNL d   1      -3.135   6.993   0.149  0.00  0.00     0.073 A 
ATOM     35 CL   UNL d   1      -3.469   5.633  -0.862  0.00  0.00    -0.081 Cl
ENDBRANCH  25  27
ENDBRANCH   4  25
TORSDOF 4
