REMARK  6 active torsions:
REMARK  status: ('A' for Active; 'I' for Inactive)
REMARK       I    between atoms: N_3  and  C_1 
REMARK    1  A    between atoms: C_8  and  C_1 
REMARK       I    between atoms: C_2  and  N_6 
REMARK    2  A    between atoms: C_9  and  C_2 
REMARK    3  A    between atoms: N_6  and  N_3 
REMARK    4  A    between atoms: C_5  and  C_15 
REMARK    5  A    between atoms: O_19  and  C_9 
REMARK    6  A    between atoms: N_10  and  O_19 
ROOT
ATOM      1  C   UNL d   1       0.314  -3.701   0.322  0.00  0.00     0.262 C 
ATOM      2  N   UNL d   1       0.913  -2.458   0.252  0.00  0.00    -0.265 N 
ATOM      3  O   UNL d   1       0.975  -4.741   0.326  0.00  0.00    -0.269 OA
ATOM      4  H   UNL d   1       0.420  -1.576   0.389  0.00  0.00     0.190 HD
ENDROOT
BRANCH   1   5
ATOM      5  C   UNL d   1      -1.206  -3.667   0.363  0.00  0.00     0.305 C 
BRANCH   5   6
ATOM      6  O   UNL d   1      -1.707  -4.445  -0.718  0.00  0.00    -0.272 OA
BRANCH   6   7
ATOM      7  N   UNL d   1      -3.112  -4.407  -0.692  0.00  0.00    -0.277 N 
ATOM      8  C   UNL d   1      -3.562  -5.144  -1.663  0.00  0.00     0.127 C 
ATOM      9  HN  UNL d   1      -3.682  -3.888  -0.024  1.00  0.00     0.193 HD
BRANCH   8  10
ATOM     10  C   UNL d   1      -5.011  -5.318  -1.906  0.00  0.00     0.003 A 
ATOM     11  C   UNL d   1      -5.492  -6.077  -2.983  0.00  0.00     0.047 A 
ATOM     12  C   UNL d   1      -6.871  -6.213  -3.185  0.00  0.00     0.048 A 
ATOM     13 CL   UNL d   1      -4.453  -6.875  -4.109  0.00  0.00    -0.083 Cl
ATOM     14  C   UNL d   1      -7.766  -5.594  -2.314  0.00  0.00     0.035 A 
ATOM     15  C   UNL d   1      -7.299  -4.842  -1.239  0.00  0.00     0.025 A 
ATOM     16 CL   UNL d   1      -9.458  -5.759  -2.570  0.00  0.00    -0.084 Cl
ATOM     17  C   UNL d   1      -5.924  -4.703  -1.035  0.00  0.00     0.016 A 
ENDBRANCH   8  10
ENDBRANCH   6   7
ENDBRANCH   5   6
ENDBRANCH   1   5
BRANCH   2  18
ATOM     18  N   UNL d   1       2.311  -2.395   0.241  0.00  0.00    -0.263 N 
ATOM     19  C   UNL d   1       2.915  -1.258   0.734  0.00  0.00     0.270 C 
ATOM     20  O   UNL d   1       2.283  -0.286   1.139  0.00  0.00    -0.266 OA
ATOM     21  H   UNL d   1       2.795  -3.289   0.156  0.00  0.00     0.190 HD
BRANCH  19  22
ATOM     22  C   UNL d   1       4.403  -1.268   0.764  0.00  0.00     0.033 A 
ATOM     23  C   UNL d   1       5.151  -1.977  -0.187  0.00  0.00     0.019 A 
ATOM     24  C   UNL d   1       6.548  -1.932  -0.153  0.00  0.00     0.025 A 
ATOM     25  C   UNL d   1       7.196  -1.181   0.827  0.00  0.00     0.034 A 
ATOM     26  C   UNL d   1       6.461  -0.469   1.773  0.00  0.00     0.025 A 
ATOM     27 CL   UNL d   1       8.915  -1.122   0.858  0.00  0.00    -0.084 Cl
ATOM     28  C   UNL d   1       5.063  -0.506   1.738  0.00  0.00     0.019 A 
ENDBRANCH  19  22
ENDBRANCH   2  18
TORSDOF 6
