REMARK  3 active torsions:
REMARK  status: ('A' for Active; 'I' for Inactive)
REMARK    1  A    between atoms: C_13  and  C_8 
REMARK    2  A    between atoms: N_14  and  N_11 
REMARK    3  A    between atoms: C_15  and  N_14 
ROOT
ATOM      1  C   UNL d   1       1.635  -0.044   0.549  0.00  0.00     0.101 A 
ATOM      2  N   UNL d   1      -0.370   1.284   0.762  0.00  0.00    -0.299 N 
ATOM      3  N   UNL d   1      -0.407  -0.922   1.482  0.00  0.00    -0.299 N 
ATOM      4  C   UNL d   1       0.934   1.250   0.345  0.00  0.00     0.263 A 
ATOM      5  C   UNL d   1       0.877  -1.199   1.090  0.00  0.00     0.263 A 
ATOM      6  C   UNL d   1      -1.058   0.263   1.338  0.00  0.00     0.181 A 
ATOM      7  S   UNL d   1      -2.631   0.451   1.837  0.00  0.00    -0.040 SA
ATOM      8  C   UNL d   1       2.953  -0.054   0.281  0.00  0.00     0.041 C 
ATOM      9  O   UNL d   1       1.459   2.235  -0.163  0.00  0.00    -0.267 OA
ATOM     10  O   UNL d   1       1.327  -2.331   1.198  0.00  0.00    -0.267 OA
ATOM     11  H   UNL d   1      -0.851   2.166   0.632  0.00  0.00     0.171 HD
ATOM     12  H   UNL d   1      -0.920  -1.696   1.886  0.00  0.00     0.171 HD
ENDROOT
BRANCH   8  13
ATOM     13  C   UNL d   1       3.853  -1.218   0.409  0.00  0.00     0.108 C 
ATOM     14  N   UNL d   1       5.124  -1.057   0.593  0.00  0.00    -0.311 N 
ATOM     15  HN  UNL d   1       5.561  -0.138   0.656  1.00  0.00     0.186 HD
BRANCH  14  16
ATOM     16  N   UNL d   1       5.825  -2.214   0.695  0.00  0.00    -0.301 N 
ATOM     17  H   UNL d   1       5.443  -3.098   0.370  0.00  0.00     0.187 HD
BRANCH  16  18
ATOM     18  C   UNL d   1       7.215  -2.181   0.902  0.00  0.00     0.048 A 
ATOM     19  C   UNL d   1       7.896  -1.007   1.248  0.00  0.00     0.031 A 
ATOM     20  C   UNL d   1       9.271  -1.020   1.503  0.00  0.00     0.002 A 
ATOM     21  C   UNL d   1       9.987  -2.211   1.414  0.00  0.00     0.000 A 
ATOM     22  C   UNL d   1       9.328  -3.388   1.071  0.00  0.00     0.002 A 
ATOM     23  C   UNL d   1       7.951  -3.372   0.823  0.00  0.00     0.031 A 
ENDBRANCH  16  18
ENDBRANCH  14  16
ENDBRANCH   8  13
TORSDOF 3
