REMARK  4 active torsions:
REMARK  status: ('A' for Active; 'I' for Inactive)
REMARK    1  A    between atoms: C_6  and  C_1 
REMARK    2  A    between atoms: C_5  and  C_2 
REMARK       I    between atoms: N_9  and  C_5 
REMARK    3  A    between atoms: C_15  and  N_9 
REMARK    4  A    between atoms: C_13  and  C_14 
ROOT
ATOM      1  C   UNL d   1       0.609  -0.417  -1.690  0.00  0.00     0.086 A 
ATOM      2  C   UNL d   1      -0.319  -1.131  -0.862  0.00  0.00     0.093 A 
ATOM      3  N   UNL d   1       0.008   0.625  -2.287  0.00  0.00    -0.259 N 
ATOM      4  HN  UNL d   1       0.414   1.248  -2.986  1.00  0.00     0.195 HD
ATOM      5  O   UNL d   1      -1.261   0.683  -1.770  0.00  0.00    -0.241 OA
ATOM      6  C   UNL d   1      -1.449  -0.331  -0.889  0.00  0.00     0.090 A 
ATOM      7  C   UNL d   1      -2.740  -0.292  -0.174  0.00  0.00     0.080 C 
ENDROOT
BRANCH   2   8
ATOM      8  C   UNL d   1      -0.061  -2.299  -0.046  0.00  0.00     0.261 C 
ATOM      9  N   UNL d   1      -1.062  -3.183   0.288  0.00  0.00    -0.323 N 
ATOM     10  H   UNL d   1      -0.798  -3.736   1.096  0.00  0.00     0.169 HD
ATOM     11  O   UNL d   1       1.049  -2.478   0.455  0.00  0.00    -0.267 OA
BRANCH   9  12
ATOM     12  C   UNL d   1      -2.270  -3.553  -0.330  0.00  0.00     0.035 A 
ATOM     13  C   UNL d   1      -2.578  -3.334  -1.670  0.00  0.00     0.030 A 
ATOM     14  C   UNL d   1      -3.806  -3.776  -2.200  0.00  0.00     0.010 A 
ATOM     15  C   UNL d   1      -4.761  -4.442  -1.410  0.00  0.00    -0.051 A 
ATOM     16  C   UNL d   1      -4.418  -4.669  -0.067  0.00  0.00     0.010 A 
ATOM     17  C   UNL d   1      -3.193  -4.242   0.459  0.00  0.00     0.030 A 
BRANCH  15  18
ATOM     18  C   UNL d   1      -6.089  -4.980  -1.979  0.00  0.00    -0.024 C 
ATOM     19  C   UNL d   1      -7.267  -4.756  -1.000  0.00  0.00     0.019 C 
ATOM     20  C   UNL d   1      -6.500  -4.322  -3.315  0.00  0.00     0.019 C 
ATOM     21  C   UNL d   1      -5.932  -6.495  -2.221  0.00  0.00     0.019 C 
ENDBRANCH  15  18
ENDBRANCH   9  12
ENDBRANCH   2   8
BRANCH   1  22
ATOM     22  C   UNL d   1       2.030  -0.666  -1.944  0.00  0.00     0.037 A 
ATOM     23  C   UNL d   1       2.461  -1.805  -2.643  0.00  0.00     0.048 A 
ATOM     24 CL   UNL d   1       1.366  -3.028  -3.199  0.00  0.00    -0.083 Cl
ATOM     25  C   UNL d   1       3.818  -1.986  -2.954  0.00  0.00     0.025 A 
ATOM     26  C   UNL d   1       4.762  -1.032  -2.581  0.00  0.00     0.003 A 
ATOM     27  C   UNL d   1       4.356   0.096  -1.876  0.00  0.00     0.025 A 
ATOM     28  C   UNL d   1       3.004   0.276  -1.550  0.00  0.00     0.048 A 
ATOM     29 CL   UNL d   1       2.618   1.695  -0.629  0.00  0.00    -0.083 Cl
ENDBRANCH   1  22
TORSDOF 4
