REMARK  6 active torsions:
REMARK  status: ('A' for Active; 'I' for Inactive)
REMARK    1  A    between atoms: C_3  and  N_1 
REMARK    2  A    between atoms: C_9  and  C_2 
REMARK    3  A    between atoms: C_6  and  C_4 
REMARK    4  A    between atoms: S_5  and  C_8 
REMARK    5  A    between atoms: C_7  and  S_5 
REMARK    6  A    between atoms: O_13  and  C_9 
ROOT
ATOM      1  C   UNL d   1       2.131   2.282   1.261  0.00  0.00    -0.006 A 
ATOM      2  C   UNL d   1       2.235   2.698  -0.100  0.00  0.00     0.016 A 
ATOM      3  C   UNL d   1       3.213   2.642   2.105  0.00  0.00     0.014 A 
ATOM      4  C   UNL d   1       3.349   3.456  -0.528  0.00  0.00     0.020 A 
ATOM      5  C   UNL d   1       4.291   3.420   1.672  0.00  0.00     0.001 A 
ATOM      6  C   UNL d   1       4.357   3.830   0.354  0.00  0.00     0.001 A 
ENDROOT
BRANCH   2   7
ATOM      7  S   UNL d   1       1.145   2.196  -1.446  0.00  0.00    -0.089 SA
BRANCH   7   8
ATOM      8  C   UNL d   1      -0.007   3.551  -1.581  0.00  0.00     0.022 A 
ATOM      9  C   UNL d   1       0.159   4.679  -2.406  0.00  0.00     0.054 A 
ATOM     10  C   UNL d   1      -0.859   5.650  -2.465  0.00  0.00     0.020 A 
ATOM     11  C   UNL d   1      -2.043   5.489  -1.748  0.00  0.00     0.001 A 
ATOM     12  C   UNL d   1      -2.223   4.359  -0.960  0.00  0.00     0.001 A 
ATOM     13  C   UNL d   1      -1.213   3.400  -0.876  0.00  0.00     0.020 A 
BRANCH   9  14
ATOM     14  C   UNL d   1       1.345   4.953  -3.264  0.00  0.00     0.177 C 
ATOM     15  O   UNL d   1       1.727   6.087  -3.510  0.00  0.00    -0.646 OA
BRANCH  14  16
ATOM     16  O   UNL d   1       1.906   3.867  -3.835  0.00  0.00    -0.773 OA
ATOM     17  H   UNL d   1       1.511   3.019  -3.553  0.00  0.00     0.167 HD
ENDBRANCH  14  16
ENDBRANCH   9  14
ENDBRANCH   7   8
ENDBRANCH   2   7
BRANCH   1  18
ATOM     18  C   UNL d   1       1.015   1.464   1.851  0.00  0.00     0.009 A 
ATOM     19  C   UNL d   1       0.445   1.671   3.135  0.00  0.00     0.114 A 
ATOM     20  C   UNL d   1      -0.543   0.831   3.690  0.00  0.00     0.037 A 
ATOM     21  C   UNL d   1      -1.029  -0.238   2.951  0.00  0.00     0.002 A 
ATOM     22  C   UNL d   1      -0.510  -0.475   1.686  0.00  0.00     0.001 A 
ATOM     23  C   UNL d   1       0.509   0.339   1.165  0.00  0.00     0.015 A 
BRANCH  19  24
ATOM     24  N   UNL d   1       0.848   2.774   3.989  0.00  0.00    -0.115 N 
ATOM     25  O   UNL d   1       0.569   3.918   3.601  0.00  0.00    -0.532 OA
ATOM     26  O   UNL d   1       1.403   2.482   5.058  0.00  0.00    -0.532 OA
ENDBRANCH  19  24
ENDBRANCH   1  18
TORSDOF 6
