REMARK  2 active torsions:
REMARK  status: ('A' for Active; 'I' for Inactive)
REMARK    1  A    between atoms: C_2  and  N_1 
REMARK    2  A    between atoms: C_6  and  C_3 
ROOT
ATOM      1  C   UNL d   1      -1.831  -0.121  -0.048  0.00  0.00    -0.034 A 
ATOM      2  C   UNL d   1      -3.267  -1.835   1.610  0.00  0.00     0.116 A 
ATOM      3  F   UNL d   1      -3.946  -2.670   2.406  0.00  0.00    -0.206 F 
ATOM      4  C   UNL d   1      -2.807  -0.969  -0.589  0.00  0.00     0.014 A 
ATOM      5  C   UNL d   1      -1.588  -0.130   1.331  0.00  0.00     0.014 A 
ATOM      6  C   UNL d   1      -3.525  -1.829   0.244  0.00  0.00     0.043 A 
ATOM      7  C   UNL d   1      -2.309  -0.991   2.162  0.00  0.00     0.043 A 
ENDROOT
BRANCH   1   8
ATOM      8  C   UNL d   1      -1.050   0.753  -0.924  0.00  0.00     0.042 C 
ATOM      9  C   UNL d   1      -1.443   1.991  -1.277  0.00  0.00     0.077 C 
ATOM     10  C   UNL d   1      -2.671   2.727  -0.855  0.00  0.00     0.075 C 
BRANCH   9  11
ATOM     11  N   UNL d   1      -0.560   2.717  -2.188  0.00  0.00    -0.120 N 
ATOM     12  O   UNL d   1       0.649   2.450  -2.168  0.00  0.00    -0.532 OA
ATOM     13  O   UNL d   1      -1.085   3.559  -2.928  0.00  0.00    -0.532 OA
ENDBRANCH   9  11
ENDBRANCH   1   8
TORSDOF 2
