REMARK  7 active torsions:
REMARK  status: ('A' for Active; 'I' for Inactive)
REMARK    1  A    between atoms: C_13  and  N_9 
REMARK    2  A    between atoms: C_11  and  O_16 
REMARK    3  A    between atoms: C_12  and  C_11 
REMARK    4  A    between atoms: C_22  and  C_13 
REMARK    5  A    between atoms: O_16  and  C_23 
REMARK    6  A    between atoms: C_23  and  C_22 
REMARK    7  A    between atoms: O_25  and  C_22 
ROOT
ATOM      1  C   UNL d   1       2.075   2.375   0.071  0.00  0.00     0.164 C 
ENDROOT
BRANCH   1   2
ATOM      2  N   UNL d   1       1.555   1.028   0.235  0.00  0.00    -0.333 N 
ATOM      3  C   UNL d   1       1.316   0.367   1.408  0.00  0.00     0.149 A 
ATOM      4  C   UNL d   1       0.610  -0.743   1.054  0.00  0.00     0.145 A 
ATOM      5  C   UNL d   1       1.666   0.667   2.753  0.00  0.00     0.282 A 
ATOM      6  N   UNL d   1       0.127  -1.621   1.994  0.00  0.00    -0.287 N 
ATOM      7  N   UNL d   1       0.459  -0.835  -0.296  0.00  0.00    -0.336 N 
ATOM      8  C   UNL d   1       0.450  -1.433   3.340  0.00  0.00     0.332 A 
ATOM      9  C   UNL d   1      -0.692  -2.760   1.626  0.00  0.00     0.163 C 
ATOM     10  N   UNL d   1       1.245  -0.315   3.658  0.00  0.00    -0.269 N 
ATOM     11  O   UNL d   1       0.054  -2.217   4.207  0.00  0.00    -0.246 OA
ATOM     12  C   UNL d   1       1.667  -0.140   5.033  0.00  0.00     0.164 C 
ATOM     13  C   UNL d   1       1.070   0.232  -0.771  0.00  0.00     0.185 A 
ATOM     14  HN  UNL d   1      -0.021  -1.566  -0.823  1.00  0.00     0.168 HD
ATOM     15  O   UNL d   1       2.288   1.678   3.071  0.00  0.00    -0.265 OA
ENDBRANCH   1   2
BRANCH   1  16
ATOM     16  C   UNL d   1       3.602   2.445  -0.067  0.00  0.00     0.161 C 
BRANCH  16  17
ATOM     17  C   UNL d   1       4.075   3.888  -0.291  0.00  0.00     0.212 C 
BRANCH  17  18
ATOM     18  O   UNL d   1       3.578   4.391  -1.542  0.00  0.00    -0.315 OA
BRANCH  18  19
ATOM     19  C   UNL d   1       2.847   5.535  -1.509  0.00  0.00     0.294 C 
ATOM     20  O   UNL d   1       2.509   6.143  -0.511  0.00  0.00    -0.259 OA
BRANCH  19  21
ATOM     21  C   UNL d   1       2.473   5.928  -2.888  0.00  0.00     0.054 A 
ATOM     22  C   UNL d   1       1.656   7.035  -3.075  0.00  0.00     0.105 A 
ATOM     23  N   UNL d   1       1.230   7.463  -4.289  0.00  0.00    -0.374 N 
ATOM     24  C   UNL d   1       1.641   6.759  -5.367  0.00  0.00     0.087 A 
ATOM     25  HN  UNL d   1       0.625   8.280  -4.384  1.00  0.00     0.164 HD
ATOM     26  C   UNL d   1       2.467   5.650  -5.286  0.00  0.00     0.018 A 
ATOM     27  C   UNL d   1       2.890   5.230  -4.026  0.00  0.00     0.020 A 
ENDBRANCH  19  21
ENDBRANCH  18  19
ENDBRANCH  17  18
ENDBRANCH  16  17
BRANCH  16  28
ATOM     28  O   UNL d   1       4.268   1.921   1.084  0.00  0.00    -0.392 OA
ATOM     29  H   UNL d   1       3.827   2.257   1.892  0.00  0.00     0.210 HD
ENDBRANCH  16  28
ENDBRANCH   1  16
TORSDOF 7
