REMARK  3 active torsions:
REMARK  status: ('A' for Active; 'I' for Inactive)
REMARK    1  A    between atoms: C_6  and  C_3 
REMARK    2  A    between atoms: O_18  and  C_12 
REMARK    3  A    between atoms: O_19  and  C_15 
ROOT
ATOM      1  S   UNL d   1       1.665   1.958  -0.360  0.00  0.00    -0.144 SA
ATOM      2  S   UNL d   1       2.108  -1.068  -0.910  0.00  0.00    -0.144 SA
ATOM      3  C   UNL d   1       2.840   0.556  -0.455  0.00  0.00     0.142 C 
ATOM      4  C   UNL d   1      -0.478   0.581   0.640  0.00  0.00    -0.041 A 
ATOM      5  C   UNL d   1      -0.287  -0.789   0.399  0.00  0.00    -0.041 A 
ATOM      6  C   UNL d   1      -1.736   1.153   0.385  0.00  0.00     0.015 A 
ATOM      7  C   UNL d   1      -1.371  -1.555  -0.066  0.00  0.00     0.015 A 
ATOM      8  C   UNL d   1      -2.813   0.392  -0.098  0.00  0.00    -0.056 A 
ATOM      9  C   UNL d   1      -2.633  -0.986  -0.312  0.00  0.00    -0.056 A 
ATOM     10  C   UNL d   1       1.072  -1.426   0.531  0.00  0.00     0.114 C 
ATOM     11  C   UNL d   1       0.660   1.471   1.063  0.00  0.00     0.114 C 
ATOM     12  C   UNL d   1      -4.114   1.084  -0.394  0.00  0.00     0.049 C 
ATOM     13  C   UNL d   1      -3.719  -1.886  -0.832  0.00  0.00     0.049 C 
ENDROOT
BRANCH   3  14
ATOM     14  C   UNL d   1       3.908   0.908  -1.494  0.00  0.00    -0.032 A 
ATOM     15  C   UNL d   1       3.564   1.025  -2.860  0.00  0.00     0.048 A 
ATOM     16  C   UNL d   1       4.521   1.302  -3.838  0.00  0.00     0.101 A 
ATOM     17  C   UNL d   1       5.846   1.494  -3.433  0.00  0.00     0.099 A 
ATOM     18  C   UNL d   1       6.207   1.417  -2.086  0.00  0.00     0.040 A 
ATOM     19  C   UNL d   1       5.242   1.122  -1.119  0.00  0.00     0.012 A 
BRANCH  16  20
ATOM     20  O   UNL d   1       4.261   1.389  -5.180  0.00  0.00    -0.353 OA
ATOM     21  C   UNL d   1       2.920   1.160  -5.596  0.00  0.00     0.210 C 
ENDBRANCH  16  20
BRANCH  17  22
ATOM     22  O   UNL d   1       6.801   1.759  -4.379  0.00  0.00    -0.358 OA
ATOM     23  H   UNL d   1       7.671   1.774  -3.954  0.00  0.00     0.217 HD
ENDBRANCH  17  22
ENDBRANCH   3  14
TORSDOF 3
