REMARK  4 active torsions:
REMARK  status: ('A' for Active; 'I' for Inactive)
REMARK    1  A    between atoms: C_8  and  C_2 
REMARK    2  A    between atoms: S_12  and  C_5 
REMARK    3  A    between atoms: C_10  and  C_18 
REMARK    4  A    between atoms: C_18  and  S_12 
ROOT
ATOM      1  N   UNL d   1      -1.179  -0.028   0.127  0.00  0.00    -0.320 N 
ATOM      2  C   UNL d   1      -0.398   1.097   0.006  0.00  0.00     0.132 A 
ATOM      3  N   UNL d   1       0.867   0.712  -0.027  0.00  0.00    -0.283 N 
ATOM      4  HN  UNL d   1       1.673   1.328  -0.129  1.00  0.00     0.188 HD
ATOM      5  C   UNL d   1      -0.320  -1.079   0.216  0.00  0.00     0.161 A 
ATOM      6  N   UNL d   1       0.914  -0.660   0.100  0.00  0.00    -0.278 N 
ATOM      7  HN  UNL d   1       1.753  -1.239   0.103  1.00  0.00     0.189 HD
ATOM      8  H   UNL d   1      -2.181  -0.074   0.221  0.00  0.00     0.169 HD
ENDROOT
BRANCH   5   9
ATOM      9  S   UNL d   1      -0.889  -2.680   0.483  0.00  0.00    -0.088 SA
BRANCH   9  10
ATOM     10  C   UNL d   1       0.632  -3.455   1.121  0.00  0.00     0.122 C 
BRANCH  10  11
ATOM     11  C   UNL d   1       0.443  -4.929   1.404  0.00  0.00    -0.027 A 
ATOM     12  C   UNL d   1      -0.033  -5.418   2.633  0.00  0.00     0.042 A 
ATOM     13  C   UNL d   1      -0.179  -6.793   2.849  0.00  0.00     0.048 A 
ATOM     14 CL   UNL d   1      -0.456  -4.362   3.934  0.00  0.00    -0.084 Cl
ATOM     15  C   UNL d   1       0.145  -7.691   1.837  0.00  0.00     0.035 A 
ATOM     16  C   UNL d   1       0.607  -7.230   0.608  0.00  0.00     0.024 A 
ATOM     17 CL   UNL d   1      -0.025  -9.382   2.104  0.00  0.00    -0.084 Cl
ATOM     18  C   UNL d   1       0.752  -5.857   0.391  0.00  0.00     0.011 A 
ENDBRANCH  10  11
ENDBRANCH   9  10
ENDBRANCH   5   9
BRANCH   2  19
ATOM     19  C   UNL d   1      -0.889   2.474  -0.005  0.00  0.00     0.013 A 
ATOM     20  C   UNL d   1      -0.047   3.501   0.451  0.00  0.00     0.039 A 
ATOM     21  C   UNL d   1      -0.492   4.824   0.483  0.00  0.00     0.036 A 
ATOM     22 CL   UNL d   1       0.549   6.060   1.074  0.00  0.00    -0.084 Cl
ATOM     23  C   UNL d   1      -1.773   5.150   0.051  0.00  0.00     0.047 A 
ATOM     24  C   UNL d   1      -2.606   4.139  -0.419  0.00  0.00     0.036 A 
ATOM     25  C   UNL d   1      -2.176   2.808  -0.448  0.00  0.00     0.039 A 
ATOM     26 CL   UNL d   1      -4.190   4.531  -0.967  0.00  0.00    -0.084 Cl
ENDBRANCH   2  19
TORSDOF 4
