REMARK  6 active torsions:
REMARK  status: ('A' for Active; 'I' for Inactive)
REMARK    1  A    between atoms: N_2  and  C_1 
REMARK    2  A    between atoms: C_5  and  C_4 
REMARK       I    between atoms: N_7  and  C_5 
REMARK    3  A    between atoms: C_8  and  C_6 
REMARK    4  A    between atoms: C_9  and  N_7 
REMARK       I    between atoms: N_12  and  C_8 
REMARK    5  A    between atoms: C_19  and  N_12 
REMARK    6  A    between atoms: C_20  and  C_19 
ROOT
ATOM      1  C   UNL d   1      -3.083  -0.615  -0.950  0.00  0.00     0.058 A 
ATOM      2  C   UNL d   1      -3.178  -1.712  -0.073  0.00  0.00     0.050 A 
ATOM      3  C   UNL d   1      -4.078   0.377  -0.944  0.00  0.00     0.019 A 
ATOM      4  C   UNL d   1      -4.284  -1.791   0.787  0.00  0.00     0.030 A 
ATOM      5  C   UNL d   1      -5.168   0.284  -0.079  0.00  0.00     0.001 A 
ATOM      6  C   UNL d   1      -5.271  -0.801   0.785  0.00  0.00     0.002 A 
ENDROOT
BRANCH   1   7
ATOM      7  C   UNL d   1      -2.005  -0.467  -1.966  0.00  0.00     0.254 C 
ATOM      8  N   UNL d   1      -1.515  -1.629  -2.516  0.00  0.00    -0.351 N 
ATOM      9  H   UNL d   1      -2.008  -2.509  -2.385  0.00  0.00     0.163 HD
ATOM     10  O   UNL d   1      -1.625   0.645  -2.315  0.00  0.00    -0.268 OA
BRANCH   8  11
ATOM     11  C   UNL d   1      -0.582  -1.592  -3.619  0.00  0.00     0.179 C 
BRANCH  11  12
ATOM     12  C   UNL d   1      -0.194  -2.973  -4.104  0.00  0.00     0.026 A 
ATOM     13  N   UNL d   1      -0.674  -4.058  -3.433  0.00  0.00    -0.368 N 
ATOM     14  C   UNL d   1      -0.329  -5.277  -3.911  0.00  0.00     0.088 A 
ATOM     15  HN  UNL d   1      -1.267  -3.957  -2.608  1.00  0.00     0.165 HD
ATOM     16  C   UNL d   1       0.475  -5.474  -5.022  0.00  0.00     0.017 A 
ATOM     17  C   UNL d   1       0.961  -4.357  -5.689  0.00  0.00     0.003 A 
ATOM     18  C   UNL d   1       0.625  -3.089  -5.226  0.00  0.00     0.027 A 
ENDBRANCH  11  12
ENDBRANCH   8  11
ENDBRANCH   1   7
BRANCH   2  19
ATOM     19  N   UNL d   1      -2.148  -2.680   0.001  0.00  0.00    -0.320 N 
ATOM     20  C   UNL d   1      -2.340  -4.017   0.295  0.00  0.00     0.280 C 
ATOM     21  O   UNL d   1      -3.443  -4.546   0.410  0.00  0.00    -0.265 OA
ATOM     22  H   UNL d   1      -1.234  -2.427  -0.369  0.00  0.00     0.169 HD
BRANCH  20  23
ATOM     23  C   UNL d   1      -1.119  -4.790   0.397  0.00  0.00     0.146 A 
ATOM     24  O   UNL d   1       0.080  -4.161   0.628  0.00  0.00    -0.283 OA
ATOM     25  C   UNL d   1       1.002  -5.153   0.778  0.00  0.00     0.215 A 
ATOM     26  C   UNL d   1       0.446  -6.398   0.607  0.00  0.00     0.066 A 
ATOM     27  C   UNL d   1      -0.928  -6.161   0.365  0.00  0.00     0.047 A 
BRANCH  25  28
ATOM     28  N   UNL d   1       2.333  -4.752   1.106  0.00  0.00    -0.090 N 
ATOM     29  O   UNL d   1       3.169  -5.659   1.206  0.00  0.00    -0.530 OA
ATOM     30  O   UNL d   1       2.547  -3.544   1.276  0.00  0.00    -0.530 OA
ENDBRANCH  25  28
ENDBRANCH  20  23
ENDBRANCH   2  19
TORSDOF 6
