REMARK  3 active torsions:
REMARK  status: ('A' for Active; 'I' for Inactive)
REMARK    1  A    between atoms: C_5  and  C_12 
REMARK    2  A    between atoms: N_7  and  C_6 
REMARK    3  A    between atoms: C_12  and  N_7 
ROOT
ATOM      1  C   UNL d   1       2.010   0.573  -0.602  0.00  0.00     0.092 A 
ATOM      2  C   UNL d   1       2.987   1.047  -1.542  0.00  0.00     0.103 C 
ATOM      3  N   UNL d   1       3.787   1.440  -2.289  0.00  0.00    -0.191 NA
ATOM      4  C   UNL d   1       1.131   1.493   0.024  0.00  0.00     0.051 A 
ATOM      5  C   UNL d   1       1.900  -0.800  -0.331  0.00  0.00     0.057 A 
ATOM      6 CL   UNL d   1       2.915  -1.976  -1.095  0.00  0.00    -0.083 Cl
ATOM      7  C   UNL d   1       0.097  -0.374   1.212  0.00  0.00     0.004 A 
ATOM      8  C   UNL d   1       0.190   0.992   0.939  0.00  0.00     0.031 A 
ATOM      9  C   UNL d   1       0.945  -1.271   0.572  0.00  0.00     0.025 A 
ENDROOT
BRANCH   4  10
ATOM     10  N   UNL d   1       1.213   2.855  -0.282  0.00  0.00    -0.384 N 
ATOM     11  H   UNL d   1       2.113   3.266  -0.035  0.00  0.00     0.160 HD
BRANCH  10  12
ATOM     12  C   UNL d   1       0.100   3.765  -0.015  0.00  0.00     0.166 C 
BRANCH  12  13
ATOM     13  C   UNL d   1       0.187   5.054  -0.785  0.00  0.00    -0.000 A 
ATOM     14  S   UNL d   1      -0.609   6.456  -0.203  0.00  0.00    -0.105 SA
ATOM     15  C   UNL d   1      -0.113   7.378  -1.556  0.00  0.00     0.050 A 
ATOM     16  C   UNL d   1       0.646   6.639  -2.435  0.00  0.00     0.008 A 
ATOM     17  C   UNL d   1       0.817   5.297  -1.992  0.00  0.00     0.017 A 
ENDBRANCH  12  13
ENDBRANCH  10  12
ENDBRANCH   4  10
TORSDOF 3
