REMARK  4 active torsions:
REMARK  status: ('A' for Active; 'I' for Inactive)
REMARK    1  A    between atoms: C_8  and  C_3 
REMARK    2  A    between atoms: C_9  and  C_7 
REMARK    3  A    between atoms: O_15  and  C_12 
REMARK    4  A    between atoms: C_21  and  O_15 
ROOT
ATOM      1  N   UNL d   1       1.585  -0.042   0.440  0.00  0.00    -0.331 N 
ATOM      2  HN  UNL d   1       2.531  -0.424   0.442  1.00  0.00     0.168 HD
ATOM      3  C   UNL d   1       1.212   1.197   0.388  0.00  0.00     0.162 A 
ATOM      4  C   UNL d   1       0.388  -0.713   0.491  0.00  0.00     0.111 A 
ATOM      5  O   UNL d   1      -0.110   1.462   0.484  0.00  0.00    -0.256 OA
ATOM      6  C   UNL d   1      -0.742   0.258   0.585  0.00  0.00     0.316 A 
ATOM      7  C   UNL d   1       0.295  -2.038   0.324  0.00  0.00     0.050 C 
ATOM      8  O   UNL d   1      -1.934   0.079   0.713  0.00  0.00    -0.257 OA
ENDROOT
BRANCH   7   9
ATOM      9  C   UNL d   1      -0.948  -2.776   0.081  0.00  0.00    -0.000 A 
ATOM     10  C   UNL d   1      -1.739  -3.412   1.047  0.00  0.00     0.079 A 
ATOM     11  C   UNL d   1      -2.937  -4.030   0.648  0.00  0.00     0.037 A 
ATOM     12  C   UNL d   1      -3.336  -4.049  -0.689  0.00  0.00     0.003 A 
ATOM     13  C   UNL d   1      -2.545  -3.435  -1.651  0.00  0.00     0.001 A 
ATOM     14  C   UNL d   1      -1.364  -2.803  -1.268  0.00  0.00     0.014 A 
BRANCH  10  15
ATOM     15  O   UNL d   1      -1.534  -3.488   2.399  0.00  0.00    -0.351 OA
BRANCH  15  16
ATOM     16  C   UNL d   1      -0.195  -3.500   2.877  0.00  0.00     0.171 C 
ATOM     17  C   UNL d   1      -0.192  -4.195   4.228  0.00  0.00     0.034 C 
ENDBRANCH  15  16
ENDBRANCH  10  15
ENDBRANCH   7   9
BRANCH   3  18
ATOM     18  C   UNL d   1       2.076   2.368   0.172  0.00  0.00     0.017 A 
ATOM     19  C   UNL d   1       3.448   2.166  -0.017  0.00  0.00     0.039 A 
ATOM     20  C   UNL d   1       4.269   3.251  -0.314  0.00  0.00     0.035 A 
ATOM     21 CL   UNL d   1       5.952   3.003  -0.571  0.00  0.00    -0.084 Cl
ATOM     22  C   UNL d   1       3.737   4.536  -0.423  0.00  0.00     0.024 A 
ATOM     23  C   UNL d   1       2.371   4.740  -0.226  0.00  0.00     0.003 A 
ATOM     24  C   UNL d   1       1.540   3.659   0.072  0.00  0.00     0.016 A 
ENDBRANCH   3  18
TORSDOF 4
