REMARK  1 active torsions:
REMARK  status: ('A' for Active; 'I' for Inactive)
REMARK    1  A    between atoms: C_6  and  C_1 
ROOT
ATOM      1  C   UNL d   1       2.894   0.912   0.006  0.00  0.00     0.127 C 
ATOM      2  N   UNL d   1       2.074   3.364   0.029  0.00  0.00    -0.191 NA
ATOM      3  N   UNL d   1       5.457   0.565   0.000  0.00  0.00    -0.191 NA
ATOM      4  C   UNL d   1       2.106  -0.182  -0.004  0.00  0.00     0.071 C 
ATOM      5  C   UNL d   1       2.415   2.254   0.019  0.00  0.00     0.111 C 
ATOM      6  C   UNL d   1       4.308   0.732   0.002  0.00  0.00     0.111 C 
ENDROOT
BRANCH   4   7
ATOM      7  C   UNL d   1       0.682  -0.157  -0.002  0.00  0.00     0.077 A 
ATOM      8  O   UNL d   1      -0.071   0.993   0.012  0.00  0.00    -0.316 OA
ATOM      9  C   UNL d   1      -1.387   0.661   0.010  0.00  0.00     0.050 A 
ATOM     10  C   UNL d   1      -2.352   1.778   0.023  0.00  0.00     0.076 C 
ATOM     11  C   UNL d   1      -1.524  -0.705  -0.005  0.00  0.00     0.035 A 
ATOM     12  C   UNL d   1      -0.207  -1.227  -0.013  0.00  0.00     0.040 A 
ENDBRANCH   4   7
TORSDOF 1
