REMARK  3 active torsions:
REMARK  status: ('A' for Active; 'I' for Inactive)
REMARK    1  A    between atoms: C_6  and  C_3 
REMARK       I    between atoms: N_9  and  C_6 
REMARK       I    between atoms: C_8  and  N_10 
REMARK    2  A    between atoms: C_16  and  C_8 
REMARK    3  A    between atoms: N_10  and  N_9 
ROOT
ATOM      1  C   UNL d   1      -0.755   0.137  -0.051  0.00  0.00     0.023 A 
ATOM      2  S   UNL d   1      -1.950   1.343   0.117  0.00  0.00    -0.083 SA
ATOM      3  C   UNL d   1      -3.233   0.208  -0.013  0.00  0.00     0.075 A 
ATOM      4  C   UNL d   1      -1.318  -1.117  -0.210  0.00  0.00    -0.038 A 
ATOM      5  C   UNL d   1      -2.739  -1.073  -0.194  0.00  0.00     0.033 A 
ATOM      6  C   UNL d   1       0.706   0.344  -0.008  0.00  0.00    -0.012 A 
ATOM      7  C   UNL d   1      -0.444  -2.324  -0.380  0.00  0.00     0.044 C 
ATOM      8  C   UNL d   1       1.513  -0.810   0.185  0.00  0.00    -0.046 A 
ATOM      9  C   UNL d   1       0.857  -2.162   0.424  0.00  0.00     0.044 C 
ATOM     10  C   UNL d   1       1.332   1.580  -0.199  0.00  0.00     0.013 A 
ATOM     11  C   UNL d   1       2.910  -0.702   0.211  0.00  0.00     0.008 A 
ATOM     12  C   UNL d   1       2.730   1.671  -0.195  0.00  0.00     0.001 A 
ATOM     13  C   UNL d   1       3.514   0.536   0.011  0.00  0.00     0.001 A 
ENDROOT
BRANCH   3  14
ATOM     14  C   UNL d   1      -4.645   0.562   0.062  0.00  0.00     0.277 C 
ATOM     15  N   UNL d   1      -4.968   1.901   0.245  0.00  0.00    -0.263 N 
ATOM     16  H   UNL d   1      -4.278   2.641   0.336  0.00  0.00     0.190 HD
ATOM     17  O   UNL d   1      -5.548  -0.275  -0.027  0.00  0.00    -0.265 OA
BRANCH  15  18
ATOM     18  N   UNL d   1      -6.326   2.248   0.329  0.00  0.00    -0.267 N 
ATOM     19  C   UNL d   1      -6.695   3.566   0.525  0.00  0.00     0.240 C 
ATOM     20  O   UNL d   1      -5.850   4.460   0.614  0.00  0.00    -0.271 OA
ATOM     21  H   UNL d   1      -6.993   1.481   0.267  0.00  0.00     0.190 HD
BRANCH  19  22
ATOM     22  C   UNL d   1      -8.238   3.761   0.628  0.00  0.00     0.079 C 
ATOM     23  C   UNL d   1      -9.106   3.324  -0.587  0.00  0.00     0.014 C 
ATOM     24  C   UNL d   1     -10.017   4.531  -0.304  0.00  0.00     0.002 C 
ATOM     25  C   UNL d   1      -8.817   5.187   0.404  0.00  0.00     0.014 C 
ENDBRANCH  19  22
ENDBRANCH  15  18
ENDBRANCH   3  14
TORSDOF 3
