REMARK  4 active torsions:
REMARK  status: ('A' for Active; 'I' for Inactive)
REMARK    1  A    between atoms: C_2  and  S_1 
REMARK    2  A    between atoms: C_4  and  S_1 
REMARK    3  A    between atoms: C_3  and  C_2 
REMARK    4  A    between atoms: C_7  and  C_3 
ROOT
ATOM      1  S   UNL d   1       0.963   0.024   0.115  0.00  0.00     0.182 S 
ATOM      2  O   UNL d   1       0.105   1.188   0.033  0.00  0.00    -0.222 OA
ATOM      3  O   UNL d   1       2.400   0.156   0.242  0.00  0.00    -0.222 OA
ENDROOT
BRANCH   1   4
ATOM      4  C   UNL d   1       0.645  -1.050  -1.254  0.00  0.00     0.224 C 
BRANCH   4   5
ATOM      5  C   UNL d   1       1.002  -0.351  -2.538  0.00  0.00     0.148 C 
ATOM      6  O   UNL d   1       0.181   0.424  -3.041  0.00  0.00    -0.296 OA
BRANCH   5   7
ATOM      7  C   UNL d   1       2.293  -0.719  -3.306  0.00  0.00     0.010 C 
ATOM      8  C   UNL d   1       1.994  -1.959  -4.161  0.00  0.00     0.022 C 
ATOM      9  C   UNL d   1       2.659   0.458  -4.232  0.00  0.00     0.022 C 
ATOM     10  C   UNL d   1       3.504  -1.004  -2.413  0.00  0.00     0.022 C 
ENDBRANCH   5   7
ENDBRANCH   4   5
ENDBRANCH   1   4
BRANCH   1  11
ATOM     11  C   UNL d   1       0.447  -0.827   1.597  0.00  0.00     0.059 A 
ATOM     12  C   UNL d   1      -0.348  -1.976   1.574  0.00  0.00     0.025 A 
ATOM     13  C   UNL d   1      -0.663  -2.614   2.779  0.00  0.00     0.025 A 
ATOM     14  C   UNL d   1      -0.192  -2.103   3.991  0.00  0.00     0.034 A 
ATOM     15  C   UNL d   1       0.579  -0.944   4.015  0.00  0.00     0.025 A 
ATOM     16 CL   UNL d   1      -0.559  -2.916   5.461  0.00  0.00    -0.084 Cl
ATOM     17  C   UNL d   1       0.900  -0.303   2.817  0.00  0.00     0.025 A 
ENDBRANCH   1  11
TORSDOF 4
