REMARK  3 active torsions:
REMARK  status: ('A' for Active; 'I' for Inactive)
REMARK    1  A    between atoms: C_2  and  N_1 
REMARK    2  A    between atoms: C_8  and  C_3 
REMARK    3  A    between atoms: O_9  and  C_8 
ROOT
ATOM      1  N   UNL d   1       4.076   0.616  -1.720  0.00  0.00    -0.194 NA
ATOM      2  C   UNL d   1       3.083   0.188  -2.148  0.00  0.00     0.096 C 
ATOM      3  C   UNL d   1       1.810  -0.328  -2.685  0.00  0.00     0.260 C 
ENDROOT
BRANCH   3   4
ATOM      4  C   UNL d   1       0.591   0.486  -2.286  0.00  0.00     0.017 A 
ATOM      5  C   UNL d   1       0.178   0.735  -0.959  0.00  0.00     0.112 A 
ATOM      6  C   UNL d   1      -0.938   1.536  -0.665  0.00  0.00     0.037 A 
ATOM      7  C   UNL d   1      -1.670   2.103  -1.705  0.00  0.00     0.002 A 
ATOM      8  C   UNL d   1      -1.292   1.869  -3.025  0.00  0.00     0.001 A 
ATOM      9  C   UNL d   1      -0.180   1.070  -3.312  0.00  0.00     0.013 A 
BRANCH   5  10
ATOM     10  N   UNL d   1       0.897   0.180   0.180  0.00  0.00    -0.115 N 
ATOM     11  O   UNL d   1       1.100  -1.042   0.180  0.00  0.00    -0.532 OA
ATOM     12  O   UNL d   1       1.259   0.971   1.059  0.00  0.00    -0.532 OA
ENDBRANCH   5  10
ENDBRANCH   3   4
BRANCH   3  13
ATOM     13  O   UNL d   1       1.598  -1.712  -2.386  0.00  0.00    -0.377 OA
ATOM     14  H   UNL d   1       1.806  -1.853  -1.440  0.00  0.00     0.211 HD
ENDBRANCH   3  13
TORSDOF 3
