REMARK  6 active torsions:
REMARK  status: ('A' for Active; 'I' for Inactive)
REMARK       I    between atoms: N_5  and  C_1 
REMARK    1  A    between atoms: O_8  and  C_1 
REMARK    2  A    between atoms: N_2  and  O_8 
REMARK    3  A    between atoms: C_4  and  N_5 
REMARK    4  A    between atoms: C_6  and  C_9 
REMARK    5  A    between atoms: C_12  and  C_7 
REMARK    6  A    between atoms: C_26  and  C_7 
ROOT
ATOM      1  N   UNL d   1      -0.993  -1.056  -0.036  0.00  0.00    -0.260 N 
ATOM      2  HN  UNL d   1       0.015  -0.990  -0.178  1.00  0.00     0.194 HD
ATOM      3  C   UNL d   1      -1.697  -2.163  -0.047  0.00  0.00     0.042 C 
ENDROOT
BRANCH   3   4
ATOM      4  C   UNL d   1      -0.995  -3.494  -0.183  0.00  0.00    -0.012 A 
ATOM      5  C   UNL d   1       0.404  -3.537  -0.218  0.00  0.00     0.014 A 
ATOM      6  C   UNL d   1       1.090  -4.764  -0.294  0.00  0.00     0.013 A 
ATOM      7  C   UNL d   1       0.410  -5.995  -0.320  0.00  0.00    -0.023 A 
ATOM      8  C   UNL d   1      -0.991  -5.931  -0.286  0.00  0.00     0.013 A 
ATOM      9  C   UNL d   1      -1.682  -4.710  -0.238  0.00  0.00     0.014 A 
BRANCH   7  10
ATOM     10  C   UNL d   1       1.125  -7.298  -0.368  0.00  0.00     0.013 A 
ATOM     11  C   UNL d   1       0.604  -8.422  -1.040  0.00  0.00     0.127 A 
ATOM     12  F   UNL d   1      -0.561  -8.344  -1.703  0.00  0.00    -0.205 F 
ATOM     13  C   UNL d   1       1.263  -9.653  -1.061  0.00  0.00     0.043 A 
ATOM     14  C   UNL d   1       2.485  -9.797  -0.416  0.00  0.00     0.003 A 
ATOM     15  C   UNL d   1       3.038  -8.708   0.250  0.00  0.00     0.001 A 
ATOM     16  C   UNL d   1       2.364  -7.478   0.278  0.00  0.00     0.015 A 
ENDBRANCH   7  10
ENDBRANCH   3   4
BRANCH   3  17
ATOM     17  C   UNL d   1      -3.232  -2.142   0.106  0.00  0.00     0.055 C 
ATOM     18  C   UNL d   1      -3.918  -1.615  -1.147  0.00  0.00     0.011 C 
ENDBRANCH   3  17
BRANCH   1  19
ATOM     19  O   UNL d   1      -1.864   0.031   0.205  0.00  0.00    -0.181 OA
BRANCH  19  20
ATOM     20  C   UNL d   1      -1.287   1.282   0.202  0.00  0.00     0.387 C 
ATOM     21  N   UNL d   1       0.049   1.301  -0.120  0.00  0.00    -0.301 N 
ATOM     22  H   UNL d   1       0.402   0.383  -0.368  0.00  0.00     0.171 HD
ATOM     23  O   UNL d   1      -1.990   2.254   0.441  0.00  0.00    -0.236 OA
BRANCH  21  24
ATOM     24  C   UNL d   1       0.876   2.440  -0.200  0.00  0.00     0.040 A 
ATOM     25  C   UNL d   1       0.474   3.712   0.228  0.00  0.00     0.053 A 
ATOM     26  C   UNL d   1       1.327   4.810   0.103  0.00  0.00     0.037 A 
ATOM     27 CL   UNL d   1       0.805   6.361   0.638  0.00  0.00    -0.084 Cl
ATOM     28  C   UNL d   1       2.593   4.663  -0.448  0.00  0.00     0.048 A 
ATOM     29  C   UNL d   1       3.003   3.400  -0.861  0.00  0.00     0.037 A 
ATOM     30  C   UNL d   1       2.160   2.289  -0.735  0.00  0.00     0.053 A 
ATOM     31 CL   UNL d   1       4.570   3.206  -1.548  0.00  0.00    -0.084 Cl
ENDBRANCH  21  24
ENDBRANCH  19  20
ENDBRANCH   1  19
TORSDOF 6
