REMARK  5 active torsions:
REMARK  status: ('A' for Active; 'I' for Inactive)
REMARK    1  A    between atoms: N_2  and  C_1 
REMARK       I    between atoms: C_3  and  N_7 
REMARK    2  A    between atoms: C_5  and  C_3 
REMARK    3  A    between atoms: N_8  and  C_4 
REMARK    4  A    between atoms: C_6  and  C_10 
REMARK    5  A    between atoms: N_7  and  N_8 
ROOT
ATOM      1  C   UNL d   1       1.490  -0.187  -0.019  0.00  0.00     0.131 A 
ATOM      2  C   UNL d   1       0.596  -1.272   0.160  0.00  0.00     0.083 A 
ATOM      3  C   UNL d   1       1.056   1.162   0.037  0.00  0.00     0.054 A 
ATOM      4  C   UNL d   1      -0.276   1.474   0.326  0.00  0.00     0.050 A 
ATOM      5  C   UNL d   1      -0.712  -0.907   0.551  0.00  0.00     0.034 A 
ATOM      6  C   UNL d   1      -1.145   0.424   0.625  0.00  0.00     0.019 A 
ENDROOT
BRANCH   2   7
ATOM      7  N   UNL d   1       0.923  -2.638  -0.035  0.00  0.00    -0.291 N 
ATOM      8  C   UNL d   1      -0.085  -3.665   0.274  0.00  0.00     0.178 C 
BRANCH   7   9
ATOM      9  N   UNL d   1       1.651  -2.897  -1.226  0.00  0.00    -0.260 N 
ATOM     10  C   UNL d   1       2.519  -4.007  -1.258  0.00  0.00     0.344 C 
ATOM     11  O   UNL d   1       2.782  -4.699  -0.273  0.00  0.00    -0.262 OA
ATOM     12  H   UNL d   1       1.268  -2.525  -2.096  0.00  0.00     0.190 HD
BRANCH  10  13
ATOM     13  C   UNL d   1       3.032  -4.325  -2.672  0.00  0.00     0.473 C 
ATOM     14  F   UNL d   1       2.624  -3.389  -3.582  0.00  0.00    -0.162 F 
ATOM     15  F   UNL d   1       4.387  -4.378  -2.753  0.00  0.00    -0.162 F 
ATOM     16  F   UNL d   1       2.560  -5.516  -3.130  0.00  0.00    -0.162 F 
ENDBRANCH  10  13
ENDBRANCH   7   9
ENDBRANCH   2   7
BRANCH   1  17
ATOM     17  N   UNL d   1       2.932  -0.383  -0.211  0.00  0.00    -0.113 N 
ATOM     18  O   UNL d   1       3.498  -1.278   0.429  0.00  0.00    -0.532 OA
ATOM     19  O   UNL d   1       3.507   0.415  -0.963  0.00  0.00    -0.532 OA
ENDBRANCH   1  17
BRANCH   4  20
ATOM     20  C   UNL d   1      -0.791   2.892   0.312  0.00  0.00     0.417 C 
ATOM     21  F   UNL d   1       0.177   3.818   0.079  0.00  0.00    -0.166 F 
ATOM     22  F   UNL d   1      -1.733   3.083  -0.651  0.00  0.00    -0.166 F 
ATOM     23  F   UNL d   1      -1.380   3.244   1.489  0.00  0.00    -0.166 F 
ENDBRANCH   4  20
TORSDOF 5
