REMARK  4 active torsions:
REMARK  status: ('A' for Active; 'I' for Inactive)
REMARK    1  A    between atoms: C_2  and  N_1 
REMARK    2  A    between atoms: C_8  and  C_4 
REMARK    3  A    between atoms: O_6  and  C_7 
REMARK    4  A    between atoms: C_10  and  O_6 
ROOT
ATOM      1  C   UNL d   1      -1.700   0.004  -5.068  0.00  0.00     0.076 A 
ATOM      2  C   UNL d   1       0.184  -0.643  -3.690  0.00  0.00    -0.032 A 
ATOM      3  C   UNL d   1      -0.915   0.190  -3.926  0.00  0.00     0.048 A 
ATOM      4  C   UNL d   1      -0.217  -1.758  -5.803  0.00  0.00     0.004 A 
ATOM      5  C   UNL d   1      -1.332  -0.948  -6.019  0.00  0.00     0.037 A 
ATOM      6  C   UNL d   1       0.532  -1.616  -4.633  0.00  0.00     0.011 A 
ENDROOT
BRANCH   1   7
ATOM      7  O   UNL d   1      -2.816   0.757  -5.354  0.00  0.00    -0.311 OA
BRANCH   7   8
ATOM      8  C   UNL d   1      -3.691   1.073  -4.337  0.00  0.00     0.076 A 
ATOM      9  C   UNL d   1      -4.377   2.281  -4.474  0.00  0.00     0.037 A 
ATOM     10  C   UNL d   1      -5.282   2.689  -3.493  0.00  0.00     0.003 A 
ATOM     11  C   UNL d   1      -5.507   1.887  -2.375  0.00  0.00     0.000 A 
ATOM     12  C   UNL d   1      -4.850   0.663  -2.252  0.00  0.00     0.003 A 
ATOM     13  C   UNL d   1      -3.960   0.245  -3.243  0.00  0.00     0.037 A 
ENDBRANCH   7   8
ENDBRANCH   1   7
BRANCH   2  14
ATOM     14  C   UNL d   1       0.957  -0.505  -2.458  0.00  0.00     0.035 C 
ATOM     15  C   UNL d   1       1.970   0.365  -2.382  0.00  0.00     0.168 C 
BRANCH  15  16
ATOM     16  N   UNL d   1       2.719   0.487  -1.154  0.00  0.00    -0.127 N 
ATOM     17  O   UNL d   1       3.641   1.309  -1.168  0.00  0.00    -0.532 OA
ATOM     18  O   UNL d   1       2.404  -0.219  -0.187  0.00  0.00    -0.532 OA
ENDBRANCH  15  16
ENDBRANCH   2  14
TORSDOF 4
