REMARK  1 active torsions:
REMARK  status: ('A' for Active; 'I' for Inactive)
REMARK       I    between atoms: C_2  and  N_1 
REMARK       I    between atoms: C_3  and  N_1 
REMARK       I    between atoms: N_4  and  C_2 
REMARK    1  A    between atoms: C_5  and  C_3 
ROOT
ATOM      1  N   UNL d   1       1.241  -0.140  -0.274  0.00  0.00    -0.275 N 
ATOM      2  C   UNL d   1       0.528   0.584  -1.204  0.00  0.00     0.325 C 
ATOM      3  C   UNL d   1       0.839  -0.279   1.043  0.00  0.00     0.259 C 
ATOM      4  N   UNL d   1       1.091   0.679  -2.475  0.00  0.00    -0.334 N 
ATOM      5  O   UNL d   1      -0.546   1.125  -0.954  0.00  0.00    -0.247 OA
ATOM      6  O   UNL d   1      -0.171   0.188   1.552  0.00  0.00    -0.267 OA
ATOM      7  C   UNL d   1       0.368   1.498  -3.458  0.00  0.00     0.127 C 
ATOM      8  C   UNL d   1       2.468   0.361  -2.861  0.00  0.00     0.127 C 
ATOM      9  C   UNL d   1       0.365   0.843  -4.834  0.00  0.00     0.020 C 
ATOM     10  C   UNL d   1       2.506  -0.326  -4.225  0.00  0.00     0.020 C 
ATOM     11  C   UNL d   1       1.779   0.497  -5.287  0.00  0.00     0.003 C 
ATOM     12  H   UNL d   1       1.949  -0.763  -0.613  0.00  0.00     0.173 HD
ENDROOT
BRANCH   3  13
ATOM     13  C   UNL d   1       1.722  -1.080   1.934  0.00  0.00     0.035 A 
ATOM     14  C   UNL d   1       3.116  -1.045   1.827  0.00  0.00     0.036 A 
ATOM     15  C   UNL d   1       3.891  -1.696   2.793  0.00  0.00     0.013 A 
ATOM     16 BR   UNL d   1       5.778  -1.604   2.689  0.00  0.00    -0.051 Br
ATOM     17  C   UNL d   1       3.297  -2.381   3.853  0.00  0.00     0.038 A 
ATOM     18  C   UNL d   1       1.909  -2.420   3.944  0.00  0.00     0.013 A 
ATOM     19  C   UNL d   1       1.120  -1.776   2.994  0.00  0.00     0.036 A 
ATOM     20 BR   UNL d   1       1.087  -3.319   5.389  0.00  0.00    -0.051 Br
ENDBRANCH   3  13
TORSDOF 1
