REMARK  6 active torsions:
REMARK  status: ('A' for Active; 'I' for Inactive)
REMARK    1  A    between atoms: C_2  and  C_1 
REMARK       I    between atoms: C_4  and  N_17 
REMARK       I    between atoms: N_6  and  C_4 
REMARK    2  A    between atoms: C_5  and  N_6 
REMARK    3  A    between atoms: N_19  and  C_9 
REMARK    4  A    between atoms: N_17  and  C_25 
REMARK    5  A    between atoms: C_26  and  N_19 
REMARK    6  A    between atoms: C_25  and  C_26 
ROOT
ATOM      1  C   UNL d   1      -1.569  -0.446   7.499  0.00  0.00     0.144 C 
ENDROOT
BRANCH   1   2
ATOM      2  N   UNL d   1      -2.185  -1.494   8.302  0.00  0.00    -0.341 N 
ATOM      3  C   UNL d   1      -1.369  -2.365   8.969  0.00  0.00     0.320 C 
ATOM      4  N   UNL d   1      -1.883  -2.973  10.072  0.00  0.00    -0.307 N 
ATOM      5  O   UNL d   1      -0.178  -2.504   8.698  0.00  0.00    -0.247 OA
ATOM      6  H   UNL d   1      -1.143  -3.246  10.714  0.00  0.00     0.170 HD
ATOM      7  H   UNL d   1      -2.982  -1.192   8.843  0.00  0.00     0.164 HD
BRANCH   4   8
ATOM      8  C   UNL d   1      -3.199  -3.087  10.563  0.00  0.00     0.059 A 
ATOM      9  C   UNL d   1      -3.405  -3.094  11.958  0.00  0.00     0.082 A 
ATOM     10  C   UNL d   1      -4.693  -3.274  12.476  0.00  0.00     0.058 A 
ATOM     11 CL   UNL d   1      -2.051  -2.804  13.012  0.00  0.00    -0.080 Cl
ATOM     12 CL   UNL d   1      -5.027  -3.243  14.172  0.00  0.00    -0.082 Cl
ATOM     13  C   UNL d   1      -5.768  -3.489  11.610  0.00  0.00     0.026 A 
ATOM     14  C   UNL d   1      -5.565  -3.500  10.230  0.00  0.00     0.004 A 
ATOM     15  C   UNL d   1      -4.285  -3.287   9.704  0.00  0.00     0.031 A 
ENDBRANCH   4   8
ENDBRANCH   1   2
BRANCH   1  16
ATOM     16  C   UNL d   1      -0.961  -0.913   6.166  0.00  0.00     0.141 C 
BRANCH  16  17
ATOM     17  N   UNL d   1      -0.382   0.219   5.455  0.00  0.00    -0.375 N 
ATOM     18  H   UNL d   1      -0.707   0.387   4.508  0.00  0.00     0.161 HD
BRANCH  17  19
ATOM     19  C   UNL d   1       0.954   0.542   5.530  0.00  0.00     0.100 A 
ATOM     20  C   UNL d   1       1.768   0.254   6.619  0.00  0.00     0.049 A 
ATOM     21  C   UNL d   1       3.090   0.707   6.631  0.00  0.00     0.021 A 
ATOM     22  C   UNL d   1       3.580   1.449   5.558  0.00  0.00     0.063 A 
ATOM     23  C   UNL d   1       2.703   1.677   4.506  0.00  0.00     0.106 A 
ATOM     24  N   UNL d   1       1.421   1.242   4.477  0.00  0.00    -0.352 N 
ATOM     25  HN  UNL d   1       0.822   1.441   3.676  1.00  0.00     0.166 HD
BRANCH  22  26
ATOM     26  C   UNL d   1       4.968   1.991   5.539  0.00  0.00     0.418 C 
ATOM     27  F   UNL d   1       5.268   2.702   4.414  0.00  0.00    -0.166 F 
ATOM     28  F   UNL d   1       5.916   1.016   5.623  0.00  0.00    -0.166 F 
ATOM     29  F   UNL d   1       5.212   2.836   6.581  0.00  0.00    -0.166 F 
ENDBRANCH  22  26
ENDBRANCH  17  19
ENDBRANCH  16  17
ENDBRANCH   1  16
TORSDOF 6
