REMARK  4 active torsions:
REMARK  status: ('A' for Active; 'I' for Inactive)
REMARK    1  A    between atoms: C_5  and  N_1 
REMARK    2  A    between atoms: S_7  and  C_4 
REMARK    3  A    between atoms: C_10  and  S_7 
REMARK    4  A    between atoms: N_17  and  C_16 
ROOT
ATOM      1  N   UNL d   1       0.064   0.852  -0.017  0.00  0.00    -0.251 N 
ATOM      2  C   UNL d   1      -1.079   0.111   0.178  0.00  0.00     0.232 C 
ATOM      3  C   UNL d   1       1.170   0.035  -0.131  0.00  0.00     0.245 C 
ATOM      4  C   UNL d   1       0.723  -1.406  -0.201  0.00  0.00     0.154 C 
ATOM      5  C   UNL d   1      -0.743  -1.351   0.169  0.00  0.00     0.129 C 
ATOM      6  O   UNL d   1      -2.225   0.502   0.353  0.00  0.00    -0.273 OA
ATOM      7  O   UNL d   1       2.351   0.363  -0.130  0.00  0.00    -0.271 OA
ENDROOT
BRANCH   4   8
ATOM      8  S   UNL d   1       1.037  -2.016  -1.900  0.00  0.00    -0.113 SA
BRANCH   8   9
ATOM      9  C   UNL d   1       0.575  -3.744  -1.724  0.00  0.00     0.022 A 
ATOM     10  C   UNL d   1      -0.428  -4.290  -2.553  0.00  0.00     0.022 A 
ATOM     11  C   UNL d   1      -0.805  -5.625  -2.372  0.00  0.00     0.024 A 
ATOM     12  C   UNL d   1      -0.130  -6.441  -1.463  0.00  0.00     0.002 A 
ATOM     13  C   UNL d   1       0.907  -5.916  -0.696  0.00  0.00     0.001 A 
ATOM     14  C   UNL d   1       1.257  -4.571  -0.822  0.00  0.00     0.020 A 
BRANCH  10  15
ATOM     15  N   UNL d   1      -1.207  -3.470  -3.397  0.00  0.00    -0.302 NA
ATOM     16  H   UNL d   1      -0.688  -2.640  -3.682  0.00  0.00     0.124 HD
ATOM     17  H   UNL d   1      -1.597  -3.967  -4.191  0.00  0.00     0.124 HD
ENDBRANCH  10  15
ENDBRANCH   8   9
ENDBRANCH   4   8
BRANCH   1  18
ATOM     18  C   UNL d   1       0.114   2.281  -0.054  0.00  0.00     0.048 A 
ATOM     19  C   UNL d   1      -0.905   3.072   0.502  0.00  0.00     0.054 A 
ATOM     20  C   UNL d   1      -0.848   4.469   0.446  0.00  0.00     0.037 A 
ATOM     21 CL   UNL d   1      -2.104   5.403   1.165  0.00  0.00    -0.084 Cl
ATOM     22  C   UNL d   1       0.211   5.115  -0.176  0.00  0.00     0.048 A 
ATOM     23  C   UNL d   1       1.222   4.349  -0.738  0.00  0.00     0.037 A 
ATOM     24  C   UNL d   1       1.183   2.951  -0.675  0.00  0.00     0.054 A 
ATOM     25 CL   UNL d   1       2.531   5.129  -1.540  0.00  0.00    -0.084 Cl
ENDBRANCH   1  18
TORSDOF 4
