REMARK  5 active torsions:
REMARK  status: ('A' for Active; 'I' for Inactive)
REMARK    1  A    between atoms: C_21  and  C_3 
REMARK    2  A    between atoms: C_10  and  C_4 
REMARK    3  A    between atoms: N_17  and  C_4 
REMARK    4  A    between atoms: N_5  and  O_16 
REMARK    5  A    between atoms: O_16  and  C_21 
ROOT
ATOM      1  C   UNL d   1       0.108  -3.721   1.104  0.00  0.00     0.108 C 
ATOM      2  N   UNL d   1       0.318  -4.990   0.896  0.00  0.00    -0.255 N 
ATOM      3  HN  UNL d   1       0.091  -5.720   1.571  1.00  0.00     0.195 HD
ENDROOT
BRANCH   2   4
ATOM      4  O   UNL d   1       0.898  -5.246  -0.372  0.00  0.00    -0.274 OA
BRANCH   4   5
ATOM      5  C   UNL d   1       2.328  -5.184  -0.303  0.00  0.00     0.242 C 
BRANCH   5   6
ATOM      6  C   UNL d   1       3.004  -6.528  -0.298  0.00  0.00     0.004 A 
ATOM      7  C   UNL d   1       3.892  -6.881   0.730  0.00  0.00     0.088 A 
ATOM      8  C   UNL d   1       4.662  -8.045   0.649  0.00  0.00     0.001 A 
ATOM      9  O   UNL d   1       4.009  -6.021   1.792  0.00  0.00    -0.325 OA
ATOM     10  C   UNL d   1       4.508  -8.899  -0.451  0.00  0.00     0.036 A 
ATOM     11  C   UNL d   1       5.641  -8.367   1.738  0.00  0.00     0.212 C 
ATOM     12  C   UNL d   1       3.598  -8.575  -1.458  0.00  0.00     0.035 A 
ATOM     13  C   UNL d   1       2.851  -7.400  -1.390  0.00  0.00     0.036 A 
ATOM     14 CL   UNL d   1       3.436  -9.615  -2.819  0.00  0.00    -0.084 Cl
ATOM     15  O   UNL d   1       5.903  -7.229   2.552  0.00  0.00    -0.362 OA
ATOM     16  C   UNL d   1       4.678  -6.604   2.908  0.00  0.00     0.345 C 
ENDBRANCH   5   6
ENDBRANCH   4   5
ENDBRANCH   2   4
BRANCH   1  17
ATOM     17  C   UNL d   1      -0.532  -3.287   2.396  0.00  0.00     0.004 A 
ATOM     18  C   UNL d   1      -1.014  -4.239   3.301  0.00  0.00     0.016 A 
ATOM     19  C   UNL d   1      -1.656  -3.834   4.478  0.00  0.00     0.024 A 
ATOM     20  C   UNL d   1      -1.813  -2.477   4.753  0.00  0.00     0.034 A 
ATOM     21  C   UNL d   1      -1.332  -1.519   3.863  0.00  0.00     0.024 A 
ATOM     22 CL   UNL d   1      -2.612  -1.979   6.192  0.00  0.00    -0.084 Cl
ATOM     23  C   UNL d   1      -0.700  -1.923   2.684  0.00  0.00     0.016 A 
ENDBRANCH   1  17
BRANCH   1  24
ATOM     24  N   UNL d   1       0.455  -2.748   0.187  0.00  0.00    -0.286 NA
ATOM     25  H   UNL d   1       0.833  -3.168  -0.655  0.00  0.00     0.125 HD
ATOM     26  H   UNL d   1       1.102  -2.060   0.557  0.00  0.00     0.125 HD
ENDBRANCH   1  24
TORSDOF 5
