REMARK  8 active torsions:
REMARK  status: ('A' for Active; 'I' for Inactive)
REMARK    1  A    between atoms: C_7  and  C_1 
REMARK    2  A    between atoms: S_9  and  C_4 
REMARK    3  A    between atoms: S_10  and  C_5 
REMARK       I    between atoms: N_11  and  C_7 
REMARK    4  A    between atoms: C_21  and  N_11 
REMARK    5  A    between atoms: C_13  and  C_20 
REMARK    6  A    between atoms: S_15  and  C_23 
REMARK    7  A    between atoms: C_20  and  S_15 
REMARK    8  A    between atoms: C_23  and  C_21 
ROOT
ATOM      1  C   UNL d   1      -2.171  -2.501  -1.333  0.00  0.00     0.256 C 
ATOM      2  O   UNL d   1      -2.569  -3.030  -2.368  0.00  0.00    -0.268 OA
ATOM      3  N   UNL d   1      -2.869  -2.713  -0.163  0.00  0.00    -0.356 N 
ATOM      4  H   UNL d   1      -2.512  -2.325   0.702  0.00  0.00     0.162 HD
ENDROOT
BRANCH   3   5
ATOM      5  C   UNL d   1      -4.118  -3.443  -0.102  0.00  0.00     0.133 C 
BRANCH   5   6
ATOM      6  C   UNL d   1      -3.946  -4.960  -0.191  0.00  0.00     0.093 C 
BRANCH   6   7
ATOM      7  S   UNL d   1      -5.547  -5.832  -0.051  0.00  0.00    -0.163 SA
BRANCH   7   8
ATOM      8  C   UNL d   1      -6.325  -5.269  -1.596  0.00  0.00     0.112 C 
BRANCH   8   9
ATOM      9  C   UNL d   1      -7.752  -5.738  -1.714  0.00  0.00    -0.049 A 
ATOM     10  C   UNL d   1      -8.793  -4.989  -1.141  0.00  0.00     0.009 A 
ATOM     11  C   UNL d   1     -10.120  -5.397  -1.280  0.00  0.00     0.024 A 
ATOM     12  C   UNL d   1     -10.413  -6.561  -1.987  0.00  0.00     0.034 A 
ATOM     13  C   UNL d   1      -9.389  -7.325  -2.545  0.00  0.00     0.024 A 
ATOM     14 CL   UNL d   1     -12.050  -7.054  -2.179  0.00  0.00    -0.084 Cl
ATOM     15  C   UNL d   1      -8.061  -6.917  -2.405  0.00  0.00     0.009 A 
ENDBRANCH   8   9
ENDBRANCH   7   8
ENDBRANCH   6   7
ENDBRANCH   5   6
ENDBRANCH   3   5
BRANCH   1  16
ATOM     16  C   UNL d   1      -0.982  -1.642  -1.252  0.00  0.00     0.090 A 
ATOM     17  C   UNL d   1      -0.291  -1.075  -2.338  0.00  0.00     0.076 A 
ATOM     18  S   UNL d   1       1.050  -0.167  -1.714  0.00  0.00    -0.006 SA
ATOM     19  N   UNL d   1       0.765  -0.449  -0.135  0.00  0.00    -0.319 N 
ATOM     20  C   UNL d   1      -0.305  -1.220  -0.021  0.00  0.00     0.093 A 
ATOM     21  HN  UNL d   1       1.321  -0.089   0.641  1.00  0.00     0.175 HD
BRANCH  17  22
ATOM     22  S   UNL d   1      -0.401  -0.997  -4.094  0.00  0.00    -0.125 SA
ATOM     23  C   UNL d   1      -1.766  -1.967  -4.702  0.00  0.00     0.096 C 
ENDBRANCH  17  22
BRANCH  20  24
ATOM     24  S   UNL d   1      -0.790  -1.657   1.633  0.00  0.00    -0.115 SA
ATOM     25  C   UNL d   1       0.435  -0.800   2.647  0.00  0.00     0.097 C 
ENDBRANCH  20  24
ENDBRANCH   1  16
TORSDOF 8
