REMARK  4 active torsions:
REMARK  status: ('A' for Active; 'I' for Inactive)
REMARK    1  A    between atoms: C_3  and  C_1 
REMARK    2  A    between atoms: C_10  and  N_2 
REMARK    3  A    between atoms: O_11  and  C_3 
REMARK    4  A    between atoms: C_12  and  C_10 
ROOT
ATOM      1  C   UNL d   1      -0.373  -1.243   0.209  0.00  0.00     0.183 C 
ATOM      2  N   UNL d   1       1.837   0.026   0.138  0.00  0.00     0.094 N 
ATOM      3  C   UNL d   1      -1.099   0.059  -0.014  0.00  0.00     0.143 C 
ATOM      4  C   UNL d   1       1.062  -1.149  -0.316  0.00  0.00     0.295 C 
ATOM      5  C   UNL d   1      -0.284   1.224  -0.505  0.00  0.00     0.109 C 
ATOM      6  O   UNL d   1      -2.311   0.166   0.175  0.00  0.00    -0.297 OA
ATOM      7  C   UNL d   1       1.022   1.246   0.270  0.00  0.00     0.280 C 
ENDROOT
BRANCH   2   8
ATOM      8  C   UNL d   1       3.005   0.194  -0.758  0.00  0.00     0.311 C 
BRANCH   8   9
ATOM      9  C   UNL d   1       3.951   1.317  -0.395  0.00  0.00    -0.030 A 
ATOM     10  C   UNL d   1       4.573   1.371   0.859  0.00  0.00     0.009 A 
ATOM     11  C   UNL d   1       5.449   2.415   1.169  0.00  0.00     0.001 A 
ATOM     12  C   UNL d   1       5.716   3.409   0.228  0.00  0.00     0.000 A 
ATOM     13  C   UNL d   1       5.111   3.361  -1.025  0.00  0.00     0.001 A 
ATOM     14  C   UNL d   1       4.237   2.320  -1.337  0.00  0.00     0.009 A 
ENDBRANCH   8   9
ENDBRANCH   2   8
BRANCH   1  15
ATOM     15  C   UNL d   1      -1.051  -2.354  -0.546  0.00  0.00     0.271 C 
ATOM     16  O   UNL d   1      -1.202  -2.357  -1.763  0.00  0.00    -0.264 OA
BRANCH  15  17
ATOM     17  O   UNL d   1      -1.411  -3.371   0.283  0.00  0.00    -0.326 OA
ATOM     18  C   UNL d   1      -2.045  -4.462  -0.389  0.00  0.00     0.213 C 
ENDBRANCH  15  17
ENDBRANCH   1  15
TORSDOF 4
