REMARK  6 active torsions:
REMARK  status: ('A' for Active; 'I' for Inactive)
REMARK    1  A    between atoms: C_7  and  N_1 
REMARK    2  A    between atoms: C_12  and  C_6 
REMARK    3  A    between atoms: C_17  and  N_8 
REMARK    4  A    between atoms: C_10  and  C_13 
REMARK    5  A    between atoms: C_11  and  C_15 
REMARK    6  A    between atoms: O_26  and  C_12 
ROOT
ATOM      1  N   UNL d   1       0.447  -1.050   0.216  0.00  0.00    -0.257 N 
ATOM      2  C   UNL d   1      -0.897  -0.833   0.499  0.00  0.00     0.160 C 
ATOM      3  C   UNL d   1       0.193   1.230  -0.384  0.00  0.00     0.082 C 
ATOM      4  C   UNL d   1       1.113   0.062  -0.307  0.00  0.00     0.271 C 
ATOM      5  S   UNL d   1      -1.205   0.894   0.530  0.00  0.00    -0.048 SA
ATOM      6  C   UNL d   1       0.481   2.307  -1.127  0.00  0.00     0.106 C 
ATOM      7  N   UNL d   1      -1.778  -1.777   0.656  0.00  0.00    -0.336 N 
ATOM      8  HN  UNL d   1      -1.461  -2.745   0.609  1.00  0.00     0.168 HD
ATOM      9  O   UNL d   1       2.280   0.166  -0.669  0.00  0.00    -0.266 OA
ENDROOT
BRANCH   1  10
ATOM     10  C   UNL d   1       1.111  -2.309   0.449  0.00  0.00     0.045 A 
ATOM     11  C   UNL d   1       2.333  -2.629  -0.167  0.00  0.00     0.046 A 
ATOM     12  C   UNL d   1       3.029  -3.821   0.117  0.00  0.00     0.050 A 
ATOM     13  C   UNL d   1       2.473  -4.736   1.017  0.00  0.00     0.016 A 
ATOM     14  C   UNL d   1       1.261  -4.453   1.632  0.00  0.00     0.003 A 
ATOM     15  C   UNL d   1       0.598  -3.252   1.358  0.00  0.00     0.030 A 
BRANCH  12  16
ATOM     16  C   UNL d   1       4.367  -4.109  -0.519  0.00  0.00     0.417 C 
ATOM     17  F   UNL d   1       4.799  -3.128  -1.360  0.00  0.00    -0.166 F 
ATOM     18  F   UNL d   1       5.355  -4.267   0.405  0.00  0.00    -0.166 F 
ATOM     19  F   UNL d   1       4.357  -5.254  -1.256  0.00  0.00    -0.166 F 
ENDBRANCH  12  16
ENDBRANCH   1  10
BRANCH   7  20
ATOM     20  C   UNL d   1      -3.142  -1.533   0.886  0.00  0.00     0.034 C 
ATOM     21  C   UNL d   1      -3.894  -0.644   0.115  0.00  0.00     0.045 C 
ATOM     22  C   UNL d   1      -5.209  -0.302   0.457  0.00  0.00     0.050 C 
ATOM     23  C   UNL d   1      -5.842  -1.008   1.487  0.00  0.00     0.016 C 
ATOM     24  C   UNL d   1      -5.149  -1.998   2.183  0.00  0.00     0.003 C 
ATOM     25  C   UNL d   1      -3.800  -2.241   1.898  0.00  0.00     0.029 C 
BRANCH  22  26
ATOM     26  C   UNL d   1      -5.890   0.848  -0.239  0.00  0.00     0.417 C 
ATOM     27  F   UNL d   1      -5.083   1.501  -1.123  0.00  0.00    -0.166 F 
ATOM     28  F   UNL d   1      -6.984   0.463  -0.949  0.00  0.00    -0.166 F 
ATOM     29  F   UNL d   1      -6.323   1.799   0.635  0.00  0.00    -0.166 F 
ENDBRANCH  22  26
ENDBRANCH   7  20
BRANCH   6  30
ATOM     30  C   UNL d   1      -0.419   3.462  -1.310  0.00  0.00     0.283 C 
ATOM     31  O   UNL d   1      -1.415   3.708  -0.649  0.00  0.00    -0.260 OA
BRANCH  30  32
ATOM     32  O   UNL d   1       0.031   4.188  -2.363  0.00  0.00    -0.323 OA
ATOM     33  C   UNL d   1      -0.805   5.306  -2.681  0.00  0.00     0.213 C 
ENDBRANCH  30  32
ENDBRANCH   6  30
TORSDOF 6
