REMARK  3 active torsions:
REMARK  status: ('A' for Active; 'I' for Inactive)
REMARK    1  A    between atoms: C_9  and  C_3 
REMARK    2  A    between atoms: C_8  and  C_7 
REMARK    3  A    between atoms: C_14  and  C_9 
ROOT
ATOM      1  N   UNL d   1       1.293  -1.150  -0.037  0.00  0.00    -0.297 N 
ATOM      2  HN  UNL d   1       1.837  -2.013  -0.020  1.00  0.00     0.187 HD
ATOM      3  C   UNL d   1      -0.224   1.252  -0.055  0.00  0.00     0.018 A 
ATOM      4  N   UNL d   1      -0.070  -1.166  -0.131  0.00  0.00    -0.266 N 
ATOM      5  C   UNL d   1      -0.891  -0.067  -0.185  0.00  0.00     0.266 A 
ATOM      6  C   UNL d   1       1.111   1.292   0.049  0.00  0.00     0.045 A 
ATOM      7  C   UNL d   1       1.863   0.015   0.030  0.00  0.00     0.059 A 
ATOM      8  O   UNL d   1      -2.105  -0.168  -0.335  0.00  0.00    -0.266 OA
ATOM      9  H   UNL d   1      -0.507  -2.077  -0.214  0.00  0.00     0.190 HD
ENDROOT
BRANCH   3  10
ATOM     10  C   UNL d   1      -1.076   2.487  -0.098  0.00  0.00     0.083 C 
BRANCH  10  11
ATOM     11  C   UNL d   1      -1.517   2.959   1.268  0.00  0.00    -0.054 A 
ATOM     12  C   UNL d   1      -0.704   3.813   2.028  0.00  0.00     0.007 A 
ATOM     13  C   UNL d   1      -1.113   4.243   3.292  0.00  0.00     0.001 A 
ATOM     14  C   UNL d   1      -2.336   3.824   3.807  0.00  0.00     0.000 A 
ATOM     15  C   UNL d   1      -3.151   2.970   3.064  0.00  0.00     0.001 A 
ATOM     16  C   UNL d   1      -2.741   2.536   1.802  0.00  0.00     0.007 A 
ENDBRANCH  10  11
ENDBRANCH   3  10
BRANCH   7  17
ATOM     17  C   UNL d   1       3.352   0.106   0.111  0.00  0.00    -0.008 A 
ATOM     18  C   UNL d   1       4.064  -0.945   0.709  0.00  0.00     0.017 A 
ATOM     19  C   UNL d   1       5.456  -0.881   0.815  0.00  0.00     0.043 A 
ATOM     20  C   UNL d   1       6.132   0.226   0.317  0.00  0.00     0.116 A 
ATOM     21  C   UNL d   1       5.446   1.265  -0.299  0.00  0.00     0.043 A 
ATOM     22  F   UNL d   1       7.465   0.291   0.424  0.00  0.00    -0.206 F 
ATOM     23  C   UNL d   1       4.055   1.203  -0.412  0.00  0.00     0.017 A 
ENDBRANCH   7  17
TORSDOF 3
