REMARK  5 active torsions:
REMARK  status: ('A' for Active; 'I' for Inactive)
REMARK    1  A    between atoms: C_5  and  C_1 
REMARK       I    between atoms: N_9  and  C_1 
REMARK    2  A    between atoms: N_2  and  N_9 
REMARK       I    between atoms: C_4  and  N_6 
REMARK    3  A    between atoms: N_6  and  C_17 
REMARK    4  A    between atoms: C_7  and  C_8 
REMARK    5  A    between atoms: C_18  and  C_16 
ROOT
ATOM      1  N   UNL d   1       0.925  -1.762  -1.772  0.00  0.00    -0.308 N 
ATOM      2  HN  UNL d   1       1.942  -1.771  -1.856  1.00  0.00     0.186 HD
ATOM      3  C   UNL d   1       0.173  -2.494  -2.527  0.00  0.00     0.118 C 
ENDROOT
BRANCH   1   4
ATOM      4  N   UNL d   1       0.285  -0.978  -0.858  0.00  0.00    -0.266 N 
ATOM      5  C   UNL d   1       1.035  -0.168  -0.014  0.00  0.00     0.270 C 
ATOM      6  O   UNL d   1       2.261  -0.165   0.058  0.00  0.00    -0.266 OA
ATOM      7  H   UNL d   1      -0.722  -1.029  -0.780  0.00  0.00     0.190 HD
BRANCH   5   8
ATOM      8  C   UNL d   1       0.259   0.752   0.865  0.00  0.00     0.033 A 
ATOM      9  C   UNL d   1       0.822   1.157   2.078  0.00  0.00     0.017 A 
ATOM     10  C   UNL d   1       0.151   2.070   2.902  0.00  0.00     0.009 A 
ATOM     11  C   UNL d   1      -1.095   2.614   2.534  0.00  0.00    -0.051 A 
ATOM     12  C   UNL d   1      -1.643   2.192   1.311  0.00  0.00     0.009 A 
ATOM     13  C   UNL d   1      -0.977   1.278   0.482  0.00  0.00     0.017 A 
BRANCH  11  14
ATOM     14  C   UNL d   1      -1.796   3.640   3.445  0.00  0.00    -0.024 C 
ATOM     15  C   UNL d   1      -3.140   4.151   2.876  0.00  0.00     0.019 C 
ATOM     16  C   UNL d   1      -2.092   3.005   4.820  0.00  0.00     0.019 C 
ATOM     17  C   UNL d   1      -0.893   4.877   3.647  0.00  0.00     0.019 C 
ENDBRANCH  11  14
ENDBRANCH   5   8
ENDBRANCH   1   4
BRANCH   3  18
ATOM     18  C   UNL d   1       0.750  -3.371  -3.567  0.00  0.00    -0.019 A 
ATOM     19  C   UNL d   1       2.129  -3.414  -3.781  0.00  0.00     0.015 A 
ATOM     20  C   UNL d   1       2.656  -4.258  -4.764  0.00  0.00     0.030 A 
ATOM     21  C   UNL d   1       1.814  -5.067  -5.541  0.00  0.00     0.034 A 
ATOM     22  C   UNL d   1       0.435  -5.006  -5.322  0.00  0.00     0.030 A 
ATOM     23  C   UNL d   1      -0.099  -4.162  -4.340  0.00  0.00     0.015 A 
BRANCH  21  24
ATOM     24  N   UNL d   1       2.425  -5.904  -6.499  0.00  0.00    -0.328 N 
ATOM     25  C   UNL d   1       1.800  -6.788  -7.359  0.00  0.00     0.218 C 
ATOM     26  O   UNL d   1       0.595  -6.992  -7.455  0.00  0.00    -0.274 OA
ATOM     27  C   UNL d   1       2.766  -7.549  -8.236  0.00  0.00     0.117 C 
ATOM     28  H   UNL d   1       3.434  -5.851  -6.547  0.00  0.00     0.169 HD
ENDBRANCH  21  24
ENDBRANCH   3  18
TORSDOF 5
