REMARK  5 active torsions:
REMARK  status: ('A' for Active; 'I' for Inactive)
REMARK    1  A    between atoms: C_7  and  C_1 
REMARK    2  A    between atoms: C_6  and  C_2 
REMARK    3  A    between atoms: N_13  and  C_3 
REMARK    4  A    between atoms: O_14  and  C_7 
REMARK    5  A    between atoms: C_15  and  O_14 
ROOT
ATOM      1  C   UNL d   1       0.089   1.556   0.007  0.00  0.00     0.084 A 
ATOM      2  C   UNL d   1      -1.333   1.268   0.002  0.00  0.00     0.007 A 
ATOM      3  C   UNL d   1       0.836   0.387   0.008  0.00  0.00     0.085 A 
ATOM      4  C   UNL d   1      -1.580  -0.087   0.076  0.00  0.00     0.065 A 
ATOM      5  S   UNL d   1      -0.150  -1.010   0.029  0.00  0.00    -0.083 SA
ENDROOT
BRANCH   1   6
ATOM      6  C   UNL d   1       0.678   2.888   0.118  0.00  0.00     0.297 C 
ATOM      7  O   UNL d   1       0.139   3.811   0.721  0.00  0.00    -0.259 OA
BRANCH   6   8
ATOM      8  O   UNL d   1       1.881   3.020  -0.522  0.00  0.00    -0.318 OA
BRANCH   8   9
ATOM      9  C   UNL d   1       2.438   4.344  -0.481  0.00  0.00     0.174 C 
ATOM     10  C   UNL d   1       3.125   4.597   0.849  0.00  0.00     0.034 C 
ENDBRANCH   8   9
ENDBRANCH   6   8
ENDBRANCH   1   6
BRANCH   2  11
ATOM     11  C   UNL d   1      -2.462   2.271  -0.054  0.00  0.00     0.016 A 
ATOM     12  S   UNL d   1      -4.014   2.008   0.622  0.00  0.00    -0.101 SA
ATOM     13  C   UNL d   1      -4.527   3.594   0.240  0.00  0.00     0.050 A 
ATOM     14  C   UNL d   1      -3.575   4.281  -0.478  0.00  0.00     0.008 A 
ATOM     15  C   UNL d   1      -2.392   3.508  -0.666  0.00  0.00     0.020 A 
ENDBRANCH   2  11
BRANCH   3  16
ATOM     16  N   UNL d   1       2.179   0.241   0.042  0.00  0.00    -0.393 N 
ATOM     17  H   UNL d   1       2.804   1.024  -0.131  0.00  0.00     0.156 HD
ATOM     18  H   UNL d   1       2.597  -0.678  -0.057  0.00  0.00     0.156 HD
ENDBRANCH   3  16
TORSDOF 5
