REMARK  4 active torsions:
REMARK  status: ('A' for Active; 'I' for Inactive)
REMARK    1  A    between atoms: N_2  and  C_1 
REMARK    2  A    between atoms: C_3  and  N_2 
REMARK    3  A    between atoms: C_4  and  C_13 
REMARK    4  A    between atoms: C_13  and  N_9 
ROOT
ATOM      1  C   UNL d   1       1.186   0.075  -0.254  0.00  0.00     0.168 C 
ATOM      2  S   UNL d   1       0.265  -1.209  -0.801  0.00  0.00    -0.041 SA
ATOM      3  N   UNL d   1       2.469  -0.187   0.120  0.00  0.00    -0.361 N 
ATOM      4  H   UNL d   1       2.734  -1.157  -0.003  0.00  0.00     0.162 HD
ENDROOT
BRANCH   3   5
ATOM      5  C   UNL d   1       3.356   0.633   0.921  0.00  0.00     0.187 C 
BRANCH   5   6
ATOM      6  C   UNL d   1       4.036   1.647   0.081  0.00  0.00     0.070 A 
ATOM      7  O   UNL d   1       3.498   2.904   0.095  0.00  0.00    -0.325 OA
ATOM      8  C   UNL d   1       4.290   3.682  -0.687  0.00  0.00     0.142 A 
ATOM      9  C   UNL d   1       5.324   2.944  -1.212  0.00  0.00     0.027 A 
ATOM     10  C   UNL d   1       5.155   1.624  -0.724  0.00  0.00     0.036 A 
ENDBRANCH   5   6
ENDBRANCH   3   5
BRANCH   1  11
ATOM     11  N   UNL d   1       0.769   1.373  -0.133  0.00  0.00    -0.363 N 
ATOM     12  H   UNL d   1       1.491   2.065   0.042  0.00  0.00     0.162 HD
BRANCH  11  13
ATOM     13  C   UNL d   1      -0.491   1.886  -0.583  0.00  0.00     0.084 A 
ATOM     14  C   UNL d   1      -0.786   2.034  -2.052  0.00  0.00     0.027 A 
ATOM     15  C   UNL d   1      -0.560   3.254  -1.211  0.00  0.00     0.027 A 
ENDBRANCH  11  13
ENDBRANCH   1  11
TORSDOF 4
