REMARK  4 active torsions:
REMARK  status: ('A' for Active; 'I' for Inactive)
REMARK    1  A    between atoms: C_7  and  N_1 
REMARK    2  A    between atoms: C_9  and  C_3 
REMARK    3  A    between atoms: C_10  and  C_4 
REMARK    4  A    between atoms: O_13  and  C_6 
ROOT
ATOM      1  N   UNL d   1      -0.663   1.230   0.004  0.00  0.00    -0.262 N 
ATOM      2  C   UNL d   1      -1.431   0.061   0.025  0.00  0.00     0.268 A 
ATOM      3  C   UNL d   1      -0.671  -1.230   0.035  0.00  0.00     0.076 A 
ATOM      4  C   UNL d   1       0.734   1.217   0.019  0.00  0.00     0.063 A 
ATOM      5  C   UNL d   1       1.425   0.050   0.027  0.00  0.00     0.000 A 
ATOM      6  C   UNL d   1       0.674  -1.206   0.019  0.00  0.00     0.090 A 
ATOM      7  O   UNL d   1      -2.661   0.038   0.005  0.00  0.00    -0.267 OA
ATOM      8  C   UNL d   1       2.934  -0.029   0.064  0.00  0.00     0.054 C 
ENDROOT
BRANCH   1   9
ATOM      9  C   UNL d   1      -1.409   2.439  -0.011  0.00  0.00     0.114 A 
ATOM     10  N   UNL d   1      -1.676   3.056   1.164  0.00  0.00    -0.352 N 
ATOM     11  C   UNL d   1      -2.424   4.180   1.105  0.00  0.00     0.089 A 
ATOM     12  HN  UNL d   1      -1.330   2.691   2.051  1.00  0.00     0.166 HD
ATOM     13  C   UNL d   1      -2.891   4.742  -0.073  0.00  0.00     0.017 A 
ATOM     14  C   UNL d   1      -2.581   4.110  -1.271  0.00  0.00     0.005 A 
ATOM     15  C   UNL d   1      -1.837   2.935  -1.242  0.00  0.00     0.049 A 
ENDBRANCH   1   9
BRANCH   4  16
ATOM     16  C   UNL d   1       1.460   2.509   0.011  0.00  0.00    -0.008 A 
ATOM     17  C   UNL d   1       1.869   3.091  -1.198  0.00  0.00     0.014 A 
ATOM     18  C   UNL d   1       2.608   4.277  -1.193  0.00  0.00     0.001 A 
ATOM     19  C   UNL d   1       2.946   4.884   0.016  0.00  0.00     0.000 A 
ATOM     20  C   UNL d   1       2.539   4.314   1.222  0.00  0.00     0.001 A 
ATOM     21  C   UNL d   1       1.796   3.132   1.220  0.00  0.00     0.014 A 
ENDBRANCH   4  16
BRANCH   3  22
ATOM     22  C   UNL d   1      -1.399  -2.513   0.026  0.00  0.00    -0.018 A 
ATOM     23  C   UNL d   1      -1.717  -3.158   1.229  0.00  0.00     0.012 A 
ATOM     24  C   UNL d   1      -2.374  -4.390   1.216  0.00  0.00     0.001 A 
ATOM     25  C   UNL d   1      -2.718  -4.986   0.003  0.00  0.00     0.000 A 
ATOM     26  C   UNL d   1      -2.409  -4.350  -1.198  0.00  0.00     0.001 A 
ATOM     27  C   UNL d   1      -1.752  -3.118  -1.188  0.00  0.00     0.012 A 
ENDBRANCH   3  22
BRANCH   6  28
ATOM     28  O   UNL d   1       1.384  -2.397  -0.011  0.00  0.00    -0.359 OA
ATOM     29  H   UNL d   1       2.325  -2.246  -0.172  0.00  0.00     0.217 HD
ENDBRANCH   6  28
TORSDOF 4
