REMARK  4 active torsions:
REMARK  status: ('A' for Active; 'I' for Inactive)
REMARK    1  A    between atoms: C_7  and  N_1 
REMARK    2  A    between atoms: S_10  and  C_2 
REMARK    3  A    between atoms: C_16  and  S_10 
REMARK    4  A    between atoms: C_11  and  C_16 
ROOT
ATOM      1  N   UNL d   1       1.052  -0.713  -0.055  0.00  0.00    -0.241 N 
ATOM      2  C   UNL d   1       1.100   0.635   0.152  0.00  0.00     0.170 A 
ATOM      3  C   UNL d   1      -0.275  -0.979  -0.331  0.00  0.00     0.347 A 
ATOM      4  N   UNL d   1      -0.048   1.242   0.057  0.00  0.00    -0.275 N 
ATOM      5  HN  UNL d   1      -0.245   2.235   0.184  1.00  0.00     0.189 HD
ATOM      6  N   UNL d   1      -0.926   0.246  -0.251  0.00  0.00    -0.249 N 
ATOM      7  O   UNL d   1      -0.825  -2.049  -0.546  0.00  0.00    -0.245 OA
ATOM      8  H   UNL d   1      -1.928   0.392  -0.318  0.00  0.00     0.192 HD
ENDROOT
BRANCH   1   9
ATOM      9  C   UNL d   1       2.027  -1.715   0.112  0.00  0.00     0.048 A 
ATOM     10  C   UNL d   1       2.917  -1.694   1.193  0.00  0.00     0.054 A 
ATOM     11  C   UNL d   1       3.880  -2.693   1.325  0.00  0.00     0.036 A 
ATOM     12 CL   UNL d   1       4.949  -2.669   2.672  0.00  0.00    -0.084 Cl
ATOM     13  C   UNL d   1       3.980  -3.714   0.382  0.00  0.00     0.024 A 
ATOM     14  C   UNL d   1       3.093  -3.748  -0.692  0.00  0.00     0.004 A 
ATOM     15  C   UNL d   1       2.110  -2.764  -0.815  0.00  0.00     0.030 A 
ENDBRANCH   1   9
BRANCH   2  16
ATOM     16  S   UNL d   1       2.553   1.536   0.445  0.00  0.00    -0.088 SA
BRANCH  16  17
ATOM     17  C   UNL d   1       3.591   0.996  -0.939  0.00  0.00     0.108 C 
BRANCH  17  18
ATOM     18  C   UNL d   1       4.756   1.926  -1.099  0.00  0.00    -0.026 C 
ATOM     19  C   UNL d   1       5.186   2.398  -2.278  0.00  0.00     0.007 C 
ENDBRANCH  17  18
ENDBRANCH  16  17
ENDBRANCH   2  16
TORSDOF 4
