REMARK  3 active torsions:
REMARK  status: ('A' for Active; 'I' for Inactive)
REMARK    1  A    between atoms: C_11  and  C_3 
REMARK    2  A    between atoms: N_6  and  C_10 
REMARK    3  A    between atoms: C_9  and  C_8 
ROOT
ATOM      1  N   UNL d   1       1.558  -0.082  -0.040  0.00  0.00    -0.331 N 
ATOM      2  HN  UNL d   1       2.507  -0.451  -0.110  1.00  0.00     0.168 HD
ATOM      3  C   UNL d   1       1.174   1.152   0.028  0.00  0.00     0.162 A 
ATOM      4  C   UNL d   1       0.369  -0.772   0.005  0.00  0.00     0.111 A 
ATOM      5  O   UNL d   1      -0.153   1.395   0.112  0.00  0.00    -0.256 OA
ATOM      6  C   UNL d   1      -0.776   0.184   0.095  0.00  0.00     0.316 A 
ATOM      7  C   UNL d   1       0.283  -2.108  -0.022  0.00  0.00     0.048 C 
ATOM      8  O   UNL d   1      -1.972  -0.005   0.133  0.00  0.00    -0.257 OA
ENDROOT
BRANCH   7   9
ATOM      9  C   UNL d   1      -0.973  -2.870   0.035  0.00  0.00    -0.023 A 
ATOM     10  C   UNL d   1      -1.557  -3.284   1.264  0.00  0.00    -0.016 A 
ATOM     11  C   UNL d   1      -2.795  -3.974   1.226  0.00  0.00    -0.025 A 
ATOM     12  C   UNL d   1      -0.974  -3.048   2.531  0.00  0.00     0.013 A 
ATOM     13  C   UNL d   1      -3.403  -4.389   2.423  0.00  0.00     0.012 A 
ATOM     14  C   UNL d   1      -3.409  -4.242  -0.007  0.00  0.00     0.012 A 
ATOM     15  C   UNL d   1      -2.804  -4.143   3.657  0.00  0.00     0.001 A 
ATOM     16  C   UNL d   1      -1.588  -3.474   3.711  0.00  0.00     0.001 A 
ATOM     17  C   UNL d   1      -2.815  -3.848  -1.204  0.00  0.00     0.002 A 
ATOM     18  C   UNL d   1      -1.603  -3.166  -1.184  0.00  0.00     0.012 A 
ENDBRANCH   7   9
BRANCH   3  19
ATOM     19  C   UNL d   1       2.021   2.357   0.012  0.00  0.00     0.018 A 
ATOM     20  C   UNL d   1       3.404   2.226  -0.166  0.00  0.00     0.052 A 
ATOM     21  C   UNL d   1       4.204   3.378  -0.191  0.00  0.00     0.103 A 
ATOM     22  C   UNL d   1       3.636   4.651  -0.037  0.00  0.00     0.036 A 
ATOM     23  C   UNL d   1       2.260   4.772   0.145  0.00  0.00     0.003 A 
ATOM     24  C   UNL d   1       1.455   3.631   0.170  0.00  0.00     0.016 A 
BRANCH  21  25
ATOM     25  N   UNL d   1       5.655   3.256  -0.383  0.00  0.00    -0.116 N 
ATOM     26  O   UNL d   1       6.126   2.118  -0.509  0.00  0.00    -0.532 OA
ATOM     27  O   UNL d   1       6.323   4.300  -0.407  0.00  0.00    -0.532 OA
ENDBRANCH  21  25
ENDBRANCH   3  19
TORSDOF 3
