REMARK  5 active torsions:
REMARK  status: ('A' for Active; 'I' for Inactive)
REMARK    1  A    between atoms: C_6  and  C_1 
REMARK    2  A    between atoms: N_9  and  C_3 
REMARK    3  A    between atoms: C_7  and  C_4 
REMARK       I    between atoms: N_12  and  C_6 
REMARK    4  A    between atoms: C_16  and  C_13 
REMARK    5  A    between atoms: C_17  and  C_16 
ROOT
ATOM      1  C   UNL d   1      -0.750   0.669  -0.774  0.00  0.00     0.099 A 
ATOM      2  S   UNL d   1       0.164  -0.556  -1.560  0.00  0.00    -0.082 SA
ATOM      3  C   UNL d   1      -0.568   0.603   0.593  0.00  0.00     0.050 A 
ATOM      4  C   UNL d   1       0.759  -1.193  -0.086  0.00  0.00     0.018 A 
ATOM      5  C   UNL d   1       0.292  -0.453   0.987  0.00  0.00     0.050 A 
ENDROOT
BRANCH   4   6
ATOM      6  C   UNL d   1       1.645  -2.368  -0.064  0.00  0.00    -0.019 A 
ATOM      7  C   UNL d   1       2.623  -2.484   0.935  0.00  0.00     0.013 A 
ATOM      8  C   UNL d   1       3.422  -3.626   1.029  0.00  0.00     0.008 A 
ATOM      9  C   UNL d   1       3.266  -4.681   0.124  0.00  0.00    -0.058 A 
ATOM     10  C   UNL d   1       2.308  -4.562  -0.888  0.00  0.00     0.008 A 
ATOM     11  C   UNL d   1       1.509  -3.418  -0.983  0.00  0.00     0.013 A 
BRANCH   9  12
ATOM     12  C   UNL d   1       4.083  -5.941   0.278  0.00  0.00     0.042 C 
BRANCH  12  13
ATOM     13  C   UNL d   1       4.937  -6.316  -0.948  0.00  0.00    -0.019 C 
ATOM     14  C   UNL d   1       5.995  -5.257  -1.262  0.00  0.00     0.010 C 
ATOM     15  C   UNL d   1       5.616  -7.667  -0.705  0.00  0.00     0.010 C 
ENDBRANCH  12  13
ENDBRANCH   9  12
ENDBRANCH   4   6
BRANCH   1  16
ATOM     16  C   UNL d   1      -1.570   1.598  -1.539  0.00  0.00     0.258 C 
ATOM     17  O   UNL d   1      -2.217   2.525  -1.053  0.00  0.00    -0.267 OA
ATOM     18  N   UNL d   1      -1.619   1.400  -2.895  0.00  0.00    -0.365 N 
ATOM     19  H   UNL d   1      -1.120   0.640  -3.335  0.00  0.00     0.159 HD
ATOM     20  H   UNL d   1      -2.188   2.021  -3.453  0.00  0.00     0.159 HD
ENDBRANCH   1  16
BRANCH   3  21
ATOM     21  N   UNL d   1      -1.137   1.429   1.491  0.00  0.00    -0.398 N 
ATOM     22  H   UNL d   1      -1.772   2.176   1.202  0.00  0.00     0.156 HD
ATOM     23  H   UNL d   1      -1.001   1.352   2.492  0.00  0.00     0.156 HD
ENDBRANCH   3  21
TORSDOF 5
