REMARK  11 active torsions:
REMARK  status: ('A' for Active; 'I' for Inactive)
REMARK    1  A    between atoms: C_6  and  S_1 
REMARK    2  A    between atoms: N_7  and  S_1 
REMARK    3  A    between atoms: N_2  and  O_12 
REMARK    4  A    between atoms: C_8  and  C_4 
REMARK    5  A    between atoms: N_26  and  C_4 
REMARK    6  A    between atoms: C_5  and  C_16 
REMARK    7  A    between atoms: O_12  and  C_5 
REMARK    8  A    between atoms: C_27  and  N_7 
REMARK    9  A    between atoms: C_28  and  N_7 
REMARK   10  A    between atoms: C_29  and  C_27 
REMARK   11  A    between atoms: C_30  and  C_28 
ROOT
ATOM      1  C   UNL d   1      -0.765  -1.289  -3.848  0.00  0.00     0.315 C 
ATOM      2  O   UNL d   1      -0.906  -0.750  -4.938  0.00  0.00    -0.257 OA
ENDROOT
BRANCH   1   3
ATOM      3  C   UNL d   1      -0.342  -2.708  -3.698  0.00  0.00     0.041 A 
ATOM      4  C   UNL d   1      -0.524  -3.554  -4.804  0.00  0.00     0.019 A 
ATOM      5  C   UNL d   1      -0.167  -4.902  -4.731  0.00  0.00     0.026 A 
ATOM      6  C   UNL d   1       0.358  -5.423  -3.545  0.00  0.00     0.074 A 
ATOM      7  C   UNL d   1       0.551  -4.583  -2.441  0.00  0.00     0.026 A 
ATOM      8  C   UNL d   1       0.203  -3.226  -2.517  0.00  0.00     0.019 A 
BRANCH   6   9
ATOM      9  S   UNL d   1       0.939  -7.115  -3.495  0.00  0.00     0.243 S 
ATOM     10  O   UNL d   1       1.595  -7.290  -2.215  0.00  0.00    -0.206 OA
ATOM     11  O   UNL d   1       1.672  -7.338  -4.724  0.00  0.00    -0.206 OA
BRANCH   9  12
ATOM     12  N   UNL d   1      -0.519  -8.064  -3.541  0.00  0.00    -0.206 NA
BRANCH  12  13
ATOM     13  C   UNL d   1      -0.858  -8.484  -4.953  0.00  0.00     0.107 C 
BRANCH  13  14
ATOM     14  C   UNL d   1      -2.211  -9.172  -5.139  0.00  0.00     0.011 C 
ATOM     15  C   UNL d   1      -3.393  -8.337  -4.671  0.00  0.00     0.006 C 
ENDBRANCH  13  14
ENDBRANCH  12  13
BRANCH  12  16
ATOM     16  C   UNL d   1      -0.560  -9.205  -2.570  0.00  0.00     0.107 C 
BRANCH  16  17
ATOM     17  C   UNL d   1      -0.739  -8.784  -1.108  0.00  0.00     0.011 C 
ATOM     18  C   UNL d   1      -1.921  -7.860  -0.866  0.00  0.00     0.006 C 
ENDBRANCH  16  17
ENDBRANCH  12  16
ENDBRANCH   9  12
ENDBRANCH   6   9
ENDBRANCH   1   3
BRANCH   1  19
ATOM     19  O   UNL d   1      -1.063  -0.751  -2.629  0.00  0.00    -0.193 OA
BRANCH  19  20
ATOM     20  N   UNL d   1      -2.379  -0.249  -2.691  0.00  0.00    -0.246 N 
ATOM     21  C   UNL d   1      -2.634   0.590  -1.732  0.00  0.00     0.109 C 
ATOM     22  HN  UNL d   1      -3.055  -0.514  -3.407  1.00  0.00     0.196 HD
BRANCH  21  23
ATOM     23  C   UNL d   1      -4.050   1.050  -1.583  0.00  0.00     0.006 A 
ATOM     24  C   UNL d   1      -4.338   2.274  -0.966  0.00  0.00     0.054 A 
ATOM     25  C   UNL d   1      -5.662   2.560  -0.714  0.00  0.00     0.105 A 
ATOM     26  O   UNL d   1      -6.126   3.675  -0.087  0.00  0.00    -0.323 OA
ATOM     27  C   UNL d   1      -6.676   1.695  -1.059  0.00  0.00     0.105 A 
ATOM     28  C   UNL d   1      -7.548   3.430  -0.111  0.00  0.00     0.352 A 
ATOM     29  O   UNL d   1      -7.899   2.153  -0.683  0.00  0.00    -0.323 OA
ATOM     30  C   UNL d   1      -6.427   0.502  -1.701  0.00  0.00     0.040 A 
ATOM     31  C   UNL d   1      -5.095   0.180  -1.972  0.00  0.00     0.018 A 
ENDBRANCH  21  23
BRANCH  21  32
ATOM     32  N   UNL d   1      -1.707   1.035  -0.822  0.00  0.00    -0.286 NA
ATOM     33  H   UNL d   1      -0.852   0.488  -0.817  0.00  0.00     0.125 HD
ATOM     34  H   UNL d   1      -2.053   1.249   0.105  0.00  0.00     0.125 HD
ENDBRANCH  21  32
ENDBRANCH  19  20
ENDBRANCH   1  19
TORSDOF 11
