REMARK  7 active torsions:
REMARK  status: ('A' for Active; 'I' for Inactive)
REMARK    1  A    between atoms: N_7  and  C_1 
REMARK    2  A    between atoms: N_10  and  C_1 
REMARK    3  A    between atoms: O_11  and  C_2 
REMARK    4  A    between atoms: N_3  and  N_7 
REMARK    5  A    between atoms: C_9  and  N_3 
REMARK    6  A    between atoms: C_5  and  C_9 
REMARK    7  A    between atoms: O_12  and  C_8 
ROOT
ATOM      1  C   UNL d   1      -3.949   0.701  -1.617  0.00  0.00     0.110 A 
ATOM      2  C   UNL d   1      -3.229  -0.233  -2.394  0.00  0.00     0.017 A 
ATOM      3  C   UNL d   1      -5.345   0.745  -1.688  0.00  0.00     0.102 A 
ATOM      4  C   UNL d   1      -3.901  -1.122  -3.238  0.00  0.00     0.016 A 
ATOM      5  C   UNL d   1      -5.292  -1.081  -3.307  0.00  0.00     0.004 A 
ATOM      6  C   UNL d   1      -6.002  -0.155  -2.537  0.00  0.00     0.040 A 
ENDROOT
BRANCH   2   7
ATOM      7  C   UNL d   1      -1.748  -0.312  -2.344  0.00  0.00     0.121 C 
BRANCH   7   8
ATOM      8  N   UNL d   1      -1.082   0.483  -1.564  0.00  0.00    -0.309 N 
ATOM      9  HN  UNL d   1      -1.546   1.175  -0.976  1.00  0.00     0.186 HD
BRANCH   8  10
ATOM     10  N   UNL d   1       0.272   0.341  -1.576  0.00  0.00    -0.277 N 
ATOM     11  H   UNL d   1       0.717  -0.356  -2.165  0.00  0.00     0.189 HD
BRANCH  10  12
ATOM     12  C   UNL d   1       1.074   1.121  -0.789  0.00  0.00     0.184 C 
ATOM     13  S   UNL d   1       2.724   0.961  -0.779  0.00  0.00    -0.040 SA
BRANCH  12  14
ATOM     14  N   UNL d   1       0.445   2.034  -0.011  0.00  0.00    -0.375 N 
ATOM     15  H   UNL d   1       0.968   2.659   0.586  0.00  0.00     0.158 HD
ATOM     16  H   UNL d   1      -0.556   2.130  -0.068  0.00  0.00     0.158 HD
ENDBRANCH  12  14
ENDBRANCH  10  12
ENDBRANCH   8  10
ENDBRANCH   7   8
ENDBRANCH   2   7
BRANCH   1  17
ATOM     17  O   UNL d   1      -3.280   1.564  -0.785  0.00  0.00    -0.357 OA
ATOM     18  H   UNL d   1      -2.324   1.362  -0.868  0.00  0.00     0.217 HD
ENDBRANCH   1  17
BRANCH   3  19
ATOM     19  O   UNL d   1      -6.205   1.573  -1.017  0.00  0.00    -0.353 OA
ATOM     20  C   UNL d   1      -5.658   2.558  -0.152  0.00  0.00     0.210 C 
ENDBRANCH   3  19
TORSDOF 7
