REMARK  2 active torsions:
REMARK  status: ('A' for Active; 'I' for Inactive)
REMARK       I    between atoms: N_2  and  C_1 
REMARK    1  A    between atoms: C_4  and  C_1 
REMARK    2  A    between atoms: C_5  and  N_2 
ROOT
ATOM      1  C   UNL d   1       1.063  -0.132   0.048  0.00  0.00     0.273 C 
ATOM      2  N   UNL d   1       0.439  -0.521  -1.111  0.00  0.00    -0.156 N 
ATOM      3  HN  UNL d   1      -0.508  -0.203  -1.317  1.00  0.00     0.187 HD
ATOM      4  O   UNL d   1       2.167  -0.519   0.434  0.00  0.00    -0.267 OA
ENDROOT
BRANCH   1   5
ATOM      5  C   UNL d   1       0.286   0.758   0.944  0.00  0.00     0.076 A 
ATOM      6  C   UNL d   1       0.920   1.854   1.555  0.00  0.00     0.051 A 
ATOM      7 CL   UNL d   1       2.536   2.354   1.178  0.00  0.00    -0.083 Cl
ATOM      8  C   UNL d   1       0.239   2.635   2.498  0.00  0.00     0.025 A 
ATOM      9  C   UNL d   1      -1.082   2.349   2.827  0.00  0.00     0.003 A 
ATOM     10  C   UNL d   1      -1.727   1.281   2.209  0.00  0.00     0.025 A 
ATOM     11  C   UNL d   1      -1.050   0.478   1.280  0.00  0.00     0.051 A 
ATOM     12 CL   UNL d   1      -1.941  -0.876   0.669  0.00  0.00    -0.083 Cl
ENDBRANCH   1   5
BRANCH   2  13
ATOM     13  C   UNL d   1       1.062  -1.296  -1.939  0.00  0.00     0.676 C 
ATOM     14  N   UNL d   1       0.368  -1.805  -2.999  0.00  0.00    -0.226 N 
ATOM     15  C   UNL d   1       0.631  -3.143  -3.488  0.00  0.00     0.139 C 
ATOM     16  H   UNL d   1      -0.618  -1.573  -2.933  0.00  0.00     0.177 HD
ATOM     17  C   UNL d   1       2.126  -3.339  -3.662  0.00  0.00     0.040 C 
ATOM     18  C   UNL d   1       2.817  -2.981  -2.360  0.00  0.00     0.139 C 
ATOM     19  N   UNL d   1       2.366  -1.691  -1.892  0.00  0.00    -0.226 N 
ATOM     20  H   UNL d   1       2.834  -1.375  -1.039  0.00  0.00     0.177 HD
ENDBRANCH   2  13
TORSDOF 2
