REMARK  5 active torsions:
REMARK  status: ('A' for Active; 'I' for Inactive)
REMARK    1  A    between atoms: C_2  and  S_1 
REMARK    2  A    between atoms: C_3  and  S_1 
REMARK    3  A    between atoms: C_9  and  C_3 
REMARK    4  A    between atoms: S_8  and  C_9 
REMARK    5  A    between atoms: C_14  and  S_8 
ROOT
ATOM      1  S   UNL d   1       1.110   0.081   0.086  0.00  0.00     0.176 S 
ATOM      2  O   UNL d   1       2.515  -0.017  -0.255  0.00  0.00    -0.223 OA
ATOM      3  O   UNL d   1       0.671  -0.052   1.463  0.00  0.00    -0.223 OA
ENDROOT
BRANCH   1   4
ATOM      4  C   UNL d   1       0.251  -1.158  -0.863  0.00  0.00     0.059 A 
ATOM      5  C   UNL d   1       0.800  -1.604  -2.070  0.00  0.00     0.025 A 
ATOM      6  C   UNL d   1       0.164  -2.627  -2.779  0.00  0.00     0.025 A 
ATOM      7  C   UNL d   1      -1.004  -3.200  -2.276  0.00  0.00     0.034 A 
ATOM      8  C   UNL d   1      -1.548  -2.758  -1.069  0.00  0.00     0.025 A 
ATOM      9 CL   UNL d   1      -1.771  -4.475  -3.140  0.00  0.00    -0.084 Cl
ATOM     10  C   UNL d   1      -0.917  -1.735  -0.354  0.00  0.00     0.025 A 
ENDBRANCH   1   4
BRANCH   1  11
ATOM     11  C   UNL d   1       0.486   1.620  -0.549  0.00  0.00     0.156 C 
BRANCH  11  12
ATOM     12  C   UNL d   1       1.130   2.783   0.190  0.00  0.00     0.095 C 
BRANCH  12  13
ATOM     13  S   UNL d   1       0.441   4.349  -0.451  0.00  0.00    -0.129 SA
BRANCH  13  14
ATOM     14  C   UNL d   1       1.382   5.590   0.430  0.00  0.00     0.000 A 
ATOM     15  C   UNL d   1       1.611   6.809  -0.223  0.00  0.00     0.018 A 
ATOM     16  C   UNL d   1       2.291   7.849   0.416  0.00  0.00     0.001 A 
ATOM     17  C   UNL d   1       2.744   7.684   1.722  0.00  0.00     0.000 A 
ATOM     18  C   UNL d   1       2.518   6.480   2.385  0.00  0.00     0.001 A 
ATOM     19  C   UNL d   1       1.838   5.438   1.744  0.00  0.00     0.018 A 
ENDBRANCH  13  14
ENDBRANCH  12  13
ENDBRANCH  11  12
ENDBRANCH   1  11
TORSDOF 5
