REMARK  5 active torsions:
REMARK  status: ('A' for Active; 'I' for Inactive)
REMARK    1  A    between atoms: C_10  and  C_2 
REMARK       I    between atoms: C_3  and  N_4 
REMARK    2  A    between atoms: C_11  and  C_3 
REMARK    3  A    between atoms: N_4  and  C_10 
REMARK    4  A    between atoms: S_8  and  C_11 
REMARK    5  A    between atoms: C_12  and  S_8 
ROOT
ATOM      1  C   UNL d   1       0.935   5.003  -0.062  0.00  0.00     0.227 C 
ATOM      2  N   UNL d   1       0.130   5.182  -1.167  0.00  0.00    -0.356 N 
ATOM      3  O   UNL d   1       0.666   4.206   0.834  0.00  0.00    -0.273 OA
ATOM      4  H   UNL d   1       0.291   5.994  -1.750  0.00  0.00     0.162 HD
ENDROOT
BRANCH   1   5
ATOM      5  C   UNL d   1       2.219   5.818  -0.059  0.00  0.00     0.182 C 
BRANCH   5   6
ATOM      6  S   UNL d   1       1.821   7.599  -0.027  0.00  0.00    -0.121 SA
BRANCH   6   7
ATOM      7  C   UNL d   1       3.436   8.361  -0.108  0.00  0.00     0.001 A 
ATOM      8  C   UNL d   1       3.528   9.605  -0.752  0.00  0.00     0.020 A 
ATOM      9  C   UNL d   1       4.744  10.291  -0.820  0.00  0.00     0.025 A 
ATOM     10  C   UNL d   1       5.880   9.740  -0.235  0.00  0.00     0.034 A 
ATOM     11  C   UNL d   1       5.806   8.510   0.416  0.00  0.00     0.025 A 
ATOM     12 CL   UNL d   1       7.374  10.588  -0.300  0.00  0.00    -0.084 Cl
ATOM     13  C   UNL d   1       4.587   7.825   0.482  0.00  0.00     0.020 A 
ENDBRANCH   6   7
ENDBRANCH   5   6
ENDBRANCH   1   5
BRANCH   2  14
ATOM     14  C   UNL d   1      -1.155   4.525  -1.233  0.00  0.00     0.168 C 
BRANCH  14  15
ATOM     15  C   UNL d   1      -1.835   4.891  -2.512  0.00  0.00     0.000 A 
ATOM     16  S   UNL d   1      -1.550   3.980  -3.937  0.00  0.00    -0.105 SA
ATOM     17  C   UNL d   1      -2.648   4.929  -4.841  0.00  0.00     0.050 A 
ATOM     18  C   UNL d   1      -3.213   5.929  -4.082  0.00  0.00     0.008 A 
ATOM     19  C   UNL d   1      -2.741   5.910  -2.738  0.00  0.00     0.017 A 
ENDBRANCH  14  15
ENDBRANCH   2  14
TORSDOF 5
