REMARK  5 active torsions:
REMARK  status: ('A' for Active; 'I' for Inactive)
REMARK    1  A    between atoms: S_9  and  C_3 
REMARK    2  A    between atoms: N_4  and  C_10 
REMARK    3  A    between atoms: C_14  and  C_5 
REMARK    4  A    between atoms: C_13  and  S_9 
REMARK    5  A    between atoms: C_18  and  C_19 
ROOT
ATOM      1  N   UNL d   1       0.705   0.176   0.814  0.00  0.00    -0.320 N 
ATOM      2  HN  UNL d   1       1.284   0.281   1.647  1.00  0.00     0.169 HD
ATOM      3  C   UNL d   1      -0.217   1.057   0.308  0.00  0.00     0.167 A 
ATOM      4  C   UNL d   1       0.670  -0.840  -0.028  0.00  0.00     0.132 A 
ATOM      5  N   UNL d   1      -0.844   0.639  -0.792  0.00  0.00    -0.278 N 
ATOM      6  HN  UNL d   1      -1.573   1.102  -1.334  1.00  0.00     0.189 HD
ATOM      7  N   UNL d   1      -0.261  -0.550  -0.995  0.00  0.00    -0.283 N 
ATOM      8  H   UNL d   1      -0.547  -1.106  -1.789  0.00  0.00     0.188 HD
ENDROOT
BRANCH   3   9
ATOM      9  S   UNL d   1      -0.573   2.586   1.054  0.00  0.00    -0.035 SA
BRANCH   9  10
ATOM     10  C   UNL d   1      -1.858   2.162   2.207  0.00  0.00     0.077 A 
ATOM     11  N   UNL d   1      -2.804   3.117   2.407  0.00  0.00    -0.358 N 
ATOM     12  C   UNL d   1      -3.782   2.872   3.316  0.00  0.00     0.124 A 
ATOM     13  HN  UNL d   1      -2.779   3.995   1.888  1.00  0.00     0.166 HD
ATOM     14  C   UNL d   1      -3.854   1.700   4.049  0.00  0.00     0.118 A 
ATOM     15  C   UNL d   1      -2.883   0.721   3.846  0.00  0.00     0.040 A 
ATOM     16  C   UNL d   1      -1.869   0.961   2.917  0.00  0.00     0.040 A 
BRANCH  14  17
ATOM     17  N   UNL d   1      -4.919   1.513   5.023  0.00  0.00    -0.114 N 
ATOM     18  O   UNL d   1      -5.740   2.429   5.163  0.00  0.00    -0.532 OA
ATOM     19  O   UNL d   1      -4.936   0.449   5.657  0.00  0.00    -0.532 OA
ENDBRANCH  14  17
ENDBRANCH   9  10
ENDBRANCH   3   9
BRANCH   4  20
ATOM     20  C   UNL d   1       1.456  -2.076   0.029  0.00  0.00     0.009 A 
ATOM     21  C   UNL d   1       2.359  -2.287   1.077  0.00  0.00     0.016 A 
ATOM     22  C   UNL d   1       3.126  -3.462   1.147  0.00  0.00     0.009 A 
ATOM     23  C   UNL d   1       3.022  -4.466   0.167  0.00  0.00    -0.051 A 
ATOM     24  C   UNL d   1       2.106  -4.246  -0.872  0.00  0.00     0.009 A 
ATOM     25  C   UNL d   1       1.339  -3.075  -0.942  0.00  0.00     0.016 A 
BRANCH  23  26
ATOM     26  C   UNL d   1       3.902  -5.728   0.233  0.00  0.00    -0.024 C 
ATOM     27  C   UNL d   1       3.668  -6.702  -0.946  0.00  0.00     0.019 C 
ATOM     28  C   UNL d   1       5.391  -5.322   0.199  0.00  0.00     0.019 C 
ATOM     29  C   UNL d   1       3.622  -6.512   1.532  0.00  0.00     0.019 C 
ENDBRANCH  23  26
ENDBRANCH   4  20
TORSDOF 5
