REMARK  5 active torsions:
REMARK  status: ('A' for Active; 'I' for Inactive)
REMARK    1  A    between atoms: S_9  and  C_3 
REMARK    2  A    between atoms: O_14  and  C_4 
REMARK    3  A    between atoms: C_8  and  C_12 
REMARK    4  A    between atoms: C_11  and  C_8 
REMARK    5  A    between atoms: C_12  and  S_9 
ROOT
ATOM      1  N   UNL d   1      -0.394  -0.577  -0.426  0.00  0.00    -0.318 N 
ATOM      2  HN  UNL d   1      -0.724  -1.449  -0.841  1.00  0.00     0.170 HD
ATOM      3  C   UNL d   1      -1.227   0.332   0.101  0.00  0.00     0.146 A 
ATOM      4  C   UNL d   1       0.900  -0.255  -0.368  0.00  0.00     0.143 A 
ATOM      5  N   UNL d   1      -0.843   1.494   0.665  0.00  0.00    -0.341 N 
ATOM      6  HN  UNL d   1      -1.524   2.147   1.052  1.00  0.00     0.167 HD
ATOM      7  C   UNL d   1       1.415   0.888   0.176  0.00  0.00     0.080 A 
ATOM      8  C   UNL d   1       0.482   1.758   0.696  0.00  0.00     0.011 A 
ATOM      9  C   UNL d   1       0.902   3.046   1.332  0.00  0.00     0.068 C 
ENDROOT
BRANCH   3  10
ATOM     10  S   UNL d   1      -2.954  -0.074   0.095  0.00  0.00    -0.086 SA
BRANCH  10  11
ATOM     11  C   UNL d   1      -3.663   1.596   0.162  0.00  0.00     0.161 C 
BRANCH  11  12
ATOM     12  C   UNL d   1      -5.166   1.510  -0.038  0.00  0.00     0.144 C 
ATOM     13  O   UNL d   1      -5.626   1.434  -1.183  0.00  0.00    -0.296 OA
BRANCH  12  14
ATOM     14  C   UNL d   1      -6.109   1.603   1.184  0.00  0.00     0.010 C 
ATOM     15  C   UNL d   1      -6.364   3.088   1.476  0.00  0.00     0.022 C 
ATOM     16  C   UNL d   1      -7.445   0.922   0.830  0.00  0.00     0.022 C 
ATOM     17  C   UNL d   1      -5.548   0.919   2.437  0.00  0.00     0.022 C 
ENDBRANCH  12  14
ENDBRANCH  11  12
ENDBRANCH  10  11
ENDBRANCH   3  10
BRANCH   4  18
ATOM     18  O   UNL d   1       1.731  -1.184  -0.909  0.00  0.00    -0.346 OA
ATOM     19  H   UNL d   1       1.089  -1.855  -1.203  0.00  0.00     0.219 HD
ENDBRANCH   4  18
TORSDOF 5
