REMARK  4 active torsions:
REMARK  status: ('A' for Active; 'I' for Inactive)
REMARK    1  A    between atoms: C_2  and  C_1 
REMARK       I    between atoms: N_4  and  C_2 
REMARK    2  A    between atoms: C_11  and  C_3 
REMARK       I    between atoms: C_9  and  N_4 
REMARK    3  A    between atoms: S_16  and  C_8 
REMARK       I    between atoms: N_10  and  C_9 
REMARK    4  A    between atoms: C_12  and  N_10 
ROOT
ATOM      1  C   UNL d   1      -1.178  -0.145  -0.456  0.00  0.00     0.104 A 
ATOM      2  C   UNL d   1      -0.760   1.107  -0.041  0.00  0.00     0.127 A 
ATOM      3  N   UNL d   1       1.080  -0.171  -0.079  0.00  0.00    -0.253 N 
ATOM      4  HN  UNL d   1       2.049  -0.480  -0.012  1.00  0.00     0.195 HD
ATOM      5  O   UNL d   1       0.588   1.101   0.146  0.00  0.00    -0.235 OA
ATOM      6  C   UNL d   1       0.014  -0.910  -0.404  0.00  0.00     0.109 A 
ENDROOT
BRANCH   1   7
ATOM      7  C   UNL d   1      -2.526  -0.575  -0.755  0.00  0.00     0.265 C 
ATOM      8  N   UNL d   1      -3.412   0.261  -1.410  0.00  0.00    -0.275 N 
ATOM      9  C   UNL d   1      -3.127   1.116  -2.460  0.00  0.00     0.327 C 
ATOM     10  H   UNL d   1      -4.314  -0.182  -1.479  0.00  0.00     0.173 HD
ATOM     11  N   UNL d   1      -4.262   1.371  -3.217  0.00  0.00    -0.307 N 
ATOM     12  O   UNL d   1      -2.043   1.646  -2.653  0.00  0.00    -0.247 OA
ATOM     13  H   UNL d   1      -4.779   0.550  -3.511  0.00  0.00     0.170 HD
ATOM     14  O   UNL d   1      -2.940  -1.696  -0.451  0.00  0.00    -0.267 OA
BRANCH  11  15
ATOM     15  C   UNL d   1      -4.363   2.472  -4.105  0.00  0.00     0.058 A 
ATOM     16  C   UNL d   1      -5.016   2.321  -5.338  0.00  0.00     0.060 A 
ATOM     17 CL   UNL d   1      -5.646   0.786  -5.825  0.00  0.00    -0.082 Cl
ATOM     18  C   UNL d   1      -5.135   3.402  -6.214  0.00  0.00     0.026 A 
ATOM     19  C   UNL d   1      -4.639   4.653  -5.847  0.00  0.00     0.002 A 
ATOM     20  C   UNL d   1      -4.021   4.821  -4.609  0.00  0.00     0.002 A 
ATOM     21  C   UNL d   1      -3.875   3.733  -3.744  0.00  0.00     0.031 A 
ENDBRANCH  11  15
ENDBRANCH   1   7
BRANCH   2  22
ATOM     22  C   UNL d   1      -1.412   2.359   0.290  0.00  0.00     0.001 A 
ATOM     23  C   UNL d   1      -2.346   2.412   1.331  0.00  0.00     0.016 A 
ATOM     24  C   UNL d   1      -2.999   3.610   1.630  0.00  0.00     0.024 A 
ATOM     25  C   UNL d   1      -2.727   4.755   0.883  0.00  0.00     0.034 A 
ATOM     26  C   UNL d   1      -1.793   4.716  -0.151  0.00  0.00     0.024 A 
ATOM     27 CL   UNL d   1      -3.556   6.220   1.231  0.00  0.00    -0.084 Cl
ATOM     28  C   UNL d   1      -1.129   3.522  -0.438  0.00  0.00     0.016 A 
ENDBRANCH   2  22
BRANCH   6  29
ATOM     29  S   UNL d   1       0.167  -2.625  -0.728  0.00  0.00    -0.114 SA
ATOM     30  C   UNL d   1       1.728  -3.012   0.097  0.00  0.00     0.097 C 
ENDBRANCH   6  29
TORSDOF 4
