REMARK  3 active torsions:
REMARK  status: ('A' for Active; 'I' for Inactive)
REMARK    1  A    between atoms: C_2  and  C_1 
REMARK    2  A    between atoms: C_10  and  C_2 
REMARK    3  A    between atoms: C_9  and  C_3 
ROOT
ATOM      1  C   UNL d   1       1.415  -0.256   0.090  0.00  0.00     0.010 A 
ATOM      2  C   UNL d   1      -1.377   0.223  -0.100  0.00  0.00    -0.026 A 
ATOM      3  C   UNL d   1       0.525  -1.327   0.022  0.00  0.00     0.016 A 
ATOM      4  C   UNL d   1       0.924   1.051   0.053  0.00  0.00     0.016 A 
ATOM      5  C   UNL d   1      -0.852  -1.084  -0.082  0.00  0.00     0.013 A 
ATOM      6  C   UNL d   1      -0.454   1.283  -0.025  0.00  0.00     0.013 A 
ENDROOT
BRANCH   2   7
ATOM      7  C   UNL d   1      -2.836   0.472  -0.212  0.00  0.00    -0.026 A 
ATOM      8  C   UNL d   1      -3.340   1.604  -0.880  0.00  0.00     0.012 A 
ATOM      9  C   UNL d   1      -4.715   1.838  -0.996  0.00  0.00     0.001 A 
ATOM     10  C   UNL d   1      -5.623   0.934  -0.457  0.00  0.00     0.000 A 
ATOM     11  C   UNL d   1      -5.157  -0.195   0.208  0.00  0.00     0.001 A 
ATOM     12  C   UNL d   1      -3.782  -0.416   0.336  0.00  0.00     0.012 A 
ENDBRANCH   2   7
BRANCH   1  13
ATOM     13  C   UNL d   1       2.886  -0.454   0.202  0.00  0.00     0.159 C 
ATOM     14  O   UNL d   1       3.641   0.406  -0.247  0.00  0.00    -0.292 OA
BRANCH  13  15
ATOM     15  C   UNL d   1       3.391  -1.715   0.876  0.00  0.00     0.079 C 
ATOM     16  C   UNL d   1       4.747  -1.486   1.523  0.00  0.00     0.013 C 
ENDBRANCH  13  15
ENDBRANCH   1  13
TORSDOF 3
