REMARK  3 active torsions:
REMARK  status: ('A' for Active; 'I' for Inactive)
REMARK    1  A    between atoms: C_6  and  C_1 
REMARK       I    between atoms: N_9  and  C_6 
REMARK    2  A    between atoms: C_8  and  N_10 
REMARK    3  A    between atoms: N_10  and  N_9 
ROOT
ATOM      1  C   UNL d   1      -3.062  -0.887   0.035  0.00  0.00     0.288 C 
ATOM      2  N   UNL d   1      -3.914   0.201   0.059  0.00  0.00    -0.262 N 
ATOM      3  O   UNL d   1      -3.459  -2.054   0.005  0.00  0.00    -0.264 OA
ATOM      4  H   UNL d   1      -3.504   1.123  -0.048  0.00  0.00     0.190 HD
ENDROOT
BRANCH   1   5
ATOM      5  C   UNL d   1      -1.642  -0.518   0.039  0.00  0.00     0.119 A 
ATOM      6  N   UNL d   1      -1.228   0.767   0.039  0.00  0.00    -0.294 N 
ATOM      7  N   UNL d   1       0.119   0.678   0.031  0.00  0.00    -0.301 N 
ATOM      8  HN  UNL d   1      -1.802   1.611   0.044  1.00  0.00     0.187 HD
ATOM      9  C   UNL d   1       0.913   1.886   0.020  0.00  0.00     0.177 C 
ATOM     10  C   UNL d   1       0.586  -0.610   0.029  0.00  0.00     0.026 A 
ATOM     11  C   UNL d   1      -0.538  -1.406   0.038  0.00  0.00     0.063 A 
ATOM     12  C   UNL d   1       2.024  -0.969   0.013  0.00  0.00     0.070 C 
ENDBRANCH   1   5
BRANCH   2  13
ATOM     13  N   UNL d   1      -5.286  -0.011  -0.099  0.00  0.00    -0.274 N 
ATOM     14  H   UNL d   1      -5.586  -0.987  -0.089  0.00  0.00     0.189 HD
BRANCH  13  15
ATOM     15  C   UNL d   1      -6.120   0.907  -0.653  0.00  0.00     0.184 C 
ATOM     16  S   UNL d   1      -7.651   0.500  -1.151  0.00  0.00    -0.040 SA
ATOM     17  N   UNL d   1      -5.657   2.169  -0.809  0.00  0.00    -0.375 N 
ATOM     18  H   UNL d   1      -4.921   2.514  -0.213  0.00  0.00     0.158 HD
ATOM     19  H   UNL d   1      -6.329   2.858  -1.127  0.00  0.00     0.158 HD
ENDBRANCH  13  15
ENDBRANCH   2  13
TORSDOF 3
