REMARK  5 active torsions:
REMARK  status: ('A' for Active; 'I' for Inactive)
REMARK    1  A    between atoms: C_2  and  C_1 
REMARK    2  A    between atoms: C_4  and  C_2 
REMARK    3  A    between atoms: O_13  and  C_3 
REMARK    4  A    between atoms: O_14  and  C_5 
REMARK    5  A    between atoms: O_15  and  C_6 
ROOT
ATOM      1  C   UNL d   1       3.704   0.589   0.724  0.00  0.00     0.035 A 
ATOM      2  N   UNL d   1       6.156  -0.543  -1.647  0.00  0.00    -0.191 NA
ATOM      3  C   UNL d   1       5.618  -0.004  -0.767  0.00  0.00     0.100 C 
ATOM      4  C   UNL d   1       5.035   0.749   0.305  0.00  0.00     0.058 A 
ATOM      5  C   UNL d   1       3.215   1.392   1.772  0.00  0.00     0.017 A 
ATOM      6  C   UNL d   1       5.841   1.719   0.930  0.00  0.00     0.024 A 
ATOM      7  C   UNL d   1       4.012   2.378   2.354  0.00  0.00     0.001 A 
ATOM      8  C   UNL d   1       5.329   2.535   1.940  0.00  0.00     0.002 A 
ENDROOT
BRANCH   1   9
ATOM      9  C   UNL d   1       2.815  -0.439   0.105  0.00  0.00     0.194 C 
ATOM     10  O   UNL d   1       3.294  -1.499  -0.283  0.00  0.00    -0.287 OA
BRANCH   9  11
ATOM     11  C   UNL d   1       1.346  -0.236  -0.015  0.00  0.00     0.020 A 
ATOM     12  C   UNL d   1       0.506  -1.351  -0.011  0.00  0.00     0.055 A 
ATOM     13  C   UNL d   1      -0.888  -1.203  -0.053  0.00  0.00     0.105 A 
ATOM     14  C   UNL d   1      -1.444   0.096  -0.113  0.00  0.00     0.135 A 
ATOM     15  C   UNL d   1      -0.585   1.219  -0.143  0.00  0.00     0.105 A 
ATOM     16  C   UNL d   1       0.798   1.038  -0.120  0.00  0.00     0.055 A 
BRANCH  13  17
ATOM     17  O   UNL d   1      -1.739  -2.276   0.009  0.00  0.00    -0.353 OA
ATOM     18  C   UNL d   1      -1.172  -3.582   0.032  0.00  0.00     0.210 C 
ENDBRANCH  13  17
BRANCH  14  19
ATOM     19  O   UNL d   1      -2.790   0.389  -0.088  0.00  0.00    -0.351 OA
ATOM     20  C   UNL d   1      -3.667  -0.510  -0.760  0.00  0.00     0.210 C 
ENDBRANCH  14  19
BRANCH  15  21
ATOM     21  O   UNL d   1      -1.152   2.475  -0.171  0.00  0.00    -0.353 OA
ATOM     22  C   UNL d   1      -0.305   3.529  -0.631  0.00  0.00     0.210 C 
ENDBRANCH  15  21
ENDBRANCH   9  11
ENDBRANCH   1   9
TORSDOF 5
