REMARK  7 active torsions:
REMARK  status: ('A' for Active; 'I' for Inactive)
REMARK    1  A    between atoms: N_2  and  S_1 
REMARK    2  A    between atoms: C_4  and  S_1 
REMARK    3  A    between atoms: C_6  and  N_2 
REMARK    4  A    between atoms: N_3  and  C_13 
REMARK    5  A    between atoms: O_14  and  C_5 
REMARK    6  A    between atoms: C_16  and  C_6 
REMARK    7  A    between atoms: C_24  and  O_14 
ROOT
ATOM      1  C   UNL d   1       0.424   0.271  -1.690  0.00  0.00     0.083 A 
ATOM      2  C   UNL d   1      -0.300   0.506  -4.398  0.00  0.00     0.119 A 
ATOM      3  C   UNL d   1      -0.149   1.645  -3.581  0.00  0.00     0.071 A 
ATOM      4  C   UNL d   1      -0.043  -0.756  -3.838  0.00  0.00     0.071 A 
ATOM      5  C   UNL d   1       0.211   1.533  -2.232  0.00  0.00     0.052 A 
ATOM      6  C   UNL d   1       0.275  -0.872  -2.482  0.00  0.00     0.052 A 
ATOM      7 CL   UNL d   1       0.034  -2.222  -4.754  0.00  0.00    -0.081 Cl
ATOM      8 CL   UNL d   1      -0.339   3.240  -4.225  0.00  0.00    -0.081 Cl
ENDROOT
BRANCH   1   9
ATOM      9  S   UNL d   1       1.074   0.037  -0.057  0.00  0.00     0.264 S 
ATOM     10  O   UNL d   1      -0.060  -0.162   0.818  0.00  0.00    -0.200 OA
ATOM     11  O   UNL d   1       2.145  -0.925  -0.171  0.00  0.00    -0.200 OA
BRANCH   9  12
ATOM     12  N   UNL d   1       1.748   1.496   0.380  0.00  0.00    -0.265 N 
ATOM     13  H   UNL d   1       1.261   1.866   1.186  0.00  0.00     0.180 HD
BRANCH  12  14
ATOM     14  C   UNL d   1       2.899   2.111  -0.131  0.00  0.00     0.118 C 
ATOM     15  N   UNL d   1       3.588   1.590  -1.083  0.00  0.00    -0.384 N 
ATOM     16  H   UNL d   1       3.250   0.656  -1.328  0.00  0.00     0.157 HD
ATOM     17  HN  UNL d   1       4.376   2.052  -1.538  1.00  0.00     0.157 HD
BRANCH  14  18
ATOM     18  C   UNL d   1       3.295   3.430   0.460  0.00  0.00     0.008 A 
ATOM     19  C   UNL d   1       2.643   4.024   1.550  0.00  0.00     0.017 A 
ATOM     20  C   UNL d   1       3.085   5.256   2.056  0.00  0.00     0.025 A 
ATOM     21  C   UNL d   1       4.180   5.899   1.478  0.00  0.00     0.034 A 
ATOM     22  C   UNL d   1       4.836   5.323   0.396  0.00  0.00     0.025 A 
ATOM     23 CL   UNL d   1       4.718   7.403   2.108  0.00  0.00    -0.084 Cl
ATOM     24  C   UNL d   1       4.396   4.095  -0.109  0.00  0.00     0.017 A 
ENDBRANCH  14  18
ENDBRANCH  12  14
ENDBRANCH   9  12
ENDBRANCH   1   9
BRANCH   2  25
ATOM     25  O   UNL d   1      -0.547   0.748  -5.733  0.00  0.00    -0.307 OA
BRANCH  25  26
ATOM     26  C   UNL d   1      -1.454  -0.006  -6.441  0.00  0.00     0.076 A 
ATOM     27  C   UNL d   1      -2.569  -0.646  -5.894  0.00  0.00     0.040 A 
ATOM     28  C   UNL d   1      -3.367  -1.466  -6.700  0.00  0.00     0.039 A 
ATOM     29  C   UNL d   1      -3.079  -1.591  -8.067  0.00  0.00     0.103 A 
ATOM     30  C   UNL d   1      -2.011  -0.885  -8.635  0.00  0.00     0.039 A 
ATOM     31  C   UNL d   1      -1.203  -0.094  -7.816  0.00  0.00     0.040 A 
BRANCH  29  32
ATOM     32  N   UNL d   1      -3.897  -2.474  -8.907  0.00  0.00    -0.116 N 
ATOM     33  O   UNL d   1      -4.782  -3.140  -8.352  0.00  0.00    -0.532 OA
ATOM     34  O   UNL d   1      -3.652  -2.503 -10.122  0.00  0.00    -0.532 OA
ENDBRANCH  29  32
ENDBRANCH  25  26
ENDBRANCH   2  25
TORSDOF 7
