REMARK  6 active torsions:
REMARK  status: ('A' for Active; 'I' for Inactive)
REMARK    1  A    between atoms: C_3  and  C_1 
REMARK    2  A    between atoms: N_4  and  C_2 
REMARK    3  A    between atoms: C_5  and  C_15 
REMARK       I    between atoms: C_6  and  N_14 
REMARK       I    between atoms: N_13  and  C_6 
REMARK    4  A    between atoms: C_8  and  N_7 
REMARK    5  A    between atoms: C_32  and  N_13 
REMARK    6  A    between atoms: N_14  and  C_31 
ROOT
ATOM      1  C   UNL d   1      -3.463   5.991   0.828  0.00  0.00     0.103 A 
ATOM      2  N   UNL d   1      -4.133   6.213   1.982  0.00  0.00    -0.350 N 
ATOM      3  HN  UNL d   1      -3.979   5.616   2.795  1.00  0.00     0.166 HD
ATOM      4  C   UNL d   1      -3.631   6.869  -0.240  0.00  0.00     0.051 A 
ATOM      5  C   UNL d   1      -5.015   7.246   2.039  0.00  0.00     0.119 A 
ATOM      6  C   UNL d   1      -5.295   8.105   0.985  0.00  0.00     0.051 A 
ATOM      7  C   UNL d   1      -4.538   7.928  -0.158  0.00  0.00     0.035 A 
ENDROOT
BRANCH   1   8
ATOM      8  N   UNL d   1      -2.728   4.822   0.684  0.00  0.00    -0.365 N 
ATOM      9  C   UNL d   1      -2.639   3.942   1.869  0.00  0.00     0.139 C 
ATOM     10  C   UNL d   1      -2.273   2.499   1.438  0.00  0.00     0.117 C 
ATOM     11  N   UNL d   1      -1.023   2.508   0.633  0.00  0.00    -0.266 NA
ATOM     12  C   UNL d   1      -1.191   3.343  -0.578  0.00  0.00     0.117 C 
ATOM     13  C   UNL d   1      -1.518   4.796  -0.162  0.00  0.00     0.139 C 
BRANCH  11  14
ATOM     14  C   UNL d   1      -0.549   1.221   0.364  0.00  0.00     0.097 A 
ATOM     15  C   UNL d   1       0.214   0.532   1.305  0.00  0.00     0.086 A 
ATOM     16  C   UNL d   1       0.684  -0.753   0.971  0.00  0.00     0.021 A 
ATOM     17  C   UNL d   1       0.403  -1.304  -0.270  0.00  0.00     0.018 A 
ATOM     18  C   UNL d   1      -0.348  -0.550  -1.143  0.00  0.00     0.089 A 
ATOM     19  N   UNL d   1      -0.818   0.682  -0.852  0.00  0.00    -0.356 N 
ATOM     20  HN  UNL d   1      -1.368   1.201  -1.536  1.00  0.00     0.166 HD
BRANCH  15  21
ATOM     21  C   UNL d   1       0.594   1.095   2.644  0.00  0.00     0.420 C 
ATOM     22  F   UNL d   1       0.225   2.375   2.920  0.00  0.00    -0.166 F 
ATOM     23  F   UNL d   1       0.071   0.348   3.664  0.00  0.00    -0.166 F 
ATOM     24  F   UNL d   1       1.946   1.063   2.843  0.00  0.00    -0.166 F 
ENDBRANCH  15  21
ENDBRANCH  11  14
ENDBRANCH   1   8
BRANCH   6  25
ATOM     25  N   UNL d   1      -6.369   9.023   1.094  0.00  0.00    -0.307 N 
ATOM     26  C   UNL d   1      -6.915   9.748   0.044  0.00  0.00     0.325 C 
ATOM     27  N   UNL d   1      -8.154  10.269   0.383  0.00  0.00    -0.309 N 
ATOM     28  O   UNL d   1      -6.404   9.872  -1.062  0.00  0.00    -0.247 OA
ATOM     29  H   UNL d   1      -8.325  10.448   1.361  0.00  0.00     0.170 HD
ATOM     30  H   UNL d   1      -6.913   8.976   1.943  0.00  0.00     0.170 HD
BRANCH  27  31
ATOM     31  C   UNL d   1      -9.143  10.701  -0.528  0.00  0.00     0.036 A 
ATOM     32  C   UNL d   1      -9.090  10.436  -1.901  0.00  0.00     0.030 A 
ATOM     33  C   UNL d   1     -10.132  10.825  -2.748  0.00  0.00     0.018 A 
ATOM     34  C   UNL d   1     -11.257  11.482  -2.238  0.00  0.00     0.048 A 
ATOM     35  C   UNL d   1     -11.306  11.758  -0.864  0.00  0.00     0.018 A 
ATOM     36  C   UNL d   1     -10.262  11.366  -0.017  0.00  0.00     0.030 A 
BRANCH  34  37
ATOM     37  C   UNL d   1     -12.399  11.880  -3.140  0.00  0.00     0.417 C 
ATOM     38  F   UNL d   1     -12.262  11.445  -4.423  0.00  0.00    -0.166 F 
ATOM     39  F   UNL d   1     -13.595  11.390  -2.708  0.00  0.00    -0.166 F 
ATOM     40  F   UNL d   1     -12.556  13.230  -3.217  0.00  0.00    -0.166 F 
ENDBRANCH  34  37
ENDBRANCH  27  31
ENDBRANCH   6  25
TORSDOF 6
