REMARK  3 active torsions:
REMARK  status: ('A' for Active; 'I' for Inactive)
REMARK    1  A    between atoms: N_5  and  C_1 
REMARK    2  A    between atoms: N_11  and  C_9 
REMARK    3  A    between atoms: O_12  and  C_10 
ROOT
ATOM      1  C   UNL d   1      -2.044  -0.940  -0.020  0.00  0.00     0.150 A 
ATOM      2  N   UNL d   1      -0.955  -1.678  -0.010  0.00  0.00    -0.333 N 
ATOM      3  HN  UNL d   1      -0.951  -2.698  -0.006  1.00  0.00     0.168 HD
ATOM      4  C   UNL d   1       0.192  -0.888  -0.005  0.00  0.00     0.085 A 
ATOM      5  S   UNL d   1      -1.746   0.761  -0.017  0.00  0.00    -0.052 SA
ATOM      6  C   UNL d   1      -0.051   0.485  -0.009  0.00  0.00     0.038 A 
ATOM      7  C   UNL d   1       1.536  -1.353   0.003  0.00  0.00     0.096 A 
ATOM      8  C   UNL d   1       0.987   1.429  -0.007  0.00  0.00     0.021 A 
ATOM      9  C   UNL d   1       2.300   0.962  -0.002  0.00  0.00     0.004 A 
ATOM     10  C   UNL d   1       2.573  -0.405   0.003  0.00  0.00     0.039 A 
ENDROOT
BRANCH   1  11
ATOM     11  N   UNL d   1      -3.341  -1.341  -0.035  0.00  0.00    -0.333 N 
ATOM     12  C   UNL d   1      -3.534  -2.618  -0.048  0.00  0.00     0.179 C 
ATOM     13  HN  UNL d   1      -4.115  -0.676  -0.035  1.00  0.00     0.168 HD
BRANCH  12  14
ATOM     14  N   UNL d   1      -4.761  -3.247  -0.068  0.00  0.00    -0.386 N 
ATOM     15  C   UNL d   1      -4.885  -4.694  -0.079  0.00  0.00     0.149 C 
ATOM     16  C   UNL d   1      -6.008  -2.499  -0.079  0.00  0.00     0.149 C 
ENDBRANCH  12  14
ENDBRANCH   1  11
BRANCH   7  17
ATOM     17  O   UNL d   1       1.726  -2.712   0.008  0.00  0.00    -0.354 OA
ATOM     18  C   UNL d   1       3.064  -3.190   0.019  0.00  0.00     0.210 C 
ENDBRANCH   7  17
TORSDOF 3
