REMARK  2 active torsions:
REMARK  status: ('A' for Active; 'I' for Inactive)
REMARK    1  A    between atoms: C_8  and  C_1 
REMARK    2  A    between atoms: O_12  and  C_6 
ROOT
ATOM      1  C   UNL d   1      -0.677   1.117   0.039  0.00  0.00     0.117 A 
ATOM      2  N   UNL d   1      -1.390  -0.025   0.061  0.00  0.00    -0.323 N 
ATOM      3  HN  UNL d   1      -2.410  -0.033   0.082  1.00  0.00     0.169 HD
ATOM      4  N   UNL d   1       0.672   1.172   0.014  0.00  0.00    -0.345 N 
ATOM      5  HN  UNL d   1       1.165   2.065   0.001  1.00  0.00     0.167 HD
ATOM      6  C   UNL d   1      -0.666  -1.145   0.052  0.00  0.00     0.143 A 
ATOM      7  C   UNL d   1       0.699  -1.215   0.024  0.00  0.00     0.080 A 
ATOM      8  C   UNL d   1       1.345  -0.001   0.007  0.00  0.00     0.011 A 
ATOM      9  C   UNL d   1       2.841   0.079  -0.022  0.00  0.00     0.068 C 
ENDROOT
BRANCH   1  10
ATOM     10  C   UNL d   1      -1.423   2.392   0.016  0.00  0.00     0.010 A 
ATOM     11  C   UNL d   1      -2.831   2.417   0.065  0.00  0.00     0.039 A 
ATOM     12  C   UNL d   1      -3.536   3.621   0.017  0.00  0.00     0.035 A 
ATOM     13 CL   UNL d   1      -5.256   3.605   0.068  0.00  0.00    -0.084 Cl
ATOM     14  C   UNL d   1      -2.860   4.833  -0.075  0.00  0.00     0.024 A 
ATOM     15  C   UNL d   1      -1.468   4.840  -0.115  0.00  0.00     0.003 A 
ATOM     16  C   UNL d   1      -0.762   3.634  -0.068  0.00  0.00     0.015 A 
ENDBRANCH   1  10
BRANCH   6  17
ATOM     17  O   UNL d   1      -1.406  -2.284   0.067  0.00  0.00    -0.346 OA
ATOM     18  H   UNL d   1      -2.306  -1.913   0.080  0.00  0.00     0.219 HD
ENDBRANCH   6  17
TORSDOF 2
