REMARK  8 active torsions:
REMARK  status: ('A' for Active; 'I' for Inactive)
REMARK    1  A    between atoms: C_9  and  C_1 
REMARK    2  A    between atoms: C_2  and  C_10 
REMARK    3  A    between atoms: N_3  and  C_14 
REMARK    4  A    between atoms: C_15  and  N_5 
REMARK    5  A    between atoms: O_11  and  C_7 
REMARK    6  A    between atoms: O_12  and  C_8 
REMARK    7  A    between atoms: C_13  and  C_15 
REMARK    8  A    between atoms: C_14  and  C_13 
ROOT
ATOM      1  C   UNL d   1       4.562   3.458   0.088  0.00  0.00     0.039 C 
ENDROOT
BRANCH   1   2
ATOM      2  C   UNL d   1       3.057   3.726   0.090  0.00  0.00     0.120 C 
BRANCH   2   3
ATOM      3  N   UNL d   1       2.384   2.424   0.089  0.00  0.00    -0.398 N 
ATOM      4  C   UNL d   1       1.094   2.467   0.100  0.00  0.00     0.097 C 
ATOM      5  HN  UNL d   1       2.900   1.544   0.082  1.00  0.00     0.158 HD
BRANCH   4   6
ATOM      6  C   UNL d   1       0.307   1.213   0.109  0.00  0.00     0.012 A 
ATOM      7  C   UNL d   1       0.935  -0.039   0.107  0.00  0.00     0.077 A 
ATOM      8  C   UNL d   1       0.181  -1.210   0.127  0.00  0.00     0.037 A 
ATOM      9  C   UNL d   1      -1.212  -1.135   0.148  0.00  0.00     0.003 A 
ATOM     10  C   UNL d   1      -1.845   0.108   0.145  0.00  0.00     0.001 A 
ATOM     11  C   UNL d   1      -1.090   1.286   0.126  0.00  0.00     0.015 A 
BRANCH   7  12
ATOM     12  O   UNL d   1       2.297  -0.188   0.088  0.00  0.00    -0.360 OA
ATOM     13  H   UNL d   1       2.681   0.721   0.080  0.00  0.00     0.217 HD
ENDBRANCH   7  12
ENDBRANCH   4   6
ENDBRANCH   2   3
ENDBRANCH   1   2
BRANCH   1  14
ATOM     14  C   UNL d   1       5.385   4.744   0.091  0.00  0.00     0.120 C 
BRANCH  14  15
ATOM     15  N   UNL d   1       6.802   4.364   0.133  0.00  0.00    -0.398 N 
ATOM     16  C   UNL d   1       7.626   5.357   0.108  0.00  0.00     0.097 C 
ATOM     17  HN  UNL d   1       7.111   3.393   0.177  1.00  0.00     0.158 HD
BRANCH  16  18
ATOM     18  C   UNL d   1       9.086   5.126   0.165  0.00  0.00     0.012 A 
ATOM     19  C   UNL d   1       9.621   3.832   0.217  0.00  0.00     0.077 A 
ATOM     20  C   UNL d   1      10.997   3.638   0.284  0.00  0.00     0.037 A 
ATOM     21  C   UNL d   1      11.851   4.740   0.317  0.00  0.00     0.003 A 
ATOM     22  C   UNL d   1      11.326   6.034   0.270  0.00  0.00     0.001 A 
ATOM     23  C   UNL d   1       9.944   6.231   0.186  0.00  0.00     0.015 A 
BRANCH  19  24
ATOM     24  O   UNL d   1       8.841   2.707   0.223  0.00  0.00    -0.360 OA
ATOM     25  H   UNL d   1       7.903   3.011   0.228  0.00  0.00     0.217 HD
ENDBRANCH  19  24
ENDBRANCH  16  18
ENDBRANCH  14  15
ENDBRANCH   1  14
TORSDOF 8
