REMARK  2 active torsions:
REMARK  status: ('A' for Active; 'I' for Inactive)
REMARK    1  A    between atoms: N_9  and  C_3 
REMARK    2  A    between atoms: N_7  and  N_9 
ROOT
ATOM      1  N   UNL d   1      -3.148   2.241   0.138  0.00  0.00    -0.302 N 
ATOM      2  HN  UNL d   1      -3.697   2.763  -0.545  1.00  0.00     0.186 HD
ATOM      3  C   UNL d   1      -3.732   1.421   0.968  0.00  0.00     0.036 C 
ATOM      4  C   UNL d   1      -5.225   1.254   0.898  0.00  0.00    -0.006 A 
ATOM      5  C   UNL d   1      -5.866   0.273   1.677  0.00  0.00    -0.046 A 
ATOM      6  C   UNL d   1      -2.981   0.567   1.985  0.00  0.00     0.060 C 
ATOM      7  C   UNL d   1      -3.863   0.069   3.116  0.00  0.00     0.011 C 
ATOM      8  C   UNL d   1      -5.980   2.081   0.059  0.00  0.00     0.014 A 
ATOM      9  C   UNL d   1      -5.085  -0.646   2.569  0.00  0.00     0.040 C 
ATOM     10  C   UNL d   1      -7.260   0.139   1.599  0.00  0.00     0.008 A 
ATOM     11  C   UNL d   1      -7.367   1.947   0.002  0.00  0.00     0.001 A 
ATOM     12  C   UNL d   1      -8.009   0.978   0.773  0.00  0.00     0.001 A 
ENDROOT
BRANCH   1  13
ATOM     13  N   UNL d   1      -1.795   2.390   0.196  0.00  0.00    -0.279 N 
ATOM     14  H   UNL d   1      -1.246   1.930   0.914  0.00  0.00     0.189 HD
BRANCH  13  15
ATOM     15  C   UNL d   1      -1.019   3.002  -0.735  0.00  0.00     0.164 A 
ATOM     16  N   UNL d   1       0.293   3.039  -0.626  0.00  0.00    -0.339 N 
ATOM     17  C   UNL d   1       0.871   3.589  -1.760  0.00  0.00     0.020 A 
ATOM     18  HN  UNL d   1       0.814   2.706   0.185  1.00  0.00     0.168 HD
ATOM     19  C   UNL d   1      -0.031   3.964  -2.738  0.00  0.00     0.004 A 
ATOM     20  C   UNL d   1       2.353   3.659  -1.835  0.00  0.00     0.069 C 
ATOM     21  C   UNL d   1       0.202   4.454  -4.121  0.00  0.00     0.058 C 
ATOM     22  S   UNL d   1      -1.632   3.745  -2.162  0.00  0.00    -0.056 SA
ENDBRANCH  13  15
ENDBRANCH   1  13
TORSDOF 2
