REMARK  1 active torsions:
REMARK  status: ('A' for Active; 'I' for Inactive)
REMARK    1  A    between atoms: O_12  and  C_5 
ROOT
ATOM      1  C   UNL d   1       0.227  -0.601  -0.002  0.00  0.00     0.137 A 
ATOM      2  C   UNL d   1       0.270   0.793  -0.002  0.00  0.00     0.068 A 
ATOM      3  N   UNL d   1       2.430  -0.022  -0.007  0.00  0.00    -0.276 N 
ATOM      4  HN  UNL d   1       3.448  -0.078  -0.009  1.00  0.00     0.189 HD
ATOM      5  C   UNL d   1       1.659   1.059  -0.007  0.00  0.00     0.169 A 
ATOM      6  N   UNL d   1       1.531  -1.026  -0.004  0.00  0.00    -0.278 N 
ATOM      7  N   UNL d   1      -0.868  -1.389   0.001  0.00  0.00    -0.344 N 
ATOM      8  HN  UNL d   1      -0.821  -2.408   0.001  1.00  0.00     0.167 HD
ATOM      9  C   UNL d   1      -0.957   1.490   0.003  0.00  0.00    -0.042 A 
ATOM     10  C   UNL d   1      -2.117   0.691   0.004  0.00  0.00     0.032 A 
ATOM     11  C   UNL d   1      -2.032  -0.703   0.003  0.00  0.00     0.007 A 
ATOM     12  C   UNL d   1       1.980  -2.395  -0.003  0.00  0.00     0.179 C 
ATOM     13  C   UNL d   1      -1.131   2.981   0.006  0.00  0.00     0.049 C 
ATOM     14  C   UNL d   1      -3.288  -1.528   0.007  0.00  0.00     0.068 C 
ENDROOT
BRANCH   5  15
ATOM     15  O   UNL d   1       2.320   2.222  -0.012  0.00  0.00    -0.344 OA
ATOM     16  H   UNL d   1       1.696   2.958  -0.016  0.00  0.00     0.219 HD
ENDBRANCH   5  15
TORSDOF 1
