REMARK  7 active torsions:
REMARK  status: ('A' for Active; 'I' for Inactive)
REMARK    1  A    between atoms: C_7  and  C_1 
REMARK    2  A    between atoms: C_8  and  C_7 
REMARK    3  A    between atoms: C_12  and  C_18 
REMARK    4  A    between atoms: O_23  and  C_12 
REMARK    5  A    between atoms: O_17  and  C_16 
REMARK    6  A    between atoms: C_18  and  O_17 
REMARK    7  A    between atoms: C_27  and  O_23 
ROOT
ATOM      1  C   UNL d   1      -1.766  -0.927   0.016  0.00  0.00     0.029 C 
ATOM      2  C   UNL d   1      -1.978   0.539   0.155  0.00  0.00     0.295 C 
ATOM      3  C   UNL d   1      -0.522  -1.461  -0.038  0.00  0.00    -0.036 C 
ATOM      4  O   UNL d   1      -0.870   1.356   0.013  0.00  0.00    -0.274 OA
ATOM      5  C   UNL d   1       0.426   0.819  -0.035  0.00  0.00     0.092 A 
ATOM      6  C   UNL d   1       0.640  -0.556  -0.012  0.00  0.00     0.005 A 
ATOM      7  C   UNL d   1       1.470   1.747  -0.077  0.00  0.00     0.075 A 
ATOM      8  C   UNL d   1       1.969  -0.996   0.015  0.00  0.00     0.017 A 
ATOM      9  O   UNL d   1      -3.089   1.021   0.357  0.00  0.00    -0.259 OA
ATOM     10  C   UNL d   1       2.783   1.290  -0.075  0.00  0.00     0.072 A 
ATOM     11  C   UNL d   1       3.028  -0.080  -0.003  0.00  0.00     0.038 A 
ATOM     12  C   UNL d   1      -0.249  -2.942  -0.095  0.00  0.00     0.050 C 
ENDROOT
BRANCH   1  13
ATOM     13  C   UNL d   1      -3.050  -1.722  -0.060  0.00  0.00     0.089 C 
BRANCH  13  14
ATOM     14  C   UNL d   1      -3.549  -2.381   1.214  0.00  0.00     0.007 A 
ATOM     15  C   UNL d   1      -2.972  -2.153   2.470  0.00  0.00     0.124 A 
ATOM     16  F   UNL d   1      -1.953  -1.295   2.620  0.00  0.00    -0.205 F 
ATOM     17  C   UNL d   1      -3.416  -2.807   3.618  0.00  0.00     0.043 A 
ATOM     18  C   UNL d   1      -4.474  -3.703   3.544  0.00  0.00     0.005 A 
ATOM     19  C   UNL d   1      -5.095  -3.925   2.318  0.00  0.00     0.024 A 
ATOM     20  C   UNL d   1      -4.643  -3.268   1.166  0.00  0.00     0.043 A 
ATOM     21 CL   UNL d   1      -5.485  -3.602  -0.309  0.00  0.00    -0.084 Cl
ENDBRANCH  13  14
ENDBRANCH   1  13
BRANCH  10  22
ATOM     22  O   UNL d   1       3.900   2.072  -0.083  0.00  0.00    -0.341 OA
BRANCH  22  23
ATOM     23  C   UNL d   1       3.775   3.340  -0.717  0.00  0.00     0.286 C 
BRANCH  23  24
ATOM     24  C   UNL d   1       5.067   4.121  -0.558  0.00  0.00     0.283 C 
ATOM     25  O   UNL d   1       6.060   3.759   0.057  0.00  0.00    -0.263 OA
BRANCH  24  26
ATOM     26  O   UNL d   1       4.906   5.352  -1.132  0.00  0.00    -0.320 OA
BRANCH  26  27
ATOM     27  C   UNL d   1       5.827   6.354  -0.679  0.00  0.00     0.174 C 
ATOM     28  C   UNL d   1       5.240   6.993   0.567  0.00  0.00     0.034 C 
ENDBRANCH  26  27
ENDBRANCH  24  26
ENDBRANCH  23  24
ENDBRANCH  22  23
ENDBRANCH  10  22
TORSDOF 7
