REMARK  4 active torsions:
REMARK  status: ('A' for Active; 'I' for Inactive)
REMARK    1  A    between atoms: C_7  and  N_1 
REMARK    2  A    between atoms: C_9  and  N_4 
REMARK    3  A    between atoms: C_14  and  C_7 
REMARK    4  A    between atoms: C_15  and  C_9 
ROOT
ATOM      1  N   UNL d   1       0.783   1.081  -0.218  0.00  0.00    -0.337 N 
ATOM      2  C   UNL d   1       1.625   0.136   0.329  0.00  0.00     0.140 C 
ATOM      3  S   UNL d   1       1.086  -1.496   0.013  0.00  0.00    -0.070 SA
ATOM      4  N   UNL d   1      -1.278  -0.111  -0.223  0.00  0.00     0.119 N 
ATOM      5  C   UNL d   1      -0.600   1.104   0.208  0.00  0.00     0.400 C 
ATOM      6  C   UNL d   1      -0.653  -1.290   0.380  0.00  0.00     0.356 C 
ATOM      7  S   UNL d   1       3.080   0.441   1.095  0.00  0.00    -0.053 SA
ENDROOT
BRANCH   1   8
ATOM      8  C   UNL d   1       1.292   2.262  -0.922  0.00  0.00     0.164 C 
BRANCH   8   9
ATOM      9  C   UNL d   1       0.895   2.238  -2.381  0.00  0.00    -0.038 A 
ATOM     10  C   UNL d   1       0.179   3.289  -2.955  0.00  0.00     0.025 A 
ATOM     11  C   UNL d   1      -0.147   3.212  -4.301  0.00  0.00     0.088 A 
ATOM     12  N   UNL d   1       0.186   2.178  -5.103  0.00  0.00    -0.375 N 
ATOM     13  C   UNL d   1       0.883   1.173  -4.532  0.00  0.00     0.088 A 
ATOM     14  HN  UNL d   1      -0.076   2.157  -6.089  1.00  0.00     0.164 HD
ATOM     15  C   UNL d   1       1.259   1.161  -3.198  0.00  0.00     0.025 A 
ENDBRANCH   8   9
ENDBRANCH   1   8
BRANCH   4  16
ATOM     16  C   UNL d   1      -2.695  -0.102   0.206  0.00  0.00     0.314 C 
BRANCH  16  17
ATOM     17  C   UNL d   1      -3.506   1.076  -0.278  0.00  0.00    -0.028 A 
ATOM     18  C   UNL d   1      -3.691   1.315  -1.642  0.00  0.00     0.026 A 
ATOM     19  C   UNL d   1      -4.450   2.408  -2.026  0.00  0.00     0.088 A 
ATOM     20  N   UNL d   1      -5.028   3.268  -1.157  0.00  0.00    -0.375 N 
ATOM     21  C   UNL d   1      -4.845   3.018   0.155  0.00  0.00     0.088 A 
ATOM     22  HN  UNL d   1      -5.575   4.067  -1.479  1.00  0.00     0.164 HD
ATOM     23  C   UNL d   1      -4.105   1.953   0.638  0.00  0.00     0.026 A 
ENDBRANCH  16  17
ENDBRANCH   4  16
TORSDOF 4
