REMARK  1 active torsions:
REMARK  status: ('A' for Active; 'I' for Inactive)
REMARK    1  A    between atoms: C_7  and  C_3 
ROOT
ATOM      1  C   UNL d   1       1.291   0.328  -0.025  0.00  0.00     0.058 C 
ATOM      2  C   UNL d   1      -1.272   0.339  -0.032  0.00  0.00     0.058 C 
ATOM      3  C   UNL d   1       0.014   1.159  -0.171  0.00  0.00     0.110 C 
ATOM      4  N   UNL d   1       0.000  -1.663  -0.058  0.00  0.00    -0.361 N 
ATOM      5  C   UNL d   1      -1.221  -1.013  -0.014  0.00  0.00     0.023 C 
ATOM      6  C   UNL d   1       1.227  -1.024   0.003  0.00  0.00     0.023 C 
ATOM      7  C   UNL d   1      -2.510   1.044   0.064  0.00  0.00     0.098 C 
ATOM      8  C   UNL d   1       2.536   1.022   0.073  0.00  0.00     0.098 C 
ATOM      9  N   UNL d   1       3.544   1.585   0.168  0.00  0.00    -0.192 NA
ATOM     10  N   UNL d   1      -3.516   1.613   0.159  0.00  0.00    -0.192 NA
ATOM     11  C   UNL d   1      -2.456  -1.878   0.039  0.00  0.00     0.069 C 
ATOM     12  C   UNL d   1       2.451  -1.901   0.093  0.00  0.00     0.069 C 
ATOM     13  H   UNL d   1      -0.004  -2.680  -0.016  0.00  0.00     0.165 HD
ENDROOT
BRANCH   3  14
ATOM     14  C   UNL d   1       0.024   1.915  -1.503  0.00  0.00    -0.041 A 
ATOM     15  C   UNL d   1      -0.034   1.212  -2.723  0.00  0.00     0.048 A 
ATOM     16  C   UNL d   1      -0.016   1.936  -3.894  0.00  0.00     0.105 A 
ATOM     17  O   UNL d   1      -0.076   1.415  -5.148  0.00  0.00    -0.323 OA
ATOM     18  C   UNL d   1       0.066   3.307  -3.897  0.00  0.00     0.105 A 
ATOM     19  C   UNL d   1      -0.081   2.621  -5.939  0.00  0.00     0.352 A 
ATOM     20  O   UNL d   1       0.074   3.822  -5.155  0.00  0.00    -0.323 OA
ATOM     21  C   UNL d   1       0.130   4.032  -2.727  0.00  0.00     0.040 A 
ATOM     22  C   UNL d   1       0.103   3.328  -1.518  0.00  0.00     0.011 A 
ENDBRANCH   3  14
TORSDOF 1
