REMARK  6 active torsions:
REMARK  status: ('A' for Active; 'I' for Inactive)
REMARK    1  A    between atoms: C_13  and  C_3 
REMARK    2  A    between atoms: N_9  and  C_4 
REMARK    3  A    between atoms: C_10  and  N_9 
REMARK    4  A    between atoms: C_17  and  C_18 
REMARK    5  A    between atoms: O_26  and  C_19 
REMARK    6  A    between atoms: O_27  and  C_20 
ROOT
ATOM      1  C   UNL d   1      -0.013  -0.504   0.094  0.00  0.00     0.076 A 
ATOM      2  S   UNL d   1       1.677  -0.801   0.151  0.00  0.00    -0.084 SA
ATOM      3  C   UNL d   1       2.075   0.869   0.043  0.00  0.00     0.018 A 
ATOM      4  C   UNL d   1      -1.085  -1.405   0.114  0.00  0.00     0.126 A 
ATOM      5  C   UNL d   1       0.924   1.631  -0.035  0.00  0.00     0.050 A 
ATOM      6  C   UNL d   1      -0.271   0.856  -0.010  0.00  0.00     0.055 A 
ATOM      7  N   UNL d   1      -2.333  -0.882   0.022  0.00  0.00    -0.337 N 
ATOM      8  HN  UNL d   1      -3.149  -1.495   0.012  1.00  0.00     0.168 HD
ATOM      9  N   UNL d   1      -1.522   1.367  -0.081  0.00  0.00    -0.351 N 
ATOM     10  HN  UNL d   1      -1.712   2.367  -0.150  1.00  0.00     0.166 HD
ATOM     11  C   UNL d   1      -2.485   0.445  -0.055  0.00  0.00     0.182 A 
ENDROOT
BRANCH   4  12
ATOM     12  N   UNL d   1      -0.915  -2.790   0.249  0.00  0.00    -0.341 N 
ATOM     13  H   UNL d   1       0.032  -3.086   0.455  0.00  0.00     0.167 HD
BRANCH  12  14
ATOM     14  C   UNL d   1      -1.744  -3.810  -0.254  0.00  0.00     0.038 A 
ATOM     15  C   UNL d   1      -2.543  -3.614  -1.389  0.00  0.00     0.066 A 
ATOM     16  C   UNL d   1      -3.377  -4.625  -1.866  0.00  0.00     0.073 A 
ATOM     17  C   UNL d   1      -3.447  -5.838  -1.179  0.00  0.00     0.073 A 
ATOM     18  C   UNL d   1      -2.669  -6.054  -0.041  0.00  0.00     0.073 A 
ATOM     19  C   UNL d   1      -1.812  -5.042   0.406  0.00  0.00     0.066 A 
BRANCH  16  20
ATOM     20  O   UNL d   1      -4.167  -4.545  -2.982  0.00  0.00    -0.356 OA
ATOM     21  C   UNL d   1      -4.030  -3.371  -3.775  0.00  0.00     0.210 C 
ENDBRANCH  16  20
BRANCH  18  22
ATOM     22  O   UNL d   1      -2.655  -7.196   0.714  0.00  0.00    -0.356 OA
ATOM     23  C   UNL d   1      -3.563  -8.223   0.336  0.00  0.00     0.210 C 
ENDBRANCH  18  22
ENDBRANCH  12  14
ENDBRANCH   4  12
BRANCH   3  24
ATOM     24  C   UNL d   1       3.479   1.319   0.021  0.00  0.00    -0.019 A 
ATOM     25  C   UNL d   1       3.833   2.503  -0.640  0.00  0.00     0.013 A 
ATOM     26  C   UNL d   1       5.162   2.950  -0.666  0.00  0.00     0.009 A 
ATOM     27  C   UNL d   1       6.193   2.231  -0.037  0.00  0.00    -0.051 A 
ATOM     28  C   UNL d   1       5.829   1.053   0.630  0.00  0.00     0.009 A 
ATOM     29  C   UNL d   1       4.500   0.608   0.661  0.00  0.00     0.013 A 
BRANCH  27  30
ATOM     30  C   UNL d   1       7.645   2.734  -0.100  0.00  0.00    -0.024 C 
ATOM     31  C   UNL d   1       8.655   1.807   0.615  0.00  0.00     0.019 C 
ATOM     32  C   UNL d   1       8.092   2.844  -1.573  0.00  0.00     0.019 C 
ATOM     33  C   UNL d   1       7.747   4.122   0.568  0.00  0.00     0.019 C 
ENDBRANCH  27  30
ENDBRANCH   3  24
TORSDOF 6
