REMARK  2 active torsions:
REMARK  status: ('A' for Active; 'I' for Inactive)
REMARK    1  A    between atoms: N_3  and  C_1 
REMARK    2  A    between atoms: C_4  and  C_1 
ROOT
ATOM      1  C   UNL d   1       2.547  -0.051  -0.062  0.00  0.00     0.002 A 
ATOM      2  C   UNL d   1       3.315   1.099  -0.303  0.00  0.00     0.014 A 
ATOM      3  C   UNL d   1       3.214  -1.244   0.254  0.00  0.00     0.014 A 
ATOM      4  C   UNL d   1       4.712   1.063  -0.174  0.00  0.00     0.001 A 
ATOM      5  C   UNL d   1       4.612  -1.285   0.349  0.00  0.00     0.001 A 
ATOM      6  C   UNL d   1       5.355  -0.126   0.148  0.00  0.00     0.000 A 
ENDROOT
BRANCH   1   7
ATOM      7  C   UNL d   1       1.040  -0.010  -0.229  0.00  0.00     0.108 C 
ATOM      8  S   UNL d   1       0.224  -1.359  -0.869  0.00  0.00    -0.060 SA
BRANCH   7   9
ATOM      9  N   UNL d   1       0.357   1.182   0.114  0.00  0.00    -0.380 N 
ATOM     10  C   UNL d   1      -1.006   1.441  -0.357  0.00  0.00     0.150 C 
ATOM     11  C   UNL d   1       0.750   2.002   1.258  0.00  0.00     0.150 C 
ENDBRANCH   7   9
ENDBRANCH   1   7
TORSDOF 2
