REMARK  1 active torsions:
REMARK  status: ('A' for Active; 'I' for Inactive)
REMARK    1  A    between atoms: C_11  and  C_2 
ROOT
ATOM      1  C   UNL d   1      -3.615   0.727   0.980  0.00  0.00     0.023 A 
ATOM      2  C   UNL d   1      -2.690   0.387   1.905  0.00  0.00    -0.003 A 
ATOM      3  C   UNL d   1      -4.683   1.644   1.508  0.00  0.00     0.124 A 
ATOM      4  C   UNL d   1      -3.664   0.315  -0.440  0.00  0.00     0.192 C 
ATOM      5  C   UNL d   1      -3.105   1.043   3.157  0.00  0.00    -0.014 A 
ATOM      6  S   UNL d   1      -4.675   3.180   0.557  0.00  0.00    -0.114 SA
ATOM      7  C   UNL d   1      -4.239   1.832   2.928  0.00  0.00    -0.028 A 
ATOM      8  C   UNL d   1      -4.422   1.175  -1.397  0.00  0.00     0.031 A 
ATOM      9  C   UNL d   1      -4.875   2.461  -1.063  0.00  0.00     0.015 A 
ATOM     10  C   UNL d   1      -4.777   2.622   3.935  0.00  0.00     0.012 A 
ATOM     11  C   UNL d   1      -2.504   1.000   4.406  0.00  0.00     0.055 A 
ATOM     12  O   UNL d   1      -3.147  -0.726  -0.829  0.00  0.00    -0.287 OA
ATOM     13  C   UNL d   1      -3.050   1.782   5.417  0.00  0.00     0.117 A 
ATOM     14  C   UNL d   1      -4.165   2.597   5.191  0.00  0.00     0.043 A 
ATOM     15  F   UNL d   1      -2.490   1.764   6.634  0.00  0.00    -0.206 F 
ATOM     16  C   UNL d   1      -4.656   0.674  -2.689  0.00  0.00     0.017 A 
ATOM     17  C   UNL d   1      -5.526   3.235  -2.032  0.00  0.00     0.019 A 
ATOM     18  C   UNL d   1      -5.326   1.446  -3.640  0.00  0.00     0.001 A 
ATOM     19  C   UNL d   1      -5.753   2.730  -3.313  0.00  0.00     0.001 A 
ENDROOT
BRANCH   2  20
ATOM     20  C   UNL d   1      -1.408  -0.296   1.700  0.00  0.00    -0.024 A 
ATOM     21  C   UNL d   1      -0.399   0.364   0.992  0.00  0.00     0.012 A 
ATOM     22  C   UNL d   1       0.908  -0.125   1.002  0.00  0.00     0.001 A 
ATOM     23  C   UNL d   1       1.212  -1.280   1.717  0.00  0.00     0.000 A 
ATOM     24  C   UNL d   1       0.205  -1.967   2.396  0.00  0.00     0.001 A 
ATOM     25  C   UNL d   1      -1.104  -1.479   2.386  0.00  0.00     0.012 A 
ENDBRANCH   2  20
TORSDOF 1
