REMARK  4 active torsions:
REMARK  status: ('A' for Active; 'I' for Inactive)
REMARK    1  A    between atoms: C_13  and  C_6 
REMARK    2  A    between atoms: C_12  and  C_7 
REMARK    3  A    between atoms: N_8  and  C_10 
REMARK    4  A    between atoms: N_9  and  C_11 
ROOT
ATOM      1  O   UNL d   1      -1.101  -0.004  -0.045  0.00  0.00    -0.273 OA
ATOM      2  N   UNL d   1       1.032  -0.682   0.059  0.00  0.00    -0.277 N 
ATOM      3  HN  UNL d   1       1.851  -1.288   0.097  1.00  0.00     0.189 HD
ATOM      4  N   UNL d   1       1.026   0.690   0.082  0.00  0.00    -0.277 N 
ATOM      5  HN  UNL d   1       1.840   1.302   0.132  1.00  0.00     0.189 HD
ATOM      6  C   UNL d   1      -0.227  -1.064  -0.021  0.00  0.00     0.174 A 
ATOM      7  C   UNL d   1      -0.236   1.063   0.025  0.00  0.00     0.174 A 
ENDROOT
BRANCH   6   8
ATOM      8  C   UNL d   1      -0.759  -2.419  -0.111  0.00  0.00     0.017 A 
ATOM      9  C   UNL d   1       0.135  -3.502  -0.012  0.00  0.00     0.018 A 
ATOM     10  C   UNL d   1      -0.303  -4.822  -0.150  0.00  0.00     0.037 A 
ATOM     11  C   UNL d   1      -1.658  -5.071  -0.389  0.00  0.00     0.102 A 
ATOM     12  C   UNL d   1      -2.571  -4.010  -0.468  0.00  0.00     0.037 A 
ATOM     13  C   UNL d   1      -2.119  -2.690  -0.325  0.00  0.00     0.018 A 
BRANCH  11  14
ATOM     14  N   UNL d   1      -2.117  -6.454  -0.577  0.00  0.00    -0.116 N 
ATOM     15  O   UNL d   1      -3.322  -6.632  -0.803  0.00  0.00    -0.532 OA
ATOM     16  O   UNL d   1      -1.273  -7.358  -0.502  0.00  0.00    -0.532 OA
ENDBRANCH  11  14
ENDBRANCH   6   8
BRANCH   7  17
ATOM     17  C   UNL d   1      -0.785   2.414   0.049  0.00  0.00     0.017 A 
ATOM     18  C   UNL d   1       0.107   3.503   0.021  0.00  0.00     0.018 A 
ATOM     19  C   UNL d   1      -0.352   4.821   0.101  0.00  0.00     0.037 A 
ATOM     20  C   UNL d   1      -1.725   5.061   0.209  0.00  0.00     0.102 A 
ATOM     21  C   UNL d   1      -2.634   3.993   0.215  0.00  0.00     0.037 A 
ATOM     22  C   UNL d   1      -2.161   2.676   0.132  0.00  0.00     0.018 A 
BRANCH  20  23
ATOM     23  N   UNL d   1      -2.211   6.441   0.333  0.00  0.00    -0.116 N 
ATOM     24  O   UNL d   1      -1.372   7.352   0.337  0.00  0.00    -0.532 OA
ATOM     25  O   UNL d   1      -3.435   6.613   0.431  0.00  0.00    -0.532 OA
ENDBRANCH  20  23
ENDBRANCH   7  17
TORSDOF 4
