REMARK  4 active torsions:
REMARK  status: ('A' for Active; 'I' for Inactive)
REMARK    1  A    between atoms: C_2  and  S_1 
REMARK    2  A    between atoms: N_3  and  S_1 
REMARK    3  A    between atoms: C_9  and  C_15 
REMARK    4  A    between atoms: C_12  and  C_9 
ROOT
ATOM      1  N   UNL d   1       0.586  -0.273   1.754  0.00  0.00    -0.206 NA
ATOM      2  C   UNL d   1      -0.470   0.725   2.076  0.00  0.00     0.108 C 
ATOM      3  C   UNL d   1       0.134  -1.690   1.921  0.00  0.00     0.108 C 
ATOM      4  C   UNL d   1      -1.623  -0.951   3.626  0.00  0.00     0.063 C 
ATOM      5  C   UNL d   1      -1.114   0.478   3.438  0.00  0.00     0.028 C 
ATOM      6  C   UNL d   1      -0.510  -1.940   3.278  0.00  0.00     0.028 C 
ENDROOT
BRANCH   1   7
ATOM      7  S   UNL d   1       1.231  -0.059   0.154  0.00  0.00     0.248 S 
ATOM      8  O   UNL d   1       2.268  -1.048  -0.043  0.00  0.00    -0.206 OA
ATOM      9  O   UNL d   1       0.120   0.061  -0.762  0.00  0.00    -0.206 OA
BRANCH   7  10
ATOM     10  C   UNL d   1       2.069   1.421   0.048  0.00  0.00     0.130 A 
ATOM     11  C   UNL d   1       3.195   1.771   0.752  0.00  0.00     0.097 A 
ATOM     12  O   UNL d   1       3.606   2.999   0.338  0.00  0.00    -0.241 OA
ATOM     13  C   UNL d   1       4.023   1.125   1.784  0.00  0.00     0.081 C 
ATOM     14  N   UNL d   1       2.744   3.474  -0.632  0.00  0.00    -0.264 N 
ATOM     15  C   UNL d   1       1.822   2.516  -0.810  0.00  0.00     0.054 A 
ATOM     16  HN  UNL d   1       2.798   4.371  -1.115  1.00  0.00     0.194 HD
ATOM     17  C   UNL d   1       0.743   2.727  -1.807  0.00  0.00     0.072 C 
ENDBRANCH   7  10
ENDBRANCH   1   7
BRANCH   4  18
ATOM     18  C   UNL d   1      -2.927  -1.220   2.859  0.00  0.00     0.163 C 
ATOM     19  O   UNL d   1      -2.927  -1.777   1.768  0.00  0.00    -0.292 OA
BRANCH  18  20
ATOM     20  C   UNL d   1      -4.237  -0.789   3.458  0.00  0.00     0.010 A 
ATOM     21  C   UNL d   1      -4.312  -0.043   4.644  0.00  0.00     0.015 A 
ATOM     22  C   UNL d   1      -5.548   0.369   5.145  0.00  0.00     0.007 A 
ATOM     23  C   UNL d   1      -6.735   0.041   4.484  0.00  0.00    -0.062 A 
ATOM     24  C   UNL d   1      -6.669  -0.723   3.315  0.00  0.00     0.007 A 
ATOM     25  C   UNL d   1      -8.041   0.557   5.014  0.00  0.00     0.048 C 
ATOM     26  C   UNL d   1      -5.431  -1.136   2.807  0.00  0.00     0.015 A 
ENDBRANCH  18  20
ENDBRANCH   4  18
TORSDOF 4
