REMARK  3 active torsions:
REMARK  status: ('A' for Active; 'I' for Inactive)
REMARK    1  A    between atoms: C_8  and  N_1 
REMARK    2  A    between atoms: C_15  and  C_14 
REMARK    3  A    between atoms: C_16  and  C_15 
ROOT
ATOM      1  N   UNL d   1       0.826  -0.721   0.079  0.00  0.00    -0.213 N 
ATOM      2  C   UNL d   1      -0.489  -0.987  -0.282  0.00  0.00     0.215 A 
ATOM      3  N   UNL d   1       0.872   0.540   0.636  0.00  0.00    -0.219 N 
ATOM      4  HN  UNL d   1       1.708   0.983   1.019  1.00  0.00     0.210 HD
ATOM      5  N   UNL d   1      -0.283   1.065   0.601  0.00  0.00    -0.225 N 
ATOM      6  HN  UNL d   1      -0.524   1.994   0.944  1.00  0.00     0.210 HD
ATOM      7  N   UNL d   1      -1.145   0.185   0.030  0.00  0.00    -0.259 N 
ATOM      8  S   UNL d   1      -1.270  -2.331  -0.850  0.00  0.00    -0.037 SA
ATOM      9  H   UNL d   1      -2.134   0.370  -0.030  0.00  0.00     0.191 HD
ENDROOT
BRANCH   1  10
ATOM     10  C   UNL d   1       2.018  -1.461  -0.037  0.00  0.00     0.060 A 
ATOM     11  C   UNL d   1       2.180  -2.463  -1.001  0.00  0.00     0.032 A 
ATOM     12  C   UNL d   1       3.369  -3.192  -1.092  0.00  0.00     0.009 A 
ATOM     13  C   UNL d   1       4.424  -2.950  -0.208  0.00  0.00    -0.058 A 
ATOM     14  C   UNL d   1       4.283  -1.933   0.741  0.00  0.00     0.009 A 
ATOM     15  C   UNL d   1       3.100  -1.189   0.816  0.00  0.00     0.032 A 
BRANCH  13  16
ATOM     16  C   UNL d   1       5.682  -3.780  -0.279  0.00  0.00     0.038 C 
BRANCH  16  17
ATOM     17  C   UNL d   1       5.925  -4.648   0.961  0.00  0.00     0.000 C 
ATOM     18  C   UNL d   1       4.833  -5.684   1.196  0.00  0.00     0.005 C 
ENDBRANCH  16  17
ENDBRANCH  13  16
ENDBRANCH   1  10
TORSDOF 3
