REMARK  5 active torsions:
REMARK  status: ('A' for Active; 'I' for Inactive)
REMARK    1  A    between atoms: N_3  and  S_1 
REMARK    2  A    between atoms: C_10  and  S_1 
REMARK    3  A    between atoms: C_2  and  N_3 
REMARK    4  A    between atoms: C_5  and  C_6 
REMARK       I    between atoms: C_6  and  N_11 
REMARK    5  A    between atoms: N_11  and  C_21 
ROOT
ATOM      1  C   UNL d   1       0.482   0.122   1.657  0.00  0.00     0.075 A 
ATOM      2  C   UNL d   1       0.513  -1.074   2.376  0.00  0.00     0.027 A 
ATOM      3  C   UNL d   1       0.150   1.317   2.297  0.00  0.00     0.027 A 
ATOM      4  C   UNL d   1      -0.221   0.108   4.377  0.00  0.00     0.035 A 
ATOM      5  C   UNL d   1      -0.203   1.304   3.651  0.00  0.00     0.031 A 
ATOM      6  C   UNL d   1       0.161  -1.077   3.732  0.00  0.00     0.031 A 
ENDROOT
BRANCH   1   7
ATOM      7  S   UNL d   1       0.962   0.141  -0.056  0.00  0.00     0.247 S 
ATOM      8  O   UNL d   1       1.419   1.479  -0.369  0.00  0.00    -0.205 OA
ATOM      9  O   UNL d   1       1.771  -1.032  -0.292  0.00  0.00    -0.205 OA
BRANCH   7  10
ATOM     10  N   UNL d   1      -0.566  -0.037  -0.834  0.00  0.00    -0.165 NA
ATOM     11  H   UNL d   1      -0.908   0.925  -0.919  0.00  0.00     0.147 HD
BRANCH  10  12
ATOM     12  C   UNL d   1      -0.420  -0.606  -2.152  0.00  0.00     0.111 A 
ATOM     13  N   UNL d   1      -0.383  -1.928  -2.513  0.00  0.00    -0.285 N 
ATOM     14  N   UNL d   1      -0.235  -2.105  -3.845  0.00  0.00    -0.309 N 
ATOM     15  C   UNL d   1      -0.592  -3.081  -1.674  0.00  0.00     0.179 C 
ATOM     16  C   UNL d   1      -0.175  -0.861  -4.325  0.00  0.00     0.110 A 
ATOM     17  HN  UNL d   1      -0.182  -2.983  -4.362  1.00  0.00     0.186 HD
ATOM     18  C   UNL d   1      -0.310   0.114  -3.318  0.00  0.00     0.063 A 
ENDBRANCH  10  12
ENDBRANCH   7  10
ENDBRANCH   1   7
BRANCH   4  19
ATOM     19  N   UNL d   1      -0.613   0.020   5.730  0.00  0.00    -0.320 N 
ATOM     20  C   UNL d   1      -1.114   1.048   6.537  0.00  0.00     0.330 C 
ATOM     21  O   UNL d   1      -1.253   2.220   6.185  0.00  0.00    -0.263 OA
ATOM     22  H   UNL d   1      -0.575  -0.904   6.157  0.00  0.00     0.169 HD
BRANCH  20  23
ATOM     23  C   UNL d   1      -1.503   0.574   7.952  0.00  0.00     0.472 C 
ATOM     24  F   UNL d   1      -1.323  -0.772   8.104  0.00  0.00    -0.162 F 
ATOM     25  F   UNL d   1      -0.764   1.170   8.926  0.00  0.00    -0.162 F 
ATOM     26  F   UNL d   1      -2.810   0.817   8.243  0.00  0.00    -0.162 F 
ENDBRANCH  20  23
ENDBRANCH   4  19
TORSDOF 5
