REMARK  2 active torsions:
REMARK  status: ('A' for Active; 'I' for Inactive)
REMARK    1  A    between atoms: N_3  and  C_1 
REMARK       I    between atoms: C_7  and  N_3 
REMARK    2  A    between atoms: C_8  and  N_3 
ROOT
ATOM      1  N   UNL d   1      -2.754  -0.641  -0.166  0.00  0.00    -0.262 N 
ATOM      2  C   UNL d   1      -3.777   0.322  -0.271  0.00  0.00     0.226 C 
ATOM      3  O   UNL d   1      -3.717   1.339  -0.965  0.00  0.00    -0.273 OA
ATOM      4  C   UNL d   1      -5.070   0.027   0.468  0.00  0.00     0.118 C 
ENDROOT
BRANCH   1   5
ATOM      5  C   UNL d   1      -1.368  -0.378  -0.304  0.00  0.00     0.157 C 
ATOM      6  S   UNL d   1      -0.850   1.289  -0.406  0.00  0.00    -0.016 SA
ATOM      7  C   UNL d   1       0.618   1.129   0.523  0.00  0.00     0.195 C 
ATOM      8  O   UNL d   1       0.963   2.023   1.287  0.00  0.00    -0.285 OA
ATOM      9  C   UNL d   1       1.455  -0.104   0.339  0.00  0.00     0.111 C 
ATOM     10  C   UNL d   1       0.873  -1.068  -0.663  0.00  0.00     0.130 C 
ATOM     11  N   UNL d   1      -0.526  -1.353  -0.374  0.00  0.00    -0.369 N 
ATOM     12  HN  UNL d   1      -0.836  -2.313  -0.228  1.00  0.00     0.161 HD
ENDBRANCH   1   5
BRANCH   1  13
ATOM     13  C   UNL d   1      -3.153  -2.016  -0.061  0.00  0.00     0.044 A 
ATOM     14  C   UNL d   1      -4.020  -2.558  -1.024  0.00  0.00     0.032 A 
ATOM     15  C   UNL d   1      -4.406  -3.897  -0.950  0.00  0.00     0.026 A 
ATOM     16  C   UNL d   1      -3.945  -4.693   0.096  0.00  0.00     0.034 A 
ATOM     17  C   UNL d   1      -3.092  -4.164   1.063  0.00  0.00     0.026 A 
ATOM     18 CL   UNL d   1      -4.427  -6.341   0.188  0.00  0.00    -0.084 Cl
ATOM     19  C   UNL d   1      -2.685  -2.829   0.980  0.00  0.00     0.032 A 
ENDBRANCH   1  13
TORSDOF 2
