REMARK  2 active torsions:
REMARK  status: ('A' for Active; 'I' for Inactive)
REMARK    1  A    between atoms: C_5  and  N_1 
REMARK    2  A    between atoms: C_2  and  C_5 
ROOT
ATOM      1  N   UNL d   1       2.550  -0.018   0.208  0.00  0.00    -0.284 N 
ATOM      2  C   UNL d   1       1.972   1.111  -0.350  0.00  0.00     0.227 C 
ATOM      3  C   UNL d   1       1.830  -1.139   0.583  0.00  0.00     0.227 C 
ATOM      4  C   UNL d   1      -0.336   0.128   0.199  0.00  0.00    -0.024 C 
ATOM      5  C   UNL d   1       0.528   1.376   0.012  0.00  0.00     0.113 C 
ATOM      6  C   UNL d   1       0.422  -0.882   1.059  0.00  0.00     0.113 C 
ATOM      7  O   UNL d   1       2.591   1.919  -1.042  0.00  0.00    -0.273 OA
ATOM      8  O   UNL d   1       2.292  -2.279   0.591  0.00  0.00    -0.273 OA
ATOM      9  C   UNL d   1      -0.773  -0.491  -1.150  0.00  0.00     0.010 C 
ATOM     10  C   UNL d   1      -1.667   0.504   0.908  0.00  0.00     0.010 C 
ATOM     11  C   UNL d   1      -2.778   0.230  -0.094  0.00  0.00     0.001 C 
ATOM     12  C   UNL d   1      -2.226  -0.902  -0.939  0.00  0.00     0.001 C 
ENDROOT
BRANCH   1  13
ATOM     13  C   UNL d   1       4.005  -0.103   0.225  0.00  0.00     0.174 C 
BRANCH  13  14
ATOM     14  C   UNL d   1       4.443   0.440   1.570  0.00  0.00    -0.022 A 
ATOM     15  C   UNL d   1       4.711   1.777   1.804  0.00  0.00     0.060 A 
ATOM     16  S   UNL d   1       5.045   2.113   3.438  0.00  0.00    -0.101 SA
ATOM     17  C   UNL d   1       4.853   0.466   3.894  0.00  0.00     0.015 A 
ATOM     18  C   UNL d   1       4.568  -0.341   2.788  0.00  0.00    -0.011 A 
ATOM     19  C   UNL d   1       4.954  -0.065   5.197  0.00  0.00     0.019 A 
ATOM     20  C   UNL d   1       4.412  -1.732   3.021  0.00  0.00     0.013 A 
ATOM     21  C   UNL d   1       4.513  -2.265   4.309  0.00  0.00     0.001 A 
ATOM     22  C   UNL d   1       4.774  -1.436   5.388  0.00  0.00     0.001 A 
ENDBRANCH  13  14
ENDBRANCH   1  13
TORSDOF 2
