REMARK  4 active torsions:
REMARK  status: ('A' for Active; 'I' for Inactive)
REMARK    1  A    between atoms: C_4  and  N_1 
REMARK    2  A    between atoms: C_2  and  N_3 
REMARK    3  A    between atoms: N_6  and  C_2 
REMARK    4  A    between atoms: N_3  and  C_11 
ROOT
ATOM      1  C   UNL d   1       0.222   0.707   0.785  0.00  0.00     0.103 A 
ATOM      2  C   UNL d   1       0.443   2.063   0.528  0.00  0.00     0.038 A 
ATOM      3  C   UNL d   1      -0.728   0.313   1.735  0.00  0.00     0.038 A 
ATOM      4  C   UNL d   1      -1.204   2.649   2.223  0.00  0.00     0.034 A 
ATOM      5  C   UNL d   1      -1.444   1.286   2.441  0.00  0.00     0.032 A 
ATOM      6  C   UNL d   1      -0.279   3.027   1.243  0.00  0.00     0.032 A 
ENDROOT
BRANCH   4   7
ATOM      7  N   UNL d   1      -1.966   3.583   2.961  0.00  0.00    -0.333 N 
ATOM      8  H   UNL d   1      -2.711   3.187   3.519  0.00  0.00     0.168 HD
BRANCH   7   9
ATOM      9  C   UNL d   1      -1.648   4.888   3.324  0.00  0.00     0.173 C 
ATOM     10  S   UNL d   1      -0.061   5.413   3.553  0.00  0.00    -0.041 SA
BRANCH   9  11
ATOM     11  N   UNL d   1      -2.784   5.692   3.565  0.00  0.00    -0.367 N 
ATOM     12  C   UNL d   1      -2.684   7.088   4.006  0.00  0.00     0.151 C 
ATOM     13  C   UNL d   1      -4.147   5.311   3.192  0.00  0.00     0.151 C 
ENDBRANCH   9  11
ENDBRANCH   7   9
ENDBRANCH   4   7
BRANCH   1  14
ATOM     14  N   UNL d   1       0.982  -0.306   0.042  0.00  0.00    -0.116 N 
ATOM     15  O   UNL d   1       1.783   0.085  -0.818  0.00  0.00    -0.532 OA
ATOM     16  O   UNL d   1       0.768  -1.497   0.317  0.00  0.00    -0.532 OA
ENDBRANCH   1  14
TORSDOF 4
