REMARK  9 active torsions:
REMARK  status: ('A' for Active; 'I' for Inactive)
REMARK    1  A    between atoms: C_9  and  C_3 
REMARK    2  A    between atoms: C_16  and  C_6 
REMARK    3  A    between atoms: C_7  and  C_10 
REMARK       I    between atoms: C_11  and  N_13 
REMARK    4  A    between atoms: C_26  and  C_11 
REMARK    5  A    between atoms: C_12  and  C_27 
REMARK    6  A    between atoms: O_25  and  C_12 
REMARK    7  A    between atoms: N_13  and  C_16 
REMARK    8  A    between atoms: O_24  and  C_26 
REMARK    9  A    between atoms: C_27  and  O_24 
ROOT
ATOM      1  N   UNL d   1       1.315   0.141  -0.092  0.00  0.00    -0.321 N 
ATOM      2  HN  UNL d   1       2.317   0.292  -0.210  1.00  0.00     0.169 HD
ATOM      3  C   UNL d   1       0.304   1.077  -0.010  0.00  0.00     0.137 A 
ATOM      4  N   UNL d   1      -0.923   0.538   0.104  0.00  0.00    -0.242 N 
ATOM      5  HN  UNL d   1      -1.819   1.022   0.162  1.00  0.00     0.196 HD
ATOM      6  C   UNL d   1       0.663  -0.994   0.019  0.00  0.00     0.166 A 
ATOM      7  O   UNL d   1      -0.686  -0.834   0.127  0.00  0.00    -0.221 OA
ENDROOT
BRANCH   6   8
ATOM      8  C   UNL d   1       1.174  -2.383   0.005  0.00  0.00     0.209 C 
BRANCH   8   9
ATOM      9  N   UNL d   1       1.285  -2.860  -1.358  0.00  0.00    -0.352 N 
ATOM     10  C   UNL d   1       1.768  -4.124  -1.604  0.00  0.00     0.241 C 
ATOM     11  O   UNL d   1       2.032  -4.926  -0.712  0.00  0.00    -0.271 OA
ATOM     12  H   UNL d   1       1.313  -2.190  -2.117  0.00  0.00     0.162 HD
BRANCH  10  13
ATOM     13  C   UNL d   1       1.878  -4.470  -3.087  0.00  0.00     0.271 C 
BRANCH  13  14
ATOM     14  O   UNL d   1       2.596  -3.467  -3.814  0.00  0.00    -0.372 OA
BRANCH  14  15
ATOM     15  C   UNL d   1       2.855  -3.900  -5.153  0.00  0.00     0.277 C 
BRANCH  15  16
ATOM     16  C   UNL d   1       1.607  -3.776  -6.016  0.00  0.00     0.164 C 
ATOM     17  O   UNL d   1       1.169  -4.657  -6.734  0.00  0.00    -0.648 OA
BRANCH  16  18
ATOM     18  O   UNL d   1       1.013  -2.564  -5.877  0.00  0.00    -0.775 OA
ATOM     19  H   UNL d   1       1.500  -2.007  -5.235  0.00  0.00     0.167 HD
ENDBRANCH  16  18
ENDBRANCH  15  16
ENDBRANCH  14  15
ENDBRANCH  13  14
ENDBRANCH  10  13
ENDBRANCH   8   9
ENDBRANCH   6   8
BRANCH   3  20
ATOM     20  C   UNL d   1       0.572   2.510  -0.043  0.00  0.00     0.010 A 
ATOM     21  C   UNL d   1       1.885   2.987  -0.123  0.00  0.00     0.016 A 
ATOM     22  C   UNL d   1       2.152   4.359  -0.145  0.00  0.00     0.017 A 
ATOM     23  C   UNL d   1       1.103   5.288  -0.078  0.00  0.00     0.048 A 
ATOM     24  C   UNL d   1      -0.212   4.815  -0.002  0.00  0.00     0.017 A 
ATOM     25  C   UNL d   1      -0.479   3.442   0.016  0.00  0.00     0.016 A 
BRANCH  23  26
ATOM     26  C   UNL d   1       1.372   6.774  -0.093  0.00  0.00     0.417 C 
ATOM     27  F   UNL d   1       2.697   7.089  -0.124  0.00  0.00    -0.166 F 
ATOM     28  F   UNL d   1       0.817   7.391  -1.173  0.00  0.00    -0.166 F 
ATOM     29  F   UNL d   1       0.864   7.406   1.001  0.00  0.00    -0.166 F 
ENDBRANCH  23  26
ENDBRANCH   3  20
TORSDOF 9
