REMARK  2 active torsions:
REMARK  status: ('A' for Active; 'I' for Inactive)
REMARK    1  A    between atoms: N_2  and  C_1 
REMARK       I    between atoms: C_3  and  N_2 
REMARK       I    between atoms: N_9  and  C_3 
REMARK    2  A    between atoms: C_8  and  N_9 
ROOT
ATOM      1  N   UNL d   1      -0.348  -2.811   0.500  0.00  0.00    -0.293 N 
ATOM      2  C   UNL d   1      -1.435  -3.518   0.009  0.00  0.00     0.326 C 
ATOM      3  N   UNL d   1      -2.599  -3.071   0.619  0.00  0.00    -0.309 N 
ATOM      4  O   UNL d   1      -1.362  -4.436  -0.801  0.00  0.00    -0.247 OA
ATOM      5  H   UNL d   1      -0.511  -1.827   0.662  0.00  0.00     0.172 HD
ATOM      6  H   UNL d   1      -2.446  -2.498   1.438  0.00  0.00     0.170 HD
ENDROOT
BRANCH   1   7
ATOM      7  C   UNL d   1       0.973  -3.196   0.357  0.00  0.00     0.126 A 
ATOM      8  N   UNL d   1       1.510  -4.463   0.225  0.00  0.00    -0.281 N 
ATOM      9  N   UNL d   1       2.862  -4.445   0.102  0.00  0.00    -0.308 N 
ATOM     10  C   UNL d   1       0.904  -5.766   0.383  0.00  0.00     0.179 C 
ATOM     11  C   UNL d   1       3.183  -3.160   0.216  0.00  0.00     0.111 A 
ATOM     12  HN  UNL d   1       3.488  -5.237  -0.043  1.00  0.00     0.186 HD
ATOM     13  C   UNL d   1       2.059  -2.345   0.403  0.00  0.00     0.068 A 
ENDBRANCH   1   7
BRANCH   3  14
ATOM     14  C   UNL d   1      -3.870  -3.672   0.508  0.00  0.00     0.039 A 
ATOM     15  C   UNL d   1      -4.764  -3.478   1.567  0.00  0.00     0.053 A 
ATOM     16  C   UNL d   1      -5.987  -4.152   1.585  0.00  0.00     0.037 A 
ATOM     17 CL   UNL d   1      -7.034  -3.976   2.939  0.00  0.00    -0.084 Cl
ATOM     18  C   UNL d   1      -6.352  -4.986   0.534  0.00  0.00     0.048 A 
ATOM     19  C   UNL d   1      -5.489  -5.126  -0.549  0.00  0.00     0.037 A 
ATOM     20  C   UNL d   1      -4.254  -4.473  -0.569  0.00  0.00     0.053 A 
ATOM     21 CL   UNL d   1      -5.944  -6.133  -1.869  0.00  0.00    -0.084 Cl
ENDBRANCH   3  14
TORSDOF 2
