REMARK  6 active torsions:
REMARK  status: ('A' for Active; 'I' for Inactive)
REMARK    1  A    between atoms: C_3  and  C_1 
REMARK    2  A    between atoms: C_10  and  C_2 
REMARK    3  A    between atoms: S_4  and  O_16 
REMARK    4  A    between atoms: N_17  and  S_4 
REMARK    5  A    between atoms: C_20  and  C_9 
REMARK    6  A    between atoms: O_16  and  C_25 
ROOT
ATOM      1  C   UNL d   1       0.264  -2.703   0.087  0.00  0.00     0.187 A 
ATOM      2  N   UNL d   1       1.190  -3.262   0.838  0.00  0.00    -0.318 N 
ATOM      3  HN  UNL d   1       1.820  -2.819   1.508  1.00  0.00     0.169 HD
ATOM      4  C   UNL d   1       1.098  -4.592   0.495  0.00  0.00     0.138 A 
ATOM      5  N   UNL d   1       0.192  -4.851  -0.459  0.00  0.00    -0.242 N 
ATOM      6  HN  UNL d   1      -0.018  -5.744  -0.905  1.00  0.00     0.196 HD
ATOM      7  O   UNL d   1      -0.393  -3.615  -0.695  0.00  0.00    -0.217 OA
ENDROOT
BRANCH   1   8
ATOM      8  C   UNL d   1      -0.060  -1.262   0.073  0.00  0.00     0.078 A 
ATOM      9  C   UNL d   1       0.746  -0.129   0.374  0.00  0.00     0.087 A 
ATOM     10  N   UNL d   1       0.018   0.991   0.205  0.00  0.00    -0.259 N 
ATOM     11  O   UNL d   1      -1.249   0.594  -0.168  0.00  0.00    -0.241 OA
ATOM     12  HN  UNL d   1       0.343   1.950   0.329  1.00  0.00     0.195 HD
ATOM     13  C   UNL d   1      -1.293  -0.758  -0.262  0.00  0.00     0.089 A 
ATOM     14  C   UNL d   1      -2.594  -1.361  -0.614  0.00  0.00     0.080 C 
BRANCH   9  15
ATOM     15  C   UNL d   1       2.170  -0.064   0.710  0.00  0.00     0.054 A 
ATOM     16  C   UNL d   1       3.078  -0.869   0.004  0.00  0.00     0.130 A 
ATOM     17  F   UNL d   1       2.662  -1.633  -1.018  0.00  0.00    -0.205 F 
ATOM     18  C   UNL d   1       4.439  -0.896   0.306  0.00  0.00     0.043 A 
ATOM     19  C   UNL d   1       4.941  -0.068   1.301  0.00  0.00     0.005 A 
ATOM     20  C   UNL d   1       4.073   0.782   1.984  0.00  0.00     0.025 A 
ATOM     21  C   UNL d   1       2.696   0.781   1.703  0.00  0.00     0.049 A 
ATOM     22 CL   UNL d   1       1.723   1.841   2.667  0.00  0.00    -0.083 Cl
ENDBRANCH   9  15
ENDBRANCH   1   8
BRANCH   4  23
ATOM     23  C   UNL d   1       1.839  -5.637   1.179  0.00  0.00     0.010 A 
ATOM     24  C   UNL d   1       2.146  -5.512   2.539  0.00  0.00     0.018 A 
ATOM     25  C   UNL d   1       2.771  -6.561   3.219  0.00  0.00     0.039 A 
ATOM     26  C   UNL d   1       3.120  -7.732   2.541  0.00  0.00     0.090 A 
ATOM     27  C   UNL d   1       2.820  -7.861   1.185  0.00  0.00     0.039 A 
ATOM     28  C   UNL d   1       2.187  -6.816   0.507  0.00  0.00     0.018 A 
BRANCH  26  29
ATOM     29  O   UNL d   1       3.729  -8.704   3.293  0.00  0.00    -0.221 OA
BRANCH  29  30
ATOM     30  S   UNL d   1       4.691  -9.834   2.612  0.00  0.00     0.344 S 
ATOM     31  O   UNL d   1       3.859 -10.919   2.146  0.00  0.00    -0.180 OA
ATOM     32  O   UNL d   1       5.624  -9.176   1.717  0.00  0.00    -0.180 OA
BRANCH  30  33
ATOM     33  N   UNL d   1       5.609 -10.411   3.929  0.00  0.00    -0.196 NA
ATOM     34  C   UNL d   1       6.435  -9.383   4.588  0.00  0.00     0.131 C 
ATOM     35  C   UNL d   1       4.878 -11.266   4.879  0.00  0.00     0.131 C 
ENDBRANCH  30  33
ENDBRANCH  29  30
ENDBRANCH  26  29
ENDBRANCH   4  23
TORSDOF 6
