REMARK  6 active torsions:
REMARK  status: ('A' for Active; 'I' for Inactive)
REMARK    1  A    between atoms: S_10  and  C_1 
REMARK    2  A    between atoms: C_5  and  O_11 
REMARK       I    between atoms: N_8  and  C_5 
REMARK    3  A    between atoms: C_12  and  N_8 
REMARK    4  A    between atoms: C_15  and  S_10 
REMARK    5  A    between atoms: O_11  and  C_16 
REMARK    6  A    between atoms: C_16  and  C_15 
ROOT
ATOM      1  C   UNL d   1      -4.816   0.034  -0.335  0.00  0.00     0.108 C 
ENDROOT
BRANCH   1   2
ATOM      2  S   UNL d   1      -3.681  -1.360  -0.611  0.00  0.00    -0.103 SA
BRANCH   2   3
ATOM      3  C   UNL d   1      -2.118  -0.577  -0.614  0.00  0.00     0.113 A 
ATOM      4  N   UNL d   1      -1.969   0.715  -0.447  0.00  0.00    -0.344 N 
ATOM      5  C   UNL d   1      -0.618   1.034  -0.482  0.00  0.00     0.050 A 
ATOM      6  HN  UNL d   1      -2.728   1.383  -0.312  1.00  0.00     0.167 HD
ATOM      7  C   UNL d   1      -0.066   2.323  -0.339  0.00  0.00     0.031 A 
ATOM      8  C   UNL d   1       0.249  -0.045  -0.676  0.00  0.00     0.034 A 
ATOM      9  C   UNL d   1       1.323   2.497  -0.387  0.00  0.00     0.002 A 
ATOM     10  C   UNL d   1       2.165   1.405  -0.577  0.00  0.00     0.002 A 
ATOM     11  C   UNL d   1       1.644   0.117  -0.726  0.00  0.00     0.021 A 
ATOM     12  S   UNL d   1      -0.680  -1.484  -0.824  0.00  0.00    -0.063 SA
ENDBRANCH   2   3
ENDBRANCH   1   2
BRANCH   1  13
ATOM     13  C   UNL d   1      -6.234  -0.521  -0.211  0.00  0.00     0.191 C 
BRANCH  13  14
ATOM     14  O   UNL d   1      -7.211   0.503   0.042  0.00  0.00    -0.303 OA
BRANCH  14  15
ATOM     15  C   UNL d   1      -7.700   1.132  -1.054  0.00  0.00     0.365 C 
ATOM     16  N   UNL d   1      -8.819   1.897  -0.859  0.00  0.00    -0.303 N 
ATOM     17  H   UNL d   1      -9.118   2.320  -1.728  0.00  0.00     0.171 HD
ATOM     18  O   UNL d   1      -7.218   1.024  -2.177  0.00  0.00    -0.238 OA
BRANCH  16  19
ATOM     19  C   UNL d   1      -9.660   2.085   0.254  0.00  0.00     0.036 A 
ATOM     20  C   UNL d   1      -9.441   1.553   1.526  0.00  0.00     0.029 A 
ATOM     21  C   UNL d   1     -10.372   1.758   2.553  0.00  0.00     0.002 A 
ATOM     22  C   UNL d   1     -11.528   2.498   2.320  0.00  0.00     0.000 A 
ATOM     23  C   UNL d   1     -11.750   3.048   1.063  0.00  0.00     0.002 A 
ATOM     24  C   UNL d   1     -10.820   2.845   0.039  0.00  0.00     0.029 A 
ENDBRANCH  16  19
ENDBRANCH  14  15
ENDBRANCH  13  14
ENDBRANCH   1  13
TORSDOF 6
