REMARK  6 active torsions:
REMARK  status: ('A' for Active; 'I' for Inactive)
REMARK    1  A    between atoms: S_7  and  C_2 
REMARK    2  A    between atoms: S_8  and  C_2 
REMARK    3  A    between atoms: C_3  and  C_10 
REMARK    4  A    between atoms: C_4  and  C_9 
REMARK    5  A    between atoms: C_9  and  S_7 
REMARK    6  A    between atoms: C_10  and  S_8 
ROOT
ATOM      1  C   UNL d   1       0.054  -0.336   0.035  0.00  0.00     0.147 C 
ATOM      2  C   UNL d   1      -0.021  -1.688   0.118  0.00  0.00     0.069 C 
ATOM      3  C   UNL d   1       1.208   0.340  -0.460  0.00  0.00     0.112 C 
ATOM      4  C   UNL d   1      -0.990   0.535   0.442  0.00  0.00     0.112 C 
ATOM      5  N   UNL d   1       2.140   0.928  -0.825  0.00  0.00    -0.191 NA
ATOM      6  N   UNL d   1      -1.841   1.272   0.733  0.00  0.00    -0.191 NA
ENDROOT
BRANCH   2   7
ATOM      7  S   UNL d   1      -1.422  -2.593   0.717  0.00  0.00    -0.116 SA
BRANCH   7   8
ATOM      8  C   UNL d   1      -2.848  -1.909  -0.189  0.00  0.00     0.123 C 
BRANCH   8   9
ATOM      9  C   UNL d   1      -4.103  -2.744  -0.099  0.00  0.00     0.012 A 
ATOM     10  C   UNL d   1      -4.486  -3.521  -1.199  0.00  0.00     0.125 A 
ATOM     11  F   UNL d   1      -3.706  -3.558  -2.289  0.00  0.00    -0.205 F 
ATOM     12  C   UNL d   1      -5.683  -4.237  -1.219  0.00  0.00     0.043 A 
ATOM     13  C   UNL d   1      -6.533  -4.194  -0.119  0.00  0.00     0.005 A 
ATOM     14  C   UNL d   1      -6.172  -3.442   0.997  0.00  0.00     0.024 A 
ATOM     15  C   UNL d   1      -4.966  -2.724   1.009  0.00  0.00     0.044 A 
ATOM     16 CL   UNL d   1      -4.619  -1.793   2.423  0.00  0.00    -0.084 Cl
ENDBRANCH   8   9
ENDBRANCH   7   8
ENDBRANCH   2   7
BRANCH   2  17
ATOM     17  S   UNL d   1       1.346  -2.720  -0.359  0.00  0.00    -0.116 SA
BRANCH  17  18
ATOM     18  C   UNL d   1       2.543  -2.406   0.991  0.00  0.00     0.123 C 
BRANCH  18  19
ATOM     19  C   UNL d   1       3.890  -3.041   0.734  0.00  0.00     0.012 A 
ATOM     20  C   UNL d   1       4.838  -2.346  -0.030  0.00  0.00     0.125 A 
ATOM     21  F   UNL d   1       4.535  -1.137  -0.524  0.00  0.00    -0.205 F 
ATOM     22  C   UNL d   1       6.110  -2.858  -0.286  0.00  0.00     0.043 A 
ATOM     23  C   UNL d   1       6.468  -4.100   0.224  0.00  0.00     0.005 A 
ATOM     24  C   UNL d   1       5.544  -4.818   0.983  0.00  0.00     0.024 A 
ATOM     25  C   UNL d   1       4.265  -4.296   1.232  0.00  0.00     0.044 A 
ATOM     26 CL   UNL d   1       3.193  -5.255   2.189  0.00  0.00    -0.084 Cl
ENDBRANCH  18  19
ENDBRANCH  17  18
ENDBRANCH   2  17
TORSDOF 6
