REMARK  4 active torsions:
REMARK  status: ('A' for Active; 'I' for Inactive)
REMARK       I    between atoms: C_2  and  N_1 
REMARK       I    between atoms: N_8  and  C_2 
REMARK    1  A    between atoms: C_5  and  C_11 
REMARK    2  A    between atoms: C_16  and  N_8 
REMARK    3  A    between atoms: O_21  and  C_10 
REMARK    4  A    between atoms: O_22  and  C_13 
ROOT
ATOM      1  N   UNL d   1      -2.469   0.654  -0.165  0.00  0.00    -0.325 N 
ATOM      2  C   UNL d   1      -3.293   1.005  -1.227  0.00  0.00     0.323 C 
ATOM      3  C   UNL d   1      -0.044   0.603   0.312  0.00  0.00    -0.026 A 
ATOM      4  C   UNL d   1      -1.334   1.411   0.386  0.00  0.00     0.118 C 
ATOM      5  C   UNL d   1      -0.049  -0.784   0.087  0.00  0.00    -0.045 A 
ATOM      6  C   UNL d   1       1.185   1.267   0.446  0.00  0.00     0.049 A 
ATOM      7  N   UNL d   1      -3.158   2.278  -1.730  0.00  0.00    -0.309 N 
ATOM      8  C   UNL d   1      -2.560  -0.723   0.334  0.00  0.00     0.133 C 
ATOM      9  C   UNL d   1       2.399   0.578   0.343  0.00  0.00     0.102 A 
ATOM     10  C   UNL d   1       1.168  -1.474  -0.033  0.00  0.00     0.047 A 
ATOM     11  C   UNL d   1       2.393  -0.805   0.087  0.00  0.00     0.102 A 
ATOM     12  O   UNL d   1      -4.101   0.183  -1.668  0.00  0.00    -0.247 OA
ATOM     13  C   UNL d   1      -1.346  -1.533  -0.116  0.00  0.00     0.059 C 
ATOM     14  C   UNL d   1      -1.625   1.866   1.821  0.00  0.00     0.037 C 
ATOM     15  H   UNL d   1      -2.441   2.865  -1.349  0.00  0.00     0.170 HD
ENDROOT
BRANCH   7  16
ATOM     16  C   UNL d   1      -3.860   2.845  -2.824  0.00  0.00     0.037 A 
ATOM     17  C   UNL d   1      -4.900   2.203  -3.504  0.00  0.00     0.045 A 
ATOM     18  C   UNL d   1      -5.513   2.788  -4.625  0.00  0.00     0.050 A 
ATOM     19  C   UNL d   1      -5.084   4.050  -5.053  0.00  0.00     0.016 A 
ATOM     20  C   UNL d   1      -4.074   4.718  -4.365  0.00  0.00     0.003 A 
ATOM     21  C   UNL d   1      -3.468   4.119  -3.256  0.00  0.00     0.029 A 
BRANCH  18  22
ATOM     22  C   UNL d   1      -6.604   2.063  -5.375  0.00  0.00     0.417 C 
ATOM     23  F   UNL d   1      -6.936   0.853  -4.847  0.00  0.00    -0.166 F 
ATOM     24  F   UNL d   1      -7.763   2.778  -5.422  0.00  0.00    -0.166 F 
ATOM     25  F   UNL d   1      -6.266   1.822  -6.673  0.00  0.00    -0.166 F 
ENDBRANCH  18  22
ENDBRANCH   7  16
BRANCH   9  26
ATOM     26  O   UNL d   1       3.623   1.196   0.426  0.00  0.00    -0.353 OA
ATOM     27  C   UNL d   1       3.661   2.441   1.115  0.00  0.00     0.210 C 
ENDBRANCH   9  26
BRANCH  11  28
ATOM     28  O   UNL d   1       3.619  -1.413  -0.025  0.00  0.00    -0.353 OA
ATOM     29  C   UNL d   1       3.634  -2.811  -0.288  0.00  0.00     0.210 C 
ENDBRANCH  11  28
TORSDOF 4
