REMARK  6 active torsions:
REMARK  status: ('A' for Active; 'I' for Inactive)
REMARK    1  A    between atoms: C_9  and  C_1 
REMARK    2  A    between atoms: C_11  and  C_1 
REMARK    3  A    between atoms: C_10  and  C_2 
REMARK    4  A    between atoms: C_3  and  C_6 
REMARK    5  A    between atoms: C_4  and  C_7 
REMARK    6  A    between atoms: C_20  and  C_11 
ROOT
ATOM      1  C   UNL d   1      -1.032  -0.723  -1.167  0.00  0.00     0.098 C 
ATOM      2  C   UNL d   1      -1.837  -1.619  -1.927  0.00  0.00     0.103 C 
ATOM      3  N   UNL d   1      -2.510  -2.333  -2.551  0.00  0.00    -0.191 NA
ENDROOT
BRANCH   1   4
ATOM      4  C   UNL d   1       0.290  -0.899  -0.976  0.00  0.00     0.064 C 
ATOM      5  C   UNL d   1       1.024  -1.909  -1.658  0.00  0.00     0.077 A 
ATOM      6  O   UNL d   1       0.768  -2.274  -2.963  0.00  0.00    -0.310 OA
ATOM      7  C   UNL d   1       2.108  -2.658  -1.225  0.00  0.00     0.040 A 
ATOM      8  C   UNL d   1       1.666  -3.222  -3.347  0.00  0.00     0.086 A 
ATOM      9  C   UNL d   1       2.504  -3.504  -2.291  0.00  0.00     0.041 A 
BRANCH   8  10
ATOM     10  C   UNL d   1       1.595  -3.655  -4.741  0.00  0.00    -0.001 A 
ATOM     11  C   UNL d   1       2.741  -4.168  -5.367  0.00  0.00     0.030 A 
ATOM     12  C   UNL d   1       2.740  -4.522  -6.727  0.00  0.00     0.049 A 
ATOM     13  C   UNL d   1       1.556  -4.381  -7.463  0.00  0.00     0.032 A 
ATOM     14  C   UNL d   1       0.392  -3.873  -6.866  0.00  0.00     0.049 A 
ATOM     15  C   UNL d   1       0.422  -3.522  -5.502  0.00  0.00     0.030 A 
BRANCH  12  16
ATOM     16  C   UNL d   1       4.019  -4.997  -7.373  0.00  0.00     0.417 C 
ATOM     17  F   UNL d   1       3.896  -5.253  -8.704  0.00  0.00    -0.166 F 
ATOM     18  F   UNL d   1       5.021  -4.081  -7.260  0.00  0.00    -0.166 F 
ATOM     19  F   UNL d   1       4.494  -6.142  -6.811  0.00  0.00    -0.166 F 
ENDBRANCH  12  16
BRANCH  14  20
ATOM     20  C   UNL d   1      -0.865  -3.663  -7.680  0.00  0.00     0.417 C 
ATOM     21  F   UNL d   1      -0.699  -3.948  -9.004  0.00  0.00    -0.166 F 
ATOM     22  F   UNL d   1      -1.902  -4.436  -7.261  0.00  0.00    -0.166 F 
ATOM     23  F   UNL d   1      -1.305  -2.376  -7.635  0.00  0.00    -0.166 F 
ENDBRANCH  14  20
ENDBRANCH   8  10
ENDBRANCH   1   4
BRANCH   1  24
ATOM     24  C   UNL d   1      -1.666   0.456  -0.495  0.00  0.00     0.202 C 
ATOM     25  O   UNL d   1      -1.214   0.933   0.544  0.00  0.00    -0.286 OA
BRANCH  24  26
ATOM     26  C   UNL d   1      -2.890   1.051  -1.108  0.00  0.00     0.015 A 
ATOM     27  C   UNL d   1      -3.890   1.560  -0.270  0.00  0.00     0.015 A 
ATOM     28  C   UNL d   1      -5.072   2.066  -0.820  0.00  0.00     0.001 A 
ATOM     29  C   UNL d   1      -5.254   2.074  -2.203  0.00  0.00     0.000 A 
ATOM     30  C   UNL d   1      -4.244   1.610  -3.042  0.00  0.00     0.001 A 
ATOM     31  C   UNL d   1      -3.056   1.120  -2.499  0.00  0.00     0.015 A 
ENDBRANCH  24  26
ENDBRANCH   1  24
TORSDOF 6
