REMARK  4 active torsions:
REMARK  status: ('A' for Active; 'I' for Inactive)
REMARK    1  A    between atoms: C_3  and  S_1 
REMARK    2  A    between atoms: C_4  and  S_1 
REMARK    3  A    between atoms: S_2  and  C_3 
REMARK    4  A    between atoms: C_5  and  S_2 
ROOT
ATOM      1  C   UNL d   1       0.541   0.096  -1.561  0.00  0.00     0.291 C 
ENDROOT
BRANCH   1   2
ATOM      2  S   UNL d   1       0.995   1.515  -2.474  0.00  0.00     0.189 S 
ATOM      3  O   UNL d   1       0.388   1.382  -3.785  0.00  0.00    -0.222 OA
ATOM      4  O   UNL d   1       0.709   2.687  -1.671  0.00  0.00    -0.222 OA
BRANCH   2   5
ATOM      5  C   UNL d   1       2.743   1.434  -2.738  0.00  0.00     0.061 A 
ATOM      6  C   UNL d   1       3.268   0.368  -3.473  0.00  0.00     0.047 A 
ATOM      7  C   UNL d   1       4.648   0.275  -3.634  0.00  0.00     0.035 A 
ATOM      8 CL   UNL d   1       5.312  -1.038  -4.525  0.00  0.00    -0.084 Cl
ATOM      9  C   UNL d   1       5.494   1.234  -3.077  0.00  0.00     0.024 A 
ATOM     10  C   UNL d   1       4.957   2.319  -2.380  0.00  0.00     0.003 A 
ATOM     11  C   UNL d   1       3.576   2.429  -2.218  0.00  0.00     0.023 A 
ENDBRANCH   2   5
ENDBRANCH   1   2
BRANCH   1  12
ATOM     12  S   UNL d   1       1.263  -0.042   0.020  0.00  0.00     0.189 S 
ATOM     13  O   UNL d   1       2.705  -0.010  -0.127  0.00  0.00    -0.222 OA
ATOM     14  O   UNL d   1       0.640  -1.184   0.666  0.00  0.00    -0.222 OA
BRANCH  12  15
ATOM     15  C   UNL d   1       0.770   1.370   0.966  0.00  0.00     0.061 A 
ATOM     16  C   UNL d   1       1.735   2.270   1.423  0.00  0.00     0.047 A 
ATOM     17  C   UNL d   1       1.335   3.341   2.217  0.00  0.00     0.035 A 
ATOM     18 CL   UNL d   1       2.510   4.452   2.803  0.00  0.00    -0.084 Cl
ATOM     19  C   UNL d   1      -0.009   3.513   2.554  0.00  0.00     0.024 A 
ATOM     20  C   UNL d   1      -0.967   2.610   2.091  0.00  0.00     0.003 A 
ATOM     21  C   UNL d   1      -0.580   1.529   1.298  0.00  0.00     0.023 A 
ENDBRANCH  12  15
ENDBRANCH   1  12
TORSDOF 4
