REMARK  4 active torsions:
REMARK  status: ('A' for Active; 'I' for Inactive)
REMARK    1  A    between atoms: C_3  and  C_1 
REMARK       I    between atoms: N_4  and  C_1 
REMARK    2  A    between atoms: N_2  and  C_5 
REMARK    3  A    between atoms: N_9  and  N_4 
REMARK    4  A    between atoms: C_8  and  N_9 
ROOT
ATOM      1  C   UNL d   1       1.130  -0.268   1.367  0.00  0.00     0.275 C 
ATOM      2  N   UNL d   1       0.099  -0.835   0.622  0.00  0.00    -0.262 N 
ATOM      3  O   UNL d   1       0.955   0.530   2.278  0.00  0.00    -0.266 OA
ATOM      4  H   UNL d   1       0.238  -1.681   0.077  0.00  0.00     0.190 HD
ENDROOT
BRANCH   2   5
ATOM      5  N   UNL d   1      -1.228  -0.605   1.053  0.00  0.00    -0.278 N 
ATOM      6  C   UNL d   1      -1.635  -1.284   2.278  0.00  0.00     0.179 C 
BRANCH   5   7
ATOM      7  C   UNL d   1      -2.207  -0.397   0.068  0.00  0.00     0.121 A 
ATOM      8  N   UNL d   1      -3.494  -0.726   0.349  0.00  0.00    -0.349 N 
ATOM      9  C   UNL d   1      -4.480  -0.346  -0.501  0.00  0.00     0.125 A 
ATOM     10  HN  UNL d   1      -3.717  -1.254   1.192  1.00  0.00     0.167 HD
ATOM     11  C   UNL d   1      -4.239   0.349  -1.668  0.00  0.00     0.118 A 
ATOM     12  C   UNL d   1      -2.921   0.623  -2.019  0.00  0.00     0.041 A 
ATOM     13  C   UNL d   1      -1.899   0.244  -1.139  0.00  0.00     0.052 A 
BRANCH  11  14
ATOM     14  N   UNL d   1      -5.357   0.822  -2.470  0.00  0.00    -0.114 N 
ATOM     15  O   UNL d   1      -6.502   0.604  -2.049  0.00  0.00    -0.532 OA
ATOM     16  O   UNL d   1      -5.097   1.424  -3.521  0.00  0.00    -0.532 OA
ENDBRANCH  11  14
ENDBRANCH   5   7
ENDBRANCH   2   5
BRANCH   1  17
ATOM     17  C   UNL d   1       2.509  -0.721   1.030  0.00  0.00     0.093 A 
ATOM     18  C   UNL d   1       2.716  -2.029   0.574  0.00  0.00     0.133 A 
ATOM     19  F   UNL d   1       1.687  -2.880   0.444  0.00  0.00    -0.205 F 
ATOM     20  C   UNL d   1       3.987  -2.497   0.240  0.00  0.00     0.043 A 
ATOM     21  C   UNL d   1       5.088  -1.657   0.364  0.00  0.00     0.005 A 
ATOM     22  C   UNL d   1       4.908  -0.358   0.836  0.00  0.00     0.025 A 
ATOM     23  C   UNL d   1       3.629   0.114   1.172  0.00  0.00     0.052 A 
ATOM     24 CL   UNL d   1       3.548   1.759   1.699  0.00  0.00    -0.083 Cl
ENDBRANCH   1  17
TORSDOF 4
