REMARK  5 active torsions:
REMARK  status: ('A' for Active; 'I' for Inactive)
REMARK    1  A    between atoms: O_7  and  C_2 
REMARK    2  A    between atoms: C_11  and  O_7 
REMARK    3  A    between atoms: C_8  and  C_11 
REMARK    4  A    between atoms: C_9  and  C_8 
REMARK    5  A    between atoms: O_19  and  C_15 
ROOT
ATOM      1  O   UNL d   1      -0.277  -3.085  -0.071  0.00  0.00    -0.342 OA
ENDROOT
BRANCH   1   2
ATOM      2  C   UNL d   1      -0.600  -1.742  -0.111  0.00  0.00     0.088 A 
ATOM      3  C   UNL d   1      -1.836  -1.222  -0.093  0.00  0.00     0.120 A 
ATOM      4  C   UNL d   1      -2.096   0.224  -0.122  0.00  0.00     0.290 A 
ATOM      5  O   UNL d   1      -1.006   1.067  -0.216  0.00  0.00    -0.275 OA
ATOM      6  O   UNL d   1      -3.247   0.643  -0.059  0.00  0.00    -0.260 OA
ATOM      7  C   UNL d   1       0.303   0.553  -0.238  0.00  0.00     0.092 A 
ATOM      8  C   UNL d   1       1.334   1.489  -0.318  0.00  0.00     0.038 A 
ATOM      9  C   UNL d   1       0.544  -0.821  -0.178  0.00  0.00     0.031 A 
ATOM     10  C   UNL d   1       2.654   1.047  -0.336  0.00  0.00     0.003 A 
ATOM     11  C   UNL d   1       2.925  -0.321  -0.275  0.00  0.00     0.001 A 
ATOM     12  C   UNL d   1       1.878  -1.248  -0.201  0.00  0.00     0.017 A 
ENDBRANCH   1   2
BRANCH   1  13
ATOM     13  C   UNL d   1      -1.341  -4.024  -0.184  0.00  0.00     0.259 C 
BRANCH  13  14
ATOM     14  C   UNL d   1      -0.786  -5.440  -0.226  0.00  0.00     0.183 C 
ATOM     15  O   UNL d   1      -0.626  -6.026  -1.298  0.00  0.00    -0.290 OA
BRANCH  14  16
ATOM     16  C   UNL d   1      -0.449  -6.144   1.050  0.00  0.00     0.012 A 
ATOM     17  C   UNL d   1      -0.559  -5.534   2.305  0.00  0.00     0.018 A 
ATOM     18  C   UNL d   1      -0.237  -6.245   3.470  0.00  0.00     0.037 A 
ATOM     19  C   UNL d   1       0.210  -7.564   3.389  0.00  0.00     0.068 A 
ATOM     20  C   UNL d   1       0.299  -8.182   2.143  0.00  0.00     0.037 A 
ATOM     21  C   UNL d   1      -0.021  -7.477   0.980  0.00  0.00     0.018 A 
BRANCH  19  22
ATOM     22  O   UNL d   1       0.545  -8.346   4.460  0.00  0.00    -0.356 OA
ATOM     23  C   UNL d   1       1.072  -7.649   5.585  0.00  0.00     0.210 C 
ENDBRANCH  19  22
ENDBRANCH  14  16
ENDBRANCH  13  14
ENDBRANCH   1  13
TORSDOF 5
