REMARK  3 active torsions:
REMARK  status: ('A' for Active; 'I' for Inactive)
REMARK    1  A    between atoms: C_2  and  S_1 
REMARK    2  A    between atoms: C_5  and  S_1 
REMARK    3  A    between atoms: O_13  and  N_6 
ROOT
ATOM      1  C   UNL d   1       2.686   0.465  -0.271  0.00  0.00     0.234 C 
ATOM      2  C   UNL d   1       3.319   1.090   0.858  0.00  0.00     0.132 C 
ATOM      3  N   UNL d   1       3.825   1.595   1.776  0.00  0.00    -0.189 NA
ATOM      4  N   UNL d   1       3.343   0.272  -1.383  0.00  0.00    -0.248 N 
ATOM      5  HN  UNL d   1       2.937  -0.167  -2.209  1.00  0.00     0.195 HD
ENDROOT
BRANCH   1   6
ATOM      6  S   UNL d   1       1.020  -0.016  -0.073  0.00  0.00     0.234 S 
ATOM      7  O   UNL d   1       0.243   1.202   0.066  0.00  0.00    -0.215 OA
ATOM      8  O   UNL d   1       0.997  -1.046   0.950  0.00  0.00    -0.215 OA
BRANCH   6   9
ATOM      9  C   UNL d   1       0.545  -0.781  -1.607  0.00  0.00     0.066 A 
ATOM     10  C   UNL d   1       0.706  -2.162  -1.768  0.00  0.00     0.025 A 
ATOM     11  C   UNL d   1       0.310  -2.764  -2.964  0.00  0.00     0.025 A 
ATOM     12  C   UNL d   1      -0.252  -1.990  -3.980  0.00  0.00     0.034 A 
ATOM     13  C   UNL d   1      -0.432  -0.617  -3.809  0.00  0.00     0.025 A 
ATOM     14 CL   UNL d   1      -0.733  -2.737  -5.453  0.00  0.00    -0.084 Cl
ATOM     15  C   UNL d   1      -0.039  -0.006  -2.616  0.00  0.00     0.025 A 
ENDBRANCH   6   9
ENDBRANCH   1   6
BRANCH   4  16
ATOM     16  O   UNL d   1       4.667   0.734  -1.319  0.00  0.00    -0.288 OA
ATOM     17  H   UNL d   1       5.027   0.517  -2.202  0.00  0.00     0.244 HD
ENDBRANCH   4  16
TORSDOF 3
