REMARK  7 active torsions:
REMARK  status: ('A' for Active; 'I' for Inactive)
REMARK       I    between atoms: N_2  and  C_1 
REMARK    1  A    between atoms: O_5  and  C_1 
REMARK    2  A    between atoms: CA_3  and  N_2 
REMARK    3  A    between atoms: C_6  and  CA_3 
REMARK    4  A    between atoms: CA_3  and  C_4 
REMARK    5  A    between atoms: OXT_12  and  C_4 
REMARK    6  A    between atoms: C_10  and  O_5 
REMARK    7  A    between atoms: C_9  and  C_6 
ROOT
ATOM      1  CA  UNL d   1       0.763   2.483   1.516  0.00  0.00     0.188 C 
ENDROOT
BRANCH   1   2
ATOM      2  C   UNL d   1       0.084   3.777   2.003  0.00  0.00     0.074 C 
BRANCH   2   3
ATOM      3  C   UNL d   1      -0.257   3.821   3.470  0.00  0.00    -0.053 A 
ATOM      4  C   UNL d   1      -1.595   3.864   3.884  0.00  0.00     0.049 A 
ATOM      5  C   UNL d   1      -1.901   3.991   5.234  0.00  0.00     0.116 A 
ATOM      6  F   UNL d   1      -3.182   4.062   5.618  0.00  0.00    -0.206 F 
ATOM      7  C   UNL d   1      -0.896   4.064   6.191  0.00  0.00     0.042 A 
ATOM      8  C   UNL d   1       0.438   4.005   5.793  0.00  0.00     0.003 A 
ATOM      9  C   UNL d   1       0.757   3.886   4.439  0.00  0.00     0.007 A 
ENDBRANCH   2   3
ENDBRANCH   1   2
BRANCH   1  10
ATOM     10  C   UNL d   1      -0.273   1.343   1.449  0.00  0.00     0.163 C 
ATOM     11  O   UNL d   1      -1.480   1.504   1.323  0.00  0.00    -0.648 OA
BRANCH  10  12
ATOM     12  OXT UNL d   1       0.279   0.109   1.503  0.00  0.00    -0.775 OA
ATOM     13  HXT UNL d   1       1.240   0.115   1.285  0.00  0.00     0.167 HD
ENDBRANCH  10  12
ENDBRANCH   1  10
BRANCH   1  14
ATOM     14  N   UNL d   1       1.357   2.741   0.210  0.00  0.00    -0.322 N 
ATOM     15  C   UNL d   1       2.133   1.863  -0.476  0.00  0.00     0.362 C 
ATOM     16  O   UNL d   1       2.260   0.690  -0.180  0.00  0.00    -0.238 OA
ATOM     17  H   UNL d   1       1.452   3.694  -0.118  0.00  0.00     0.165 HD
BRANCH  15  18
ATOM     18  O   UNL d   1       2.689   2.539  -1.497  0.00  0.00    -0.294 OA
BRANCH  18  19
ATOM     19  C   UNL d   1       3.111   1.942  -2.748  0.00  0.00     0.061 C 
ATOM     20  C   UNL d   1       1.881   1.910  -3.657  0.00  0.00     0.046 C 
ATOM     21  C   UNL d   1       4.140   2.925  -3.322  0.00  0.00     0.046 C 
ATOM     22  C   UNL d   1       3.755   0.558  -2.643  0.00  0.00     0.046 C 
ENDBRANCH  18  19
ENDBRANCH  15  18
ENDBRANCH   1  14
TORSDOF 7
