REMARK  4 active torsions:
REMARK  status: ('A' for Active; 'I' for Inactive)
REMARK    1  A    between atoms: C_3  and  C_1 
REMARK    2  A    between atoms: S_2  and  C_10 
REMARK    3  A    between atoms: C_14  and  S_2 
REMARK    4  A    between atoms: C_10  and  C_9 
ROOT
ATOM      1  C   UNL d   1       3.948   0.134   0.147  0.00  0.00     0.057 A 
ATOM      2  N   UNL d   1       4.710  -0.503  -0.830  0.00  0.00    -0.352 N 
ATOM      3  HN  UNL d   1       4.326  -1.048  -1.603  1.00  0.00     0.166 HD
ATOM      4  C   UNL d   1       6.000  -0.303  -0.616  0.00  0.00     0.065 A 
ATOM      5  C   UNL d   1       4.691   0.799   1.101  0.00  0.00     0.082 A 
ATOM      6  S   UNL d   1       6.353   0.711   0.734  0.00  0.00    -0.085 SA
ENDROOT
BRANCH   1   7
ATOM      7  C   UNL d   1       2.433   0.134   0.155  0.00  0.00     0.039 A 
ATOM      8  S   UNL d   1       1.543   1.325   1.006  0.00  0.00    -0.087 SA
ATOM      9  C   UNL d   1       0.033   0.717   0.483  0.00  0.00     0.016 A 
ATOM     10  C   UNL d   1      -1.239   1.245   0.790  0.00  0.00     0.021 A 
ATOM     11  C   UNL d   1       0.194  -0.421  -0.307  0.00  0.00    -0.010 A 
ATOM     12  C   UNL d   1      -2.377   0.599   0.302  0.00  0.00     0.025 A 
ATOM     13  C   UNL d   1      -2.246  -0.541  -0.475  0.00  0.00     0.035 A 
ATOM     14  C   UNL d   1      -0.986  -1.054  -0.787  0.00  0.00     0.037 A 
ATOM     15 CL   UNL d   1      -3.657  -1.334  -1.064  0.00  0.00    -0.084 Cl
ATOM     16  C   UNL d   1       1.599  -0.770  -0.485  0.00  0.00    -0.031 A 
ATOM     17  C   UNL d   1       2.021  -1.995  -1.238  0.00  0.00     0.050 C 
ENDBRANCH   1   7
BRANCH   4  18
ATOM     18  C   UNL d   1       7.100  -0.779  -1.519  0.00  0.00     0.206 C 
BRANCH  18  19
ATOM     19  S   UNL d   1       8.115  -1.968  -0.637  0.00  0.00     0.157 S 
ATOM     20  O   UNL d   1       8.803  -1.276   0.436  0.00  0.00    -0.227 OA
ATOM     21  O   UNL d   1       7.292  -3.130  -0.337  0.00  0.00    -0.227 OA
BRANCH  19  22
ATOM     22  C   UNL d   1       9.418  -2.520  -1.802  0.00  0.00     0.053 C 
ATOM     23  C   UNL d   1      10.260  -1.333  -2.289  0.00  0.00     0.031 C 
ATOM     24  C   UNL d   1      10.334  -3.494  -1.035  0.00  0.00     0.031 C 
ATOM     25  C   UNL d   1       8.803  -3.246  -3.004  0.00  0.00     0.031 C 
ENDBRANCH  19  22
ENDBRANCH  18  19
ENDBRANCH   4  18
TORSDOF 4
