REMARK  5 active torsions:
REMARK  status: ('A' for Active; 'I' for Inactive)
REMARK    1  A    between atoms: C_2  and  N_1 
REMARK       I    between atoms: C_3  and  N_1 
REMARK    2  A    between atoms: C_10  and  C_3 
REMARK    3  A    between atoms: C_6  and  C_11 
REMARK    4  A    between atoms: O_12  and  C_6 
REMARK    5  A    between atoms: C_11  and  C_10 
ROOT
ATOM      1  N   UNL d   1       1.184  -0.126   0.080  0.00  0.00    -0.313 N 
ATOM      2  C   UNL d   1       2.415   0.361  -0.280  0.00  0.00     0.223 C 
ATOM      3  O   UNL d   1       3.122   1.108   0.393  0.00  0.00    -0.273 OA
ATOM      4  H   UNL d   1       0.757  -0.881  -0.455  0.00  0.00     0.170 HD
ENDROOT
BRANCH   1   5
ATOM      5  C   UNL d   1       0.455   0.186   1.228  0.00  0.00     0.107 A 
ATOM      6  N   UNL d   1      -0.515  -0.704   1.519  0.00  0.00    -0.352 N 
ATOM      7  C   UNL d   1      -1.257  -0.476   2.623  0.00  0.00     0.090 A 
ATOM      8  HN  UNL d   1      -0.682  -1.518   0.927  1.00  0.00     0.166 HD
ATOM      9  C   UNL d   1      -1.113   0.637   3.433  0.00  0.00     0.024 A 
ATOM     10  C   UNL d   1      -0.147   1.581   3.092  0.00  0.00    -0.057 A 
ATOM     11  C   UNL d   1       0.669   1.333   1.983  0.00  0.00     0.055 A 
ATOM     12  C   UNL d   1       0.015   2.829   3.906  0.00  0.00     0.048 C 
ENDBRANCH   1   5
BRANCH   2  13
ATOM     13  C   UNL d   1       2.903  -0.137  -1.628  0.00  0.00     0.113 C 
BRANCH  13  14
ATOM     14  C   UNL d   1       3.312  -1.606  -1.591  0.00  0.00     0.119 C 
BRANCH  14  15
ATOM     15  C   UNL d   1       2.124  -2.525  -1.739  0.00  0.00     0.139 C 
ATOM     16  O   UNL d   1       0.967  -2.146  -1.838  0.00  0.00    -0.650 OA
BRANCH  15  17
ATOM     17  O   UNL d   1       2.462  -3.831  -1.723  0.00  0.00    -0.776 OA
ATOM     18  H   UNL d   1       3.415  -3.998  -1.593  0.00  0.00     0.167 HD
ENDBRANCH  15  17
ENDBRANCH  14  15
ENDBRANCH  13  14
ENDBRANCH   2  13
TORSDOF 5
