REMARK  2 active torsions:
REMARK  status: ('A' for Active; 'I' for Inactive)
REMARK    1  A    between atoms: S_2  and  C_1 
REMARK    2  A    between atoms: C_8  and  S_2 
ROOT
ATOM      1  C   UNL d   1       2.740  -1.222  -0.048  0.00  0.00     0.176 A 
ATOM      2  N   UNL d   1       1.805  -1.359  -0.971  0.00  0.00    -0.340 N 
ATOM      3  HN  UNL d   1       1.875  -1.955  -1.795  1.00  0.00     0.167 HD
ATOM      4  S   UNL d   1       2.398  -0.126   1.216  0.00  0.00    -0.058 SA
ATOM      5  C   UNL d   1       0.715  -0.568  -0.645  0.00  0.00     0.052 A 
ATOM      6  C   UNL d   1       0.857   0.195   0.518  0.00  0.00     0.034 A 
ATOM      7  C   UNL d   1      -0.486  -0.479  -1.376  0.00  0.00     0.054 A 
ATOM      8  C   UNL d   1      -0.156   1.057   0.971  0.00  0.00     0.023 A 
ATOM      9  C   UNL d   1      -1.498   0.373  -0.928  0.00  0.00     0.036 A 
ATOM     10  C   UNL d   1      -1.337   1.134   0.226  0.00  0.00     0.025 A 
ATOM     11 CL   UNL d   1      -2.967   0.484  -1.819  0.00  0.00    -0.084 Cl
ENDROOT
BRANCH   1  12
ATOM     12  S   UNL d   1       4.293  -2.093  -0.020  0.00  0.00     0.229 S 
ATOM     13  O   UNL d   1       5.062  -1.561   1.093  0.00  0.00    -0.215 OA
ATOM     14  O   UNL d   1       3.971  -3.505  -0.105  0.00  0.00    -0.215 OA
BRANCH  12  15
ATOM     15  C   UNL d   1       5.144  -1.651  -1.518  0.00  0.00     0.066 A 
ATOM     16  C   UNL d   1       6.412  -1.061  -1.447  0.00  0.00     0.025 A 
ATOM     17  C   UNL d   1       7.086  -0.731  -2.626  0.00  0.00     0.025 A 
ATOM     18  C   UNL d   1       6.493  -0.995  -3.861  0.00  0.00     0.034 A 
ATOM     19  C   UNL d   1       5.234  -1.593  -3.930  0.00  0.00     0.025 A 
ATOM     20 CL   UNL d   1       7.325  -0.585  -5.310  0.00  0.00    -0.084 Cl
ATOM     21  C   UNL d   1       4.555  -1.929  -2.756  0.00  0.00     0.025 A 
ENDBRANCH  12  15
ENDBRANCH   1  12
TORSDOF 2
