REMARK  4 active torsions:
REMARK  status: ('A' for Active; 'I' for Inactive)
REMARK    1  A    between atoms: C_3  and  C_8 
REMARK    2  A    between atoms: C_9  and  N_4 
REMARK    3  A    between atoms: C_8  and  C_9 
REMARK    4  A    between atoms: O_17  and  C_8 
ROOT
ATOM      1  C   UNL d   1       1.843  -2.820  -0.158  0.00  0.00     0.172 C 
ENDROOT
BRANCH   1   2
ATOM      2  C   UNL d   1       0.952  -3.160  -1.347  0.00  0.00    -0.006 A 
ATOM      3  C   UNL d   1       0.149  -4.318  -1.378  0.00  0.00     0.044 A 
ATOM      4  C   UNL d   1      -0.620  -4.635  -2.505  0.00  0.00     0.048 A 
ATOM      5 CL   UNL d   1       0.098  -5.434  -0.060  0.00  0.00    -0.084 Cl
ATOM      6  C   UNL d   1      -0.589  -3.806  -3.621  0.00  0.00     0.035 A 
ATOM      7  C   UNL d   1       0.208  -2.668  -3.626  0.00  0.00     0.024 A 
ATOM      8 CL   UNL d   1      -1.522  -4.199  -5.010  0.00  0.00    -0.084 Cl
ATOM      9  C   UNL d   1       0.978  -2.354  -2.503  0.00  0.00     0.013 A 
ENDBRANCH   1   2
BRANCH   1  10
ATOM     10  C   UNL d   1       1.994  -1.314   0.103  0.00  0.00     0.186 C 
BRANCH  10  11
ATOM     11  N   UNL d   1       2.693  -1.020   1.337  0.00  0.00    -0.284 N 
ATOM     12  C   UNL d   1       4.037  -1.036   1.552  0.00  0.00     0.201 A 
ATOM     13  N   UNL d   1       4.300  -0.539   2.737  0.00  0.00    -0.346 N 
ATOM     14  C   UNL d   1       3.060  -0.225   3.218  0.00  0.00     0.198 A 
ATOM     15  HN  UNL d   1       5.206  -0.417   3.189  1.00  0.00     0.167 HD
ATOM     16  N   UNL d   1       2.041  -0.498   2.396  0.00  0.00    -0.293 N 
ATOM     17  HN  UNL d   1       1.041  -0.352   2.533  1.00  0.00     0.188 HD
ENDBRANCH  10  11
ENDBRANCH   1  10
BRANCH   1  18
ATOM     18  O   UNL d   1       3.135  -3.372  -0.435  0.00  0.00    -0.389 OA
ATOM     19  H   UNL d   1       3.004  -4.256  -0.823  0.00  0.00     0.210 HD
ENDBRANCH   1  18
TORSDOF 4
