REMARK  10 active torsions:
REMARK  status: ('A' for Active; 'I' for Inactive)
REMARK    1  A    between atoms: C_1  and  O_9 
REMARK    2  A    between atoms: C_2  and  O_10 
REMARK    3  A    between atoms: C_3  and  N_5 
REMARK    4  A    between atoms: C_4  and  O_11 
REMARK       I    between atoms: C_8  and  N_5 
REMARK    5  A    between atoms: C_7  and  C_16 
REMARK       I    between atoms: N_23  and  C_8 
REMARK    6  A    between atoms: C_12  and  O_9 
REMARK    7  A    between atoms: C_13  and  O_10 
REMARK    8  A    between atoms: C_14  and  O_11 
REMARK    9  A    between atoms: C_15  and  O_18 
REMARK   10  A    between atoms: O_18  and  C_16 
ROOT
ATOM      1  C   UNL d   1       0.849  -1.335  -0.178  0.00  0.00     0.212 C 
ATOM      2  C   UNL d   1       1.643  -0.033   0.077  0.00  0.00     0.198 C 
ATOM      3  C   UNL d   1      -0.576  -1.175   0.411  0.00  0.00     0.257 C 
ATOM      4  C   UNL d   1       0.849   1.261  -0.211  0.00  0.00     0.195 C 
ATOM      5  O   UNL d   1      -1.212  -0.021  -0.132  0.00  0.00    -0.354 OA
ATOM      6  C   UNL d   1      -0.586   1.190   0.326  0.00  0.00     0.180 C 
ENDROOT
BRANCH   3   7
ATOM      7  N   UNL d   1      -1.459  -2.259   0.071  0.00  0.00    -0.314 N 
ATOM      8  C   UNL d   1      -1.537  -3.389   0.817  0.00  0.00     0.315 C 
ATOM      9  O   UNL d   1      -0.889  -3.620   1.823  0.00  0.00    -0.248 OA
ATOM     10  N   UNL d   1      -2.414  -4.296   0.320  0.00  0.00    -0.352 N 
ATOM     11  H   UNL d   1      -3.222  -3.972  -0.187  0.00  0.00     0.160 HD
ATOM     12  H   UNL d   1      -2.566  -5.092   0.927  0.00  0.00     0.160 HD
ATOM     13  H   UNL d   1      -2.063  -2.127  -0.721  0.00  0.00     0.166 HD
ENDBRANCH   3   7
BRANCH   1  14
ATOM     14  O   UNL d   1       1.525  -2.425   0.501  0.00  0.00    -0.309 OA
BRANCH  14  15
ATOM     15  C   UNL d   1       2.507  -3.073  -0.176  0.00  0.00     0.255 C 
ATOM     16  O   UNL d   1       2.879  -2.823  -1.313  0.00  0.00    -0.266 OA
ATOM     17  C   UNL d   1       3.133  -4.123   0.691  0.00  0.00     0.126 C 
ENDBRANCH  14  15
ENDBRANCH   1  14
BRANCH   2  18
ATOM     18  O   UNL d   1       2.935  -0.008  -0.591  0.00  0.00    -0.311 OA
BRANCH  18  19
ATOM     19  C   UNL d   1       2.962  -0.018  -1.952  0.00  0.00     0.255 C 
ATOM     20  O   UNL d   1       1.980   0.006  -2.679  0.00  0.00    -0.266 OA
ATOM     21  C   UNL d   1       4.375   0.024  -2.442  0.00  0.00     0.126 C 
ENDBRANCH  18  19
ENDBRANCH   2  18
BRANCH   6  22
ATOM     22  C   UNL d   1      -1.407   2.386  -0.185  0.00  0.00     0.213 C 
BRANCH  22  23
ATOM     23  O   UNL d   1      -2.742   2.359   0.355  0.00  0.00    -0.319 OA
BRANCH  23  24
ATOM     24  C   UNL d   1      -2.856   2.793   1.637  0.00  0.00     0.254 C 
ATOM     25  O   UNL d   1      -1.941   3.247   2.311  0.00  0.00    -0.266 OA
ATOM     26  C   UNL d   1      -4.263   2.637   2.125  0.00  0.00     0.126 C 
ENDBRANCH  23  24
ENDBRANCH  22  23
ENDBRANCH   6  22
BRANCH   4  27
ATOM     27  O   UNL d   1       1.566   2.451   0.212  0.00  0.00    -0.311 OA
BRANCH  27  28
ATOM     28  C   UNL d   1       1.828   2.623   1.534  0.00  0.00     0.255 C 
ATOM     29  O   UNL d   1       1.490   1.853   2.421  0.00  0.00    -0.266 OA
ATOM     30  C   UNL d   1       2.623   3.871   1.768  0.00  0.00     0.126 C 
ENDBRANCH  27  28
ENDBRANCH   4  27
TORSDOF 10
