REMARK  3 active torsions:
REMARK  status: ('A' for Active; 'I' for Inactive)
REMARK    1  A    between atoms: C_10  and  N_1 
REMARK    2  A    between atoms: S_6  and  C_4 
REMARK    3  A    between atoms: C_7  and  S_6 
ROOT
ATOM      1  N   UNL d   1       0.071   0.839  -0.035  0.00  0.00    -0.251 N 
ATOM      2  C   UNL d   1      -1.077   0.112   0.175  0.00  0.00     0.232 A 
ATOM      3  C   UNL d   1       1.162   0.009  -0.190  0.00  0.00     0.245 A 
ATOM      4  C   UNL d   1       0.697  -1.429  -0.246  0.00  0.00     0.154 A 
ATOM      5  C   UNL d   1      -0.783  -1.353   0.052  0.00  0.00     0.129 A 
ATOM      6  O   UNL d   1      -2.208   0.506   0.426  0.00  0.00    -0.273 OA
ATOM      7  O   UNL d   1       2.349   0.314  -0.219  0.00  0.00    -0.271 OA
ENDROOT
BRANCH   4   8
ATOM      8  S   UNL d   1       1.082  -2.102  -1.906  0.00  0.00    -0.113 SA
BRANCH   8   9
ATOM      9  C   UNL d   1       0.582  -3.815  -1.718  0.00  0.00     0.023 A 
ATOM     10  C   UNL d   1      -0.466  -4.377  -2.464  0.00  0.00     0.052 A 
ATOM     11  C   UNL d   1      -0.776  -5.734  -2.341  0.00  0.00     0.049 A 
ATOM     12 CL   UNL d   1      -1.428  -3.446  -3.561  0.00  0.00    -0.083 Cl
ATOM     13  C   UNL d   1      -0.040  -6.552  -1.481  0.00  0.00     0.041 A 
ATOM     14  C   UNL d   1       1.017  -6.022  -0.729  0.00  0.00    -0.039 A 
ATOM     15 CL   UNL d   1      -0.485  -8.219  -1.407  0.00  0.00    -0.084 Cl
ATOM     16  C   UNL d   1       1.316  -4.649  -0.860  0.00  0.00     0.028 A 
ATOM     17  C   UNL d   1       1.874  -6.843   0.197  0.00  0.00     0.050 C 
ENDBRANCH   8   9
ENDBRANCH   4   8
BRANCH   1  18
ATOM     18  C   UNL d   1       0.142   2.269  -0.041  0.00  0.00     0.045 A 
ATOM     19  C   UNL d   1      -0.876   3.066   0.517  0.00  0.00     0.033 A 
ATOM     20  C   UNL d   1      -0.809   4.465   0.487  0.00  0.00     0.044 A 
ATOM     21  C   UNL d   1       0.273   5.090  -0.111  0.00  0.00     0.116 A 
ATOM     22  C   UNL d   1       1.291   4.339  -0.677  0.00  0.00     0.044 A 
ATOM     23  F   UNL d   1       0.333   6.426  -0.147  0.00  0.00    -0.206 F 
ATOM     24  C   UNL d   1       1.226   2.941  -0.638  0.00  0.00     0.033 A 
ENDBRANCH   1  18
TORSDOF 3
