REMARK  6 active torsions:
REMARK  status: ('A' for Active; 'I' for Inactive)
REMARK    1  A    between atoms: O_4  and  C_1 
REMARK    2  A    between atoms: N_2  and  C_5 
REMARK       I    between atoms: C_3  and  N_2 
REMARK    3  A    between atoms: C_7  and  C_3 
REMARK    4  A    between atoms: C_6  and  O_4 
REMARK    5  A    between atoms: C_8  and  C_9 
REMARK    6  A    between atoms: O_15  and  C_8 
ROOT
ATOM      1  C   UNL d   1      -1.945   0.244   1.344  0.00  0.00     0.049 A 
ATOM      2  C   UNL d   1      -1.144  -0.898   1.162  0.00  0.00     0.099 A 
ATOM      3  C   UNL d   1      -3.319   0.132   1.570  0.00  0.00     0.027 A 
ATOM      4  C   UNL d   1      -1.756  -2.152   1.165  0.00  0.00     0.039 A 
ATOM      5  C   UNL d   1      -3.136  -2.264   1.370  0.00  0.00     0.003 A 
ATOM      6  C   UNL d   1      -3.916  -1.127   1.576  0.00  0.00     0.002 A 
ENDROOT
BRANCH   1   7
ATOM      7  N   UNL d   1      -1.386   1.539   1.268  0.00  0.00    -0.223 NA
ATOM      8  C   UNL d   1      -1.023   2.108   0.055  0.00  0.00     0.225 C 
ATOM      9  O   UNL d   1      -0.048   2.849   0.018  0.00  0.00    -0.275 OA
ATOM     10  H   UNL d   1      -0.587   1.679   1.880  0.00  0.00     0.137 HD
BRANCH   8  11
ATOM     11  C   UNL d   1      -1.821   1.730  -1.140  0.00  0.00     0.075 C 
ATOM     12  C   UNL d   1      -1.815   2.273  -2.367  0.00  0.00     0.086 C 
BRANCH  12  13
ATOM     13  C   UNL d   1      -1.112   3.433  -2.914  0.00  0.00     0.165 C 
ATOM     14  O   UNL d   1      -0.926   3.592  -4.112  0.00  0.00    -0.647 OA
BRANCH  13  15
ATOM     15  O   UNL d   1      -0.801   4.372  -2.026  0.00  0.00    -0.773 OA
ATOM     16  H   UNL d   1      -0.307   5.046  -2.533  0.00  0.00     0.167 HD
ENDBRANCH  13  15
ENDBRANCH  12  13
ENDBRANCH   8  11
ENDBRANCH   1   7
BRANCH   2  17
ATOM     17  O   UNL d   1       0.160  -0.685   0.809  0.00  0.00    -0.254 OA
BRANCH  17  18
ATOM     18  C   UNL d   1       1.139  -1.536   1.382  0.00  0.00     0.530 C 
ATOM     19  F   UNL d   1       0.927  -2.834   1.087  0.00  0.00    -0.144 F 
ATOM     20  F   UNL d   1       1.181  -1.377   2.721  0.00  0.00    -0.144 F 
ATOM     21  F   UNL d   1       2.346  -1.195   0.877  0.00  0.00    -0.144 F 
ENDBRANCH  17  18
ENDBRANCH   2  17
TORSDOF 6
