REMARK  3 active torsions:
REMARK  status: ('A' for Active; 'I' for Inactive)
REMARK    1  A    between atoms: N_11  and  C_3 
REMARK    2  A    between atoms: C_10  and  C_4 
REMARK    3  A    between atoms: O_19  and  C_16 
ROOT
ATOM      1  C   UNL d   1      -1.698  -0.346   0.152  0.00  0.00     0.080 A 
ATOM      2  C   UNL d   1       0.817  -0.400   0.070  0.00  0.00     0.031 A 
ATOM      3  C   UNL d   1      -1.623   0.998   0.057  0.00  0.00     0.138 A 
ATOM      4  C   UNL d   1      -0.448  -1.222   0.142  0.00  0.00     0.105 A 
ATOM      5  C   UNL d   1       0.788   0.938  -0.038  0.00  0.00     0.066 A 
ATOM      6  O   UNL d   1      -0.402   1.648  -0.076  0.00  0.00    -0.301 OA
ATOM      7  C   UNL d   1      -2.967  -0.990   0.269  0.00  0.00     0.100 C 
ATOM      8  C   UNL d   1       2.140  -1.091   0.138  0.00  0.00     0.159 C 
ATOM      9  N   UNL d   1      -4.011  -1.491   0.340  0.00  0.00    -0.191 NA
ATOM     10  O   UNL d   1       2.206  -2.303   0.327  0.00  0.00    -0.293 OA
ATOM     11  C   UNL d   1       2.005   1.817  -0.088  0.00  0.00     0.066 C 
ATOM     12  C   UNL d   1       3.394  -0.270  -0.077  0.00  0.00     0.084 C 
ATOM     13  C   UNL d   1       3.233   1.128   0.493  0.00  0.00     0.014 C 
ENDROOT
BRANCH   3  14
ATOM     14  N   UNL d   1      -2.687   1.869   0.073  0.00  0.00    -0.282 NA
ATOM     15  H   UNL d   1      -3.581   1.487  -0.225  0.00  0.00     0.126 HD
ATOM     16  H   UNL d   1      -2.466   2.765  -0.355  0.00  0.00     0.126 HD
ENDBRANCH   3  14
BRANCH   4  17
ATOM     17  C   UNL d   1      -0.529  -2.265  -0.974  0.00  0.00    -0.044 A 
ATOM     18  C   UNL d   1      -0.600  -3.629  -0.654  0.00  0.00     0.011 A 
ATOM     19  C   UNL d   1      -0.715  -4.595  -1.661  0.00  0.00     0.037 A 
ATOM     20  C   UNL d   1      -0.759  -4.205  -2.997  0.00  0.00     0.068 A 
ATOM     21  C   UNL d   1      -0.692  -2.847  -3.321  0.00  0.00     0.037 A 
ATOM     22  C   UNL d   1      -0.563  -1.884  -2.321  0.00  0.00     0.011 A 
BRANCH  20  23
ATOM     23  O   UNL d   1      -0.915  -5.045  -4.065  0.00  0.00    -0.356 OA
ATOM     24  C   UNL d   1      -0.391  -6.357  -3.894  0.00  0.00     0.210 C 
ENDBRANCH  20  23
ENDBRANCH   4  17
TORSDOF 3
