REMARK  4 active torsions:
REMARK  status: ('A' for Active; 'I' for Inactive)
REMARK    1  A    between atoms: C_12  and  C_1 
REMARK       I    between atoms: C_3  and  N_11 
REMARK    2  A    between atoms: C_5  and  C_3 
REMARK    3  A    between atoms: O_17  and  C_4 
REMARK    4  A    between atoms: N_11  and  N_7 
ROOT
ATOM      1  N   UNL d   1       0.779   4.291   0.011  0.00  0.00    -0.308 N 
ATOM      2  HN  UNL d   1       1.733   3.929   0.012  1.00  0.00     0.186 HD
ATOM      3  C   UNL d   1      -0.246   3.500   0.020  0.00  0.00     0.121 C 
ENDROOT
BRANCH   1   4
ATOM      4  N   UNL d   1       0.525   5.629  -0.000  0.00  0.00    -0.266 N 
ATOM      5  C   UNL d   1       1.598   6.511   0.004  0.00  0.00     0.271 C 
ATOM      6  O   UNL d   1       2.781   6.187   0.060  0.00  0.00    -0.266 OA
ATOM      7  H   UNL d   1      -0.431   5.951   0.079  0.00  0.00     0.190 HD
BRANCH   5   8
ATOM      8  C   UNL d   1       1.261   7.951  -0.053  0.00  0.00     0.049 A 
ATOM      9  C   UNL d   1       2.143   8.862   0.515  0.00  0.00     0.104 A 
ATOM     10  N   UNL d   1       1.961  10.207   0.494  0.00  0.00    -0.374 N 
ATOM     11  C   UNL d   1       0.862  10.661  -0.145  0.00  0.00     0.087 A 
ATOM     12  HN  UNL d   1       2.622  10.844   0.939  1.00  0.00     0.164 HD
ATOM     13  C   UNL d   1      -0.070   9.834  -0.752  0.00  0.00     0.018 A 
ATOM     14  C   UNL d   1       0.132   8.454  -0.705  0.00  0.00     0.020 A 
ENDBRANCH   5   8
ENDBRANCH   1   4
BRANCH   3  15
ATOM     15  C   UNL d   1      -0.059   2.032   0.022  0.00  0.00     0.017 A 
ATOM     16  C   UNL d   1      -1.160   1.173   0.016  0.00  0.00     0.099 A 
ATOM     17  C   UNL d   1      -0.956  -0.214   0.013  0.00  0.00     0.069 A 
ATOM     18 CL   UNL d   1      -2.305  -1.291   0.005  0.00  0.00    -0.081 Cl
ATOM     19  C   UNL d   1       0.333  -0.744   0.014  0.00  0.00     0.050 A 
ATOM     20  C   UNL d   1       1.425   0.121   0.020  0.00  0.00     0.036 A 
ATOM     21  C   UNL d   1       1.239   1.502   0.024  0.00  0.00     0.039 A 
ATOM     22 CL   UNL d   1       3.019  -0.526   0.018  0.00  0.00    -0.084 Cl
BRANCH  16  23
ATOM     23  O   UNL d   1      -2.430   1.690   0.012  0.00  0.00    -0.358 OA
ATOM     24  H   UNL d   1      -3.055   0.939   0.010  0.00  0.00     0.217 HD
ENDBRANCH  16  23
ENDBRANCH   3  15
TORSDOF 4
