REMARK  2 active torsions:
REMARK  status: ('A' for Active; 'I' for Inactive)
REMARK    1  A    between atoms: N_2  and  C_1 
REMARK       I    between atoms: C_3  and  N_2 
REMARK    2  A    between atoms: C_10  and  C_3 
ROOT
ATOM      1  N   UNL d   1       3.011   0.007  -1.008  0.00  0.00    -0.302 N 
ATOM      2  C   UNL d   1       2.251   0.875  -0.268  0.00  0.00     0.253 C 
ATOM      3  O   UNL d   1       1.155   0.632   0.227  0.00  0.00    -0.268 OA
ATOM      4  H   UNL d   1       3.889   0.304  -1.405  0.00  0.00     0.171 HD
ENDROOT
BRANCH   1   5
ATOM      5  C   UNL d   1       2.722  -1.304  -1.296  0.00  0.00     0.167 A 
ATOM      6  S   UNL d   1       1.257  -2.070  -0.873  0.00  0.00    -0.046 SA
ATOM      7  C   UNL d   1       1.864  -3.481  -1.629  0.00  0.00     0.160 A 
ATOM      8  N   UNL d   1       3.069  -3.352  -2.139  0.00  0.00    -0.303 N 
ATOM      9  N   UNL d   1       3.563  -2.075  -1.952  0.00  0.00    -0.279 N 
ATOM     10  HN  UNL d   1       3.575  -4.100  -2.612  1.00  0.00     0.186 HD
ATOM     11  HN  UNL d   1       4.476  -1.765  -2.284  1.00  0.00     0.189 HD
ENDBRANCH   1   5
BRANCH   2  12
ATOM     12  C   UNL d   1       2.832   2.268  -0.124  0.00  0.00     0.002 C 
ATOM     13  C   UNL d   1       4.157   2.511  -0.198  0.00  0.00    -0.019 C 
ATOM     14  C   UNL d   1       4.820   3.855  -0.110  0.00  0.00     0.036 C 
ATOM     15  C   UNL d   1       1.814   3.334   0.195  0.00  0.00     0.054 C 
ENDBRANCH   2  12
TORSDOF 2
