REMARK  4 active torsions:
REMARK  status: ('A' for Active; 'I' for Inactive)
REMARK    1  A    between atoms: C_13  and  C_6 
REMARK    2  A    between atoms: C_12  and  C_7 
REMARK    3  A    between atoms: C_14  and  C_8 
REMARK    4  A    between atoms: C_15  and  C_9 
ROOT
ATOM      1  N   UNL d   1       0.544   0.767  -1.221  0.00  0.00     0.136 N 
ATOM      2  N   UNL d   1       0.218  -1.357  -0.011  0.00  0.00     0.136 N 
ATOM      3  C   UNL d   1      -1.601   0.293  -0.083  0.00  0.00     0.132 C 
ATOM      4  C   UNL d   1       0.525   0.760   1.239  0.00  0.00     0.132 C 
ATOM      5  C   UNL d   1      -0.976   0.903   1.149  0.00  0.00     0.145 C 
ATOM      6  C   UNL d   1       1.165   1.353  -0.013  0.00  0.00     0.272 C 
ATOM      7  C   UNL d   1      -1.267  -1.208  -0.045  0.00  0.00     0.272 C 
ATOM      8  C   UNL d   1      -0.940   0.944  -1.304  0.00  0.00     0.272 C 
ATOM      9  C   UNL d   1       0.783  -0.763   1.256  0.00  0.00     0.272 C 
ATOM     10  C   UNL d   1       0.830  -0.681  -1.183  0.00  0.00     0.546 C 
ATOM     11  O   UNL d   1      -1.643   1.442   2.029  0.00  0.00    -0.297 OA
ENDROOT
BRANCH   6  12
ATOM     12  C   UNL d   1       1.382   2.863  -0.025  0.00  0.00    -0.024 A 
ATOM     13  C   UNL d   1       2.489   3.384  -0.723  0.00  0.00     0.009 A 
ATOM     14  C   UNL d   1       2.808   4.744  -0.665  0.00  0.00     0.001 A 
ATOM     15  C   UNL d   1       2.011   5.615   0.069  0.00  0.00     0.000 A 
ATOM     16  C   UNL d   1       0.896   5.128   0.741  0.00  0.00     0.001 A 
ATOM     17  C   UNL d   1       0.591   3.764   0.703  0.00  0.00     0.009 A 
ENDBRANCH   6  12
BRANCH   9  18
ATOM     18  C   UNL d   1       0.339  -1.439   2.573  0.00  0.00    -0.024 A 
ATOM     19  C   UNL d   1       0.024  -2.802   2.631  0.00  0.00     0.009 A 
ATOM     20  C   UNL d   1      -0.412  -3.394   3.828  0.00  0.00     0.001 A 
ATOM     21  C   UNL d   1      -0.508  -2.645   4.996  0.00  0.00     0.000 A 
ATOM     22  C   UNL d   1      -0.154  -1.305   4.976  0.00  0.00     0.001 A 
ATOM     23  C   UNL d   1       0.276  -0.714   3.783  0.00  0.00     0.009 A 
ENDBRANCH   9  18
BRANCH   8  24
ATOM     24  C   UNL d   1      -1.403   2.366  -1.629  0.00  0.00    -0.024 A 
ATOM     25  C   UNL d   1      -2.380   3.051  -0.882  0.00  0.00     0.009 A 
ATOM     26  C   UNL d   1      -2.763   4.355  -1.213  0.00  0.00     0.001 A 
ATOM     27  C   UNL d   1      -2.200   4.988  -2.311  0.00  0.00     0.000 A 
ATOM     28  C   UNL d   1      -1.269   4.312  -3.095  0.00  0.00     0.001 A 
ATOM     29  C   UNL d   1      -0.880   3.012  -2.762  0.00  0.00     0.009 A 
ENDBRANCH   8  24
BRANCH   7  30
ATOM     30  C   UNL d   1      -2.001  -2.023  -1.125  0.00  0.00    -0.024 A 
ATOM     31  C   UNL d   1      -1.365  -2.957  -1.960  0.00  0.00     0.009 A 
ATOM     32  C   UNL d   1      -2.066  -3.621  -2.973  0.00  0.00     0.001 A 
ATOM     33  C   UNL d   1      -3.431  -3.409  -3.136  0.00  0.00     0.000 A 
ATOM     34  C   UNL d   1      -4.099  -2.546  -2.276  0.00  0.00     0.001 A 
ATOM     35  C   UNL d   1      -3.393  -1.867  -1.279  0.00  0.00     0.009 A 
ENDBRANCH   7  30
TORSDOF 4
