REMARK  6 active torsions:
REMARK  status: ('A' for Active; 'I' for Inactive)
REMARK    1  A    between atoms: C_14  and  N_1 
REMARK    2  A    between atoms: C_6  and  C_7 
REMARK    3  A    between atoms: C_22  and  C_14 
REMARK    4  A    between atoms: C_15  and  C_21 
REMARK    5  A    between atoms: S_16  and  C_22 
REMARK    6  A    between atoms: C_21  and  S_16 
ROOT
ATOM      1  C   UNL d   1       3.930   1.366  -0.226  0.00  0.00     0.094 C 
ENDROOT
BRANCH   1   2
ATOM      2  S   UNL d   1       5.745   1.249  -0.371  0.00  0.00    -0.163 SA
BRANCH   2   3
ATOM      3  C   UNL d   1       5.872   0.352  -1.952  0.00  0.00     0.112 C 
BRANCH   3   4
ATOM      4  C   UNL d   1       7.306   0.019  -2.270  0.00  0.00    -0.048 A 
ATOM      5  C   UNL d   1       7.877  -1.170  -1.787  0.00  0.00     0.024 A 
ATOM      6  C   UNL d   1       9.217  -1.485  -2.047  0.00  0.00     0.048 A 
ATOM      7  C   UNL d   1       9.985  -0.594  -2.812  0.00  0.00     0.016 A 
ATOM      8  C   UNL d   1       9.426   0.592  -3.292  0.00  0.00     0.001 A 
ATOM      9  C   UNL d   1       8.095   0.900  -3.018  0.00  0.00     0.008 A 
BRANCH   6  10
ATOM     10  C   UNL d   1       9.835  -2.752  -1.510  0.00  0.00     0.417 C 
ATOM     11  F   UNL d   1       8.972  -3.514  -0.780  0.00  0.00    -0.166 F 
ATOM     12  F   UNL d   1      10.301  -3.567  -2.498  0.00  0.00    -0.166 F 
ATOM     13  F   UNL d   1      10.898  -2.510  -0.694  0.00  0.00    -0.166 F 
ENDBRANCH   6  10
ENDBRANCH   3   4
ENDBRANCH   2   3
ENDBRANCH   1   2
BRANCH   1  14
ATOM     14  C   UNL d   1       3.271  -0.007  -0.107  0.00  0.00     0.146 C 
BRANCH  14  15
ATOM     15  N   UNL d   1       1.832   0.085   0.002  0.00  0.00    -0.279 N 
ATOM     16  C   UNL d   1       0.988   0.124  -1.074  0.00  0.00     0.261 A 
ATOM     17  C   UNL d   1      -0.367   0.173  -0.533  0.00  0.00     0.048 A 
ATOM     18  O   UNL d   1       1.265   0.125  -2.259  0.00  0.00    -0.267 OA
ATOM     19  C   UNL d   1      -1.589   0.190  -1.174  0.00  0.00     0.018 A 
ATOM     20  C   UNL d   1      -0.264   0.190   0.847  0.00  0.00     0.048 A 
ATOM     21  C   UNL d   1      -2.730   0.233  -0.366  0.00  0.00     0.001 A 
ATOM     22  C   UNL d   1      -2.623   0.254   1.041  0.00  0.00     0.001 A 
ATOM     23  C   UNL d   1      -1.373   0.231   1.666  0.00  0.00     0.018 A 
ATOM     24  C   UNL d   1       1.156   0.147   1.188  0.00  0.00     0.261 A 
ATOM     25  O   UNL d   1       1.595   0.168   2.321  0.00  0.00    -0.267 OA
ENDBRANCH  14  15
ENDBRANCH   1  14
TORSDOF 6
