REMARK  7 active torsions:
REMARK  status: ('A' for Active; 'I' for Inactive)
REMARK    1  A    between atoms: C_2  and  S_1 
REMARK    2  A    between atoms: N_15  and  S_1 
REMARK    3  A    between atoms: C_3  and  C_7 
REMARK    4  A    between atoms: C_19  and  N_15 
REMARK    5  A    between atoms: N_16  and  C_20 
REMARK    6  A    between atoms: C_17  and  C_19 
REMARK    7  A    between atoms: C_20  and  C_17 
ROOT
ATOM      1  C   UNL d   1       0.498   0.227  -1.698  0.00  0.00     0.115 A 
ATOM      2  S   UNL d   1       0.694   1.758  -2.433  0.00  0.00    -0.075 SA
ATOM      3  C   UNL d   1      -0.067   1.249  -3.873  0.00  0.00     0.033 A 
ATOM      4  C   UNL d   1      -0.122  -0.665  -2.553  0.00  0.00     0.034 A 
ATOM      5  C   UNL d   1      -0.463  -0.070  -3.803  0.00  0.00     0.023 A 
ENDROOT
BRANCH   1   6
ATOM      6  S   UNL d   1       1.121   0.023  -0.044  0.00  0.00     0.248 S 
ATOM      7  O   UNL d   1       1.671   1.285   0.394  0.00  0.00    -0.205 OA
ATOM      8  O   UNL d   1       1.921  -1.182  -0.103  0.00  0.00    -0.205 OA
BRANCH   6   9
ATOM      9  N   UNL d   1      -0.199  -0.353   0.953  0.00  0.00    -0.215 NA
ATOM     10  H   UNL d   1       0.101  -1.050   1.636  0.00  0.00     0.139 HD
BRANCH   9  11
ATOM     11  C   UNL d   1      -0.911   0.804   1.529  0.00  0.00     0.106 C 
BRANCH  11  12
ATOM     12  C   UNL d   1      -2.074   0.328   2.398  0.00  0.00     0.045 C 
BRANCH  12  13
ATOM     13  C   UNL d   1      -2.777   1.527   3.036  0.00  0.00     0.268 C 
BRANCH  13  14
ATOM     14  N   UNL d   1      -3.890   1.098   3.872  0.00  0.00     0.078 N 
ATOM     15  H   UNL d   1      -4.326   1.915   4.301  0.00  0.00     0.312 HD
ATOM     16  H   UNL d   1      -3.549   0.524   4.643  0.00  0.00     0.312 HD
ENDBRANCH  13  14
ENDBRANCH  12  13
ENDBRANCH  11  12
ENDBRANCH   9  11
ENDBRANCH   6   9
ENDBRANCH   1   6
BRANCH   3  17
ATOM     17  C   UNL d   1      -0.297   2.108  -5.082  0.00  0.00     0.056 A 
ATOM     18  N   UNL d   1      -1.016   1.628  -6.166  0.00  0.00    -0.353 N 
ATOM     19  C   UNL d   1      -1.112   2.560  -7.090  0.00  0.00     0.047 A 
ATOM     20  HN  UNL d   1      -1.412   0.691  -6.236  1.00  0.00     0.166 HD
ATOM     21  C   UNL d   1      -1.856   2.401  -8.369  0.00  0.00     0.076 C 
ATOM     22  S   UNL d   1      -0.308   4.037  -6.739  0.00  0.00    -0.087 SA
ATOM     23  C   UNL d   1       0.163   3.402  -5.217  0.00  0.00     0.082 A 
ENDBRANCH   3  17
TORSDOF 7
