REMARK  3 active torsions:
REMARK  status: ('A' for Active; 'I' for Inactive)
REMARK    1  A    between atoms: C_4  and  N_1 
REMARK    2  A    between atoms: O_8  and  C_5 
REMARK    3  A    between atoms: C_9  and  O_8 
ROOT
ATOM      1  C   UNL d   1      -0.012   2.330  -0.167  0.00  0.00     0.079 A 
ATOM      2  C   UNL d   1      -0.565   3.008   0.944  0.00  0.00     0.103 A 
ATOM      3  C   UNL d   1       0.680   3.117  -1.112  0.00  0.00     0.033 A 
ATOM      4  C   UNL d   1      -0.318   4.382   1.135  0.00  0.00     0.039 A 
ATOM      5  C   UNL d   1       0.855   4.495  -0.952  0.00  0.00     0.002 A 
ATOM      6  C   UNL d   1       0.369   5.126   0.182  0.00  0.00     0.003 A 
ENDROOT
BRANCH   2   7
ATOM      7  O   UNL d   1      -1.372   2.320   1.831  0.00  0.00    -0.307 OA
BRANCH   7   8
ATOM      8  C   UNL d   1      -2.455   2.965   2.398  0.00  0.00     0.098 A 
ATOM      9  C   UNL d   1      -2.715   2.780   3.763  0.00  0.00     0.069 A 
ATOM     10  C   UNL d   1      -3.805   3.412   4.367  0.00  0.00     0.050 A 
ATOM     11 CL   UNL d   1      -1.697   1.796   4.752  0.00  0.00    -0.081 Cl
ATOM     12  C   UNL d   1      -4.638   4.226   3.604  0.00  0.00     0.035 A 
ATOM     13  C   UNL d   1      -4.406   4.397   2.240  0.00  0.00     0.026 A 
ATOM     14 CL   UNL d   1      -5.970   5.024   4.346  0.00  0.00    -0.084 Cl
ATOM     15  C   UNL d   1      -3.328   3.750   1.632  0.00  0.00     0.041 A 
ENDBRANCH   7   8
ENDBRANCH   2   7
BRANCH   1  16
ATOM     16  N   UNL d   1      -0.098   0.916  -0.375  0.00  0.00    -0.242 N 
ATOM     17  C   UNL d   1      -0.203  -0.043   0.597  0.00  0.00     0.255 A 
ATOM     18  C   UNL d   1      -0.160  -1.353  -0.064  0.00  0.00     0.080 A 
ATOM     19  O   UNL d   1      -0.213   0.024   1.814  0.00  0.00    -0.268 OA
ATOM     20  C   UNL d   1       0.025  -1.152  -1.364  0.00  0.00     0.080 A 
ATOM     21  C   UNL d   1       0.056   0.296  -1.588  0.00  0.00     0.255 A 
ATOM     22  O   UNL d   1       0.171   0.747  -2.715  0.00  0.00    -0.268 OA
ENDBRANCH   1  16
TORSDOF 3
