REMARK  6 active torsions:
REMARK  status: ('A' for Active; 'I' for Inactive)
REMARK    1  A    between atoms: C_4  and  C_1 
REMARK    2  A    between atoms: N_8  and  C_1 
REMARK    3  A    between atoms: O_10  and  N_2 
REMARK    4  A    between atoms: C_5  and  C_4 
REMARK    5  A    between atoms: C_13  and  C_9 
REMARK    6  A    between atoms: C_15  and  C_13 
ROOT
ATOM      1  C   UNL d   1       0.467  -1.572  -1.732  0.00  0.00    -0.048 A 
ATOM      2  C   UNL d   1       1.506  -1.770  -2.650  0.00  0.00     0.008 A 
ATOM      3  C   UNL d   1      -0.254  -2.694  -1.293  0.00  0.00     0.008 A 
ATOM      4  C   UNL d   1       1.131  -4.175  -2.631  0.00  0.00    -0.058 A 
ATOM      5  C   UNL d   1       1.842  -3.057  -3.084  0.00  0.00     0.007 A 
ATOM      6  C   UNL d   1       0.073  -3.979  -1.738  0.00  0.00     0.007 A 
ENDROOT
BRANCH   1   7
ATOM      7  C   UNL d   1       0.102  -0.188  -1.208  0.00  0.00     0.078 C 
ATOM      8  C   UNL d   1       1.330   0.664  -0.862  0.00  0.00     0.022 C 
BRANCH   7   9
ATOM      9  C   UNL d   1      -0.877   0.538  -2.151  0.00  0.00     0.083 C 
ATOM     10  N   UNL d   1      -0.515   1.654  -2.722  0.00  0.00    -0.262 N 
ATOM     11  HN  UNL d   1       0.392   2.102  -2.595  1.00  0.00     0.195 HD
BRANCH  10  12
ATOM     12  O   UNL d   1      -1.546   2.155  -3.535  0.00  0.00    -0.289 OA
ATOM     13  H   UNL d   1      -1.181   3.015  -3.816  0.00  0.00     0.244 HD
ENDBRANCH  10  12
BRANCH   9  14
ATOM     14  N   UNL d   1      -2.124  -0.016  -2.346  0.00  0.00    -0.290 NA
ATOM     15  H   UNL d   1      -2.580   0.446  -3.128  0.00  0.00     0.125 HD
ATOM     16  H   UNL d   1      -2.124  -1.025  -2.443  0.00  0.00     0.125 HD
ENDBRANCH   9  14
ENDBRANCH   7   9
ENDBRANCH   1   7
BRANCH   4  17
ATOM     17  C   UNL d   1       1.540  -5.563  -3.068  0.00  0.00     0.042 C 
BRANCH  17  18
ATOM     18  C   UNL d   1       0.457  -6.357  -3.825  0.00  0.00    -0.019 C 
ATOM     19  C   UNL d   1       0.065  -5.686  -5.143  0.00  0.00     0.010 C 
ATOM     20  C   UNL d   1       0.959  -7.777  -4.100  0.00  0.00     0.010 C 
ENDBRANCH  17  18
ENDBRANCH   4  17
TORSDOF 6
