REMARK  1 active torsions:
REMARK  status: ('A' for Active; 'I' for Inactive)
REMARK    1  A    between atoms: O_11  and  N_9 
ROOT
ATOM      1  S   UNL d   1      -1.341   1.696   0.097  0.00  0.00     0.176 S 
ATOM      2  C   UNL d   1       0.113   0.705   0.072  0.00  0.00     0.071 A 
ATOM      3  C   UNL d   1       0.043  -0.687  -0.017  0.00  0.00     0.010 A 
ATOM      4  C   UNL d   1      -1.252  -1.441  -0.059  0.00  0.00     0.044 C 
ATOM      5  C   UNL d   1      -2.626   0.590  -0.407  0.00  0.00     0.152 C 
ATOM      6  O   UNL d   1      -1.193   2.701  -0.938  0.00  0.00    -0.223 OA
ATOM      7  O   UNL d   1      -1.568   2.060   1.481  0.00  0.00    -0.223 OA
ATOM      8  C   UNL d   1      -2.513  -0.703   0.363  0.00  0.00     0.075 C 
ATOM      9  N   UNL d   1      -1.236  -2.685  -0.441  0.00  0.00    -0.273 N 
ATOM     10  HN  UNL d   1      -0.389  -3.181  -0.718  1.00  0.00     0.194 HD
ATOM     11  C   UNL d   1       1.245  -1.409  -0.076  0.00  0.00     0.015 A 
ATOM     12  C   UNL d   1       1.347   1.371   0.097  0.00  0.00     0.024 A 
ATOM     13  C   UNL d   1       2.478  -0.751  -0.046  0.00  0.00     0.001 A 
ATOM     14  C   UNL d   1       2.529   0.638   0.041  0.00  0.00     0.002 A 
ENDROOT
BRANCH   9  15
ATOM     15  O   UNL d   1      -2.506  -3.264  -0.428  0.00  0.00    -0.290 OA
ATOM     16  H   UNL d   1      -2.328  -4.175  -0.730  0.00  0.00     0.244 HD
ENDBRANCH   9  15
TORSDOF 1
