REMARK  4 active torsions:
REMARK  status: ('A' for Active; 'I' for Inactive)
REMARK    1  A    between atoms: C_2  and  C_1 
REMARK       I    between atoms: N_3  and  C_2 
REMARK    2  A    between atoms: C_11  and  N_3 
REMARK    3  A    between atoms: C_5  and  C_11 
REMARK    4  A    between atoms: N_12  and  C_6 
ROOT
ATOM      1  C   UNL d   1       2.839  -0.228   0.610  0.00  0.00     0.254 C 
ATOM      2  N   UNL d   1       3.713   0.672   0.021  0.00  0.00    -0.352 N 
ATOM      3  O   UNL d   1       3.195  -0.994   1.502  0.00  0.00    -0.268 OA
ATOM      4  H   UNL d   1       3.448   1.147  -0.832  0.00  0.00     0.163 HD
ENDROOT
BRANCH   1   5
ATOM      5  C   UNL d   1       1.413  -0.190   0.179  0.00  0.00     0.058 A 
ATOM      6  C   UNL d   1       0.620  -1.347   0.005  0.00  0.00     0.043 A 
ATOM      7  C   UNL d   1      -0.775  -1.149  -0.120  0.00  0.00     0.030 A 
ATOM      8  C   UNL d   1      -1.360   0.118  -0.099  0.00  0.00     0.002 A 
ATOM      9  C   UNL d   1      -0.561   1.242   0.025  0.00  0.00     0.001 A 
ATOM     10  C   UNL d   1       0.818   1.091   0.174  0.00  0.00     0.019 A 
BRANCH   6  11
ATOM     11  N   UNL d   1       1.034  -2.659  -0.221  0.00  0.00    -0.393 N 
ATOM     12  C   UNL d   1       2.406  -3.106  -0.314  0.00  0.00     0.146 C 
ATOM     13  H   UNL d   1       0.411  -3.349   0.186  0.00  0.00     0.159 HD
ENDBRANCH   6  11
ENDBRANCH   1   5
BRANCH   2  14
ATOM     14  C   UNL d   1       5.108   0.608   0.394  0.00  0.00     0.169 C 
BRANCH  14  15
ATOM     15  C   UNL d   1       5.870   1.791  -0.108  0.00  0.00     0.000 A 
ATOM     16  S   UNL d   1       6.651   1.734  -1.633  0.00  0.00    -0.105 SA
ATOM     17  C   UNL d   1       7.389   3.257  -1.388  0.00  0.00     0.050 A 
ATOM     18  C   UNL d   1       7.019   3.822  -0.188  0.00  0.00     0.008 A 
ATOM     19  C   UNL d   1       6.132   2.983   0.547  0.00  0.00     0.017 A 
ENDBRANCH  14  15
ENDBRANCH   2  14
TORSDOF 4
