REMARK  2 active torsions:
REMARK  status: ('A' for Active; 'I' for Inactive)
REMARK    1  A    between atoms: N_4  and  N_11 
REMARK    2  A    between atoms: N_11  and  C_12 
ROOT
ATOM      1  C   UNL d   1      -0.398   0.457   0.004  0.00  0.00     0.111 A 
ATOM      2  C   UNL d   1      -1.824   0.553   0.002  0.00  0.00     0.105 C 
ATOM      3  N   UNL d   1      -2.978   0.681   0.002  0.00  0.00    -0.191 NA
ATOM      4  C   UNL d   1       0.424   1.602   0.014  0.00  0.00     0.071 A 
ATOM      5  C   UNL d   1       0.177  -0.819  -0.004  0.00  0.00     0.139 A 
ATOM      6  F   UNL d   1      -0.602  -1.911  -0.012  0.00  0.00    -0.204 F 
ATOM      7  C   UNL d   1       2.382   0.122   0.003  0.00  0.00     0.005 A 
ATOM      8  C   UNL d   1       1.821   1.401   0.011  0.00  0.00     0.032 A 
ATOM      9  C   UNL d   1       1.556  -0.994  -0.005  0.00  0.00     0.044 A 
ENDROOT
BRANCH   4  10
ATOM     10  N   UNL d   1      -0.108   2.915   0.007  0.00  0.00    -0.298 N 
ATOM     11  H   UNL d   1      -1.127   3.010   0.046  0.00  0.00     0.187 HD
BRANCH  10  12
ATOM     12  N   UNL d   1       0.760   3.968   0.018  0.00  0.00    -0.281 N 
ATOM     13  C   UNL d   1       0.332   5.195   0.028  0.00  0.00     0.209 C 
ATOM     14  C   UNL d   1      -1.064   5.508   0.032  0.00  0.00     0.130 C 
ATOM     15  C   UNL d   1       1.366   6.191   0.034  0.00  0.00     0.130 C 
ATOM     16  N   UNL d   1      -2.203   5.740   0.037  0.00  0.00    -0.189 NA
ATOM     17  N   UNL d   1       2.189   7.013   0.038  0.00  0.00    -0.189 NA
ATOM     18  HN  UNL d   1       1.764   3.789   0.020  1.00  0.00     0.188 HD
ENDBRANCH  10  12
ENDBRANCH   4  10
TORSDOF 2
