REMARK  2 active torsions:
REMARK  status: ('A' for Active; 'I' for Inactive)
REMARK    1  A    between atoms: C_2  and  C_1 
REMARK    2  A    between atoms: C_16  and  N_3 
ROOT
ATOM      1  C   UNL d   1      -0.345  -1.465  -0.078  0.00  0.00     0.151 C 
ATOM      2  N   UNL d   1       0.872  -0.909   0.279  0.00  0.00    -0.224 N 
ATOM      3  N   UNL d   1       0.669   0.407   0.524  0.00  0.00     0.001 NA
ATOM      4  N   UNL d   1      -0.556   0.663   0.081  0.00  0.00    -0.007 NA
ATOM      5  N   UNL d   1      -1.185  -0.484  -0.334  0.00  0.00    -0.269 N 
ATOM      6  HN  UNL d   1      -2.111  -0.561  -0.755  1.00  0.00     0.185 HD
ENDROOT
BRANCH   1   7
ATOM      7  C   UNL d   1      -0.680  -2.912  -0.127  0.00  0.00     0.038 A 
ATOM      8  C   UNL d   1      -1.414  -3.593  -1.134  0.00  0.00     0.008 A 
ATOM      9  C   UNL d   1      -1.326  -4.955  -0.835  0.00  0.00     0.045 A 
ATOM     10  C   UNL d   1      -2.051  -3.202  -2.329  0.00  0.00     0.040 A 
ATOM     11  C   UNL d   1      -1.825  -5.949  -1.685  0.00  0.00     0.056 A 
ATOM     12  N   UNL d   1      -0.669  -5.073   0.369  0.00  0.00    -0.364 N 
ATOM     13  C   UNL d   1      -2.415  -5.541  -2.888  0.00  0.00     0.058 A 
ATOM     14  C   UNL d   1      -2.538  -4.184  -3.203  0.00  0.00     0.056 A 
ATOM     15 CL   UNL d   1      -2.947  -6.790  -3.961  0.00  0.00    -0.082 Cl
ATOM     16 CL   UNL d   1      -3.245  -3.643  -4.686  0.00  0.00    -0.083 Cl
ATOM     17  C   UNL d   1      -0.235  -3.844   0.786  0.00  0.00     0.104 A 
ATOM     18  H   UNL d   1      -0.485  -5.948   0.844  0.00  0.00     0.165 HD
ENDBRANCH   1   7
BRANCH   2  19
ATOM     19  C   UNL d   1       2.171  -1.476   0.247  0.00  0.00     0.056 A 
ATOM     20  C   UNL d   1       2.446  -2.578  -0.580  0.00  0.00     0.031 A 
ATOM     21  C   UNL d   1       3.726  -3.132  -0.615  0.00  0.00     0.002 A 
ATOM     22  C   UNL d   1       4.737  -2.587   0.173  0.00  0.00     0.000 A 
ATOM     23  C   UNL d   1       4.478  -1.474   0.972  0.00  0.00     0.002 A 
ATOM     24  C   UNL d   1       3.201  -0.904   1.000  0.00  0.00     0.031 A 
ENDBRANCH   2  19
TORSDOF 2
