REMARK  9 active torsions:
REMARK  status: ('A' for Active; 'I' for Inactive)
REMARK    1  A    between atoms: C_9  and  C_1 
REMARK    2  A    between atoms: N_2  and  C_8 
REMARK    3  A    between atoms: C_10  and  C_3 
REMARK    4  A    between atoms: N_6  and  C_4 
REMARK    5  A    between atoms: C_7  and  N_6 
REMARK    6  A    between atoms: O_17  and  C_9 
REMARK    7  A    between atoms: O_18  and  C_10 
REMARK    8  A    between atoms: C_21  and  O_17 
REMARK    9  A    between atoms: C_22  and  O_18 
ROOT
ATOM      1  C   UNL d   1       1.248  -0.028   0.547  0.00  0.00     0.068 A 
ATOM      2  C   UNL d   1       0.529  -1.094  -0.028  0.00  0.00     0.049 A 
ATOM      3  C   UNL d   1       0.859   1.308   0.290  0.00  0.00     0.056 A 
ATOM      4  C   UNL d   1      -0.239   1.589  -0.526  0.00  0.00     0.104 A 
ATOM      5  C   UNL d   1      -0.580  -0.770  -0.848  0.00  0.00     0.033 A 
ATOM      6  C   UNL d   1      -0.965   0.549  -1.099  0.00  0.00     0.038 A 
ENDROOT
BRANCH   2   7
ATOM      7  N   UNL d   1       0.815  -2.471   0.060  0.00  0.00    -0.355 N 
ATOM      8  H   UNL d   1      -0.027  -3.039   0.219  0.00  0.00     0.166 HD
BRANCH   7   9
ATOM      9  C   UNL d   1       2.003  -3.220   0.192  0.00  0.00     0.049 A 
ATOM     10  C   UNL d   1       1.991  -4.524   0.752  0.00  0.00     0.066 A 
ATOM     11  C   UNL d   1       3.203  -5.201   0.978  0.00  0.00     0.020 A 
ATOM     12  C   UNL d   1       4.418  -4.623   0.615  0.00  0.00     0.001 A 
ATOM     13  C   UNL d   1       4.432  -3.377  -0.001  0.00  0.00     0.002 A 
ATOM     14  C   UNL d   1       3.237  -2.686  -0.212  0.00  0.00     0.030 A 
BRANCH  10  15
ATOM     15  C   UNL d   1       0.689  -5.190   1.081  0.00  0.00     0.295 C 
ATOM     16  O   UNL d   1      -0.397  -4.635   0.996  0.00  0.00    -0.259 OA
BRANCH  15  17
ATOM     17  O   UNL d   1       0.885  -6.489   1.420  0.00  0.00    -0.318 OA
BRANCH  17  18
ATOM     18  C   UNL d   1      -0.287  -7.255   1.740  0.00  0.00     0.174 C 
ATOM     19  C   UNL d   1      -0.956  -7.776   0.481  0.00  0.00     0.034 C 
ENDBRANCH  17  18
ENDBRANCH  15  17
ENDBRANCH  10  15
ENDBRANCH   7   9
ENDBRANCH   2   7
BRANCH   1  20
ATOM     20  C   UNL d   1       2.394  -0.131   1.487  0.00  0.00     0.295 C 
ATOM     21  O   UNL d   1       3.267   0.728   1.512  0.00  0.00    -0.259 OA
BRANCH  20  22
ATOM     22  O   UNL d   1       2.266  -1.146   2.372  0.00  0.00    -0.318 OA
BRANCH  22  23
ATOM     23  C   UNL d   1       3.178  -1.112   3.485  0.00  0.00     0.174 C 
ATOM     24  C   UNL d   1       4.618  -1.434   3.116  0.00  0.00     0.034 C 
ENDBRANCH  22  23
ENDBRANCH  20  22
ENDBRANCH   1  20
BRANCH   4  25
ATOM     25  N   UNL d   1      -0.631   2.983  -0.770  0.00  0.00    -0.116 N 
ATOM     26  O   UNL d   1      -0.044   3.868  -0.130  0.00  0.00    -0.532 OA
ATOM     27  O   UNL d   1      -1.526   3.191  -1.600  0.00  0.00    -0.532 OA
ENDBRANCH   4  25
TORSDOF 9
