REMARK  5 active torsions:
REMARK  status: ('A' for Active; 'I' for Inactive)
REMARK    1  A    between atoms: C_8  and  N_1 
REMARK    2  A    between atoms: C_12  and  C_2 
REMARK    3  A    between atoms: S_15  and  C_5 
REMARK    4  A    between atoms: C_9  and  C_10 
REMARK    5  A    between atoms: C_13  and  C_14 
ROOT
ATOM      1  N   UNL d   1      -0.266  -1.138  -0.437  0.00  0.00    -0.275 N 
ATOM      2  C   UNL d   1       0.964  -0.619  -0.004  0.00  0.00     0.139 A 
ATOM      3  N   UNL d   1       0.773   0.607   0.450  0.00  0.00    -0.282 N 
ATOM      4  HN  UNL d   1       1.484   1.197   0.882  1.00  0.00     0.188 HD
ATOM      5  C   UNL d   1      -1.144  -0.073  -0.286  0.00  0.00     0.165 A 
ATOM      6  N   UNL d   1      -0.530   0.955   0.248  0.00  0.00    -0.278 N 
ATOM      7  HN  UNL d   1      -0.953   1.855   0.473  1.00  0.00     0.189 HD
ENDROOT
BRANCH   1   8
ATOM      8  C   UNL d   1      -0.532  -2.461  -0.904  0.00  0.00     0.044 A 
ATOM      9  C   UNL d   1       0.102  -3.561  -0.301  0.00  0.00     0.046 A 
ATOM     10  C   UNL d   1      -0.076  -4.861  -0.807  0.00  0.00     0.050 A 
ATOM     11  C   UNL d   1      -0.947  -5.053  -1.889  0.00  0.00     0.016 A 
ATOM     12  C   UNL d   1      -1.597  -3.968  -2.476  0.00  0.00     0.003 A 
ATOM     13  C   UNL d   1      -1.379  -2.675  -1.998  0.00  0.00     0.030 A 
BRANCH  10  14
ATOM     14  C   UNL d   1       0.670  -6.039  -0.225  0.00  0.00     0.417 C 
ATOM     15  F   UNL d   1       1.534  -5.701   0.771  0.00  0.00    -0.166 F 
ATOM     16  F   UNL d   1      -0.166  -6.974   0.303  0.00  0.00    -0.166 F 
ATOM     17  F   UNL d   1       1.417  -6.689  -1.161  0.00  0.00    -0.166 F 
ENDBRANCH  10  14
ENDBRANCH   1   8
BRANCH   2  18
ATOM     18  C   UNL d   1       2.291  -1.247  -0.073  0.00  0.00     0.010 A 
ATOM     19  C   UNL d   1       2.702  -2.033  -1.152  0.00  0.00     0.016 A 
ATOM     20  C   UNL d   1       3.956  -2.657  -1.149  0.00  0.00     0.009 A 
ATOM     21  C   UNL d   1       4.866  -2.476  -0.092  0.00  0.00    -0.051 A 
ATOM     22  C   UNL d   1       4.470  -1.629   0.954  0.00  0.00     0.009 A 
ATOM     23  C   UNL d   1       3.204  -1.027   0.964  0.00  0.00     0.016 A 
BRANCH  21  24
ATOM     24  C   UNL d   1       6.228  -3.196  -0.112  0.00  0.00    -0.024 C 
ATOM     25  C   UNL d   1       7.138  -2.835   1.083  0.00  0.00     0.019 C 
ATOM     26  C   UNL d   1       5.999  -4.721  -0.072  0.00  0.00     0.019 C 
ATOM     27  C   UNL d   1       7.000  -2.832  -1.399  0.00  0.00     0.019 C 
ENDBRANCH  21  24
ENDBRANCH   2  18
BRANCH   5  28
ATOM     28  S   UNL d   1      -2.859  -0.075  -0.558  0.00  0.00    -0.105 SA
ATOM     29  H   UNL d   1      -3.095  -1.393  -0.558  0.00  0.00     0.110 HD
ENDBRANCH   5  28
TORSDOF 5
