REMARK  2 active torsions:
REMARK  status: ('A' for Active; 'I' for Inactive)
REMARK    1  A    between atoms: N_2  and  C_1 
REMARK    2  A    between atoms: C_10  and  C_4 
ROOT
ATOM      1  C   UNL d   1      -2.735  -1.638  -0.028  0.00  0.00     0.115 C 
ATOM      2  C   UNL d   1      -1.421  -1.716   0.217  0.00  0.00     0.049 C 
ATOM      3  C   UNL d   1      -3.471  -0.401  -0.390  0.00  0.00     0.218 C 
ATOM      4  O   UNL d   1      -2.761   0.795   0.022  0.00  0.00    -0.334 OA
ATOM      5  C   UNL d   1      -0.659  -0.466   0.097  0.00  0.00     0.011 A 
ATOM      6  C   UNL d   1      -1.392   0.734   0.030  0.00  0.00     0.081 A 
ATOM      7  C   UNL d   1       0.766  -0.426   0.061  0.00  0.00    -0.013 A 
ATOM      8  C   UNL d   1      -0.744   1.964   0.002  0.00  0.00     0.038 A 
ATOM      9  C   UNL d   1       1.409   0.838  -0.005  0.00  0.00    -0.025 A 
ATOM     10  C   UNL d   1       0.646   2.014  -0.020  0.00  0.00     0.015 A 
ATOM     11  C   UNL d   1       1.601  -1.572   0.071  0.00  0.00     0.013 A 
ATOM     12  C   UNL d   1       2.811   0.919  -0.056  0.00  0.00     0.012 A 
ATOM     13  C   UNL d   1       2.994  -1.475   0.022  0.00  0.00     0.001 A 
ATOM     14  C   UNL d   1       3.599  -0.229  -0.041  0.00  0.00     0.001 A 
ENDROOT
BRANCH   3  15
ATOM     15  C   UNL d   1      -4.859  -0.239   0.215  0.00  0.00    -0.023 A 
ATOM     16  C   UNL d   1      -5.053  -0.256   1.609  0.00  0.00     0.013 A 
ATOM     17  C   UNL d   1      -6.315  -0.007   2.151  0.00  0.00     0.043 A 
ATOM     18  C   UNL d   1      -7.385   0.261   1.306  0.00  0.00     0.116 A 
ATOM     19  C   UNL d   1      -7.224   0.260  -0.073  0.00  0.00     0.043 A 
ATOM     20  F   UNL d   1      -8.587   0.538   1.830  0.00  0.00    -0.206 F 
ATOM     21  C   UNL d   1      -5.965   0.005  -0.620  0.00  0.00     0.013 A 
ENDBRANCH   3  15
BRANCH   1  22
ATOM     22  N   UNL d   1      -3.476  -2.868  -0.053  0.00  0.00    -0.117 N 
ATOM     23  O   UNL d   1      -3.399  -3.598   0.940  0.00  0.00    -0.532 OA
ATOM     24  O   UNL d   1      -4.112  -3.109  -1.087  0.00  0.00    -0.532 OA
ENDBRANCH   1  22
TORSDOF 2
