REMARK  7 active torsions:
REMARK  status: ('A' for Active; 'I' for Inactive)
REMARK    1  A    between atoms: C_7  and  N_1 
REMARK    2  A    between atoms: C_15  and  C_7 
REMARK    3  A    between atoms: S_18  and  C_12 
REMARK    4  A    between atoms: C_17  and  C_15 
REMARK    5  A    between atoms: C_24  and  S_18 
REMARK    6  A    between atoms: O_21  and  C_25 
REMARK    7  A    between atoms: C_25  and  C_24 
ROOT
ATOM      1  N   UNL d   1       2.263  -0.108   0.174  0.00  0.00    -0.280 N 
ATOM      2  C   UNL d   1       1.636   1.128   0.076  0.00  0.00     0.261 C 
ATOM      3  C   UNL d   1       1.605  -1.316  -0.047  0.00  0.00     0.261 C 
ATOM      4  C   UNL d   1       0.155   1.137   0.029  0.00  0.00     0.044 A 
ATOM      5  C   UNL d   1      -0.562  -0.065   0.045  0.00  0.00     0.007 A 
ATOM      6  C   UNL d   1       0.125  -1.286   0.021  0.00  0.00     0.044 A 
ATOM      7  C   UNL d   1      -1.988  -0.041   0.062  0.00  0.00    -0.007 A 
ATOM      8  C   UNL d   1      -0.506   2.366  -0.020  0.00  0.00     0.019 A 
ATOM      9  O   UNL d   1       2.163  -2.370  -0.326  0.00  0.00    -0.267 OA
ATOM     10  O   UNL d   1       2.238   2.200   0.024  0.00  0.00    -0.267 OA
ATOM     11  C   UNL d   1      -2.650   1.224   0.042  0.00  0.00     0.011 A 
ATOM     12  C   UNL d   1      -1.895   2.406  -0.022  0.00  0.00     0.020 A 
ATOM     13  C   UNL d   1      -0.565  -2.503   0.038  0.00  0.00     0.018 A 
ATOM     14  C   UNL d   1      -2.649  -1.296   0.068  0.00  0.00     0.014 A 
ATOM     15  C   UNL d   1      -1.950  -2.506   0.074  0.00  0.00     0.002 A 
ENDROOT
BRANCH   1  16
ATOM     16  C   UNL d   1       3.728  -0.137   0.243  0.00  0.00     0.141 C 
BRANCH  16  17
ATOM     17  C   UNL d   1       4.321   0.554   1.479  0.00  0.00     0.077 C 
BRANCH  17  18
ATOM     18  C   UNL d   1       3.909  -0.071   2.787  0.00  0.00     0.010 A 
ATOM     19  N   UNL d   1       4.228  -1.373   2.978  0.00  0.00    -0.369 N 
ATOM     20  C   UNL d   1       3.926  -1.921   4.176  0.00  0.00     0.088 A 
ATOM     21  HN  UNL d   1       4.679  -1.920   2.245  1.00  0.00     0.165 HD
ATOM     22  C   UNL d   1       3.323  -1.228   5.211  0.00  0.00     0.017 A 
ATOM     23  C   UNL d   1       3.002   0.106   5.003  0.00  0.00     0.003 A 
ATOM     24  C   UNL d   1       3.296   0.696   3.776  0.00  0.00     0.025 A 
ENDBRANCH  17  18
ENDBRANCH  16  17
ENDBRANCH   1  16
BRANCH  11  25
ATOM     25  S   UNL d   1      -4.425   1.492  -0.061  0.00  0.00    -0.127 SA
BRANCH  25  26
ATOM     26  C   UNL d   1      -5.064   0.820   1.512  0.00  0.00     0.105 C 
BRANCH  26  27
ATOM     27  C   UNL d   1      -4.487   1.411   2.791  0.00  0.00     0.174 C 
BRANCH  27  28
ATOM     28  O   UNL d   1      -5.125   0.768   3.896  0.00  0.00    -0.400 OA
ATOM     29  H   UNL d   1      -4.742   1.133   4.712  0.00  0.00     0.209 HD
ENDBRANCH  27  28
ENDBRANCH  26  27
ENDBRANCH  25  26
ENDBRANCH  11  25
TORSDOF 7
