REMARK  7 active torsions:
REMARK  status: ('A' for Active; 'I' for Inactive)
REMARK    1  A    between atoms: N_2  and  C_1 
REMARK    2  A    between atoms: C_7  and  N_2 
REMARK    3  A    between atoms: C_4  and  C_15 
REMARK    4  A    between atoms: O_9  and  C_4 
REMARK    5  A    between atoms: C_16  and  N_6 
REMARK    6  A    between atoms: C_15  and  C_17 
REMARK    7  A    between atoms: C_17  and  C_16 
ROOT
ATOM      1  C   UNL d   1       0.959   0.079   0.043  0.00  0.00     0.172 C 
ATOM      2  S   UNL d   1       0.116  -0.827   1.168  0.00  0.00    -0.041 SA
ATOM      3  N   UNL d   1       2.323   0.028   0.089  0.00  0.00    -0.367 N 
ATOM      4  H   UNL d   1       2.667  -0.524   0.869  0.00  0.00     0.161 HD
ENDROOT
BRANCH   1   5
ATOM      5  N   UNL d   1       0.423   0.829  -0.969  0.00  0.00    -0.333 N 
ATOM      6  H   UNL d   1       0.824   0.649  -1.881  0.00  0.00     0.168 HD
BRANCH   5   7
ATOM      7  C   UNL d   1      -0.766   1.587  -0.941  0.00  0.00     0.034 A 
ATOM      8  C   UNL d   1      -1.224   2.194   0.234  0.00  0.00     0.031 A 
ATOM      9  C   UNL d   1      -2.333   3.043   0.207  0.00  0.00     0.026 A 
ATOM     10  C   UNL d   1      -2.994   3.279  -0.995  0.00  0.00     0.034 A 
ATOM     11  C   UNL d   1      -2.560   2.665  -2.168  0.00  0.00     0.026 A 
ATOM     12 CL   UNL d   1      -4.333   4.357  -1.036  0.00  0.00    -0.084 Cl
ATOM     13  C   UNL d   1      -1.437   1.830  -2.144  0.00  0.00     0.031 A 
ENDBRANCH   5   7
ENDBRANCH   1   5
BRANCH   3  14
ATOM     14  C   UNL d   1       3.265   0.950  -0.522  0.00  0.00     0.122 C 
BRANCH  14  15
ATOM     15  C   UNL d   1       3.281   2.317   0.164  0.00  0.00     0.030 C 
BRANCH  15  16
ATOM     16  C   UNL d   1       4.412   3.186  -0.387  0.00  0.00     0.111 C 
BRANCH  16  17
ATOM     17  C   UNL d   1       4.442   4.560   0.238  0.00  0.00     0.139 C 
ATOM     18  O   UNL d   1       3.674   4.967   1.091  0.00  0.00    -0.650 OA
BRANCH  17  19
ATOM     19  O   UNL d   1       5.449   5.324  -0.252  0.00  0.00    -0.776 OA
ATOM     20  H   UNL d   1       5.994   4.880  -0.929  0.00  0.00     0.167 HD
ENDBRANCH  17  19
ENDBRANCH  16  17
ENDBRANCH  15  16
ENDBRANCH  14  15
ENDBRANCH   3  14
TORSDOF 7
