REMARK  3 active torsions:
REMARK  status: ('A' for Active; 'I' for Inactive)
REMARK    1  A    between atoms: C_3  and  S_1 
REMARK    2  A    between atoms: C_4  and  S_1 
REMARK    3  A    between atoms: C_2  and  C_3 
ROOT
ATOM      1  S   UNL d   1       1.061   0.075   0.148  0.00  0.00     0.179 S 
ATOM      2  O   UNL d   1       0.413   0.893   1.156  0.00  0.00    -0.222 OA
ATOM      3  O   UNL d   1       2.510   0.018   0.071  0.00  0.00    -0.222 OA
ENDROOT
BRANCH   1   4
ATOM      4  C   UNL d   1       0.390   0.466  -1.469  0.00  0.00     0.189 C 
BRANCH   4   5
ATOM      5  C   UNL d   1       0.794   1.871  -1.827  0.00  0.00     0.016 A 
ATOM      6  C   UNL d   1       2.010   2.076  -2.491  0.00  0.00     0.125 A 
ATOM      7  F   UNL d   1       2.750   1.018  -2.853  0.00  0.00    -0.205 F 
ATOM      8  C   UNL d   1       2.476   3.350  -2.805  0.00  0.00     0.043 A 
ATOM      9  C   UNL d   1       1.723   4.464  -2.451  0.00  0.00     0.005 A 
ATOM     10  C   UNL d   1       0.503   4.290  -1.797  0.00  0.00     0.024 A 
ATOM     11  C   UNL d   1       0.040   3.004  -1.490  0.00  0.00     0.044 A 
ATOM     12 CL   UNL d   1      -1.499   2.878  -0.716  0.00  0.00    -0.084 Cl
ENDBRANCH   4   5
ENDBRANCH   1   4
BRANCH   1  13
ATOM     13  C   UNL d   1       0.505  -1.599   0.423  0.00  0.00     0.059 A 
ATOM     14  C   UNL d   1       1.306  -2.667   0.005  0.00  0.00     0.025 A 
ATOM     15  C   UNL d   1       0.912  -3.976   0.294  0.00  0.00     0.025 A 
ATOM     16  C   UNL d   1      -0.268  -4.207   1.004  0.00  0.00     0.034 A 
ATOM     17  C   UNL d   1      -1.064  -3.140   1.422  0.00  0.00     0.025 A 
ATOM     18 CL   UNL d   1      -0.733  -5.819   1.383  0.00  0.00    -0.084 Cl
ATOM     19  C   UNL d   1      -0.677  -1.828   1.136  0.00  0.00     0.025 A 
ENDBRANCH   1  13
TORSDOF 3
