REMARK  6 active torsions:
REMARK  status: ('A' for Active; 'I' for Inactive)
REMARK    1  A    between atoms: C_6  and  S_1 
REMARK    2  A    between atoms: C_11  and  S_1 
REMARK    3  A    between atoms: C_4  and  C_6 
REMARK    4  A    between atoms: C_14  and  C_5 
REMARK    5  A    between atoms: C_10  and  O_15 
REMARK    6  A    between atoms: O_15  and  C_23 
ROOT
ATOM      1  N   UNL d   1       1.921  -2.701  -0.439  0.00  0.00    -0.322 N 
ATOM      2  HN  UNL d   1       2.490  -1.984  -0.887  1.00  0.00     0.169 HD
ATOM      3  C   UNL d   1       0.961  -2.553   0.526  0.00  0.00     0.118 A 
ATOM      4  C   UNL d   1       1.925  -4.000  -0.643  0.00  0.00     0.182 A 
ATOM      5  N   UNL d   1       0.347  -3.688   0.883  0.00  0.00    -0.246 N 
ATOM      6  HN  UNL d   1      -0.413  -3.814   1.552  1.00  0.00     0.196 HD
ATOM      7  O   UNL d   1       0.999  -4.660   0.116  0.00  0.00    -0.217 OA
ENDROOT
BRANCH   3   8
ATOM      8  C   UNL d   1       0.549  -1.232   1.021  0.00  0.00     0.224 C 
BRANCH   8   9
ATOM      9  S   UNL d   1       1.826  -0.406   1.930  0.00  0.00     0.182 S 
ATOM     10  O   UNL d   1       2.225  -1.246   3.042  0.00  0.00    -0.222 OA
ATOM     11  O   UNL d   1       1.380   0.954   2.174  0.00  0.00    -0.222 OA
BRANCH   9  12
ATOM     12  C   UNL d   1       3.228  -0.259   0.837  0.00  0.00     0.059 A 
ATOM     13  C   UNL d   1       3.116   0.508  -0.330  0.00  0.00     0.026 A 
ATOM     14  C   UNL d   1       4.223   0.641  -1.171  0.00  0.00     0.044 A 
ATOM     15  C   UNL d   1       5.424   0.023  -0.832  0.00  0.00     0.116 A 
ATOM     16  C   UNL d   1       5.543  -0.728   0.334  0.00  0.00     0.044 A 
ATOM     17  F   UNL d   1       6.485   0.158  -1.639  0.00  0.00    -0.206 F 
ATOM     18  C   UNL d   1       4.441  -0.871   1.177  0.00  0.00     0.026 A 
ENDBRANCH   9  12
ENDBRANCH   8   9
ENDBRANCH   3   8
BRANCH   4  19
ATOM     19  C   UNL d   1       2.740  -4.781  -1.561  0.00  0.00     0.017 A 
ATOM     20  C   UNL d   1       3.790  -4.149  -2.245  0.00  0.00     0.018 A 
ATOM     21  C   UNL d   1       4.573  -4.844  -3.173  0.00  0.00     0.038 A 
ATOM     22  C   UNL d   1       4.290  -6.175  -3.463  0.00  0.00     0.078 A 
ATOM     23  C   UNL d   1       3.282  -6.828  -2.748  0.00  0.00     0.038 A 
ATOM     24  C   UNL d   1       2.509  -6.140  -1.806  0.00  0.00     0.018 A 
BRANCH  22  25
ATOM     25  O   UNL d   1       4.961  -6.952  -4.355  0.00  0.00    -0.255 OA
BRANCH  25  26
ATOM     26  C   UNL d   1       5.451  -6.370  -5.557  0.00  0.00     0.530 C 
ATOM     27  F   UNL d   1       5.141  -5.066  -5.716  0.00  0.00    -0.144 F 
ATOM     28  F   UNL d   1       6.794  -6.502  -5.595  0.00  0.00    -0.144 F 
ATOM     29  F   UNL d   1       4.931  -7.048  -6.606  0.00  0.00    -0.144 F 
ENDBRANCH  25  26
ENDBRANCH  22  25
ENDBRANCH   4  19
TORSDOF 6
