REMARK  5 active torsions:
REMARK  status: ('A' for Active; 'I' for Inactive)
REMARK    1  A    between atoms: C_4  and  C_1 
REMARK    2  A    between atoms: N_7  and  N_2 
REMARK    3  A    between atoms: C_10  and  C_4 
REMARK    4  A    between atoms: C_9  and  N_7 
REMARK    5  A    between atoms: O_20  and  C_17 
ROOT
ATOM      1  C   UNL d   1       1.016   0.045  -0.046  0.00  0.00     0.179 C 
ATOM      2  N   UNL d   1       2.219   0.532  -0.176  0.00  0.00    -0.287 N 
ATOM      3  HN  UNL d   1       2.638   0.593  -1.103  1.00  0.00     0.188 HD
ATOM      4  C   UNL d   1       0.423   0.000   1.269  0.00  0.00     0.123 C 
ATOM      5  N   UNL d   1       0.005  -0.037   2.351  0.00  0.00    -0.190 NA
ENDROOT
BRANCH   1   6
ATOM      6  C   UNL d   1       0.261  -0.415  -1.263  0.00  0.00     0.220 C 
ATOM      7  O   UNL d   1      -0.951  -0.237  -1.287  0.00  0.00    -0.284 OA
BRANCH   6   8
ATOM      8  C   UNL d   1       0.964  -1.027  -2.419  0.00  0.00     0.017 A 
ATOM      9  C   UNL d   1       2.171  -1.721  -2.279  0.00  0.00     0.018 A 
ATOM     10  C   UNL d   1       2.825  -2.233  -3.407  0.00  0.00     0.037 A 
ATOM     11  C   UNL d   1       2.274  -2.062  -4.678  0.00  0.00     0.068 A 
ATOM     12  C   UNL d   1       1.040  -1.423  -4.810  0.00  0.00     0.037 A 
ATOM     13  C   UNL d   1       0.387  -0.905  -3.689  0.00  0.00     0.018 A 
BRANCH  11  14
ATOM     14  O   UNL d   1       2.823  -2.519  -5.843  0.00  0.00    -0.356 OA
ATOM     15  C   UNL d   1       4.246  -2.567  -5.879  0.00  0.00     0.210 C 
ENDBRANCH  11  14
ENDBRANCH   6   8
ENDBRANCH   1   6
BRANCH   2  16
ATOM     16  N   UNL d   1       2.927   0.961   0.912  0.00  0.00    -0.298 N 
ATOM     17  H   UNL d   1       2.804   0.551   1.847  0.00  0.00     0.187 HD
BRANCH  16  18
ATOM     18  C   UNL d   1       4.242   1.440   0.673  0.00  0.00     0.071 A 
ATOM     19  C   UNL d   1       5.254   1.359   1.654  0.00  0.00     0.083 A 
ATOM     20  C   UNL d   1       6.545   1.840   1.375  0.00  0.00     0.058 A 
ATOM     21 CL   UNL d   1       4.885   0.623   3.184  0.00  0.00    -0.080 Cl
ATOM     22 CL   UNL d   1       7.842   1.752   2.519  0.00  0.00    -0.082 Cl
ATOM     23  C   UNL d   1       6.832   2.409   0.132  0.00  0.00     0.026 A 
ATOM     24  C   UNL d   1       5.837   2.508  -0.835  0.00  0.00     0.004 A 
ATOM     25  C   UNL d   1       4.556   2.029  -0.563  0.00  0.00     0.033 A 
ENDBRANCH  16  18
ENDBRANCH   2  16
TORSDOF 5
