REMARK  8 active torsions:
REMARK  status: ('A' for Active; 'I' for Inactive)
REMARK    1  A    between atoms: C_6  and  C_1 
REMARK    2  A    between atoms: C_8  and  C_3 
REMARK    3  A    between atoms: C_11  and  C_4 
REMARK    4  A    between atoms: O_18  and  C_6 
REMARK    5  A    between atoms: C_7  and  O_15 
REMARK    6  A    between atoms: C_14  and  C_7 
REMARK    7  A    between atoms: O_15  and  N_9 
REMARK    8  A    between atoms: C_25  and  O_18 
ROOT
ATOM      1  C   UNL d   1       1.206   0.742  -0.053  0.00  0.00     0.077 A 
ATOM      2  C   UNL d   1       1.088  -0.683  -0.029  0.00  0.00     0.058 A 
ATOM      3  C   UNL d   1      -0.093   1.229  -0.121  0.00  0.00     0.109 A 
ATOM      4  C   UNL d   1      -0.251  -0.989  -0.016  0.00  0.00     0.087 A 
ATOM      5  O   UNL d   1      -0.968   0.165  -0.099  0.00  0.00    -0.307 OA
ENDROOT
BRANCH   3   6
ATOM      6  C   UNL d   1      -0.679   2.550  -0.176  0.00  0.00     0.152 C 
ATOM      7  N   UNL d   1      -1.963   2.671  -0.247  0.00  0.00    -0.266 N 
ATOM      8  HN  UNL d   1      -2.604   1.879  -0.285  1.00  0.00     0.194 HD
BRANCH   7   9
ATOM      9  O   UNL d   1      -2.383   4.021  -0.265  0.00  0.00    -0.195 OA
BRANCH   9  10
ATOM     10  C   UNL d   1      -3.754   4.038  -0.350  0.00  0.00     0.315 C 
ATOM     11  O   UNL d   1      -4.494   3.068  -0.478  0.00  0.00    -0.257 OA
BRANCH  10  12
ATOM     12  C   UNL d   1      -4.313   5.410  -0.216  0.00  0.00     0.041 A 
ATOM     13  C   UNL d   1      -5.670   5.519   0.134  0.00  0.00     0.017 A 
ATOM     14  C   UNL d   1      -6.274   6.769   0.270  0.00  0.00     0.001 A 
ATOM     15  C   UNL d   1      -5.529   7.923   0.049  0.00  0.00     0.000 A 
ATOM     16  C   UNL d   1      -4.182   7.827  -0.310  0.00  0.00     0.001 A 
ATOM     17  C   UNL d   1      -3.570   6.574  -0.443  0.00  0.00     0.017 A 
ENDBRANCH  10  12
ENDBRANCH   9  10
ENDBRANCH   7   9
ENDBRANCH   3   6
BRANCH   1  18
ATOM     18  C   UNL d   1       2.471   1.439   0.043  0.00  0.00     0.296 C 
ATOM     19  O   UNL d   1       3.540   0.839   0.062  0.00  0.00    -0.259 OA
BRANCH  18  20
ATOM     20  O   UNL d   1       2.349   2.785   0.201  0.00  0.00    -0.318 OA
BRANCH  20  21
ATOM     21  C   UNL d   1       3.542   3.439   0.662  0.00  0.00     0.174 C 
ATOM     22  C   UNL d   1       3.515   3.465   2.180  0.00  0.00     0.034 C 
ENDBRANCH  20  21
ENDBRANCH  18  20
ENDBRANCH   1  18
BRANCH   4  23
ATOM     23  C   UNL d   1      -0.997  -2.237   0.111  0.00  0.00    -0.002 A 
ATOM     24  C   UNL d   1      -0.309  -3.461   0.173  0.00  0.00     0.016 A 
ATOM     25  C   UNL d   1      -0.995  -4.666   0.346  0.00  0.00     0.024 A 
ATOM     26  C   UNL d   1      -2.381  -4.660   0.457  0.00  0.00     0.034 A 
ATOM     27  C   UNL d   1      -3.086  -3.461   0.389  0.00  0.00     0.024 A 
ATOM     28 CL   UNL d   1      -3.223  -6.142   0.690  0.00  0.00    -0.084 Cl
ATOM     29  C   UNL d   1      -2.396  -2.255   0.215  0.00  0.00     0.016 A 
ENDBRANCH   4  23
TORSDOF 8
