REMARK  1 active torsions:
REMARK  status: ('A' for Active; 'I' for Inactive)
REMARK    1  A    between atoms: C_6  and  N_1 
ROOT
ATOM      1  N   UNL d   1      -2.403  -0.790   0.007  0.00  0.00    -0.241 N 
ATOM      2  C   UNL d   1      -1.331  -1.596   0.326  0.00  0.00     0.268 A 
ATOM      3  C   UNL d   1      -1.982   0.469  -0.362  0.00  0.00     0.266 A 
ATOM      4  C   UNL d   1      -0.148  -0.761   0.226  0.00  0.00     0.064 A 
ATOM      5  C   UNL d   1      -0.533   0.494  -0.181  0.00  0.00     0.051 A 
ATOM      6  O   UNL d   1      -1.255  -2.790   0.546  0.00  0.00    -0.267 OA
ATOM      7  O   UNL d   1      -2.604   1.438  -0.751  0.00  0.00    -0.267 OA
ATOM      8  N   UNL d   1       2.115  -0.073   0.256  0.00  0.00    -0.374 N 
ATOM      9  HN  UNL d   1       3.103  -0.272   0.407  1.00  0.00     0.164 HD
ATOM     10  C   UNL d   1       1.175  -1.035   0.425  0.00  0.00     0.105 A 
ATOM     11  C   UNL d   1       0.378   1.513  -0.362  0.00  0.00     0.035 A 
ATOM     12  C   UNL d   1       1.699   1.171  -0.125  0.00  0.00     0.088 A 
ENDROOT
BRANCH   1  13
ATOM     13  C   UNL d   1      -3.747  -1.236  -0.028  0.00  0.00     0.084 A 
ATOM     14  C   UNL d   1      -4.226  -2.171   0.905  0.00  0.00     0.146 A 
ATOM     15  C   UNL d   1      -5.536  -2.638   0.864  0.00  0.00     0.086 A 
ATOM     16  F   UNL d   1      -3.459  -2.564   1.933  0.00  0.00    -0.204 F 
ATOM     17  C   UNL d   1      -6.385  -2.175  -0.128  0.00  0.00     0.119 A 
ATOM     18  C   UNL d   1      -5.951  -1.237  -1.057  0.00  0.00     0.045 A 
ATOM     19  F   UNL d   1      -7.644  -2.627  -0.184  0.00  0.00    -0.206 F 
ATOM     20  C   UNL d   1      -4.640  -0.754  -0.998  0.00  0.00     0.036 A 
ENDBRANCH   1  13
TORSDOF 1
