REMARK  9 active torsions:
REMARK  status: ('A' for Active; 'I' for Inactive)
REMARK    1  A    between atoms: S_2  and  C_1 
REMARK    2  A    between atoms: N_8  and  S_2 
REMARK    3  A    between atoms: C_9  and  C_3 
REMARK    4  A    between atoms: C_14  and  N_4 
REMARK    5  A    between atoms: C_16  and  C_5 
REMARK    6  A    between atoms: N_7  and  C_10 
REMARK    7  A    between atoms: C_18  and  N_8 
REMARK    8  A    between atoms: O_21  and  C_9 
REMARK    9  A    between atoms: C_29  and  O_21 
ROOT
ATOM      1  C   UNL d   1      -0.264  -1.218  -0.080  0.00  0.00     0.121 A 
ATOM      2  C   UNL d   1       1.073  -0.712  -0.093  0.00  0.00     0.087 A 
ATOM      3  N   UNL d   1      -0.371   1.038  -0.025  0.00  0.00    -0.312 N 
ATOM      4  C   UNL d   1      -1.159  -0.139  -0.018  0.00  0.00     0.074 A 
ATOM      5  C   UNL d   1       0.974   0.672  -0.030  0.00  0.00     0.031 A 
ATOM      6  C   UNL d   1       2.109   1.646   0.101  0.00  0.00     0.070 C 
ENDROOT
BRANCH   1   7
ATOM      7  S   UNL d   1      -0.640  -2.917  -0.203  0.00  0.00     0.249 S 
ATOM      8  O   UNL d   1       0.494  -3.502  -0.884  0.00  0.00    -0.205 OA
ATOM      9  O   UNL d   1      -1.028  -3.304   1.139  0.00  0.00    -0.205 OA
BRANCH   7  10
ATOM     10  N   UNL d   1      -1.936  -3.156  -1.284  0.00  0.00    -0.181 NA
ATOM     11  H   UNL d   1      -1.622  -2.816  -2.195  0.00  0.00     0.146 HD
BRANCH  10  12
ATOM     12  C   UNL d   1      -2.364  -4.527  -1.355  0.00  0.00     0.025 A 
ATOM     13  C   UNL d   1      -1.633  -5.480  -2.071  0.00  0.00     0.060 A 
ATOM     14  C   UNL d   1      -2.060  -6.816  -2.066  0.00  0.00     0.104 A 
ATOM     15  C   UNL d   1      -3.209  -7.198  -1.361  0.00  0.00     0.036 A 
ATOM     16  C   UNL d   1      -3.921  -6.238  -0.638  0.00  0.00     0.004 A 
ATOM     17  C   UNL d   1      -3.492  -4.909  -0.629  0.00  0.00     0.024 A 
BRANCH  14  18
ATOM     18  N   UNL d   1      -1.302  -7.831  -2.809  0.00  0.00    -0.116 N 
ATOM     19  O   UNL d   1      -0.312  -7.452  -3.455  0.00  0.00    -0.532 OA
ATOM     20  O   UNL d   1      -1.697  -9.003  -2.757  0.00  0.00    -0.532 OA
ENDBRANCH  14  18
ENDBRANCH  10  12
ENDBRANCH   7  10
ENDBRANCH   1   7
BRANCH   2  21
ATOM     21  C   UNL d   1       2.348  -1.425  -0.224  0.00  0.00     0.296 C 
ATOM     22  O   UNL d   1       3.241  -1.021  -0.967  0.00  0.00    -0.259 OA
BRANCH  21  23
ATOM     23  O   UNL d   1       2.441  -2.541   0.551  0.00  0.00    -0.318 OA
BRANCH  23  24
ATOM     24  C   UNL d   1       3.468  -3.471   0.164  0.00  0.00     0.174 C 
ATOM     25  C   UNL d   1       4.444  -3.686   1.302  0.00  0.00     0.034 C 
ENDBRANCH  23  24
ENDBRANCH  21  23
ENDBRANCH   2  21
BRANCH   4  26
ATOM     26  C   UNL d   1      -2.645  -0.153  -0.047  0.00  0.00    -0.007 A 
ATOM     27  C   UNL d   1      -3.373   0.685  -0.909  0.00  0.00     0.014 A 
ATOM     28  C   UNL d   1      -4.768   0.763  -0.842  0.00  0.00     0.001 A 
ATOM     29  C   UNL d   1      -5.470  -0.060   0.031  0.00  0.00     0.000 A 
ATOM     30  C   UNL d   1      -4.774  -0.949   0.845  0.00  0.00     0.001 A 
ATOM     31  C   UNL d   1      -3.374  -0.977   0.823  0.00  0.00     0.014 A 
ENDBRANCH   4  26
BRANCH   3  32
ATOM     32  C   UNL d   1      -0.836   2.397  -0.054  0.00  0.00     0.040 A 
ATOM     33  C   UNL d   1      -1.905   2.814   0.749  0.00  0.00     0.030 A 
ATOM     34  C   UNL d   1      -2.401   4.118   0.636  0.00  0.00     0.002 A 
ATOM     35  C   UNL d   1      -1.813   5.022  -0.247  0.00  0.00     0.000 A 
ATOM     36  C   UNL d   1      -0.729   4.627  -1.024  0.00  0.00     0.002 A 
ATOM     37  C   UNL d   1      -0.247   3.318  -0.937  0.00  0.00     0.030 A 
ENDBRANCH   3  32
TORSDOF 9
