REMARK  2 active torsions:
REMARK  status: ('A' for Active; 'I' for Inactive)
REMARK    1  A    between atoms: C_7  and  N_1 
REMARK    2  A    between atoms: C_2  and  C_13 
ROOT
ATOM      1  C   UNL d   1      -0.985   4.306  -3.027  0.00  0.00     0.080 C 
ATOM      2  S   UNL d   1      -0.988   5.778  -1.883  0.00  0.00    -0.139 SA
ATOM      3  S   UNL d   1      -2.695   3.846  -3.593  0.00  0.00    -0.139 SA
ATOM      4  C   UNL d   1      -3.012   7.278  -3.061  0.00  0.00    -0.041 A 
ATOM      5  C   UNL d   1      -3.786   6.378  -3.813  0.00  0.00    -0.041 A 
ATOM      6  C   UNL d   1      -3.658   8.334  -2.390  0.00  0.00     0.015 A 
ATOM      7  C   UNL d   1      -5.186   6.520  -3.820  0.00  0.00     0.015 A 
ATOM      8  C   UNL d   1      -5.828   7.558  -3.131  0.00  0.00    -0.056 A 
ATOM      9  C   UNL d   1      -5.052   8.493  -2.429  0.00  0.00    -0.056 A 
ATOM     10  C   UNL d   1      -3.174   5.259  -4.612  0.00  0.00     0.115 C 
ATOM     11  C   UNL d   1      -1.514   7.151  -2.949  0.00  0.00     0.115 C 
ATOM     12  C   UNL d   1      -0.077   4.590  -4.241  0.00  0.00     0.044 C 
ATOM     13  C   UNL d   1      -7.329   7.637  -3.159  0.00  0.00     0.049 C 
ATOM     14  C   UNL d   1      -5.683   9.652  -1.707  0.00  0.00     0.049 C 
ENDROOT
BRANCH   1  15
ATOM     15  C   UNL d   1      -0.455   3.084  -2.204  0.00  0.00    -0.030 A 
ATOM     16  C   UNL d   1      -1.104   2.682  -1.010  0.00  0.00     0.012 A 
ATOM     17  C   UNL d   1      -0.642   1.600  -0.249  0.00  0.00     0.037 A 
ATOM     18  C   UNL d   1       0.484   0.892  -0.673  0.00  0.00     0.102 A 
ATOM     19  C   UNL d   1       1.133   1.247  -1.857  0.00  0.00     0.037 A 
ATOM     20  C   UNL d   1       0.663   2.327  -2.611  0.00  0.00     0.012 A 
BRANCH  18  21
ATOM     21  N   UNL d   1       0.998  -0.227   0.125  0.00  0.00    -0.116 N 
ATOM     22  O   UNL d   1       2.019  -0.804  -0.276  0.00  0.00    -0.532 OA
ATOM     23  O   UNL d   1       0.379  -0.530   1.156  0.00  0.00    -0.532 OA
ENDBRANCH  18  21
ENDBRANCH   1  15
TORSDOF 2
