REMARK  3 active torsions:
REMARK  status: ('A' for Active; 'I' for Inactive)
REMARK    1  A    between atoms: N_9  and  C_1 
REMARK    2  A    between atoms: C_10  and  C_7 
REMARK    3  A    between atoms: S_16  and  C_8 
ROOT
ATOM      1  C   UNL d   1       2.205  -0.029   0.038  0.00  0.00     0.681 A 
ATOM      2  N   UNL d   1       1.540  -1.175  -0.125  0.00  0.00    -0.184 N 
ATOM      3  HN  UNL d   1       2.047  -2.055  -0.218  1.00  0.00     0.185 HD
ATOM      4  N   UNL d   1       1.579   1.146   0.149  0.00  0.00    -0.187 N 
ATOM      5  HN  UNL d   1       2.105   2.012   0.272  1.00  0.00     0.184 HD
ATOM      6  C   UNL d   1      -0.535   0.009  -0.081  0.00  0.00     0.108 A 
ATOM      7  C   UNL d   1       0.222   1.154   0.095  0.00  0.00     0.106 A 
ATOM      8  C   UNL d   1       0.195  -1.159  -0.165  0.00  0.00     0.109 A 
ATOM      9  C   UNL d   1      -1.961   0.025  -0.194  0.00  0.00     0.104 C 
ATOM     10  N   UNL d   1      -3.114   0.037  -0.307  0.00  0.00    -0.191 NA
ENDROOT
BRANCH   7  11
ATOM     11  C   UNL d   1      -0.341   2.490   0.303  0.00  0.00     0.103 A 
ATOM     12  O   UNL d   1      -1.573   2.544   0.890  0.00  0.00    -0.320 OA
ATOM     13  C   UNL d   1      -1.890   3.850   1.068  0.00  0.00     0.142 A 
ATOM     14  C   UNL d   1      -0.874   4.653   0.615  0.00  0.00     0.027 A 
ATOM     15  C   UNL d   1       0.123   3.779   0.110  0.00  0.00     0.041 A 
ENDBRANCH   7  11
BRANCH   8  16
ATOM     16  S   UNL d   1      -0.572  -2.776  -0.315  0.00  0.00    -0.115 SA
ATOM     17  C   UNL d   1       0.887  -3.863  -0.248  0.00  0.00     0.097 C 
ENDBRANCH   8  16
BRANCH   1  18
ATOM     18  N   UNL d   1       3.570  -0.112   0.119  0.00  0.00    -0.218 N 
ATOM     19  C   UNL d   1       4.419   1.047   0.317  0.00  0.00     0.141 C 
ATOM     20  C   UNL d   1       5.539   0.853  -0.702  0.00  0.00     0.022 C 
ATOM     21  C   UNL d   1       5.660  -0.659  -0.822  0.00  0.00     0.022 C 
ATOM     22  C   UNL d   1       4.223  -1.150  -0.670  0.00  0.00     0.141 C 
ENDBRANCH   1  18
TORSDOF 3
