REMARK  2 active torsions:
REMARK  status: ('A' for Active; 'I' for Inactive)
REMARK    1  A    between atoms: C_10  and  C_3 
REMARK    2  A    between atoms: C_8  and  C_7 
ROOT
ATOM      1  N   UNL d   1      -0.815   0.081  -0.067  0.00  0.00    -0.331 N 
ATOM      2  HN  UNL d   1      -1.807  -0.152  -0.103  1.00  0.00     0.168 HD
ATOM      3  C   UNL d   1      -0.263   1.250  -0.025  0.00  0.00     0.162 A 
ATOM      4  C   UNL d   1       0.260  -0.766  -0.051  0.00  0.00     0.111 A 
ATOM      5  O   UNL d   1       1.089   1.305  -0.004  0.00  0.00    -0.256 OA
ATOM      6  C   UNL d   1       1.526   0.013  -0.021  0.00  0.00     0.316 A 
ATOM      7  C   UNL d   1       0.236  -2.106  -0.009  0.00  0.00     0.048 C 
ATOM      8  O   UNL d   1       2.675  -0.381  -0.007  0.00  0.00    -0.257 OA
ENDROOT
BRANCH   3   9
ATOM      9  C   UNL d   1      -0.978   2.533   0.028  0.00  0.00     0.015 A 
ATOM     10  C   UNL d   1      -2.378   2.510   0.096  0.00  0.00     0.016 A 
ATOM     11  C   UNL d   1      -3.096   3.702   0.182  0.00  0.00     0.001 A 
ATOM     12  C   UNL d   1      -2.419   4.920   0.199  0.00  0.00     0.000 A 
ATOM     13  C   UNL d   1      -1.025   4.947   0.124  0.00  0.00     0.001 A 
ATOM     14  C   UNL d   1      -0.301   3.756   0.038  0.00  0.00     0.016 A 
ENDBRANCH   3   9
BRANCH   7  15
ATOM     15  C   UNL d   1      -0.941  -2.926  -0.010  0.00  0.00    -0.027 A 
ATOM     16  C   UNL d   1      -0.974  -4.168   0.590  0.00  0.00     0.061 A 
ATOM     17  S   UNL d   1      -2.510  -4.917   0.457  0.00  0.00    -0.113 SA
ATOM     18  C   UNL d   1      -3.139  -3.595  -0.425  0.00  0.00     0.050 A 
ATOM     19  C   UNL d   1      -2.200  -2.606  -0.611  0.00  0.00     0.019 A 
ENDBRANCH   7  15
TORSDOF 2
