REMARK  4 active torsions:
REMARK  status: ('A' for Active; 'I' for Inactive)
REMARK    1  A    between atoms: C_7  and  O_15 
REMARK    2  A    between atoms: O_14  and  C_7 
REMARK    3  A    between atoms: O_15  and  C_10 
REMARK    4  A    between atoms: C_11  and  O_14 
ROOT
ATOM      1  C   UNL d   1      -4.503   1.300  -0.047  0.00  0.00     0.351 C 
ENDROOT
BRANCH   1   2
ATOM      2  O   UNL d   1      -3.878   0.015   0.004  0.00  0.00    -0.326 OA
BRANCH   2   3
ATOM      3  C   UNL d   1      -2.507   0.010   0.003  0.00  0.00     0.072 A 
ATOM      4  C   UNL d   1      -1.676   1.135  -0.044  0.00  0.00     0.045 A 
ATOM      5  C   UNL d   1      -0.270   1.008  -0.038  0.00  0.00    -0.038 A 
ATOM      6  C   UNL d   1       0.288  -0.277   0.015  0.00  0.00     0.040 A 
ATOM      7  C   UNL d   1       0.544   2.272  -0.088  0.00  0.00     0.050 C 
ATOM      8  C   UNL d   1      -0.540  -1.402   0.062  0.00  0.00     0.027 A 
ATOM      9 CL   UNL d   1       1.994  -0.545   0.025  0.00  0.00    -0.084 Cl
ATOM     10  C   UNL d   1      -1.928  -1.257   0.057  0.00  0.00     0.038 A 
ENDBRANCH   2   3
ENDBRANCH   1   2
BRANCH   1  11
ATOM     11  O   UNL d   1      -5.931   1.177  -0.044  0.00  0.00    -0.326 OA
BRANCH  11  12
ATOM     12  C   UNL d   1      -6.630   2.353  -0.129  0.00  0.00     0.072 A 
ATOM     13  C   UNL d   1      -6.066   3.634  -0.165  0.00  0.00     0.045 A 
ATOM     14  C   UNL d   1      -6.870   4.784  -0.264  0.00  0.00    -0.038 A 
ATOM     15  C   UNL d   1      -6.213   6.134  -0.318  0.00  0.00     0.050 C 
ATOM     16  C   UNL d   1      -8.262   4.629  -0.319  0.00  0.00     0.040 A 
ATOM     17  C   UNL d   1      -8.832   3.355  -0.280  0.00  0.00     0.027 A 
ATOM     18 CL   UNL d   1      -9.317   5.990  -0.438  0.00  0.00    -0.084 Cl
ATOM     19  C   UNL d   1      -8.018   2.223  -0.186  0.00  0.00     0.038 A 
ENDBRANCH  11  12
ENDBRANCH   1  11
TORSDOF 4
