REMARK  8 active torsions:
REMARK  status: ('A' for Active; 'I' for Inactive)
REMARK    1  A    between atoms: N_8  and  C_3 
REMARK    2  A    between atoms: C_10  and  C_4 
REMARK    3  A    between atoms: C_13  and  N_9 
REMARK    4  A    between atoms: C_17  and  C_13 
REMARK    5  A    between atoms: O_16  and  C_20 
REMARK    6  A    between atoms: C_18  and  O_16 
REMARK    7  A    between atoms: C_20  and  C_17 
REMARK    8  A    between atoms: O_26  and  C_17 
ROOT
ATOM      1  N   UNL d   1      -0.138  -2.426  -0.333  0.00  0.00    -0.357 N 
ATOM      2  N   UNL d   1      -0.634  -5.361  -0.420  0.00  0.00     0.094 N 
ATOM      3  C   UNL d   1       0.686  -3.338   0.477  0.00  0.00     0.155 C 
ATOM      4  C   UNL d   1      -1.468  -2.949  -0.688  0.00  0.00     0.155 C 
ATOM      5  C   UNL d   1      -1.378  -4.388  -1.250  0.00  0.00     0.292 C 
ATOM      6  C   UNL d   1       0.700  -4.766  -0.130  0.00  0.00     0.292 C 
ENDROOT
BRANCH   1   7
ATOM      7  C   UNL d   1       0.034  -1.081  -0.122  0.00  0.00     0.165 A 
ATOM      8  N   UNL d   1       1.000  -0.539   0.594  0.00  0.00    -0.321 N 
ATOM      9  C   UNL d   1       0.917   0.860   0.545  0.00  0.00     0.123 A 
ATOM     10  HN  UNL d   1       1.707  -1.063   1.111  1.00  0.00     0.169 HD
ATOM     11  N   UNL d   1      -0.083   1.406  -0.155  0.00  0.00    -0.309 N 
ATOM     12  S   UNL d   1      -0.957   0.167  -0.816  0.00  0.00     0.024 SA
ATOM     13  HN  UNL d   1      -0.272   2.403  -0.262  1.00  0.00     0.176 HD
BRANCH   9  14
ATOM     14  C   UNL d   1       1.911   1.700   1.228  0.00  0.00     0.009 A 
ATOM     15  C   UNL d   1       2.842   1.140   2.114  0.00  0.00     0.015 A 
ATOM     16  C   UNL d   1       3.793   1.946   2.751  0.00  0.00     0.001 A 
ATOM     17  C   UNL d   1       3.826   3.318   2.509  0.00  0.00     0.000 A 
ATOM     18  C   UNL d   1       2.907   3.890   1.634  0.00  0.00     0.001 A 
ATOM     19  C   UNL d   1       1.955   3.087   1.001  0.00  0.00     0.015 A 
ENDBRANCH   9  14
ENDBRANCH   1   7
BRANCH   2  20
ATOM     20  C   UNL d   1      -1.320  -5.713   0.835  0.00  0.00     0.306 C 
BRANCH  20  21
ATOM     21  C   UNL d   1      -2.711  -6.381   0.737  0.00  0.00     0.170 C 
BRANCH  21  22
ATOM     22  C   UNL d   1      -2.725  -7.684  -0.085  0.00  0.00     0.209 C 
BRANCH  22  23
ATOM     23  O   UNL d   1      -4.060  -8.210  -0.035  0.00  0.00    -0.349 OA
BRANCH  23  24
ATOM     24  C   UNL d   1      -4.330  -9.342  -0.753  0.00  0.00     0.069 A 
ATOM     25  C   UNL d   1      -5.382 -10.118  -0.261  0.00  0.00     0.038 A 
ATOM     26  C   UNL d   1      -5.796 -11.268  -0.935  0.00  0.00     0.022 A 
ATOM     27  C   UNL d   1      -5.162 -11.633  -2.119  0.00  0.00     0.011 A 
ATOM     28  C   UNL d   1      -4.118 -10.861  -2.625  0.00  0.00     0.022 A 
ATOM     29 BR   UNL d   1      -5.734 -13.171  -3.058  0.00  0.00    -0.051 Br
ATOM     30  C   UNL d   1      -3.698  -9.713  -1.940  0.00  0.00     0.038 A 
ENDBRANCH  23  24
ENDBRANCH  22  23
ENDBRANCH  21  22
BRANCH  21  31
ATOM     31  O   UNL d   1      -3.158  -6.620   2.085  0.00  0.00    -0.392 OA
ATOM     32  H   UNL d   1      -2.767  -7.458   2.385  0.00  0.00     0.210 HD
ENDBRANCH  21  31
ENDBRANCH  20  21
ENDBRANCH   2  20
TORSDOF 8
