REMARK  7 active torsions:
REMARK  status: ('A' for Active; 'I' for Inactive)
REMARK    1  A    between atoms: C_10  and  N_1 
REMARK    2  A    between atoms: C_4  and  S_13 
REMARK    3  A    between atoms: C_14  and  C_7 
REMARK    4  A    between atoms: O_19  and  C_9 
REMARK    5  A    between atoms: S_13  and  C_17 
REMARK    6  A    between atoms: C_17  and  C_18 
REMARK    7  A    between atoms: C_24  and  O_19 
ROOT
ATOM      1  N   UNL d   1      -3.095  -5.645   5.765  0.00  0.00    -0.317 N 
ATOM      2  HN  UNL d   1      -3.437  -4.698   5.925  1.00  0.00     0.170 HD
ATOM      3  C   UNL d   1      -2.062  -5.897   4.953  0.00  0.00     0.146 A 
ATOM      4  N   UNL d   1      -1.591  -7.122   4.667  0.00  0.00    -0.336 N 
ATOM      5  HN  UNL d   1      -0.816  -7.254   4.017  1.00  0.00     0.168 HD
ATOM      6  C   UNL d   1      -2.188  -8.177   5.276  0.00  0.00     0.048 A 
ATOM      7  C   UNL d   1      -3.223  -7.998   6.173  0.00  0.00     0.086 A 
ATOM      8  C   UNL d   1      -3.653  -6.708   6.355  0.00  0.00     0.146 A 
ENDROOT
BRANCH   3   9
ATOM      9  S   UNL d   1      -1.200  -4.468   4.350  0.00  0.00    -0.089 SA
BRANCH   9  10
ATOM     10  C   UNL d   1      -0.713  -5.046   2.701  0.00  0.00     0.121 C 
BRANCH  10  11
ATOM     11  C   UNL d   1       0.132  -4.001   1.997  0.00  0.00    -0.048 A 
ATOM     12  C   UNL d   1       1.530  -4.014   2.134  0.00  0.00     0.010 A 
ATOM     13  C   UNL d   1       2.319  -3.044   1.507  0.00  0.00     0.036 A 
ATOM     14  C   UNL d   1       1.707  -2.046   0.742  0.00  0.00     0.102 A 
ATOM     15  C   UNL d   1       0.312  -2.008   0.607  0.00  0.00     0.036 A 
ATOM     16  C   UNL d   1      -0.468  -2.983   1.237  0.00  0.00     0.010 A 
BRANCH  14  17
ATOM     17  N   UNL d   1       2.531  -1.028   0.077  0.00  0.00    -0.116 N 
ATOM     18  O   UNL d   1       1.952  -0.162  -0.592  0.00  0.00    -0.532 OA
ATOM     19  O   UNL d   1       3.761  -1.099   0.221  0.00  0.00    -0.532 OA
ENDBRANCH  14  17
ENDBRANCH  10  11
ENDBRANCH   9  10
ENDBRANCH   3   9
BRANCH   8  20
ATOM     20  O   UNL d   1      -4.685  -6.524   7.254  0.00  0.00    -0.336 OA
BRANCH  20  21
ATOM     21  C   UNL d   1      -5.406  -5.311   7.022  0.00  0.00     0.173 C 
ATOM     22  C   UNL d   1      -6.447  -5.158   8.117  0.00  0.00     0.034 C 
ENDBRANCH  20  21
ENDBRANCH   8  20
BRANCH   6  23
ATOM     23  C   UNL d   1      -1.656  -9.518   4.935  0.00  0.00    -0.009 A 
ATOM     24  C   UNL d   1      -0.321  -9.682   4.522  0.00  0.00     0.013 A 
ATOM     25  C   UNL d   1       0.197 -10.944   4.205  0.00  0.00     0.001 A 
ATOM     26  C   UNL d   1      -0.612 -12.072   4.290  0.00  0.00     0.000 A 
ATOM     27  C   UNL d   1      -1.938 -11.941   4.688  0.00  0.00     0.001 A 
ATOM     28  C   UNL d   1      -2.453 -10.678   5.003  0.00  0.00     0.013 A 
ENDBRANCH   6  23
TORSDOF 7
