REMARK  7 active torsions:
REMARK  status: ('A' for Active; 'I' for Inactive)
REMARK    1  A    between atoms: N_5  and  S_1 
REMARK    2  A    between atoms: C_8  and  S_1 
REMARK    3  A    between atoms: C_2  and  C_4 
REMARK    4  A    between atoms: N_20  and  C_3 
REMARK       I    between atoms: C_4  and  N_9 
REMARK    5  A    between atoms: N_9  and  N_5 
REMARK    6  A    between atoms: C_6  and  C_10 
REMARK    7  A    between atoms: C_7  and  C_11 
ROOT
ATOM      1  S   UNL d   1       1.268  -0.044   0.068  0.00  0.00     0.276 S 
ATOM      2  O   UNL d   1       0.517   0.490   1.185  0.00  0.00    -0.199 OA
ATOM      3  O   UNL d   1       2.711  -0.119   0.119  0.00  0.00    -0.199 OA
ENDROOT
BRANCH   1   4
ATOM      4  N   UNL d   1       0.850   0.868  -1.293  0.00  0.00    -0.220 N 
ATOM      5  H   UNL d   1      -0.074   0.737  -1.719  0.00  0.00     0.200 HD
BRANCH   4   6
ATOM      6  N   UNL d   1       1.386   2.231  -1.327  0.00  0.00    -0.256 N 
ATOM      7  C   UNL d   1       0.700   3.244  -1.988  0.00  0.00     0.279 C 
ATOM      8  O   UNL d   1      -0.333   2.981  -2.609  0.00  0.00    -0.265 OA
ATOM      9  H   UNL d   1       2.176   2.446  -0.722  0.00  0.00     0.191 HD
BRANCH   7  10
ATOM     10  C   UNL d   1       1.282   4.574  -1.830  0.00  0.00     0.100 A 
ATOM     11  C   UNL d   1       0.701   5.838  -1.883  0.00  0.00     0.052 A 
ATOM     12  C   UNL d   1       1.684   6.874  -1.743  0.00  0.00     0.038 A 
ATOM     13  C   UNL d   1       2.960   6.394  -1.582  0.00  0.00     0.053 A 
ATOM     14  S   UNL d   1       2.995   4.695  -1.595  0.00  0.00    -0.094 SA
BRANCH  11  15
ATOM     15  N   UNL d   1      -0.624   6.152  -2.001  0.00  0.00    -0.388 N 
ATOM     16  C   UNL d   1      -1.692   5.337  -1.433  0.00  0.00     0.149 C 
ATOM     17  C   UNL d   1      -1.069   7.177  -2.942  0.00  0.00     0.149 C 
ENDBRANCH  11  15
ENDBRANCH   7  10
ENDBRANCH   4   6
ENDBRANCH   1   4
BRANCH   1  18
ATOM     18  C   UNL d   1       0.640  -1.671  -0.280  0.00  0.00     0.082 A 
ATOM     19  C   UNL d   1       1.468  -2.601  -0.920  0.00  0.00     0.041 A 
ATOM     20  C   UNL d   1       1.070  -3.943  -1.027  0.00  0.00     0.050 A 
ATOM     21  C   UNL d   1      -0.171  -4.330  -0.489  0.00  0.00     0.032 A 
ATOM     22  C   UNL d   1      -1.005  -3.406   0.166  0.00  0.00     0.050 A 
ATOM     23  C   UNL d   1      -0.590  -2.067   0.263  0.00  0.00     0.041 A 
BRANCH  20  24
ATOM     24  C   UNL d   1       1.975  -4.982  -1.653  0.00  0.00     0.417 C 
ATOM     25  F   UNL d   1       3.166  -4.481  -2.080  0.00  0.00    -0.166 F 
ATOM     26  F   UNL d   1       2.279  -5.987  -0.787  0.00  0.00    -0.166 F 
ATOM     27  F   UNL d   1       1.406  -5.578  -2.736  0.00  0.00    -0.166 F 
ENDBRANCH  20  24
BRANCH  22  28
ATOM     28  C   UNL d   1      -2.298  -3.875   0.799  0.00  0.00     0.417 C 
ATOM     29  F   UNL d   1      -2.969  -2.891   1.456  0.00  0.00    -0.166 F 
ATOM     30  F   UNL d   1      -3.168  -4.378  -0.118  0.00  0.00    -0.166 F 
ATOM     31  F   UNL d   1      -2.095  -4.865   1.710  0.00  0.00    -0.166 F 
ENDBRANCH  22  28
ENDBRANCH   1  18
TORSDOF 7
