REMARK  9 active torsions:
REMARK  status: ('A' for Active; 'I' for Inactive)
REMARK    1  A    between atoms: C_5  and  C_1 
REMARK    2  A    between atoms: C_6  and  C_2 
REMARK    3  A    between atoms: C_7  and  C_2 
REMARK    4  A    between atoms: C_3  and  N_9 
REMARK    5  A    between atoms: N_9  and  C_4 
REMARK       I    between atoms: N_15  and  C_5 
REMARK    6  A    between atoms: O_17  and  C_6 
REMARK    7  A    between atoms: O_16  and  C_7 
REMARK    8  A    between atoms: C_19  and  O_16 
REMARK    9  A    between atoms: C_18  and  O_17 
ROOT
ATOM      1  C   UNL d   1       3.913   3.546   0.222  0.00  0.00     0.129 C 
ATOM      2  C   UNL d   1       2.794   2.828   0.436  0.00  0.00     0.112 C 
ENDROOT
BRANCH   2   3
ATOM      3  N   UNL d   1       2.530   1.478   0.280  0.00  0.00    -0.363 N 
ATOM      4  H   UNL d   1       3.216   0.998  -0.320  0.00  0.00     0.165 HD
BRANCH   3   5
ATOM      5  C   UNL d   1       1.363   0.839   0.578  0.00  0.00     0.055 A 
ATOM      6  C   UNL d   1       0.908  -0.300  -0.068  0.00  0.00     0.099 A 
ATOM      7  S   UNL d   1      -0.600  -0.816   0.585  0.00  0.00    -0.094 SA
ATOM      8  C   UNL d   1      -0.631   0.452   1.722  0.00  0.00     0.053 A 
ATOM      9  C   UNL d   1       0.474   1.262   1.614  0.00  0.00     0.038 A 
BRANCH   6  10
ATOM     10  C   UNL d   1       1.528  -1.013  -1.172  0.00  0.00     0.258 C 
ATOM     11  O   UNL d   1       2.615  -0.717  -1.666  0.00  0.00    -0.267 OA
ATOM     12  N   UNL d   1       0.836  -2.078  -1.691  0.00  0.00    -0.365 N 
ATOM     13  H   UNL d   1      -0.070  -2.346  -1.334  0.00  0.00     0.159 HD
ATOM     14  H   UNL d   1       1.234  -2.574  -2.477  0.00  0.00     0.159 HD
ENDBRANCH   6  10
ENDBRANCH   3   5
ENDBRANCH   2   3
BRANCH   1  15
ATOM     15  C   UNL d   1       5.218   2.980  -0.184  0.00  0.00     0.300 C 
ATOM     16  O   UNL d   1       6.279   3.576  -0.097  0.00  0.00    -0.259 OA
BRANCH  15  17
ATOM     17  O   UNL d   1       5.054   1.748  -0.734  0.00  0.00    -0.318 OA
BRANCH  17  18
ATOM     18  C   UNL d   1       6.163   1.254  -1.498  0.00  0.00     0.174 C 
ATOM     19  C   UNL d   1       5.973   1.704  -2.934  0.00  0.00     0.034 C 
ENDBRANCH  17  18
ENDBRANCH  15  17
ENDBRANCH   1  15
BRANCH   1  20
ATOM     20  C   UNL d   1       3.722   5.015   0.307  0.00  0.00     0.300 C 
ATOM     21  O   UNL d   1       2.850   5.567   0.962  0.00  0.00    -0.259 OA
BRANCH  20  22
ATOM     22  O   UNL d   1       4.515   5.614  -0.619  0.00  0.00    -0.318 OA
BRANCH  22  23
ATOM     23  C   UNL d   1       4.102   6.904  -1.082  0.00  0.00     0.174 C 
ATOM     24  C   UNL d   1       3.378   6.692  -2.399  0.00  0.00     0.034 C 
ENDBRANCH  22  23
ENDBRANCH  20  22
ENDBRANCH   1  20
TORSDOF 9
