REMARK  1 active torsions:
REMARK  status: ('A' for Active; 'I' for Inactive)
REMARK    1  A    between atoms: C_9  and  C_4 
ROOT
ATOM      1  C   UNL d   1      -2.072   0.346   0.034  0.00  0.00    -0.006 C 
ATOM      2  C   UNL d   1      -1.091  -0.785  -0.008  0.00  0.00     0.189 C 
ATOM      3  C   UNL d   1       0.351  -0.408   0.004  0.00  0.00     0.021 A 
ATOM      4  C   UNL d   1      -3.283   0.134  -0.510  0.00  0.00     0.022 C 
ATOM      5  C   UNL d   1       0.745   0.943  -0.026  0.00  0.00    -0.044 A 
ATOM      6  C   UNL d   1      -1.563   1.614   0.653  0.00  0.00     0.047 C 
ATOM      7  O   UNL d   1      -1.445  -1.958  -0.068  0.00  0.00    -0.287 OA
ATOM      8  C   UNL d   1      -0.280   2.048  -0.046  0.00  0.00     0.044 C 
ATOM      9  C   UNL d   1       1.320  -1.421   0.009  0.00  0.00     0.016 A 
ATOM     10  C   UNL d   1       2.109   1.258  -0.088  0.00  0.00     0.008 A 
ATOM     11  C   UNL d   1       2.675  -1.092  -0.031  0.00  0.00     0.001 A 
ATOM     12  C   UNL d   1       3.068   0.244  -0.086  0.00  0.00     0.001 A 
ENDROOT
BRANCH   4  13
ATOM     13  C   UNL d   1      -4.319   1.158  -0.635  0.00  0.00    -0.035 A 
ATOM     14  C   UNL d   1      -4.340   1.994  -1.760  0.00  0.00     0.014 A 
ATOM     15  C   UNL d   1      -5.335   2.963  -1.893  0.00  0.00     0.043 A 
ATOM     16  C   UNL d   1      -6.300   3.094  -0.902  0.00  0.00     0.116 A 
ATOM     17  C   UNL d   1      -6.286   2.279   0.224  0.00  0.00     0.043 A 
ATOM     18  F   UNL d   1      -7.260   4.018  -1.036  0.00  0.00    -0.206 F 
ATOM     19  C   UNL d   1      -5.292   1.308   0.361  0.00  0.00     0.014 A 
ENDBRANCH   4  13
TORSDOF 1
