REMARK  6 active torsions:
REMARK  status: ('A' for Active; 'I' for Inactive)
REMARK    1  A    between atoms: N_2  and  S_1 
REMARK    2  A    between atoms: C_11  and  S_1 
REMARK    3  A    between atoms: C_3  and  N_2 
REMARK       I    between atoms: C_7  and  N_15 
REMARK       I    between atoms: N_9  and  C_7 
REMARK    4  A    between atoms: C_8  and  N_9 
REMARK    5  A    between atoms: N_15  and  C_21 
REMARK    6  A    between atoms: C_28  and  C_18 
ROOT
ATOM      1  C   UNL d   1      -1.215  -1.310  -0.465  0.00  0.00     0.075 A 
ATOM      2  C   UNL d   1      -2.048  -1.833   0.529  0.00  0.00     0.027 A 
ATOM      3  C   UNL d   1      -0.241  -2.110  -1.055  0.00  0.00     0.027 A 
ATOM      4  C   UNL d   1      -1.006  -4.015   0.257  0.00  0.00     0.036 A 
ATOM      5  C   UNL d   1      -1.931  -3.179   0.897  0.00  0.00     0.031 A 
ATOM      6  C   UNL d   1      -0.135  -3.454  -0.686  0.00  0.00     0.031 A 
ENDROOT
BRANCH   4   7
ATOM      7  N   UNL d   1      -1.052  -5.399   0.552  0.00  0.00    -0.309 N 
ATOM      8  C   UNL d   1      -0.358  -6.402  -0.112  0.00  0.00     0.325 C 
ATOM      9  N   UNL d   1      -0.789  -7.663   0.301  0.00  0.00    -0.308 N 
ATOM     10  O   UNL d   1       0.492  -6.226  -0.967  0.00  0.00    -0.247 OA
ATOM     11  H   UNL d   1      -1.760  -7.665   0.550  0.00  0.00     0.170 HD
ATOM     12  H   UNL d   1      -1.692  -5.686   1.273  0.00  0.00     0.170 HD
BRANCH   9  13
ATOM     13  C   UNL d   1      -0.323  -8.825  -0.377  0.00  0.00     0.048 A 
ATOM     14  C   UNL d   1      -1.272  -9.648  -1.036  0.00  0.00    -0.035 A 
ATOM     15  C   UNL d   1      -0.821 -10.701  -1.853  0.00  0.00     0.009 A 
ATOM     16  C   UNL d   1      -2.759  -9.400  -1.049  0.00  0.00     0.050 C 
ATOM     17  C   UNL d   1       0.532 -10.971  -1.989  0.00  0.00     0.001 A 
ATOM     18  C   UNL d   1       1.454 -10.213  -1.278  0.00  0.00     0.009 A 
ATOM     19  C   UNL d   1       1.053  -9.152  -0.436  0.00  0.00    -0.031 A 
BRANCH  19  20
ATOM     20  C   UNL d   1       2.184  -8.461   0.309  0.00  0.00     0.036 C 
ATOM     21  C   UNL d   1       1.905  -7.883   1.691  0.00  0.00     0.010 C 
ENDBRANCH  19  20
ENDBRANCH   9  13
ENDBRANCH   4   7
BRANCH   1  22
ATOM     22  S   UNL d   1      -1.532   0.307  -1.116  0.00  0.00     0.247 S 
ATOM     23  O   UNL d   1      -1.001   0.360  -2.465  0.00  0.00    -0.205 OA
ATOM     24  O   UNL d   1      -2.919   0.647  -0.871  0.00  0.00    -0.205 OA
BRANCH  22  25
ATOM     25  N   UNL d   1      -0.539   1.321  -0.209  0.00  0.00    -0.165 NA
ATOM     26  H   UNL d   1      -0.141   2.009  -0.843  0.00  0.00     0.147 HD
BRANCH  25  27
ATOM     27  C   UNL d   1      -1.050   1.789   0.993  0.00  0.00     0.117 A 
ATOM     28  N   UNL d   1      -0.945   1.088   2.124  0.00  0.00    -0.249 N 
ATOM     29  O   UNL d   1      -1.539   1.868   3.100  0.00  0.00    -0.241 OA
ATOM     30  HN  UNL d   1      -0.516   0.170   2.243  1.00  0.00     0.196 HD
ATOM     31  C   UNL d   1      -2.001   3.017   2.538  0.00  0.00     0.075 A 
ATOM     32  C   UNL d   1      -1.700   3.020   1.199  0.00  0.00     0.079 A 
ATOM     33  C   UNL d   1      -2.692   3.950   3.446  0.00  0.00     0.079 C 
ENDBRANCH  25  27
ENDBRANCH  22  25
ENDBRANCH   1  22
TORSDOF 6
