REMARK  6 active torsions:
REMARK  status: ('A' for Active; 'I' for Inactive)
REMARK    1  A    between atoms: N_4  and  C_1 
REMARK    2  A    between atoms: N_5  and  C_1 
REMARK    3  A    between atoms: C_3  and  C_9 
REMARK    4  A    between atoms: N_7  and  N_4 
REMARK    5  A    between atoms: C_8  and  N_5 
REMARK    6  A    between atoms: C_9  and  C_8 
ROOT
ATOM      1  N   UNL d   1       4.494  -0.882  -1.392  0.00  0.00    -0.366 N 
ATOM      2  H   UNL d   1       4.051  -1.329  -0.600  0.00  0.00     0.161 HD
ENDROOT
BRANCH   1   3
ATOM      3  C   UNL d   1       4.817  -1.757  -2.408  0.00  0.00     0.181 C 
ATOM      4  S   UNL d   1       6.000  -1.549  -3.565  0.00  0.00    -0.040 SA
BRANCH   3   5
ATOM      5  N   UNL d   1       4.043  -2.899  -2.447  0.00  0.00    -0.300 N 
ATOM      6  H   UNL d   1       4.221  -3.515  -3.242  0.00  0.00     0.183 HD
BRANCH   5   7
ATOM      7  N   UNL d   1       2.792  -2.986  -1.809  0.00  0.00    -0.248 NA
ATOM      8  H   UNL d   1       2.399  -2.044  -1.735  0.00  0.00     0.143 HD
ATOM      9  H   UNL d   1       2.921  -3.351  -0.866  0.00  0.00     0.143 HD
ENDBRANCH   5   7
ENDBRANCH   3   5
ENDBRANCH   1   3
BRANCH   1  10
ATOM     10  C   UNL d   1       5.211   0.365  -1.141  0.00  0.00     0.126 C 
BRANCH  10  11
ATOM     11  C   UNL d   1       4.694   1.126   0.084  0.00  0.00     0.053 C 
BRANCH  11  12
ATOM     12  C   UNL d   1       5.418   2.445   0.286  0.00  0.00    -0.082 C 
ATOM     13  C   UNL d   1       4.768   3.621   0.277  0.00  0.00    -0.024 C 
ATOM     14  C   UNL d   1       5.447   4.954   0.428  0.00  0.00     0.027 C 
ATOM     15  C   UNL d   1       6.968   4.879   0.290  0.00  0.00     0.004 C 
ATOM     16  C   UNL d   1       7.524   3.671   1.032  0.00  0.00     0.005 C 
ATOM     17  C   UNL d   1       6.914   2.371   0.501  0.00  0.00     0.034 C 
ENDBRANCH  11  12
ENDBRANCH  10  11
ENDBRANCH   1  10
TORSDOF 6
