REMARK  3 active torsions:
REMARK  status: ('A' for Active; 'I' for Inactive)
REMARK    1  A    between atoms: N_3  and  C_1 
REMARK    2  A    between atoms: N_2  and  C_5 
REMARK    3  A    between atoms: N_12  and  C_4 
ROOT
ATOM      1  C   UNL d   1      -1.054   1.278  -0.202  0.00  0.00     0.132 A 
ATOM      2  C   UNL d   1      -0.794   0.820   1.103  0.00  0.00     0.065 A 
ATOM      3  C   UNL d   1       0.212  -1.227   0.051  0.00  0.00     0.071 A 
ATOM      4  C   UNL d   1      -0.754   0.528  -1.346  0.00  0.00     0.083 A 
ATOM      5  C   UNL d   1      -0.164  -0.447   1.175  0.00  0.00     0.064 A 
ATOM      6  C   UNL d   1      -0.124  -0.700  -1.204  0.00  0.00     0.145 A 
ATOM      7  F   UNL d   1       0.227  -1.338  -2.334  0.00  0.00    -0.204 F 
ENDROOT
BRANCH   3   8
ATOM      8  N   UNL d   1       0.917  -2.416   0.202  0.00  0.00    -0.378 N 
ATOM      9  C   UNL d   1       1.802  -2.644   1.346  0.00  0.00     0.127 C 
ATOM     10  C   UNL d   1       3.161  -3.154   0.843  0.00  0.00    -0.000 C 
ATOM     11  C   UNL d   1       4.101  -3.430   2.013  0.00  0.00     0.011 C 
ATOM     12  C   UNL d   1       2.979  -4.405  -0.026  0.00  0.00     0.011 C 
ATOM     13  C   UNL d   1       2.010  -4.128  -1.187  0.00  0.00    -0.000 C 
ATOM     14  C   UNL d   1       0.674  -3.580  -0.660  0.00  0.00     0.127 C 
ATOM     15  C   UNL d   1       1.798  -5.398  -2.010  0.00  0.00     0.011 C 
ENDBRANCH   3   8
BRANCH   2  16
ATOM     16  N   UNL d   1      -1.072   1.548   2.263  0.00  0.00    -0.388 N 
ATOM     17  C   UNL d   1      -0.328   1.274   3.493  0.00  0.00     0.149 C 
ATOM     18  C   UNL d   1      -2.419   2.082   2.483  0.00  0.00     0.149 C 
ENDBRANCH   2  16
BRANCH   1  19
ATOM     19  N   UNL d   1      -1.560   2.615  -0.452  0.00  0.00    -0.113 N 
ATOM     20  O   UNL d   1      -0.842   3.572  -0.139  0.00  0.00    -0.532 OA
ATOM     21  O   UNL d   1      -2.663   2.695  -1.014  0.00  0.00    -0.532 OA
ENDBRANCH   1  19
TORSDOF 3
