REMARK  4 active torsions:
REMARK  status: ('A' for Active; 'I' for Inactive)
REMARK    1  A    between atoms: N_7  and  S_1 
REMARK    2  A    between atoms: C_18  and  S_1 
REMARK    3  A    between atoms: N_10  and  N_7 
REMARK    4  A    between atoms: C_9  and  N_10 
ROOT
ATOM      1  C   UNL d   1       1.394  -0.463  -5.046  0.00  0.00     0.072 A 
ATOM      2  C   UNL d   1       0.818  -0.986  -6.189  0.00  0.00     0.138 A 
ATOM      3  N   UNL d   1       2.902  -0.260  -6.755  0.00  0.00    -0.307 N 
ATOM      4  HN  UNL d   1       3.738  -0.041  -7.297  1.00  0.00     0.186 HD
ATOM      5  N   UNL d   1       1.761  -0.857  -7.173  0.00  0.00    -0.281 N 
ATOM      6  C   UNL d   1       2.669  -0.027  -5.460  0.00  0.00     0.126 A 
ATOM      7  C   UNL d   1       0.641  -0.497  -3.869  0.00  0.00     0.137 A 
ATOM      8  N   UNL d   1      -0.411  -1.521  -6.291  0.00  0.00    -0.337 N 
ATOM      9  HN  UNL d   1      -0.802  -1.903  -7.152  1.00  0.00     0.168 HD
ATOM     10  N   UNL d   1      -0.615  -1.014  -3.930  0.00  0.00    -0.337 N 
ATOM     11  HN  UNL d   1      -1.209  -1.042  -3.101  1.00  0.00     0.168 HD
ATOM     12  C   UNL d   1      -1.058  -1.489  -5.113  0.00  0.00     0.183 A 
ATOM     13  C   UNL d   1       1.657  -1.296  -8.541  0.00  0.00     0.179 C 
ENDROOT
BRANCH   7  14
ATOM     14  N   UNL d   1       1.158  -0.057  -2.650  0.00  0.00    -0.275 N 
ATOM     15  H   UNL d   1       2.168   0.065  -2.594  0.00  0.00     0.189 HD
BRANCH  14  16
ATOM     16  N   UNL d   1       0.462  -0.235  -1.383  0.00  0.00    -0.221 N 
ATOM     17  H   UNL d   1      -0.492  -0.608  -1.373  0.00  0.00     0.200 HD
BRANCH  16  18
ATOM     18  S   UNL d   1       1.329  -0.292   0.063  0.00  0.00     0.276 S 
ATOM     19  O   UNL d   1       2.572  -0.986  -0.216  0.00  0.00    -0.199 OA
ATOM     20  O   UNL d   1       0.426  -0.717   1.108  0.00  0.00    -0.199 OA
BRANCH  18  21
ATOM     21  C   UNL d   1       1.714   1.418   0.336  0.00  0.00     0.081 A 
ATOM     22  C   UNL d   1       0.679   2.353   0.414  0.00  0.00     0.025 A 
ATOM     23  C   UNL d   1       0.989   3.700   0.606  0.00  0.00     0.002 A 
ATOM     24  C   UNL d   1       2.321   4.103   0.723  0.00  0.00     0.000 A 
ATOM     25  C   UNL d   1       3.351   3.163   0.649  0.00  0.00     0.002 A 
ATOM     26  C   UNL d   1       3.050   1.815   0.455  0.00  0.00     0.025 A 
ENDBRANCH  18  21
ENDBRANCH  16  18
ENDBRANCH  14  16
ENDBRANCH   7  14
TORSDOF 4
