REMARK  4 active torsions:
REMARK  status: ('A' for Active; 'I' for Inactive)
REMARK    1  A    between atoms: N_2  and  C_1 
REMARK    2  A    between atoms: C_3  and  C_6 
REMARK    3  A    between atoms: O_11  and  C_5 
REMARK    4  A    between atoms: C_10  and  O_11 
ROOT
ATOM      1  C   UNL d   1      -0.376   1.568  -0.940  0.00  0.00     0.137 A 
ATOM      2  C   UNL d   1      -1.319   1.432  -1.972  0.00  0.00     0.055 A 
ATOM      3  C   UNL d   1       0.880   2.139  -1.161  0.00  0.00     0.109 A 
ATOM      4  C   UNL d   1      -1.011   1.906  -3.256  0.00  0.00     0.050 A 
ATOM      5  C   UNL d   1       1.144   2.688  -2.421  0.00  0.00     0.040 A 
ATOM      6  C   UNL d   1       0.215   2.559  -3.460  0.00  0.00     0.019 A 
ENDROOT
BRANCH   3   7
ATOM      7  O   UNL d   1       1.802   2.161  -0.138  0.00  0.00    -0.308 OA
BRANCH   7   8
ATOM      8  C   UNL d   1       3.143   2.036  -0.433  0.00  0.00     0.077 A 
ATOM      9  C   UNL d   1       4.018   2.791   0.345  0.00  0.00     0.045 A 
ATOM     10  C   UNL d   1       5.403   2.748   0.114  0.00  0.00    -0.037 A 
ATOM     11  C   UNL d   1       6.309   3.590   0.972  0.00  0.00     0.050 C 
ATOM     12  C   UNL d   1       5.903   1.926  -0.918  0.00  0.00     0.046 A 
ATOM     13  C   UNL d   1       5.030   1.140  -1.693  0.00  0.00    -0.037 A 
ATOM     14 CL   UNL d   1       7.612   1.893  -1.216  0.00  0.00    -0.083 Cl
ATOM     15  C   UNL d   1       3.651   1.183  -1.415  0.00  0.00     0.045 A 
ATOM     16  C   UNL d   1       5.472   0.268  -2.838  0.00  0.00     0.050 C 
ENDBRANCH   7   8
ENDBRANCH   3   7
BRANCH   1  17
ATOM     17  N   UNL d   1      -0.755   1.123   0.391  0.00  0.00    -0.113 N 
ATOM     18  O   UNL d   1      -1.202  -0.029   0.486  0.00  0.00    -0.532 OA
ATOM     19  O   UNL d   1      -0.662   1.938   1.317  0.00  0.00    -0.532 OA
ENDBRANCH   1  17
BRANCH   4  20
ATOM     20  C   UNL d   1      -1.968   1.739  -4.415  0.00  0.00     0.417 C 
ATOM     21  F   UNL d   1      -3.136   1.134  -4.069  0.00  0.00    -0.166 F 
ATOM     22  F   UNL d   1      -2.311   2.927  -4.982  0.00  0.00    -0.166 F 
ATOM     23  F   UNL d   1      -1.433   0.985  -5.413  0.00  0.00    -0.166 F 
ENDBRANCH   4  20
TORSDOF 4
