REMARK  4 active torsions:
REMARK  status: ('A' for Active; 'I' for Inactive)
REMARK    1  A    between atoms: O_8  and  C_1 
REMARK       I    between atoms: C_7  and  N_9 
REMARK    2  A    between atoms: C_10  and  C_7 
REMARK    3  A    between atoms: C_13  and  O_8 
REMARK    4  A    between atoms: N_9  and  C_11 
ROOT
ATOM      1  C   UNL d   1       3.285  -4.258   1.045  0.00  0.00     0.037 C 
ATOM      2  C   UNL d   1       1.201  -3.779  -0.095  0.00  0.00     0.078 C 
ATOM      3  C   UNL d   1       2.027  -3.660   1.028  0.00  0.00     0.066 C 
ATOM      4  C   UNL d   1       2.745  -5.357  -1.053  0.00  0.00     0.005 C 
ATOM      5  C   UNL d   1       3.625  -5.139   0.013  0.00  0.00     0.029 C 
ATOM      6  C   UNL d   1       1.537  -4.661  -1.117  0.00  0.00     0.037 C 
ENDROOT
BRANCH   2   7
ATOM      7  O   UNL d   1       0.062  -3.015  -0.264  0.00  0.00    -0.304 OA
BRANCH   7   8
ATOM      8  C   UNL d   1       0.104  -1.706   0.171  0.00  0.00     0.159 A 
ATOM      9  C   UNL d   1       1.238  -0.884   0.109  0.00  0.00     0.195 A 
ATOM     10  C   UNL d   1       1.234   0.379   0.689  0.00  0.00     0.199 A 
ATOM     11  F   UNL d   1       2.355  -1.298  -0.508  0.00  0.00    -0.200 F 
ATOM     12  F   UNL d   1       2.353   1.116   0.693  0.00  0.00    -0.199 F 
ATOM     13  C   UNL d   1       0.072   0.875   1.258  0.00  0.00     0.199 A 
ATOM     14  C   UNL d   1      -1.089   0.114   1.236  0.00  0.00     0.199 A 
ATOM     15  F   UNL d   1       0.064   2.098   1.806  0.00  0.00    -0.199 F 
ATOM     16  C   UNL d   1      -1.075  -1.172   0.701  0.00  0.00     0.195 A 
ATOM     17  F   UNL d   1      -2.227   0.619   1.733  0.00  0.00    -0.199 F 
ATOM     18  F   UNL d   1      -2.202  -1.899   0.703  0.00  0.00    -0.200 F 
ENDBRANCH   7   8
ENDBRANCH   2   7
BRANCH   1  19
ATOM     19  N   UNL d   1       4.253  -3.965   2.032  0.00  0.00    -0.323 N 
ATOM     20  C   UNL d   1       4.236  -2.866   2.883  0.00  0.00     0.256 C 
ATOM     21  O   UNL d   1       3.396  -1.972   2.903  0.00  0.00    -0.267 OA
ATOM     22  H   UNL d   1       5.121  -4.480   1.968  0.00  0.00     0.169 HD
BRANCH  20  23
ATOM     23  C   UNL d   1       5.399  -2.758   3.806  0.00  0.00     0.032 A 
ATOM     24  C   UNL d   1       5.871  -1.485   4.152  0.00  0.00     0.017 A 
ATOM     25  C   UNL d   1       6.954  -1.352   5.024  0.00  0.00     0.007 A 
ATOM     26  C   UNL d   1       7.569  -2.483   5.571  0.00  0.00    -0.062 A 
ATOM     27  C   UNL d   1       7.084  -3.754   5.233  0.00  0.00     0.007 A 
ATOM     28  C   UNL d   1       8.736  -2.326   6.501  0.00  0.00     0.048 C 
ATOM     29  C   UNL d   1       6.002  -3.892   4.360  0.00  0.00     0.017 A 
ENDBRANCH  20  23
ENDBRANCH   1  19
TORSDOF 4
