REMARK  6 active torsions:
REMARK  status: ('A' for Active; 'I' for Inactive)
REMARK    1  A    between atoms: C_7  and  C_1 
REMARK    2  A    between atoms: N_15  and  C_3 
REMARK    3  A    between atoms: C_9  and  C_7 
REMARK    4  A    between atoms: C_10  and  C_7 
REMARK    5  A    between atoms: N_8  and  C_9 
REMARK    6  A    between atoms: O_19  and  C_16 
ROOT
ATOM      1  C   UNL d   1       0.137   3.084  -0.424  0.00  0.00     0.092 C 
ENDROOT
BRANCH   1   2
ATOM      2  C   UNL d   1       0.011   1.553  -0.581  0.00  0.00     0.059 C 
ATOM      3  C   UNL d   1       0.364   0.638   0.351  0.00  0.00     0.096 C 
ATOM      4  N   UNL d   1       0.317  -0.714   0.028  0.00  0.00    -0.294 N 
ATOM      5  C   UNL d   1       0.804  -1.742   0.939  0.00  0.00     0.162 C 
ATOM      6  C   UNL d   1      -0.304  -1.208  -1.119  0.00  0.00     0.332 C 
ATOM      7  N   UNL d   1      -0.831  -0.266  -1.974  0.00  0.00    -0.270 N 
ATOM      8  O   UNL d   1      -0.364  -2.413  -1.368  0.00  0.00    -0.246 OA
ATOM      9  C   UNL d   1      -0.463   1.050  -1.899  0.00  0.00     0.261 C 
ATOM     10  C   UNL d   1      -1.465  -0.742  -3.187  0.00  0.00     0.164 C 
ATOM     11  O   UNL d   1      -0.513   1.799  -2.878  0.00  0.00    -0.267 OA
BRANCH   3  12
ATOM     12  N   UNL d   1       0.756   1.006   1.626  0.00  0.00    -0.288 NA
ATOM     13  H   UNL d   1       1.667   0.645   1.890  0.00  0.00     0.125 HD
ATOM     14  H   UNL d   1       0.659   1.986   1.876  0.00  0.00     0.125 HD
ENDBRANCH   3  12
ENDBRANCH   1   2
BRANCH   1  15
ATOM     15  C   UNL d   1       0.886   3.812  -1.581  0.00  0.00     0.165 C 
ATOM     16  C   UNL d   1       2.278   3.225  -1.845  0.00  0.00     0.040 C 
BRANCH  15  17
ATOM     17  N   UNL d   1       1.075   5.272  -1.204  0.00  0.00    -0.150 N 
ATOM     18  O   UNL d   1       1.960   5.547  -0.384  0.00  0.00    -0.536 OA
ATOM     19  O   UNL d   1       0.334   6.095  -1.754  0.00  0.00    -0.536 OA
ENDBRANCH  15  17
ENDBRANCH   1  15
BRANCH   1  20
ATOM     20  C   UNL d   1      -1.207   3.711  -0.049  0.00  0.00    -0.014 A 
ATOM     21  C   UNL d   1      -1.413   4.273   1.226  0.00  0.00     0.075 A 
ATOM     22  C   UNL d   1      -2.638   4.846   1.579  0.00  0.00     0.037 A 
ATOM     23  C   UNL d   1      -3.684   4.870   0.658  0.00  0.00     0.003 A 
ATOM     24  C   UNL d   1      -3.505   4.317  -0.606  0.00  0.00     0.001 A 
ATOM     25  C   UNL d   1      -2.276   3.753  -0.960  0.00  0.00     0.011 A 
BRANCH  21  26
ATOM     26  O   UNL d   1      -0.438   4.178   2.186  0.00  0.00    -0.355 OA
ATOM     27  C   UNL d   1       0.335   5.377   2.275  0.00  0.00     0.210 C 
ENDBRANCH  21  26
ENDBRANCH   1  20
TORSDOF 6
