REMARK  5 active torsions:
REMARK  status: ('A' for Active; 'I' for Inactive)
REMARK    1  A    between atoms: C_3  and  C_1 
REMARK    2  A    between atoms: C_6  and  C_1 
REMARK    3  A    between atoms: C_4  and  C_2 
REMARK    4  A    between atoms: C_8  and  C_3 
REMARK    5  A    between atoms: C_5  and  C_4 
ROOT
ATOM      1  C   UNL d   1       0.845  -0.257   0.147  0.00  0.00     0.029 C 
ATOM      2  C   UNL d   1       0.137  -1.409   0.174  0.00  0.00     0.072 C 
ENDROOT
BRANCH   1   3
ATOM      3  C   UNL d   1       2.334  -0.150  -0.114  0.00  0.00     0.193 C 
ATOM      4  O   UNL d   1       2.796   0.798  -0.748  0.00  0.00    -0.287 OA
BRANCH   3   5
ATOM      5  C   UNL d   1       3.271  -1.160   0.453  0.00  0.00     0.015 A 
ATOM      6  C   UNL d   1       4.466  -1.409  -0.232  0.00  0.00     0.015 A 
ATOM      7  C   UNL d   1       5.308  -2.443   0.180  0.00  0.00     0.001 A 
ATOM      8  C   UNL d   1       4.962  -3.228   1.279  0.00  0.00     0.000 A 
ATOM      9  C   UNL d   1       3.808  -2.941   2.006  0.00  0.00     0.001 A 
ATOM     10  C   UNL d   1       2.979  -1.887   1.616  0.00  0.00     0.015 A 
ENDBRANCH   3   5
ENDBRANCH   1   3
BRANCH   1  11
ATOM     11  C   UNL d   1       0.087   1.014   0.189  0.00  0.00    -0.022 A 
ATOM     12  C   UNL d   1      -0.154   1.691   1.387  0.00  0.00     0.012 A 
ATOM     13  C   UNL d   1      -0.806   2.930   1.371  0.00  0.00     0.001 A 
ATOM     14  C   UNL d   1      -1.220   3.496   0.165  0.00  0.00     0.000 A 
ATOM     15  C   UNL d   1      -0.984   2.828  -1.034  0.00  0.00     0.001 A 
ATOM     16  C   UNL d   1      -0.336   1.592  -1.022  0.00  0.00     0.012 A 
ENDBRANCH   1  11
BRANCH   2  17
ATOM     17  C   UNL d   1       0.681  -2.667  -0.404  0.00  0.00     0.183 C 
ATOM     18  O   UNL d   1       1.387  -2.620  -1.404  0.00  0.00    -0.288 OA
BRANCH  17  19
ATOM     19  C   UNL d   1       0.304  -3.998   0.137  0.00  0.00     0.014 A 
ATOM     20  C   UNL d   1       0.183  -5.037  -0.803  0.00  0.00     0.018 A 
ATOM     21  C   UNL d   1       0.036  -6.360  -0.390  0.00  0.00     0.043 A 
ATOM     22  C   UNL d   1       0.021  -6.649   0.966  0.00  0.00     0.116 A 
ATOM     23  C   UNL d   1       0.111  -5.629   1.914  0.00  0.00     0.043 A 
ATOM     24  F   UNL d   1      -0.056  -7.924   1.367  0.00  0.00    -0.206 F 
ATOM     25  C   UNL d   1       0.243  -4.294   1.502  0.00  0.00     0.018 A 
ENDBRANCH  17  19
ENDBRANCH   2  17
TORSDOF 5
