REMARK  2 active torsions:
REMARK  status: ('A' for Active; 'I' for Inactive)
REMARK    1  A    between atoms: N_3  and  C_1 
REMARK       I    between atoms: C_7  and  N_3 
REMARK       I    between atoms: N_9  and  C_7 
REMARK    2  A    between atoms: C_12  and  N_9 
ROOT
ATOM      1  N   UNL d   1       1.889  -1.659  -0.021  0.00  0.00    -0.292 N 
ATOM      2  C   UNL d   1       2.103  -3.041   0.185  0.00  0.00     0.326 C 
ATOM      3  N   UNL d   1       1.185  -3.925  -0.281  0.00  0.00    -0.309 N 
ATOM      4  O   UNL d   1       3.191  -3.275   0.685  0.00  0.00    -0.247 OA
ATOM      5  H   UNL d   1       2.771  -1.191   0.155  0.00  0.00     0.172 HD
ATOM      6  H   UNL d   1       0.481  -3.577  -0.918  0.00  0.00     0.170 HD
ENDROOT
BRANCH   1   7
ATOM      7  C   UNL d   1       0.769  -0.849  -0.142  0.00  0.00     0.144 A 
ATOM      8  C   UNL d   1      -0.587  -1.093  -0.230  0.00  0.00     0.073 A 
ATOM      9  C   UNL d   1      -1.214   0.166  -0.166  0.00  0.00     0.130 A 
ATOM     10 BR   UNL d   1      -1.619  -2.644  -0.386  0.00  0.00    -0.045 Br
ATOM     11  N   UNL d   1      -0.335   1.162  -0.101  0.00  0.00    -0.307 N 
ATOM     12  N   UNL d   1       0.855   0.538  -0.144  0.00  0.00    -0.280 N 
ATOM     13  HN  UNL d   1      -0.519   2.163  -0.035  1.00  0.00     0.186 HD
ATOM     14  C   UNL d   1       2.038   1.367  -0.211  0.00  0.00     0.179 C 
ENDBRANCH   1   7
BRANCH   3  15
ATOM     15  C   UNL d   1       1.311  -5.326  -0.148  0.00  0.00     0.036 A 
ATOM     16  C   UNL d   1       2.084  -5.923   0.858  0.00  0.00     0.031 A 
ATOM     17  C   UNL d   1       2.233  -7.311   0.923  0.00  0.00     0.026 A 
ATOM     18  C   UNL d   1       1.607  -8.116  -0.024  0.00  0.00     0.034 A 
ATOM     19  C   UNL d   1       0.809  -7.543  -1.009  0.00  0.00     0.026 A 
ATOM     20 CL   UNL d   1       1.830  -9.820   0.026  0.00  0.00    -0.084 Cl
ATOM     21  C   UNL d   1       0.644  -6.151  -1.062  0.00  0.00     0.031 A 
ENDBRANCH   3  15
TORSDOF 2
