REMARK  6 active torsions:
REMARK  status: ('A' for Active; 'I' for Inactive)
REMARK    1  A    between atoms: C_2  and  N_1 
REMARK    2  A    between atoms: N_3  and  C_4 
REMARK    3  A    between atoms: C_16  and  N_7 
REMARK    4  A    between atoms: C_11  and  C_16 
REMARK    5  A    between atoms: O_20  and  C_11 
REMARK    6  A    between atoms: C_21  and  O_20 
ROOT
ATOM      1  N   UNL d   1      -2.309  -2.575   3.888  0.00  0.00    -0.364 N 
ATOM      2  N   UNL d   1      -2.546  -3.816   6.566  0.00  0.00     0.101 N 
ATOM      3  C   UNL d   1      -2.660  -1.757   5.061  0.00  0.00     0.154 C 
ATOM      4  C   UNL d   1      -2.473  -4.032   4.019  0.00  0.00     0.154 C 
ATOM      5  C   UNL d   1      -2.019  -4.558   5.403  0.00  0.00     0.293 C 
ATOM      6  C   UNL d   1      -2.175  -2.388   6.381  0.00  0.00     0.293 C 
ENDROOT
BRANCH   1   7
ATOM      7  C   UNL d   1      -1.339  -2.099   3.019  0.00  0.00     0.103 A 
ATOM      8  C   UNL d   1      -1.312  -2.559   1.698  0.00  0.00     0.051 A 
ATOM      9  C   UNL d   1      -0.378  -2.058   0.790  0.00  0.00     0.041 A 
ATOM     10  C   UNL d   1       0.520  -1.095   1.231  0.00  0.00     0.118 A 
ATOM     11  C   UNL d   1       0.445  -0.671   2.546  0.00  0.00     0.125 A 
ATOM     12  N   UNL d   1      -0.468  -1.151   3.434  0.00  0.00    -0.350 N 
ATOM     13  HN  UNL d   1      -0.494  -0.803   4.392  1.00  0.00     0.166 HD
BRANCH  10  14
ATOM     14  N   UNL d   1       1.515  -0.531   0.333  0.00  0.00    -0.114 N 
ATOM     15  O   UNL d   1       2.290   0.323   0.791  0.00  0.00    -0.532 OA
ATOM     16  O   UNL d   1       1.532  -0.940  -0.837  0.00  0.00    -0.532 OA
ENDBRANCH  10  14
ENDBRANCH   1   7
BRANCH   2  17
ATOM     17  C   UNL d   1      -4.010  -4.021   6.698  0.00  0.00     0.383 C 
BRANCH  17  18
ATOM     18  C   UNL d   1      -4.562  -3.302   7.921  0.00  0.00     0.287 C 
ATOM     19  O   UNL d   1      -4.990  -2.153   7.900  0.00  0.00    -0.263 OA
BRANCH  18  20
ATOM     20  O   UNL d   1      -4.407  -4.071   9.033  0.00  0.00    -0.321 OA
BRANCH  20  21
ATOM     21  C   UNL d   1      -4.468  -3.363  10.277  0.00  0.00     0.174 C 
ATOM     22  C   UNL d   1      -3.065  -2.892  10.618  0.00  0.00     0.034 C 
ENDBRANCH  20  21
ENDBRANCH  18  20
ENDBRANCH  17  18
ENDBRANCH   2  17
TORSDOF 6
