REMARK  9 active torsions:
REMARK  status: ('A' for Active; 'I' for Inactive)
REMARK    1  A    between atoms: N_2  and  C_1 
REMARK    2  A    between atoms: C_3  and  C_1 
REMARK    3  A    between atoms: C_5  and  C_1 
REMARK    4  A    between atoms: O_6  and  C_1 
REMARK       I    between atoms: C_4  and  N_2 
REMARK       I    between atoms: N_8  and  C_4 
REMARK    5  A    between atoms: O_24  and  C_5 
REMARK    6  A    between atoms: C_14  and  O_6 
REMARK    7  A    between atoms: C_7  and  C_14 
REMARK    8  A    between atoms: C_11  and  N_8 
REMARK    9  A    between atoms: C_27  and  O_24 
ROOT
ATOM      1  C   UNL d   1       0.815   0.130   0.345  0.00  0.00     0.328 C 
ENDROOT
BRANCH   1   2
ATOM      2  N   UNL d   1       0.584  -1.321   0.456  0.00  0.00    -0.295 N 
ATOM      3  C   UNL d   1       0.705  -2.207   1.461  0.00  0.00     0.323 C 
ATOM      4  N   UNL d   1       1.234  -1.785   2.647  0.00  0.00    -0.309 N 
ATOM      5  O   UNL d   1       0.326  -3.346   1.204  0.00  0.00    -0.247 OA
ATOM      6  H   UNL d   1       1.281  -0.791   2.813  0.00  0.00     0.170 HD
ATOM      7  H   UNL d   1       0.089  -1.741  -0.326  0.00  0.00     0.168 HD
BRANCH   4   8
ATOM      8  C   UNL d   1       1.401  -2.615   3.787  0.00  0.00     0.038 A 
ATOM      9  C   UNL d   1       1.465  -4.012   3.715  0.00  0.00     0.055 A 
ATOM     10  C   UNL d   1       1.504  -4.792   4.877  0.00  0.00     0.058 A 
ATOM     11 CL   UNL d   1       1.536  -6.511   4.692  0.00  0.00    -0.082 Cl
ATOM     12  C   UNL d   1       1.502  -4.176   6.129  0.00  0.00     0.055 A 
ATOM     13  C   UNL d   1       1.512  -2.781   6.208  0.00  0.00     0.028 A 
ATOM     14 CL   UNL d   1       1.473  -5.071   7.606  0.00  0.00    -0.083 Cl
ATOM     15  C   UNL d   1       1.476  -2.004   5.043  0.00  0.00     0.031 A 
ENDBRANCH   4   8
ENDBRANCH   1   2
BRANCH   1  16
ATOM     16  C   UNL d   1      -0.111   0.996   1.271  0.00  0.00     0.448 C 
ATOM     17  F   UNL d   1      -0.859   0.214   2.093  0.00  0.00    -0.166 F 
ATOM     18  F   UNL d   1       0.618   1.796   2.092  0.00  0.00    -0.166 F 
ATOM     19  F   UNL d   1      -0.979   1.793   0.611  0.00  0.00    -0.166 F 
ENDBRANCH   1  16
BRANCH   1  20
ATOM     20  C   UNL d   1       0.385   0.590  -1.079  0.00  0.00     0.325 C 
ATOM     21  O   UNL d   1       0.743   1.632  -1.618  0.00  0.00    -0.259 OA
BRANCH  20  22
ATOM     22  O   UNL d   1      -0.470  -0.320  -1.640  0.00  0.00    -0.318 OA
BRANCH  22  23
ATOM     23  C   UNL d   1      -1.026  -0.003  -2.930  0.00  0.00     0.174 C 
ATOM     24  C   UNL d   1      -2.383   0.650  -2.746  0.00  0.00     0.034 C 
ENDBRANCH  22  23
ENDBRANCH  20  22
ENDBRANCH   1  20
BRANCH   1  25
ATOM     25  O   UNL d   1       2.192   0.371   0.661  0.00  0.00    -0.336 OA
BRANCH  25  26
ATOM     26  C   UNL d   1       3.155  -0.265  -0.199  0.00  0.00     0.289 C 
BRANCH  26  27
ATOM     27  C   UNL d   1       4.600   0.054   0.206  0.00  0.00     0.408 C 
ATOM     28  F   UNL d   1       4.665   0.855   1.291  0.00  0.00    -0.169 F 
ATOM     29  F   UNL d   1       5.278  -1.079   0.497  0.00  0.00    -0.169 F 
ATOM     30  F   UNL d   1       5.257   0.673  -0.801  0.00  0.00    -0.169 F 
ENDBRANCH  26  27
ENDBRANCH  25  26
ENDBRANCH   1  25
TORSDOF 9
