REMARK  4 active torsions:
REMARK  status: ('A' for Active; 'I' for Inactive)
REMARK    1  A    between atoms: C_14  and  N_2 
REMARK    2  A    between atoms: C_15  and  C_9 
REMARK    3  A    between atoms: C_16  and  C_10 
REMARK    4  A    between atoms: C_19  and  C_14 
ROOT
ATOM      1  C   UNL d   1      -0.567  -1.202   0.088  0.00  0.00     0.106 A 
ATOM      2  N   UNL d   1       0.737  -0.778   0.110  0.00  0.00    -0.284 N 
ATOM      3  C   UNL d   1      -1.051  -2.541   0.040  0.00  0.00     0.200 A 
ATOM      4  N   UNL d   1      -2.240  -2.815  -0.449  0.00  0.00    -0.316 N 
ATOM      5  HN  UNL d   1      -2.924  -2.170  -0.845  1.00  0.00     0.169 HD
ATOM      6  N   UNL d   1       0.844   0.576   0.090  0.00  0.00    -0.301 N 
ATOM      7  HN  UNL d   1       1.700   1.131   0.089  1.00  0.00     0.187 HD
ATOM      8  C   UNL d   1      -1.327  -0.054   0.069  0.00  0.00     0.063 A 
ATOM      9  C   UNL d   1      -2.344  -4.183  -0.300  0.00  0.00     0.154 A 
ATOM     10  C   UNL d   1      -0.416   1.024   0.073  0.00  0.00     0.036 A 
ATOM     11  N   UNL d   1      -1.261  -4.739   0.267  0.00  0.00    -0.241 N 
ATOM     12  HN  UNL d   1      -1.100  -5.723   0.485  1.00  0.00     0.196 HD
ATOM     13  O   UNL d   1      -0.405  -3.655   0.488  0.00  0.00    -0.215 OA
ENDROOT
BRANCH   2  14
ATOM     14  C   UNL d   1       1.962  -1.565  -0.004  0.00  0.00     0.187 C 
BRANCH  14  15
ATOM     15  C   UNL d   1       2.516  -1.976   1.338  0.00  0.00    -0.038 A 
ATOM     16  C   UNL d   1       2.756  -3.329   1.618  0.00  0.00     0.009 A 
ATOM     17  C   UNL d   1       3.264  -3.718   2.859  0.00  0.00     0.001 A 
ATOM     18  C   UNL d   1       3.552  -2.760   3.829  0.00  0.00     0.000 A 
ATOM     19  C   UNL d   1       3.350  -1.410   3.553  0.00  0.00     0.001 A 
ATOM     20  C   UNL d   1       2.844  -1.019   2.312  0.00  0.00     0.009 A 
ENDBRANCH  14  15
ENDBRANCH   2  14
BRANCH  10  21
ATOM     21  C   UNL d   1      -0.750   2.505   0.034  0.00  0.00    -0.007 C 
ATOM     22  C   UNL d   1      -1.593   2.886   1.269  0.00  0.00     0.021 C 
ATOM     23  C   UNL d   1       0.516   3.385   0.024  0.00  0.00     0.021 C 
ATOM     24  C   UNL d   1      -1.564   2.823  -1.238  0.00  0.00     0.021 C 
ENDBRANCH  10  21
BRANCH   9  25
ATOM     25  C   UNL d   1      -3.543  -4.899  -0.753  0.00  0.00     0.078 A 
ATOM     26  N   UNL d   1      -3.624  -6.233  -0.510  0.00  0.00    -0.363 N 
ATOM     27  C   UNL d   1      -4.738  -6.872  -0.932  0.00  0.00     0.088 A 
ATOM     28  HN  UNL d   1      -2.875  -6.733  -0.029  1.00  0.00     0.165 HD
ATOM     29  C   UNL d   1      -5.786  -6.250  -1.593  0.00  0.00     0.017 A 
ATOM     30  C   UNL d   1      -5.691  -4.886  -1.839  0.00  0.00     0.004 A 
ATOM     31  C   UNL d   1      -4.557  -4.201  -1.413  0.00  0.00     0.033 A 
ENDBRANCH   9  25
TORSDOF 4
