REMARK  5 active torsions:
REMARK  status: ('A' for Active; 'I' for Inactive)
REMARK    1  A    between atoms: N_2  and  C_1 
REMARK    2  A    between atoms: N_5  and  C_3 
REMARK       I    between atoms: C_7  and  N_5 
REMARK    3  A    between atoms: C_10  and  C_7 
REMARK    4  A    between atoms: C_11  and  C_13 
REMARK    5  A    between atoms: O_17  and  C_11 
ROOT
ATOM      1  C   UNL d   1      -3.222   3.467  -0.680  0.00  0.00     0.130 C 
ATOM      2  C   UNL d   1      -4.496   3.932  -0.328  0.00  0.00     0.068 C 
ATOM      3  C   UNL d   1      -2.084   4.270  -0.514  0.00  0.00     0.045 C 
ATOM      4  C   UNL d   1      -4.627   5.289  -0.012  0.00  0.00     0.039 C 
ATOM      5  C   UNL d   1      -2.211   5.591  -0.063  0.00  0.00    -0.054 C 
ATOM      6  C   UNL d   1      -3.501   6.131   0.103  0.00  0.00    -0.054 C 
ATOM      7  C   UNL d   1      -0.962   6.394   0.179  0.00  0.00     0.049 C 
ATOM      8  C   UNL d   1      -3.745   7.593   0.369  0.00  0.00     0.049 C 
ENDROOT
BRANCH   2   9
ATOM      9  N   UNL d   1      -5.663   3.134  -0.205  0.00  0.00    -0.321 N 
ATOM     10  C   UNL d   1      -5.629   1.839   0.265  0.00  0.00     0.246 C 
ATOM     11  O   UNL d   1      -4.637   1.224   0.639  0.00  0.00    -0.268 OA
ATOM     12  H   UNL d   1      -6.550   3.618  -0.148  0.00  0.00     0.169 HD
BRANCH  10  13
ATOM     13  C   UNL d   1      -6.964   1.236   0.424  0.00  0.00     0.081 C 
ATOM     14  C   UNL d   1      -7.365   0.571   1.518  0.00  0.00     0.086 C 
BRANCH  14  15
ATOM     15  C   UNL d   1      -6.715   0.331   2.822  0.00  0.00     0.165 C 
ATOM     16  O   UNL d   1      -7.399   0.064   3.800  0.00  0.00    -0.647 OA
BRANCH  15  17
ATOM     17  O   UNL d   1      -5.380   0.406   2.882  0.00  0.00    -0.773 OA
ATOM     18  H   UNL d   1      -4.906   0.538   2.027  0.00  0.00     0.167 HD
ENDBRANCH  15  17
ENDBRANCH  14  15
ENDBRANCH  10  13
ENDBRANCH   2   9
BRANCH   1  19
ATOM     19  N   UNL d   1      -3.056   2.232  -1.442  0.00  0.00    -0.113 N 
ATOM     20  O   UNL d   1      -3.879   2.005  -2.344  0.00  0.00    -0.532 OA
ATOM     21  O   UNL d   1      -2.055   1.539  -1.200  0.00  0.00    -0.532 OA
ENDBRANCH   1  19
TORSDOF 5
