REMARK  4 active torsions:
REMARK  status: ('A' for Active; 'I' for Inactive)
REMARK    1  A    between atoms: C_4  and  C_1 
REMARK    2  A    between atoms: C_3  and  C_2 
REMARK    3  A    between atoms: O_12  and  C_4 
REMARK    4  A    between atoms: C_14  and  O_12 
ROOT
ATOM      1  C   UNL d   1       0.914   0.008   0.192  0.00  0.00     0.122 C 
ATOM      2  C   UNL d   1       0.264   0.043  -0.987  0.00  0.00     0.066 C 
ATOM      3  C   UNL d   1       0.284   0.060   1.467  0.00  0.00     0.105 C 
ATOM      4  N   UNL d   1      -0.206   0.084   2.521  0.00  0.00    -0.191 NA
ENDROOT
BRANCH   1   5
ATOM      5  C   UNL d   1       2.384  -0.202   0.129  0.00  0.00     0.304 C 
ATOM      6  O   UNL d   1       3.023  -0.299  -0.908  0.00  0.00    -0.258 OA
BRANCH   5   7
ATOM      7  O   UNL d   1       2.890  -0.341   1.380  0.00  0.00    -0.317 OA
BRANCH   7   8
ATOM      8  C   UNL d   1       4.244  -0.806   1.476  0.00  0.00     0.174 C 
ATOM      9  C   UNL d   1       4.240  -2.324   1.482  0.00  0.00     0.034 C 
ENDBRANCH   7   8
ENDBRANCH   5   7
ENDBRANCH   1   5
BRANCH   2  10
ATOM     10  C   UNL d   1      -1.151   0.142  -1.101  0.00  0.00     0.077 A 
ATOM     11  O   UNL d   1      -1.972   0.633  -0.116  0.00  0.00    -0.316 OA
ATOM     12  C   UNL d   1      -3.260   0.542  -0.529  0.00  0.00     0.050 A 
ATOM     13  C   UNL d   1      -4.288   0.995   0.428  0.00  0.00     0.076 C 
ATOM     14  C   UNL d   1      -3.308   0.014  -1.796  0.00  0.00     0.035 A 
ATOM     15  C   UNL d   1      -1.962  -0.225  -2.169  0.00  0.00     0.040 A 
ENDBRANCH   2  10
TORSDOF 4
