REMARK  1 active torsions:
REMARK  status: ('A' for Active; 'I' for Inactive)
REMARK    1  A    between atoms: S_13  and  C_7 
ROOT
ATOM      1  N   UNL d   1      -0.184  -0.602   0.003  0.00  0.00    -0.189 N 
ATOM      2  C   UNL d   1      -0.194   0.784   0.005  0.00  0.00     0.135 A 
ATOM      3  N   UNL d   1       0.957   1.510   0.008  0.00  0.00    -0.321 N 
ATOM      4  HN  UNL d   1       0.958   2.530   0.010  1.00  0.00     0.169 HD
ATOM      5  C   UNL d   1       0.993  -1.366   0.004  0.00  0.00     0.349 A 
ATOM      6  N   UNL d   1       2.102  -0.551   0.007  0.00  0.00    -0.287 N 
ATOM      7  C   UNL d   1       2.049   0.818   0.009  0.00  0.00     0.149 A 
ATOM      8  N   UNL d   1      -1.432  -1.136  -0.001  0.00  0.00    -0.299 N 
ATOM      9  HN  UNL d   1      -1.695  -2.122  -0.003  1.00  0.00     0.186 HD
ATOM     10  C   UNL d   1      -1.521   1.146   0.003  0.00  0.00     0.069 A 
ATOM     11  C   UNL d   1      -2.232  -0.068  -0.000  0.00  0.00     0.112 A 
ATOM     12  O   UNL d   1       0.997  -2.589   0.002  0.00  0.00    -0.245 OA
ATOM     13  H   UNL d   1       3.005  -1.001   0.008  0.00  0.00     0.172 HD
ENDROOT
BRANCH   7  14
ATOM     14  S   UNL d   1       3.630   1.535   0.013  0.00  0.00    -0.098 SA
ATOM     15  C   UNL d   1       3.198   3.290   0.017  0.00  0.00     0.099 C 
ENDBRANCH   7  14
TORSDOF 1
