REMARK  5 active torsions:
REMARK  status: ('A' for Active; 'I' for Inactive)
REMARK    1  A    between atoms: C_2  and  C_1 
REMARK       I    between atoms: N_6  and  C_1 
REMARK    2  A    between atoms: C_9  and  C_5 
REMARK    3  A    between atoms: C_8  and  N_6 
REMARK    4  A    between atoms: C_12  and  C_7 
REMARK       I    between atoms: N_17  and  C_9 
REMARK    5  A    between atoms: O_18  and  C_12 
ROOT
ATOM      1  C   UNL d   1       0.903   0.349   0.312  0.00  0.00     0.228 C 
ATOM      2  N   UNL d   1       0.781   0.426  -1.062  0.00  0.00    -0.326 N 
ATOM      3  O   UNL d   1       1.706  -0.369   0.909  0.00  0.00    -0.273 OA
ATOM      4  H   UNL d   1      -0.045   0.898  -1.437  0.00  0.00     0.169 HD
ENDROOT
BRANCH   1   5
ATOM      5  C   UNL d   1      -0.129   1.096   1.145  0.00  0.00     0.100 C 
ATOM      6  C   UNL d   1      -0.026   2.636   1.193  0.00  0.00     0.022 C 
ATOM      7  C   UNL d   1      -0.245   3.227  -0.176  0.00  0.00    -0.025 C 
ATOM      8  C   UNL d   1      -1.399   2.965   1.798  0.00  0.00     0.018 C 
ATOM      9  C   UNL d   1      -1.526   3.002  -0.501  0.00  0.00    -0.025 C 
ATOM     10  C   UNL d   1      -2.175   2.279   0.662  0.00  0.00     0.023 C 
ATOM     11  C   UNL d   1      -1.603   0.836   0.709  0.00  0.00     0.105 C 
BRANCH  11  12
ATOM     12  C   UNL d   1      -2.331  -0.028   1.716  0.00  0.00     0.145 C 
ATOM     13  O   UNL d   1      -3.364   0.290   2.286  0.00  0.00    -0.650 OA
BRANCH  12  14
ATOM     14  O   UNL d   1      -1.756  -1.238   1.907  0.00  0.00    -0.776 OA
ATOM     15  H   UNL d   1      -0.938  -1.411   1.398  0.00  0.00     0.167 HD
ENDBRANCH  12  14
ENDBRANCH  11  12
ENDBRANCH   1   5
BRANCH   2  16
ATOM     16  C   UNL d   1       1.404  -0.472  -1.976  0.00  0.00     0.050 A 
ATOM     17  C   UNL d   1       0.772  -0.802  -3.198  0.00  0.00     0.058 A 
ATOM     18  C   UNL d   1       1.284  -1.850  -3.983  0.00  0.00     0.019 A 
ATOM     19  C   UNL d   1       2.462  -2.500  -3.619  0.00  0.00     0.001 A 
ATOM     20  C   UNL d   1       3.149  -2.095  -2.482  0.00  0.00     0.002 A 
ATOM     21  C   UNL d   1       2.622  -1.091  -1.667  0.00  0.00     0.030 A 
BRANCH  17  22
ATOM     22  C   UNL d   1      -0.473  -0.104  -3.632  0.00  0.00     0.251 C 
ATOM     23  O   UNL d   1      -1.172   0.515  -2.841  0.00  0.00    -0.268 OA
ATOM     24  N   UNL d   1      -0.785  -0.126  -4.966  0.00  0.00    -0.366 N 
ATOM     25  H   UNL d   1      -0.135  -0.413  -5.683  0.00  0.00     0.159 HD
ATOM     26  H   UNL d   1      -1.578   0.434  -5.258  0.00  0.00     0.159 HD
ENDBRANCH  17  22
ENDBRANCH   2  16
TORSDOF 5
