REMARK  4 active torsions:
REMARK  status: ('A' for Active; 'I' for Inactive)
REMARK    1  A    between atoms: C_12  and  C_1 
REMARK    2  A    between atoms: C_7  and  O_9 
REMARK       I    between atoms: N_11  and  C_7 
REMARK    3  A    between atoms: O_9  and  C_13 
REMARK    4  A    between atoms: C_17  and  C_12 
ROOT
ATOM      1  C   UNL d   1      -1.798  -1.205  -0.032  0.00  0.00     0.029 C 
ATOM      2  C   UNL d   1      -1.983   0.273  -0.002  0.00  0.00     0.295 C 
ATOM      3  C   UNL d   1      -0.547  -1.722  -0.037  0.00  0.00    -0.036 C 
ATOM      4  O   UNL d   1      -0.983   1.018  -0.585  0.00  0.00    -0.274 OA
ATOM      5  C   UNL d   1       0.323   0.547  -0.434  0.00  0.00     0.093 A 
ATOM      6  C   UNL d   1       0.595  -0.779  -0.096  0.00  0.00     0.005 A 
ATOM      7  C   UNL d   1       1.321   1.511  -0.572  0.00  0.00     0.075 A 
ATOM      8  C   UNL d   1       1.938  -1.112   0.142  0.00  0.00     0.017 A 
ATOM      9  C   UNL d   1       2.638   1.171  -0.290  0.00  0.00     0.083 A 
ATOM     10  O   UNL d   1      -3.010   0.798   0.412  0.00  0.00    -0.259 OA
ATOM     11  C   UNL d   1       2.958  -0.138   0.061  0.00  0.00     0.038 A 
ATOM     12  C   UNL d   1      -0.246  -3.197  -0.029  0.00  0.00     0.050 C 
ENDROOT
BRANCH   1  13
ATOM     13  C   UNL d   1      -3.103  -1.969   0.004  0.00  0.00     0.084 C 
BRANCH  13  14
ATOM     14  C   UNL d   1      -3.702  -2.223  -1.370  0.00  0.00    -0.054 A 
ATOM     15  C   UNL d   1      -3.866  -3.536  -1.839  0.00  0.00     0.010 A 
ATOM     16  C   UNL d   1      -4.457  -3.777  -3.083  0.00  0.00     0.043 A 
ATOM     17  C   UNL d   1      -4.881  -2.708  -3.863  0.00  0.00     0.116 A 
ATOM     18  C   UNL d   1      -4.726  -1.401  -3.423  0.00  0.00     0.043 A 
ATOM     19  F   UNL d   1      -5.456  -2.943  -5.050  0.00  0.00    -0.206 F 
ATOM     20  C   UNL d   1      -4.145  -1.158  -2.177  0.00  0.00     0.010 A 
ENDBRANCH  13  14
ENDBRANCH   1  13
BRANCH   9  21
ATOM     21  O   UNL d   1       3.537   2.265  -0.351  0.00  0.00    -0.261 OA
BRANCH  21  22
ATOM     22  C   UNL d   1       4.833   2.347   0.165  0.00  0.00     0.367 C 
ATOM     23  N   UNL d   1       5.341   3.639   0.121  0.00  0.00    -0.336 N 
ATOM     24  C   UNL d   1       6.719   3.881   0.506  0.00  0.00     0.154 C 
ATOM     25  C   UNL d   1       4.618   4.765  -0.451  0.00  0.00     0.154 C 
ATOM     26  O   UNL d   1       5.449   1.385   0.614  0.00  0.00    -0.238 OA
ENDBRANCH  21  22
ENDBRANCH   9  21
TORSDOF 4
