REMARK  10 active torsions:
REMARK  status: ('A' for Active; 'I' for Inactive)
REMARK    1  A    between atoms: C_23  and  C_2 
REMARK    2  A    between atoms: C_7  and  N_12 
REMARK    3  A    between atoms: N_8  and  C_7 
REMARK    4  A    between atoms: C_11  and  N_8 
REMARK    5  A    between atoms: C_9  and  C_20 
REMARK       I    between atoms: N_14  and  C_9 
REMARK    6  A    between atoms: N_12  and  N_14 
REMARK    7  A    between atoms: O_24  and  C_18 
REMARK    8  A    between atoms: O_21  and  C_19 
REMARK    9  A    between atoms: C_20  and  O_21 
REMARK   10  A    between atoms: C_28  and  C_23 
ROOT
ATOM      1  C   UNL d   1       4.750   4.119  -0.313  0.00  0.00     0.260 C 
ATOM      2  N   UNL d   1       5.231   4.754   0.815  0.00  0.00    -0.266 N 
ATOM      3  O   UNL d   1       5.355   4.221  -1.382  0.00  0.00    -0.269 OA
ATOM      4  H   UNL d   1       6.150   5.189   0.725  0.00  0.00     0.190 HD
ENDROOT
BRANCH   1   5
ATOM      5  C   UNL d   1       3.431   3.352  -0.200  0.00  0.00     0.280 C 
BRANCH   5   6
ATOM      6  O   UNL d   1       3.670   1.998   0.163  0.00  0.00    -0.342 OA
BRANCH   6   7
ATOM      7  C   UNL d   1       2.700   1.306   0.830  0.00  0.00     0.072 A 
ATOM      8  C   UNL d   1       1.579   1.841   1.453  0.00  0.00     0.075 A 
ATOM      9  C   UNL d   1       0.767   1.015   2.242  0.00  0.00     0.092 A 
ATOM     10  O   UNL d   1      -0.299   1.668   2.893  0.00  0.00    -0.275 OA
ATOM     11  C   UNL d   1       1.008  -0.348   2.412  0.00  0.00     0.004 A 
ATOM     12  C   UNL d   1      -1.121   0.985   3.768  0.00  0.00     0.288 A 
ATOM     13  O   UNL d   1      -2.034   1.533   4.375  0.00  0.00    -0.260 OA
ATOM     14  C   UNL d   1      -0.856  -0.450   3.944  0.00  0.00     0.090 A 
ATOM     15  C   UNL d   1       0.138  -1.112   3.327  0.00  0.00    -0.039 A 
ATOM     16  C   UNL d   1       2.102  -0.889   1.728  0.00  0.00     0.017 A 
ATOM     17  C   UNL d   1       2.936  -0.067   0.947  0.00  0.00     0.038 A 
BRANCH  15  18
ATOM     18  C   UNL d   1       0.324  -2.591   3.568  0.00  0.00     0.039 C 
BRANCH  18  19
ATOM     19  C   UNL d   1       1.286  -2.883   4.724  0.00  0.00     0.000 C 
ATOM     20  C   UNL d   1       1.429  -4.377   4.973  0.00  0.00     0.005 C 
ENDBRANCH  18  19
ENDBRANCH  15  18
ENDBRANCH   6   7
ENDBRANCH   5   6
ENDBRANCH   1   5
BRANCH   2  21
ATOM     21  N   UNL d   1       4.834   4.401   2.109  0.00  0.00    -0.273 N 
ATOM     22  H   UNL d   1       3.849   4.225   2.277  0.00  0.00     0.189 HD
BRANCH  21  23
ATOM     23  C   UNL d   1       5.576   4.746   3.222  0.00  0.00     0.191 C 
ATOM     24  S   UNL d   1       6.971   5.660   3.215  0.00  0.00    -0.039 SA
BRANCH  23  25
ATOM     25  N   UNL d   1       5.047   4.312   4.416  0.00  0.00    -0.330 N 
ATOM     26  H   UNL d   1       5.409   4.759   5.253  0.00  0.00     0.168 HD
BRANCH  25  27
ATOM     27  C   UNL d   1       4.370   3.090   4.648  0.00  0.00     0.068 A 
ATOM     28  C   UNL d   1       3.565   2.910   5.784  0.00  0.00     0.095 A 
ATOM     29  C   UNL d   1       3.019   1.649   6.055  0.00  0.00     0.039 A 
ATOM     30  C   UNL d   1       3.294   0.562   5.228  0.00  0.00     0.003 A 
ATOM     31  C   UNL d   1       4.116   0.725   4.122  0.00  0.00     0.002 A 
ATOM     32  C   UNL d   1       4.628   1.987   3.818  0.00  0.00     0.032 A 
BRANCH  28  33
ATOM     33  O   UNL d   1       3.285   3.853   6.737  0.00  0.00    -0.354 OA
ATOM     34  C   UNL d   1       2.920   5.144   6.261  0.00  0.00     0.210 C 
ENDBRANCH  28  33
ENDBRANCH  25  27
ENDBRANCH  23  25
ENDBRANCH  21  23
ENDBRANCH   2  21
TORSDOF 10
