REMARK  1 active torsions:
REMARK  status: ('A' for Active; 'I' for Inactive)
REMARK    1  A    between atoms: C_12  and  N_7 
ROOT
ATOM      1  C   UNL d   1       0.811  -4.341   0.877  0.00  0.00     0.140 C 
ATOM      2  C   UNL d   1       0.659  -4.113   2.272  0.00  0.00     0.112 C 
ATOM      3  C   UNL d   1       1.575  -5.459   0.439  0.00  0.00     0.112 C 
ATOM      4  N   UNL d   1       0.520  -3.955   3.415  0.00  0.00    -0.191 NA
ATOM      5  N   UNL d   1       2.199  -6.358   0.058  0.00  0.00    -0.191 NA
ATOM      6  C   UNL d   1       0.232  -3.532  -0.029  0.00  0.00     0.123 C 
ENDROOT
BRANCH   6   7
ATOM      7  N   UNL d   1      -0.491  -2.371   0.192  0.00  0.00    -0.349 N 
ATOM      8  C   UNL d   1       0.083  -1.133   0.147  0.00  0.00     0.122 A 
ATOM      9  N   UNL d   1      -0.635   0.043   0.210  0.00  0.00    -0.281 N 
ATOM     10  C   UNL d   1       1.403  -0.742   0.048  0.00  0.00     0.068 A 
ATOM     11  N   UNL d   1       0.138   1.147   0.117  0.00  0.00    -0.308 N 
ATOM     12  C   UNL d   1      -2.058   0.228   0.366  0.00  0.00     0.179 C 
ATOM     13  C   UNL d   1       1.377   0.662   0.037  0.00  0.00     0.111 A 
ATOM     14  HN  UNL d   1      -0.157   2.123   0.110  1.00  0.00     0.186 HD
ATOM     15  H   UNL d   1      -1.445  -2.441  -0.169  0.00  0.00     0.167 HD
ENDBRANCH   6   7
TORSDOF 1
