REMARK  3 active torsions:
REMARK  status: ('A' for Active; 'I' for Inactive)
REMARK    1  A    between atoms: C_2  and  C_1 
REMARK       I    between atoms: N_4  and  C_1 
REMARK       I    between atoms: C_3  and  N_5 
REMARK    2  A    between atoms: C_7  and  C_3 
REMARK    3  A    between atoms: N_5  and  N_4 
ROOT
ATOM      1  C   UNL d   1      -0.760   1.024  -0.499  0.00  0.00     0.286 C 
ATOM      2  N   UNL d   1      -1.515  -0.109  -0.297  0.00  0.00    -0.262 N 
ATOM      3  O   UNL d   1       0.463   0.977  -0.630  0.00  0.00    -0.264 OA
ATOM      4  H   UNL d   1      -2.518  -0.094  -0.130  0.00  0.00     0.190 HD
ENDROOT
BRANCH   2   5
ATOM      5  N   UNL d   1      -0.901  -1.367  -0.261  0.00  0.00    -0.267 N 
ATOM      6  C   UNL d   1      -1.718  -2.469  -0.114  0.00  0.00     0.243 C 
ATOM      7  O   UNL d   1      -2.939  -2.338   0.003  0.00  0.00    -0.271 OA
ATOM      8  H   UNL d   1       0.103  -1.400  -0.426  0.00  0.00     0.190 HD
BRANCH   6   9
ATOM      9  C   UNL d   1      -1.017  -3.838  -0.081  0.00  0.00     0.032 C 
ATOM     10  C   UNL d   1      -0.040  -3.893   1.102  0.00  0.00     0.025 C 
ATOM     11  C   UNL d   1      -2.078  -4.940   0.099  0.00  0.00     0.025 C 
ATOM     12  C   UNL d   1      -0.263  -4.092  -1.393  0.00  0.00     0.025 C 
ENDBRANCH   6   9
ENDBRANCH   2   5
BRANCH   1  13
ATOM     13  C   UNL d   1      -1.505   2.266  -0.539  0.00  0.00     0.102 A 
ATOM     14  N   UNL d   1      -0.869   3.489  -0.608  0.00  0.00    -0.361 N 
ATOM     15  C   UNL d   1      -1.789   4.503  -0.650  0.00  0.00     0.088 A 
ATOM     16  H   UNL d   1       0.137   3.599  -0.626  0.00  0.00     0.165 HD
ATOM     17  C   UNL d   1      -3.042   3.938  -0.613  0.00  0.00     0.019 A 
ATOM     18  C   UNL d   1      -2.866   2.533  -0.540  0.00  0.00     0.036 A 
ENDBRANCH   1  13
TORSDOF 3
