REMARK  2 active torsions:
REMARK  status: ('A' for Active; 'I' for Inactive)
REMARK    1  A    between atoms: N_8  and  C_4 
REMARK    2  A    between atoms: C_12  and  N_8 
ROOT
ATOM      1  C   UNL d   1      -2.470  -0.668  -0.029  0.00  0.00     0.103 A 
ATOM      2  C   UNL d   1      -1.342  -1.630  -0.018  0.00  0.00     0.200 A 
ATOM      3  C   UNL d   1      -1.909   0.712  -0.028  0.00  0.00     0.200 A 
ATOM      4  C   UNL d   1      -3.756  -1.062  -0.023  0.00  0.00     0.132 C 
ATOM      5  C   UNL d   1      -0.126  -0.818  -0.017  0.00  0.00     0.029 A 
ATOM      6  C   UNL d   1      -0.450   0.537  -0.019  0.00  0.00     0.029 A 
ATOM      7  C   UNL d   1      -4.789  -0.067   0.053  0.00  0.00     0.118 C 
ATOM      8  N   UNL d   1      -5.645   0.715   0.109  0.00  0.00    -0.190 NA
ATOM      9  O   UNL d   1      -1.407  -2.844   0.012  0.00  0.00    -0.286 OA
ATOM     10  O   UNL d   1      -2.497   1.771  -0.038  0.00  0.00    -0.286 OA
ATOM     11  C   UNL d   1       1.185  -1.256  -0.006  0.00  0.00     0.016 A 
ATOM     12  C   UNL d   1       0.531   1.512  -0.013  0.00  0.00     0.016 A 
ATOM     13  C   UNL d   1       1.864   1.087  -0.004  0.00  0.00     0.001 A 
ATOM     14  C   UNL d   1       2.188  -0.284  -0.001  0.00  0.00     0.001 A 
ENDROOT
BRANCH   4  15
ATOM     15  N   UNL d   1      -4.149  -2.403  -0.013  0.00  0.00    -0.347 N 
ATOM     16  H   UNL d   1      -3.374  -3.066   0.099  0.00  0.00     0.167 HD
BRANCH  15  17
ATOM     17  C   UNL d   1      -5.423  -3.002   0.006  0.00  0.00     0.033 A 
ATOM     18  C   UNL d   1      -6.551  -2.434  -0.600  0.00  0.00     0.032 A 
ATOM     19  C   UNL d   1      -7.823  -2.979  -0.412  0.00  0.00     0.044 A 
ATOM     20  C   UNL d   1      -7.973  -4.115   0.367  0.00  0.00     0.116 A 
ATOM     21  C   UNL d   1      -6.870  -4.734   0.937  0.00  0.00     0.044 A 
ATOM     22  F   UNL d   1      -9.197  -4.620   0.573  0.00  0.00    -0.206 F 
ATOM     23  C   UNL d   1      -5.599  -4.178   0.756  0.00  0.00     0.032 A 
ENDBRANCH  15  17
ENDBRANCH   4  15
TORSDOF 2
