REMARK  8 active torsions:
REMARK  status: ('A' for Active; 'I' for Inactive)
REMARK    1  A    between atoms: S_7  and  C_1 
REMARK    2  A    between atoms: C_16  and  S_7 
REMARK    3  A    between atoms: N_14  and  C_20 
REMARK    4  A    between atoms: C_21  and  N_14 
REMARK    5  A    between atoms: C_15  and  C_21 
REMARK    6  A    between atoms: C_17  and  C_16 
REMARK    7  A    between atoms: O_19  and  C_17 
REMARK    8  A    between atoms: C_20  and  C_17 
ROOT
ATOM      1  N   UNL d   1       2.016   7.607  -0.128  0.00  0.00     0.090 N 
ATOM      2  H   UNL d   1       1.367   7.845   0.627  0.00  0.00     0.316 HD
ENDROOT
BRANCH   1   3
ATOM      3  C   UNL d   1       2.289   6.168  -0.071  0.00  0.00     0.302 C 
BRANCH   3   4
ATOM      4  C   UNL d   1       0.953   5.391  -0.053  0.00  0.00     0.155 C 
BRANCH   4   5
ATOM      5  C   UNL d   1       1.208   3.874  -0.048  0.00  0.00     0.113 C 
BRANCH   5   6
ATOM      6  S   UNL d   1      -0.362   2.950  -0.159  0.00  0.00    -0.120 SA
BRANCH   6   7
ATOM      7  C   UNL d   1       0.198   1.288  -0.071  0.00  0.00     0.041 A 
ATOM      8  S   UNL d   1       1.101   0.667   1.243  0.00  0.00    -0.095 SA
ATOM      9  C   UNL d   1       1.142  -0.900   0.561  0.00  0.00     0.051 A 
ATOM     10  C   UNL d   1       0.472  -0.956  -0.641  0.00  0.00     0.009 A 
ATOM     11  C   UNL d   1      -0.079   0.309  -1.002  0.00  0.00     0.026 A 
ENDBRANCH   6   7
ENDBRANCH   5   6
ENDBRANCH   4   5
BRANCH   4  12
ATOM     12  O   UNL d   1       0.213   5.800   1.110  0.00  0.00    -0.393 OA
ATOM     13  H   UNL d   1       0.578   5.337   1.884  0.00  0.00     0.210 HD
ENDBRANCH   4  12
ENDBRANCH   3   4
ENDBRANCH   1   3
BRANCH   1  14
ATOM     14  C   UNL d   1       3.224   8.416  -0.025  0.00  0.00     0.308 C 
BRANCH  14  15
ATOM     15  C   UNL d   1       2.889   9.892  -0.058  0.00  0.00    -0.028 A 
ATOM     16  C   UNL d   1       3.320  10.745   0.972  0.00  0.00     0.048 A 
ATOM     17  C   UNL d   1       3.004  12.086   0.881  0.00  0.00     0.105 A 
ATOM     18  O   UNL d   1       3.348  13.044   1.784  0.00  0.00    -0.323 OA
ATOM     19  C   UNL d   1       2.286  12.594  -0.175  0.00  0.00     0.105 A 
ATOM     20  C   UNL d   1       2.787  14.217   1.158  0.00  0.00     0.352 A 
ATOM     21  O   UNL d   1       2.086  13.935  -0.070  0.00  0.00    -0.323 OA
ATOM     22  C   UNL d   1       1.843  11.793  -1.203  0.00  0.00     0.040 A 
ATOM     23  C   UNL d   1       2.155  10.431  -1.142  0.00  0.00     0.012 A 
ENDBRANCH  14  15
ENDBRANCH   1  14
TORSDOF 8
