REMARK  4 active torsions:
REMARK  status: ('A' for Active; 'I' for Inactive)
REMARK    1  A    between atoms: C_2  and  C_1 
REMARK    2  A    between atoms: C_7  and  C_1 
REMARK    3  A    between atoms: N_5  and  C_13 
REMARK    4  A    between atoms: C_17  and  C_6 
ROOT
ATOM      1  C   UNL d   1      -0.037   2.042   1.109  0.00  0.00     0.064 A 
ATOM      2  N   UNL d   1       1.040   2.779   1.292  0.00  0.00    -0.352 N 
ATOM      3  HN  UNL d   1       1.953   2.597   0.875  1.00  0.00     0.166 HD
ATOM      4  C   UNL d   1       0.744   3.841   2.137  0.00  0.00     0.049 A 
ATOM      5  S   UNL d   1      -1.431   2.526   1.981  0.00  0.00    -0.085 SA
ATOM      6  C   UNL d   1      -0.560   3.868   2.596  0.00  0.00     0.081 A 
ENDROOT
BRANCH   1   7
ATOM      7  C   UNL d   1      -0.084   0.971  -0.007  0.00  0.00     0.038 A 
ATOM      8  C   UNL d   1      -1.173   1.057  -1.060  0.00  0.00     0.023 A 
ATOM      9  C   UNL d   1       0.226   1.482  -1.408  0.00  0.00     0.023 A 
BRANCH   7  10
ATOM     10  C   UNL d   1       0.465  -0.406   0.383  0.00  0.00    -0.021 A 
ATOM     11  C   UNL d   1      -0.340  -1.450   0.892  0.00  0.00     0.043 A 
ATOM     12  C   UNL d   1       0.176  -2.729   1.138  0.00  0.00     0.048 A 
ATOM     13 CL   UNL d   1      -2.021  -1.209   1.226  0.00  0.00    -0.084 Cl
ATOM     14  C   UNL d   1       1.518  -2.990   0.898  0.00  0.00     0.035 A 
ATOM     15  C   UNL d   1       2.354  -1.979   0.438  0.00  0.00     0.024 A 
ATOM     16 CL   UNL d   1       2.146  -4.569   1.165  0.00  0.00    -0.084 Cl
ATOM     17  C   UNL d   1       1.832  -0.703   0.192  0.00  0.00     0.012 A 
ENDBRANCH   7  10
ENDBRANCH   1   7
BRANCH   4  18
ATOM     18  C   UNL d   1       1.734   4.875   2.431  0.00  0.00    -0.009 A 
ATOM     19  C   UNL d   1       2.777   5.110   1.521  0.00  0.00     0.016 A 
ATOM     20  C   UNL d   1       3.730   6.108   1.758  0.00  0.00     0.037 A 
ATOM     21  C   UNL d   1       3.644   6.878   2.924  0.00  0.00     0.102 A 
ATOM     22  C   UNL d   1       2.615   6.656   3.845  0.00  0.00     0.037 A 
ATOM     23  C   UNL d   1       1.666   5.657   3.596  0.00  0.00     0.016 A 
BRANCH  21  24
ATOM     24  N   UNL d   1       4.644   7.923   3.184  0.00  0.00    -0.116 N 
ATOM     25  O   UNL d   1       5.538   8.088   2.345  0.00  0.00    -0.532 OA
ATOM     26  O   UNL d   1       4.529   8.579   4.231  0.00  0.00    -0.532 OA
ENDBRANCH  21  24
ENDBRANCH   4  18
TORSDOF 4
