REMARK  4 active torsions:
REMARK  status: ('A' for Active; 'I' for Inactive)
REMARK    1  A    between atoms: C_8  and  N_3 
REMARK    2  A    between atoms: C_9  and  C_8 
REMARK       I    between atoms: N_13  and  C_9 
REMARK       I    between atoms: C_11  and  N_16 
REMARK    3  A    between atoms: C_12  and  C_11 
REMARK    4  A    between atoms: N_16  and  N_13 
ROOT
ATOM      1  N   UNL d   1       0.671   0.801   0.352  0.00  0.00    -0.115 N 
ATOM      2  HN  UNL d   1       1.404   1.490   0.180  1.00  0.00     0.207 HD
ATOM      3  N   UNL d   1       0.732  -0.544   0.323  0.00  0.00    -0.189 N 
ATOM      4  C   UNL d   1      -0.616   0.983   0.670  0.00  0.00     0.709 A 
ATOM      5  N   UNL d   1      -1.291  -0.208   0.800  0.00  0.00    -0.113 N 
ATOM      6  HN  UNL d   1      -2.281  -0.321   1.019  1.00  0.00     0.203 HD
ATOM      7  N   UNL d   1      -0.417  -1.180   0.589  0.00  0.00     0.012 NA
ATOM      8  N   UNL d   1      -1.238   2.166   0.830  0.00  0.00    -0.211 N 
ATOM      9  O   UNL d   1      -2.640   4.627   0.699  0.00  0.00    -0.388 OA
ATOM     10  C   UNL d   1      -0.496   3.428   0.869  0.00  0.00     0.167 C 
ATOM     11  C   UNL d   1      -2.597   2.257   1.362  0.00  0.00     0.167 C 
ATOM     12  C   UNL d   1      -3.343   3.374   0.616  0.00  0.00     0.188 C 
ATOM     13  C   UNL d   1      -1.318   4.504   0.142  0.00  0.00     0.188 C 
ENDROOT
BRANCH   3  14
ATOM     14  C   UNL d   1       2.006  -1.221   0.195  0.00  0.00     0.215 C 
ATOM     15  C   UNL d   1       1.879  -2.663  -0.296  0.00  0.00     0.046 C 
BRANCH  14  16
ATOM     16  C   UNL d   1       2.772  -1.123   1.511  0.00  0.00     0.262 C 
ATOM     17  N   UNL d   1       2.909   0.161   2.005  0.00  0.00    -0.266 N 
ATOM     18  H   UNL d   1       2.315   0.936   1.683  0.00  0.00     0.190 HD
ATOM     19  O   UNL d   1       3.318  -2.086   2.050  0.00  0.00    -0.269 OA
BRANCH  17  20
ATOM     20  N   UNL d   1       3.541   0.346   3.238  0.00  0.00    -0.267 N 
ATOM     21  C   UNL d   1       3.498   1.599   3.810  0.00  0.00     0.240 C 
ATOM     22  O   UNL d   1       2.873   2.536   3.321  0.00  0.00    -0.271 OA
ATOM     23  H   UNL d   1       4.014  -0.456   3.645  0.00  0.00     0.190 HD
BRANCH  21  24
ATOM     24  C   UNL d   1       4.261   1.802   5.072  0.00  0.00     0.080 A 
ATOM     25  C   UNL d   1       5.349   0.878   5.565  0.00  0.00     0.015 A 
ATOM     26  C   UNL d   1       4.028   0.924   6.279  0.00  0.00     0.015 A 
ENDBRANCH  21  24
ENDBRANCH  17  20
ENDBRANCH  14  16
ENDBRANCH   3  14
TORSDOF 4
