REMARK  4 active torsions:
REMARK  status: ('A' for Active; 'I' for Inactive)
REMARK    1  A    between atoms: C_7  and  C_1 
REMARK    2  A    between atoms: C_6  and  C_2 
REMARK    3  A    between atoms: C_8  and  C_5 
REMARK       I    between atoms: N_16  and  C_6 
REMARK    4  A    between atoms: C_21  and  N_16 
ROOT
ATOM      1  C   UNL d   1       0.211  -2.738   0.417  0.00  0.00     0.261 C 
ATOM      2  N   UNL d   1      -0.221  -3.635  -0.535  0.00  0.00    -0.323 N 
ATOM      3  O   UNL d   1       1.036  -2.995   1.291  0.00  0.00    -0.267 OA
ATOM      4  H   UNL d   1      -0.620  -3.249  -1.387  0.00  0.00     0.169 HD
ENDROOT
BRANCH   1   5
ATOM      5  C   UNL d   1      -0.324  -1.392   0.296  0.00  0.00     0.093 C 
ATOM      6  C   UNL d   1      -1.664  -0.864   0.268  0.00  0.00     0.086 C 
ATOM      7  N   UNL d   1      -1.605   0.478   0.360  0.00  0.00    -0.259 N 
ATOM      8  O   UNL d   1      -0.288   0.838   0.284  0.00  0.00    -0.241 OA
ATOM      9  HN  UNL d   1      -2.398   1.111   0.468  1.00  0.00     0.195 HD
ATOM     10  C   UNL d   1       0.480  -0.271   0.229  0.00  0.00     0.090 C 
ATOM     11  C   UNL d   1       1.929  -0.030   0.086  0.00  0.00     0.080 C 
BRANCH   6  12
ATOM     12  C   UNL d   1      -2.990  -1.506   0.165  0.00  0.00     0.037 A 
ATOM     13  C   UNL d   1      -3.350  -2.651   0.902  0.00  0.00     0.048 A 
ATOM     14 CL   UNL d   1      -2.368  -3.335   2.150  0.00  0.00    -0.083 Cl
ATOM     15  C   UNL d   1      -4.600  -3.271   0.722  0.00  0.00     0.025 A 
ATOM     16  C   UNL d   1      -5.550  -2.728  -0.133  0.00  0.00     0.003 A 
ATOM     17  C   UNL d   1      -5.252  -1.558  -0.817  0.00  0.00     0.025 A 
ATOM     18  C   UNL d   1      -3.987  -0.963  -0.689  0.00  0.00     0.048 A 
ATOM     19 CL   UNL d   1      -3.760   0.445  -1.684  0.00  0.00    -0.083 Cl
ENDBRANCH   6  12
ENDBRANCH   1   5
BRANCH   2  20
ATOM     20  C   UNL d   1      -0.086  -5.040  -0.465  0.00  0.00     0.037 A 
ATOM     21  C   UNL d   1      -0.278  -5.777  -1.629  0.00  0.00     0.067 A 
ATOM     22  C   UNL d   1      -0.315  -7.175  -1.570  0.00  0.00     0.092 A 
ATOM     23  O   UNL d   1      -0.488  -7.833  -2.804  0.00  0.00    -0.275 OA
ATOM     24  C   UNL d   1      -0.211  -7.886  -0.371  0.00  0.00     0.013 A 
ATOM     25  C   UNL d   1      -0.582  -9.209  -2.872  0.00  0.00     0.289 A 
ATOM     26  O   UNL d   1      -0.691  -9.809  -3.934  0.00  0.00    -0.260 OA
ATOM     27  C   UNL d   1      -0.595  -9.932  -1.597  0.00  0.00     0.099 A 
ATOM     28  C   UNL d   1      -0.434  -9.341  -0.400  0.00  0.00     0.066 A 
ATOM     29  C   UNL d   1       0.058  -7.138   0.780  0.00  0.00     0.017 A 
ATOM     30  C   UNL d   1       0.137  -5.734   0.730  0.00  0.00     0.030 A 
BRANCH  28  31
ATOM     31  C   UNL d   1      -0.569 -10.145   0.859  0.00  0.00     0.418 C 
ATOM     32  F   UNL d   1       0.372  -9.857   1.790  0.00  0.00    -0.166 F 
ATOM     33  F   UNL d   1      -1.780  -9.947   1.438  0.00  0.00    -0.166 F 
ATOM     34  F   UNL d   1      -0.471 -11.482   0.624  0.00  0.00    -0.166 F 
ENDBRANCH  28  31
ENDBRANCH   2  20
TORSDOF 4
