REMARK  7 active torsions:
REMARK  status: ('A' for Active; 'I' for Inactive)
REMARK    1  A    between atoms: C_2  and  S_1 
REMARK    2  A    between atoms: N_11  and  S_1 
REMARK    3  A    between atoms: O_18  and  C_10 
REMARK    4  A    between atoms: C_19  and  N_11 
REMARK    5  A    between atoms: O_20  and  C_12 
REMARK    6  A    between atoms: C_16  and  C_23 
REMARK    7  A    between atoms: C_23  and  C_19 
ROOT
ATOM      1  N   UNL d   1       2.600   0.065   0.128  0.00  0.00    -0.315 N 
ATOM      2  H   UNL d   1       3.058   0.151  -0.778  0.00  0.00     0.172 HD
ENDROOT
BRANCH   1   3
ATOM      3  S   UNL d   1       0.934  -0.128   0.018  0.00  0.00     0.259 S 
ATOM      4  O   UNL d   1       0.643  -0.649  -1.300  0.00  0.00    -0.201 OA
ATOM      5  O   UNL d   1       0.505  -0.813   1.217  0.00  0.00    -0.201 OA
BRANCH   3   6
ATOM      6  C   UNL d   1       0.335   1.558   0.094  0.00  0.00     0.086 A 
ATOM      7  C   UNL d   1      -0.507   1.885   1.173  0.00  0.00     0.034 A 
ATOM      8  C   UNL d   1      -0.993   3.190   1.346  0.00  0.00    -0.039 A 
ATOM      9  C   UNL d   1      -1.939   3.481   2.477  0.00  0.00     0.050 C 
ATOM     10  C   UNL d   1      -0.602   4.174   0.432  0.00  0.00     0.040 A 
ATOM     11  C   UNL d   1       0.238   3.852  -0.640  0.00  0.00     0.032 A 
ATOM     12 CL   UNL d   1      -1.138   5.809   0.574  0.00  0.00    -0.084 Cl
ATOM     13  C   UNL d   1       0.704   2.540  -0.844  0.00  0.00    -0.037 A 
ATOM     14  C   UNL d   1       1.581   2.320  -2.044  0.00  0.00     0.050 C 
ENDBRANCH   3   6
ENDBRANCH   1   3
BRANCH   1  15
ATOM     15  C   UNL d   1       3.138   0.797   1.280  0.00  0.00     0.137 C 
BRANCH  15  16
ATOM     16  C   UNL d   1       4.665   0.766   1.254  0.00  0.00     0.059 C 
BRANCH  16  17
ATOM     17  C   UNL d   1       5.241   1.608   2.365  0.00  0.00    -0.054 A 
ATOM     18  C   UNL d   1       5.474   2.981   2.174  0.00  0.00     0.046 A 
ATOM     19  C   UNL d   1       5.976   3.792   3.206  0.00  0.00     0.102 A 
ATOM     20  C   UNL d   1       6.249   3.206   4.455  0.00  0.00     0.101 A 
ATOM     21  C   UNL d   1       6.008   1.836   4.639  0.00  0.00     0.040 A 
ATOM     22  C   UNL d   1       5.504   1.042   3.611  0.00  0.00     0.010 A 
BRANCH  19  23
ATOM     23  O   UNL d   1       6.205   5.133   3.055  0.00  0.00    -0.353 OA
ATOM     24  C   UNL d   1       5.906   5.746   1.809  0.00  0.00     0.210 C 
ENDBRANCH  19  23
BRANCH  20  25
ATOM     25  O   UNL d   1       6.734   3.794   5.594  0.00  0.00    -0.353 OA
ATOM     26  C   UNL d   1       7.054   5.176   5.576  0.00  0.00     0.210 C 
ENDBRANCH  20  25
ENDBRANCH  16  17
ENDBRANCH  15  16
ENDBRANCH   1  15
TORSDOF 7
