REMARK  0 active torsions:
REMARK  status: ('A' for Active; 'I' for Inactive)
ROOT
ATOM      1  C   UNL d   1       2.350   0.067   0.002  0.00  0.00     0.222 A 
ATOM      2  N   UNL d   1       1.607  -1.095   0.002  0.00  0.00    -0.320 N 
ATOM      3  O   UNL d   1       1.549   1.209   0.003  0.00  0.00    -0.282 OA
ATOM      4  C   UNL d   1       0.279  -0.717   0.002  0.00  0.00     0.070 A 
ATOM      5  C   UNL d   1       0.274   0.665   0.003  0.00  0.00     0.105 A 
ATOM      6  S   UNL d   1       3.996   0.278   0.001  0.00  0.00    -0.032 SA
ATOM      7  C   UNL d   1       2.053  -2.468  -0.001  0.00  0.00     0.159 C 
ATOM      8  C   UNL d   1      -0.886  -1.454   0.001  0.00  0.00     0.033 A 
ATOM      9  C   UNL d   1      -0.899   1.388   0.002  0.00  0.00     0.040 A 
ATOM     10  C   UNL d   1      -2.091  -0.741  -0.000  0.00  0.00     0.002 A 
ATOM     11  C   UNL d   1      -2.098   0.668  -0.000  0.00  0.00     0.003 A 
ENDROOT
TORSDOF 0
