REMARK  9 active torsions:
REMARK  status: ('A' for Active; 'I' for Inactive)
REMARK    1  A    between atoms: C_7  and  C_1 
REMARK    2  A    between atoms: C_3  and  C_2 
REMARK    3  A    between atoms: N_10  and  C_4 
REMARK    4  A    between atoms: O_20  and  C_7 
REMARK    5  A    between atoms: C_12  and  N_10 
REMARK    6  A    between atoms: C_25  and  O_20 
REMARK    7  A    between atoms: C_24  and  C_21 
REMARK    8  A    between atoms: C_26  and  C_24 
REMARK    9  A    between atoms: C_27  and  C_26 
ROOT
ATOM      1  C   UNL d   1       3.904   3.408  -1.411  0.00  0.00     0.087 A 
ATOM      2  C   UNL d   1       3.117   4.406  -0.877  0.00  0.00     0.150 A 
ATOM      3  C   UNL d   1       1.389   2.868  -0.470  0.00  0.00     0.683 A 
ATOM      4  N   UNL d   1       1.845   4.127  -0.461  0.00  0.00    -0.185 N 
ATOM      5  HN  UNL d   1       1.240   4.882  -0.140  1.00  0.00     0.184 HD
ATOM      6  N   UNL d   1       2.112   1.846  -0.930  0.00  0.00    -0.201 N 
ATOM      7  HN  UNL d   1       1.758   0.890  -0.917  1.00  0.00     0.183 HD
ATOM      8  C   UNL d   1       3.339   2.144  -1.415  0.00  0.00     0.126 A 
ENDROOT
BRANCH   3   9
ATOM      9  N   UNL d   1       0.153   2.599   0.097  0.00  0.00    -0.191 N 
ATOM     10  H   UNL d   1      -0.003   1.610   0.211  0.00  0.00     0.184 HD
BRANCH   9  11
ATOM     11  C   UNL d   1      -0.995   3.409   0.098  0.00  0.00     0.055 A 
ATOM     12  C   UNL d   1      -1.936   3.322   1.139  0.00  0.00    -0.034 A 
ATOM     13  C   UNL d   1      -3.085   4.136   1.105  0.00  0.00     0.016 A 
ATOM     14  C   UNL d   1      -1.764   2.409   2.321  0.00  0.00     0.050 C 
ATOM     15  C   UNL d   1      -3.310   5.047   0.064  0.00  0.00    -0.058 A 
ATOM     16  C   UNL d   1      -2.350   5.160  -0.941  0.00  0.00     0.009 A 
ATOM     17  C   UNL d   1      -1.212   4.353  -0.921  0.00  0.00     0.031 A 
BRANCH  15  18
ATOM     18  C   UNL d   1      -4.564   5.884   0.041  0.00  0.00     0.038 C 
BRANCH  18  19
ATOM     19  C   UNL d   1      -5.443   5.661  -1.196  0.00  0.00     0.004 C 
BRANCH  19  20
ATOM     20  C   UNL d   1      -5.938   4.218  -1.335  0.00  0.00    -0.004 C 
ATOM     21  C   UNL d   1      -6.825   4.053  -2.559  0.00  0.00     0.005 C 
ENDBRANCH  19  20
ENDBRANCH  18  19
ENDBRANCH  15  18
ENDBRANCH   9  11
ENDBRANCH   3   9
BRANCH   2  22
ATOM     22  C   UNL d   1       3.539   5.836  -0.615  0.00  0.00     0.434 C 
ATOM     23  F   UNL d   1       4.855   6.128  -0.780  0.00  0.00    -0.165 F 
ATOM     24  F   UNL d   1       2.858   6.729  -1.390  0.00  0.00    -0.165 F 
ATOM     25  F   UNL d   1       3.282   6.206   0.677  0.00  0.00    -0.165 F 
ENDBRANCH   2  22
BRANCH   1  26
ATOM     26  C   UNL d   1       5.285   3.496  -1.904  0.00  0.00     0.296 C 
ATOM     27  O   UNL d   1       6.062   2.566  -1.816  0.00  0.00    -0.259 OA
BRANCH  26  28
ATOM     28  O   UNL d   1       5.525   4.684  -2.500  0.00  0.00    -0.318 OA
BRANCH  28  29
ATOM     29  C   UNL d   1       6.886   4.893  -2.921  0.00  0.00     0.174 C 
ATOM     30  C   UNL d   1       7.806   5.146  -1.735  0.00  0.00     0.034 C 
ENDBRANCH  28  29
ENDBRANCH  26  28
ENDBRANCH   1  26
TORSDOF 9
