REMARK  2 active torsions:
REMARK  status: ('A' for Active; 'I' for Inactive)
REMARK    1  A    between atoms: C_3  and  C_1 
REMARK       I    between atoms: N_6  and  C_3 
REMARK    2  A    between atoms: C_13  and  N_6 
ROOT
ATOM      1  C   UNL d   1      -6.974  -5.416  -1.185  0.00  0.00    -0.078 C 
ATOM      2  C   UNL d   1      -8.096  -5.204  -1.555  0.00  0.00     0.018 C 
ATOM      3  C   UNL d   1      -3.450  -4.649  -0.233  0.00  0.00     0.036 A 
ATOM      4  C   UNL d   1      -5.637  -5.601  -0.706  0.00  0.00     0.019 A 
ATOM      5  C   UNL d   1      -4.731  -4.542  -0.783  0.00  0.00     0.050 A 
ATOM      6  C   UNL d   1      -3.957  -6.942   0.385  0.00  0.00     0.004 A 
ATOM      7  C   UNL d   1      -3.056  -5.873   0.320  0.00  0.00     0.029 A 
ATOM      8  C   UNL d   1      -5.252  -6.801  -0.115  0.00  0.00     0.021 A 
ENDROOT
BRANCH   3   9
ATOM      9  N   UNL d   1      -2.541  -3.564  -0.172  0.00  0.00    -0.323 N 
ATOM     10  C   UNL d   1      -2.858  -2.240  -0.366  0.00  0.00     0.262 C 
ATOM     11  O   UNL d   1      -3.985  -1.816  -0.625  0.00  0.00    -0.267 OA
ATOM     12  H   UNL d   1      -1.598  -3.784   0.156  0.00  0.00     0.169 HD
BRANCH  10  13
ATOM     13  C   UNL d   1      -1.735  -1.262  -0.220  0.00  0.00     0.108 A 
ATOM     14  C   UNL d   1      -0.378  -1.623   0.238  0.00  0.00     0.304 A 
ATOM     15  O   UNL d   1       0.548  -0.591   0.374  0.00  0.00    -0.274 OA
ATOM     16  O   UNL d   1      -0.081  -2.784   0.508  0.00  0.00    -0.259 OA
ATOM     17  C   UNL d   1       0.252   0.721  -0.045  0.00  0.00     0.089 A 
ATOM     18  C   UNL d   1      -1.014   1.038  -0.521  0.00  0.00    -0.001 A 
ATOM     19  C   UNL d   1       1.270   1.669  -0.006  0.00  0.00     0.038 A 
ATOM     20  C   UNL d   1      -2.029   0.007  -0.550  0.00  0.00     0.037 A 
ATOM     21  C   UNL d   1      -1.266   2.329  -0.990  0.00  0.00     0.014 A 
ATOM     22  C   UNL d   1      -0.248   3.283  -0.981  0.00  0.00     0.001 A 
ATOM     23  C   UNL d   1       1.016   2.955  -0.484  0.00  0.00     0.003 A 
ENDBRANCH  10  13
ENDBRANCH   3   9
TORSDOF 2
