REMARK  2 active torsions:
REMARK  status: ('A' for Active; 'I' for Inactive)
REMARK    1  A    between atoms: N_6  and  C_1 
REMARK       I    between atoms: C_8  and  N_6 
REMARK    2  A    between atoms: C_12  and  C_8 
ROOT
ATOM      1  C   UNL d   1       2.509  -0.420  -0.111  0.00  0.00     0.155 C 
ATOM      2  S   UNL d   1       1.212  -1.543   0.092  0.00  0.00    -0.011 SA
ATOM      3  C   UNL d   1      -0.160  -0.489  -0.147  0.00  0.00     0.228 C 
ATOM      4  N   UNL d   1       2.431   0.860  -0.140  0.00  0.00    -0.336 N 
ATOM      5  HN  UNL d   1       3.286   1.396  -0.293  1.00  0.00     0.168 HD
ATOM      6  C   UNL d   1      -0.022   0.961   0.040  0.00  0.00     0.048 A 
ATOM      7  C   UNL d   1       1.236   1.551   0.028  0.00  0.00     0.048 A 
ATOM      8  O   UNL d   1      -1.255  -0.972  -0.414  0.00  0.00    -0.279 OA
ATOM      9  C   UNL d   1      -1.174   1.747   0.218  0.00  0.00     0.018 A 
ATOM     10  C   UNL d   1       1.330   2.940   0.187  0.00  0.00     0.030 A 
ATOM     11  C   UNL d   1      -1.064   3.127   0.395  0.00  0.00     0.001 A 
ATOM     12  C   UNL d   1       0.191   3.725   0.375  0.00  0.00     0.002 A 
ENDROOT
BRANCH   1  13
ATOM     13  N   UNL d   1       3.708  -1.089  -0.220  0.00  0.00    -0.303 N 
ATOM     14  C   UNL d   1       4.959  -0.498  -0.321  0.00  0.00     0.257 C 
ATOM     15  O   UNL d   1       5.166   0.711  -0.340  0.00  0.00    -0.267 OA
ATOM     16  H   UNL d   1       3.642  -2.089  -0.129  0.00  0.00     0.171 HD
BRANCH  14  17
ATOM     17  C   UNL d   1       6.145  -1.401  -0.389  0.00  0.00     0.032 A 
ATOM     18  C   UNL d   1       6.087  -2.726  -0.836  0.00  0.00     0.017 A 
ATOM     19  C   UNL d   1       7.263  -3.482  -0.926  0.00  0.00     0.001 A 
ATOM     20  C   UNL d   1       8.493  -2.923  -0.578  0.00  0.00     0.000 A 
ATOM     21  C   UNL d   1       8.557  -1.607  -0.129  0.00  0.00     0.001 A 
ATOM     22  C   UNL d   1       7.389  -0.851  -0.035  0.00  0.00     0.017 A 
ENDBRANCH  14  17
ENDBRANCH   1  13
TORSDOF 2
