REMARK  8 active torsions:
REMARK  status: ('A' for Active; 'I' for Inactive)
REMARK    1  A    between atoms: C_2  and  C_1 
REMARK    2  A    between atoms: O_23  and  C_2 
REMARK    3  A    between atoms: C_3  and  N_12 
REMARK    4  A    between atoms: S_19  and  C_3 
REMARK    5  A    between atoms: N_12  and  C_4 
REMARK    6  A    between atoms: N_10  and  N_8 
REMARK    7  A    between atoms: C_22  and  C_21 
REMARK    8  A    between atoms: C_26  and  O_23 
ROOT
ATOM      1  C   UNL d   1      -1.035   0.925  -0.863  0.00  0.00     0.135 C 
ATOM      2  C   UNL d   1      -1.651   0.460   0.238  0.00  0.00     0.119 C 
ATOM      3  C   UNL d   1       0.319   0.638  -1.169  0.00  0.00     0.107 C 
ATOM      4  N   UNL d   1       1.428   0.375  -1.388  0.00  0.00    -0.191 NA
ENDROOT
BRANCH   1   5
ATOM      5  C   UNL d   1      -1.893   1.694  -1.796  0.00  0.00     0.305 C 
ATOM      6  O   UNL d   1      -3.037   2.045  -1.538  0.00  0.00    -0.258 OA
BRANCH   5   7
ATOM      7  O   UNL d   1      -1.276   1.883  -2.990  0.00  0.00    -0.317 OA
BRANCH   7   8
ATOM      8  C   UNL d   1      -2.134   2.332  -4.052  0.00  0.00     0.174 C 
ATOM      9  C   UNL d   1      -2.674   1.110  -4.772  0.00  0.00     0.034 C 
ENDBRANCH   7   8
ENDBRANCH   5   7
ENDBRANCH   1   5
BRANCH   2  10
ATOM     10  N   UNL d   1      -1.198  -0.298   1.293  0.00  0.00    -0.344 N 
ATOM     11  H   UNL d   1      -0.192  -0.433   1.393  0.00  0.00     0.167 HD
BRANCH  10  12
ATOM     12  C   UNL d   1      -1.868  -0.841   2.371  0.00  0.00     0.158 C 
ATOM     13  N   UNL d   1      -1.270  -1.304   3.431  0.00  0.00    -0.280 N 
ATOM     14  HN  UNL d   1      -1.759  -1.712   4.228  1.00  0.00     0.189 HD
BRANCH  13  15
ATOM     15  N   UNL d   1       0.123  -1.178   3.349  0.00  0.00    -0.309 N 
ATOM     16  C   UNL d   1       0.688  -1.441   4.485  0.00  0.00     0.118 C 
ATOM     17  HN  UNL d   1       0.628  -0.913   2.503  1.00  0.00     0.186 HD
BRANCH  16  18
ATOM     18  C   UNL d   1       2.156  -1.411   4.639  0.00  0.00    -0.017 A 
ATOM     19  C   UNL d   1       2.717  -1.752   5.875  0.00  0.00     0.052 A 
ATOM     20  C   UNL d   1       4.095  -1.759   5.962  0.00  0.00     0.105 A 
ATOM     21  O   UNL d   1       4.820  -2.083   7.067  0.00  0.00    -0.323 OA
ATOM     22  C   UNL d   1       4.896  -1.434   4.891  0.00  0.00     0.105 A 
ATOM     23  C   UNL d   1       6.165  -1.966   6.556  0.00  0.00     0.352 A 
ATOM     24  O   UNL d   1       6.220  -1.516   5.187  0.00  0.00    -0.323 OA
ATOM     25  C   UNL d   1       4.368  -1.078   3.669  0.00  0.00     0.040 A 
ATOM     26  C   UNL d   1       2.977  -1.070   3.543  0.00  0.00     0.016 A 
ENDBRANCH  16  18
ENDBRANCH  13  15
BRANCH  12  27
ATOM     27  S   UNL d   1      -3.630  -0.940   2.274  0.00  0.00    -0.097 SA
ATOM     28  C   UNL d   1      -4.064  -1.521   3.917  0.00  0.00     0.099 C 
ENDBRANCH  12  27
ENDBRANCH  10  12
ENDBRANCH   2  10
TORSDOF 8
