REMARK  2 active torsions:
REMARK  status: ('A' for Active; 'I' for Inactive)
REMARK    1  A    between atoms: C_6  and  C_3 
REMARK       I    between atoms: N_8  and  C_6 
REMARK    2  A    between atoms: C_12  and  N_8 
ROOT
ATOM      1  C   UNL d   1      -0.691   0.191  -0.068  0.00  0.00     0.023 A 
ATOM      2  S   UNL d   1      -1.890   1.365   0.235  0.00  0.00    -0.084 SA
ATOM      3  C   UNL d   1      -3.156   0.244  -0.052  0.00  0.00     0.074 A 
ATOM      4  C   UNL d   1      -1.244  -1.039  -0.377  0.00  0.00    -0.038 A 
ATOM      5  C   UNL d   1      -2.657  -0.984  -0.442  0.00  0.00     0.033 A 
ATOM      6  C   UNL d   1       0.764   0.388   0.032  0.00  0.00    -0.012 A 
ATOM      7  C   UNL d   1      -0.371  -2.238  -0.586  0.00  0.00     0.044 C 
ATOM      8  C   UNL d   1       1.555  -0.783   0.179  0.00  0.00    -0.046 A 
ATOM      9  C   UNL d   1       0.877  -2.138   0.310  0.00  0.00     0.044 C 
ATOM     10  C   UNL d   1       1.397   1.627  -0.092  0.00  0.00     0.013 A 
ATOM     11  C   UNL d   1       2.950  -0.688   0.236  0.00  0.00     0.008 A 
ATOM     12  C   UNL d   1       2.794   1.705  -0.067  0.00  0.00     0.001 A 
ATOM     13  C   UNL d   1       3.566   0.554   0.100  0.00  0.00     0.001 A 
ENDROOT
BRANCH   3  14
ATOM     14  C   UNL d   1      -4.577   0.539   0.111  0.00  0.00     0.263 C 
ATOM     15  N   UNL d   1      -4.894   1.807   0.568  0.00  0.00    -0.323 N 
ATOM     16  H   UNL d   1      -4.134   2.474   0.606  0.00  0.00     0.169 HD
ATOM     17  O   UNL d   1      -5.412  -0.317  -0.164  0.00  0.00    -0.267 OA
BRANCH  15  18
ATOM     18  C   UNL d   1      -6.199   2.282   0.834  0.00  0.00     0.035 A 
ATOM     19  C   UNL d   1      -7.307   1.439   0.987  0.00  0.00     0.037 A 
ATOM     20  C   UNL d   1      -8.609   1.945   1.151  0.00  0.00    -0.043 A 
ATOM     21  C   UNL d   1      -9.753   0.976   1.256  0.00  0.00     0.049 C 
ATOM     22  C   UNL d   1      -8.781   3.333   1.189  0.00  0.00     0.017 A 
ATOM     23  C   UNL d   1      -7.676   4.184   1.099  0.00  0.00     0.022 A 
ATOM     24 BR   UNL d   1     -10.499   4.126   1.344  0.00  0.00    -0.051 Br
ATOM     25  C   UNL d   1      -6.388   3.662   0.934  0.00  0.00     0.031 A 
ENDBRANCH  15  18
ENDBRANCH   3  14
TORSDOF 2
