REMARK  9 active torsions:
REMARK  status: ('A' for Active; 'I' for Inactive)
REMARK    1  A    between atoms: N_4  and  C_1 
REMARK       I    between atoms: C_12  and  N_4 
REMARK    2  A    between atoms: C_10  and  C_5 
REMARK    3  A    between atoms: C_9  and  CA_11 
REMARK    4  A    between atoms: OXT_21  and  C_9 
REMARK    5  A    between atoms: C_14  and  C_10 
REMARK    6  A    between atoms: C_20  and  C_12 
REMARK    7  A    between atoms: O_22  and  C_14 
REMARK    8  A    between atoms: C_15  and  S_16 
REMARK    9  A    between atoms: S_16  and  C_20 
ROOT
ATOM      1  N   UNL d   1       0.886  -2.780   1.027  0.00  0.00    -0.306 N 
ATOM      2  C   UNL d   1       1.288  -3.491  -0.089  0.00  0.00     0.233 C 
ATOM      3  O   UNL d   1       1.823  -3.023  -1.092  0.00  0.00    -0.272 OA
ATOM      4  H   UNL d   1       0.565  -3.235   1.867  0.00  0.00     0.171 HD
ENDROOT
BRANCH   2   5
ATOM      5  C   UNL d   1       1.020  -4.983   0.012  0.00  0.00     0.184 C 
BRANCH   5   6
ATOM      6  S   UNL d   1       2.576  -5.928  -0.085  0.00  0.00    -0.103 SA
BRANCH   6   7
ATOM      7  C   UNL d   1       3.377  -5.399   1.414  0.00  0.00     0.070 A 
ATOM      8  N   UNL d   1       2.587  -5.100   2.469  0.00  0.00    -0.345 N 
ATOM      9  CA  UNL d   1       3.234  -4.744   3.621  0.00  0.00     0.107 A 
ATOM     10  HN  UNL d   1       1.569  -5.137   2.410  1.00  0.00     0.167 HD
ATOM     11  C   UNL d   1       4.609  -4.682   3.772  0.00  0.00     0.037 A 
ATOM     12  C   UNL d   1       5.389  -5.002   2.668  0.00  0.00     0.005 A 
ATOM     13  C   UNL d   1       4.767  -5.367   1.474  0.00  0.00     0.037 A 
BRANCH   9  14
ATOM     14  C   UNL d   1       2.330  -4.411   4.760  0.00  0.00     0.193 C 
ATOM     15  O   UNL d   1       2.685  -4.013   5.852  0.00  0.00    -0.645 OA
BRANCH  14  16
ATOM     16  OXT UNL d   1       1.037  -4.603   4.391  0.00  0.00    -0.772 OA
ATOM     17  HXT UNL d   1       1.035  -5.035   3.506  0.00  0.00     0.167 HD
ENDBRANCH  14  16
ENDBRANCH   9  14
ENDBRANCH   6   7
ENDBRANCH   5   6
ENDBRANCH   2   5
BRANCH   1  18
ATOM     18  C   UNL d   1       1.061  -1.428   1.094  0.00  0.00     0.151 A 
ATOM     19  N   UNL d   1       1.410  -0.611   0.139  0.00  0.00    -0.339 N 
ATOM     20  C   UNL d   1       1.519   0.681   0.621  0.00  0.00     0.027 A 
ATOM     21  HN  UNL d   1       1.578  -0.887  -0.829  1.00  0.00     0.168 HD
ATOM     22  C   UNL d   1       1.224   0.806   1.968  0.00  0.00     0.078 A 
ATOM     23  S   UNL d   1       0.783  -0.726   2.620  0.00  0.00    -0.064 SA
BRANCH  20  24
ATOM     24  C   UNL d   1       1.863   1.727  -0.387  0.00  0.00     0.167 C 
BRANCH  24  25
ATOM     25  C   UNL d   1       2.712   2.872   0.107  0.00  0.00     0.145 C 
ATOM     26  O   UNL d   1       3.071   3.070   1.254  0.00  0.00    -0.650 OA
BRANCH  25  27
ATOM     27  O   UNL d   1       3.036   3.733  -0.897  0.00  0.00    -0.776 OA
ATOM     28  H   UNL d   1       2.700   3.470  -1.775  0.00  0.00     0.167 HD
ENDBRANCH  25  27
ENDBRANCH  24  25
ENDBRANCH  20  24
ENDBRANCH   1  18
TORSDOF 9
