REMARK  3 active torsions:
REMARK  status: ('A' for Active; 'I' for Inactive)
REMARK    1  A    between atoms: C_3  and  C_1 
REMARK    2  A    between atoms: N_4  and  C_2 
REMARK    3  A    between atoms: O_9  and  C_3 
REMARK       I    between atoms: C_5  and  N_4 
ROOT
ATOM      1  C   UNL d   1       0.252  -1.133   0.211  0.00  0.00     0.102 A 
ATOM      2  C   UNL d   1      -1.151  -1.260   0.267  0.00  0.00     0.054 A 
ATOM      3  C   UNL d   1       0.812   0.140   0.077  0.00  0.00     0.135 A 
ATOM      4  F   UNL d   1       2.150   0.295   0.068  0.00  0.00    -0.205 F 
ATOM      5  C   UNL d   1      -1.944  -0.107   0.168  0.00  0.00     0.031 A 
ATOM      6  C   UNL d   1      -1.361   1.155   0.022  0.00  0.00     0.005 A 
ATOM      7  C   UNL d   1       0.022   1.280  -0.018  0.00  0.00     0.043 A 
ENDROOT
BRANCH   2   8
ATOM      8  N   UNL d   1      -1.741  -2.542   0.403  0.00  0.00    -0.326 N 
ATOM      9  C   UNL d   1      -2.978  -2.810   0.952  0.00  0.00     0.218 C 
ATOM     10  O   UNL d   1      -3.717  -1.989   1.488  0.00  0.00    -0.274 OA
ATOM     11  C   UNL d   1      -3.376  -4.260   0.862  0.00  0.00     0.117 C 
ATOM     12  H   UNL d   1      -1.111  -3.336   0.257  0.00  0.00     0.169 HD
ENDBRANCH   2   8
BRANCH   1  13
ATOM     13  C   UNL d   1       1.119  -2.329   0.329  0.00  0.00     0.181 C 
ATOM     14  O   UNL d   1       0.714  -3.449   0.050  0.00  0.00    -0.646 OA
BRANCH  13  15
ATOM     15  O   UNL d   1       2.347  -2.115   0.843  0.00  0.00    -0.773 OA
ATOM     16  H   UNL d   1       2.579  -1.180   1.020  0.00  0.00     0.167 HD
ENDBRANCH  13  15
ENDBRANCH   1  13
TORSDOF 3
