REMARK  4 active torsions:
REMARK  status: ('A' for Active; 'I' for Inactive)
REMARK    1  A    between atoms: N_20  and  C_4 
REMARK    2  A    between atoms: C_14  and  N_19 
REMARK    3  A    between atoms: S_22  and  C_15 
REMARK    4  A    between atoms: N_19  and  C_16 
ROOT
ATOM      1  N   UNL d   1      -4.634  -0.397   1.634  0.00  0.00    -0.200 N 
ATOM      2  H   UNL d   1      -4.878   0.471   1.158  0.00  0.00     0.183 HD
ENDROOT
BRANCH   1   3
ATOM      3  C   UNL d   1      -5.509  -0.685   2.681  0.00  0.00     0.698 A 
ATOM      4  N   UNL d   1      -5.278  -1.721   3.482  0.00  0.00    -0.022 N 
ATOM      5  C   UNL d   1      -6.162  -1.957   4.445  0.00  0.00     0.696 A 
ATOM      6  HN  UNL d   1      -4.454  -2.311   3.362  1.00  0.00     0.203 HD
ATOM      7  N   UNL d   1      -7.232  -1.196   4.620  0.00  0.00    -0.169 N 
ATOM      8  C   UNL d   1      -7.381  -0.179   3.782  0.00  0.00     0.174 A 
ATOM      9  HN  UNL d   1      -7.907  -1.382   5.361  1.00  0.00     0.186 HD
ATOM     10  N   UNL d   1      -6.546   0.131   2.802  0.00  0.00    -0.169 N 
ATOM     11  HN  UNL d   1      -6.691   0.934   2.189  1.00  0.00     0.186 HD
BRANCH   5  12
ATOM     12  N   UNL d   1      -5.980  -3.035   5.282  0.00  0.00    -0.226 N 
ATOM     13  C   UNL d   1      -4.803  -3.873   5.183  0.00  0.00     0.168 C 
ATOM     14  C   UNL d   1      -6.928  -3.319   6.343  0.00  0.00     0.168 C 
ENDBRANCH   5  12
BRANCH   8  15
ATOM     15  S   UNL d   1      -8.853   0.793   4.029  0.00  0.00    -0.097 SA
ATOM     16  C   UNL d   1      -8.651   2.063   2.758  0.00  0.00     0.099 C 
ENDBRANCH   8  15
ENDBRANCH   1   3
BRANCH   1  17
ATOM     17  C   UNL d   1      -3.482  -1.051   1.273  0.00  0.00     0.135 C 
ATOM     18  C   UNL d   1      -2.555  -0.700   0.364  0.00  0.00     0.146 C 
ATOM     19  S   UNL d   1      -2.612   0.775  -0.504  0.00  0.00     0.270 S 
ATOM     20  C   UNL d   1      -1.296  -1.451   0.231  0.00  0.00     0.209 C 
ATOM     21  N   UNL d   1      -1.230   1.518   0.127  0.00  0.00    -0.275 N 
ATOM     22  O   UNL d   1      -2.363   0.520  -1.907  0.00  0.00    -0.200 OA
ATOM     23  O   UNL d   1      -3.770   1.555  -0.106  0.00  0.00    -0.200 OA
ATOM     24  C   UNL d   1      -0.011   0.750   0.057  0.00  0.00     0.059 A 
ATOM     25  C   UNL d   1      -1.268   2.936   0.478  0.00  0.00     0.170 C 
ATOM     26  C   UNL d   1      -0.034  -0.664   0.059  0.00  0.00     0.043 A 
ATOM     27  C   UNL d   1       1.230   1.401   0.038  0.00  0.00     0.031 A 
ATOM     28  C   UNL d   1       1.169  -1.386  -0.015  0.00  0.00     0.018 A 
ATOM     29  C   UNL d   1       2.392  -0.718  -0.049  0.00  0.00     0.001 A 
ATOM     30  C   UNL d   1       2.422   0.672  -0.009  0.00  0.00     0.002 A 
ATOM     31  O   UNL d   1      -1.269  -2.675   0.325  0.00  0.00    -0.286 OA
ENDBRANCH   1  17
TORSDOF 4
