REMARK  3 active torsions:
REMARK  status: ('A' for Active; 'I' for Inactive)
REMARK    1  A    between atoms: C_6  and  N_1 
REMARK    2  A    between atoms: N_7  and  C_6 
REMARK    3  A    between atoms: C_10  and  N_7 
ROOT
ATOM      1  N   UNL d   1       1.903   0.174  -0.038  0.00  0.00    -0.267 N 
ATOM      2  C   UNL d   1       1.031  -0.106  -1.054  0.00  0.00     0.262 A 
ATOM      3  C   UNL d   1       1.256   0.410   1.141  0.00  0.00     0.262 A 
ATOM      4  C   UNL d   1      -0.174   0.336   0.850  0.00  0.00     0.048 A 
ATOM      5  C   UNL d   1      -0.312   0.025  -0.491  0.00  0.00     0.048 A 
ATOM      6  O   UNL d   1       1.253  -0.467  -2.193  0.00  0.00    -0.267 OA
ATOM      7  O   UNL d   1       1.718   0.606   2.247  0.00  0.00    -0.267 OA
ATOM      8  C   UNL d   1      -1.266   0.477   1.684  0.00  0.00     0.018 A 
ATOM      9  C   UNL d   1      -1.549  -0.165  -1.075  0.00  0.00     0.018 A 
ATOM     10  C   UNL d   1      -2.671  -0.022  -0.252  0.00  0.00     0.001 A 
ATOM     11  C   UNL d   1      -2.530   0.296   1.115  0.00  0.00     0.001 A 
ENDROOT
BRANCH   1  12
ATOM     12  C   UNL d   1       3.324   0.016  -0.147  0.00  0.00     0.230 C 
BRANCH  12  13
ATOM     13  N   UNL d   1       3.911   1.317  -0.405  0.00  0.00    -0.275 NA
ATOM     14  H   UNL d   1       3.542   2.024   0.230  0.00  0.00     0.129 HD
BRANCH  13  15
ATOM     15  C   UNL d   1       5.319   1.399  -0.445  0.00  0.00     0.027 A 
ATOM     16  C   UNL d   1       5.977   2.609  -0.139  0.00  0.00     0.032 A 
ATOM     17 BR   UNL d   1       5.001   4.129   0.460  0.00  0.00    -0.049 Br
ATOM     18  C   UNL d   1       7.369   2.730  -0.236  0.00  0.00     0.021 A 
ATOM     19  C   UNL d   1       8.132   1.648  -0.666  0.00  0.00     0.001 A 
ATOM     20  C   UNL d   1       7.504   0.458  -1.014  0.00  0.00     0.002 A 
ATOM     21  C   UNL d   1       6.113   0.344  -0.923  0.00  0.00     0.025 A 
ENDBRANCH  13  15
ENDBRANCH  12  13
ENDBRANCH   1  12
TORSDOF 3
