REMARK  3 active torsions:
REMARK  status: ('A' for Active; 'I' for Inactive)
REMARK    1  A    between atoms: C_3  and  S_1 
REMARK    2  A    between atoms: C_5  and  S_1 
REMARK    3  A    between atoms: C_2  and  C_3 
ROOT
ATOM      1  S   UNL d   1       0.999  -0.167   0.020  0.00  0.00     0.179 S 
ATOM      2  O   UNL d   1       0.642  -0.405   1.407  0.00  0.00    -0.222 OA
ATOM      3  O   UNL d   1       2.349  -0.400  -0.457  0.00  0.00    -0.222 OA
ENDROOT
BRANCH   1   4
ATOM      4  C   UNL d   1       0.456   1.483  -0.430  0.00  0.00     0.187 C 
BRANCH   4   5
ATOM      5  C   UNL d   1       1.304   2.498   0.286  0.00  0.00    -0.005 A 
ATOM      6  C   UNL d   1       2.473   2.984  -0.312  0.00  0.00     0.129 A 
ATOM      7  C   UNL d   1       3.295   3.916   0.329  0.00  0.00    -0.023 A 
ATOM      8  F   UNL d   1       2.797   2.553  -1.541  0.00  0.00    -0.205 F 
ATOM      9  C   UNL d   1       4.546   4.429  -0.318  0.00  0.00     0.051 C 
ATOM     10  C   UNL d   1       2.933   4.366   1.604  0.00  0.00     0.010 A 
ATOM     11  C   UNL d   1       1.769   3.896   2.213  0.00  0.00     0.001 A 
ATOM     12  C   UNL d   1       0.957   2.967   1.560  0.00  0.00     0.011 A 
ENDBRANCH   4   5
ENDBRANCH   1   4
BRANCH   1  13
ATOM     13  C   UNL d   1      -0.050  -1.224  -0.968  0.00  0.00     0.059 A 
ATOM     14  C   UNL d   1       0.050  -1.173  -2.363  0.00  0.00     0.025 A 
ATOM     15  C   UNL d   1      -0.772  -1.992  -3.141  0.00  0.00     0.025 A 
ATOM     16  C   UNL d   1      -1.672  -2.862  -2.524  0.00  0.00     0.034 A 
ATOM     17  C   UNL d   1      -1.750  -2.932  -1.132  0.00  0.00     0.025 A 
ATOM     18 CL   UNL d   1      -2.690  -3.860  -3.487  0.00  0.00    -0.084 Cl
ATOM     19  C   UNL d   1      -0.935  -2.111  -0.347  0.00  0.00     0.025 A 
ENDBRANCH   1  13
TORSDOF 3
