REMARK  2 active torsions:
REMARK  status: ('A' for Active; 'I' for Inactive)
REMARK       I    between atoms: C_2  and  N_1 
REMARK       I    between atoms: C_3  and  N_1 
REMARK       I    between atoms: N_4  and  C_2 
REMARK    1  A    between atoms: C_7  and  N_4 
REMARK    2  A    between atoms: C_8  and  C_7 
ROOT
ATOM      1  N   UNL d   1       1.076  -1.540  -0.138  0.00  0.00    -0.280 N 
ATOM      2  C   UNL d   1       0.417  -1.288   1.027  0.00  0.00     0.323 C 
ATOM      3  C   UNL d   1       2.368  -1.282  -0.585  0.00  0.00     0.221 C 
ATOM      4  N   UNL d   1       1.015  -1.286   2.226  0.00  0.00    -0.339 N 
ATOM      5  O   UNL d   1      -0.795  -1.075   0.967  0.00  0.00    -0.247 OA
ATOM      6  O   UNL d   1       3.318  -0.895   0.084  0.00  0.00    -0.274 OA
ATOM      7  C   UNL d   1       2.548  -1.601  -2.052  0.00  0.00     0.117 C 
ATOM      8  H   UNL d   1       0.385  -1.577  -0.874  0.00  0.00     0.173 HD
ATOM      9  H   UNL d   1       0.377  -1.055   2.980  0.00  0.00     0.164 HD
ENDROOT
BRANCH   4  10
ATOM     10  C   UNL d   1       2.393  -1.496   2.608  0.00  0.00     0.162 C 
BRANCH  10  11
ATOM     11  C   UNL d   1       2.514  -1.978   4.032  0.00  0.00    -0.040 A 
ATOM     12  C   UNL d   1       2.134  -3.283   4.361  0.00  0.00     0.009 A 
ATOM     13  C   UNL d   1       2.305  -3.768   5.662  0.00  0.00     0.001 A 
ATOM     14  C   UNL d   1       2.848  -2.940   6.643  0.00  0.00     0.000 A 
ATOM     15  C   UNL d   1       3.206  -1.632   6.335  0.00  0.00     0.001 A 
ATOM     16  C   UNL d   1       3.034  -1.146   5.033  0.00  0.00     0.009 A 
ENDBRANCH  10  11
ENDBRANCH   4  10
TORSDOF 2
