REMARK  0 active torsions:
REMARK  status: ('A' for Active; 'I' for Inactive)
ROOT
ATOM      1  C   UNL d   1       4.674  -3.520  -4.082  0.00  0.00     0.190 C 
ATOM      2  C   UNL d   1       3.599  -1.136  -3.470  0.00  0.00     0.190 C 
ATOM      3  C   UNL d   1       3.200  -3.065  -4.449  0.00  0.00     0.216 C 
ATOM      4  C   UNL d   1       5.107  -1.541  -3.220  0.00  0.00     0.216 C 
ATOM      5  O   UNL d   1       3.226  -1.644  -4.769  0.00  0.00    -0.340 OA
ATOM      6  O   UNL d   1       5.541  -2.391  -4.326  0.00  0.00    -0.340 OA
ATOM      7  O   UNL d   1       2.705  -1.800  -2.543  0.00  0.00    -0.345 OA
ATOM      8  O   UNL d   1       4.825  -3.799  -2.671  0.00  0.00    -0.345 OA
ATOM      9  C   UNL d   1       5.271  -2.546  -2.086  0.00  0.00     0.155 C 
ATOM     10  C   UNL d   1       2.274  -3.001  -3.239  0.00  0.00     0.155 C 
ATOM     11  C   UNL d   1       5.116  -4.729  -4.884  0.00  0.00     0.082 C 
ATOM     12  C   UNL d   1       3.386   0.363  -3.397  0.00  0.00     0.082 C 
ATOM     13  C   UNL d   1       0.805  -2.817  -3.616  0.00  0.00     0.042 C 
ATOM     14  C   UNL d   1       6.720  -2.715  -1.646  0.00  0.00     0.042 C 
ENDROOT
TORSDOF 0
