REMARK  4 active torsions:
REMARK  status: ('A' for Active; 'I' for Inactive)
REMARK    1  A    between atoms: C_5  and  C_3 
REMARK    2  A    between atoms: O_11  and  C_4 
REMARK    3  A    between atoms: C_7  and  C_5 
REMARK    4  A    between atoms: C_10  and  C_7 
ROOT
ATOM      1  C   UNL d   1       1.630  -2.321   0.020  0.00  0.00     0.148 C 
ENDROOT
BRANCH   1   2
ATOM      2  C   UNL d   1       1.113  -2.986  -1.214  0.00  0.00     0.060 A 
ATOM      3  N   UNL d   1       0.459  -4.132  -1.197  0.00  0.00    -0.334 N 
ATOM      4  C   UNL d   1       0.106  -4.472  -2.474  0.00  0.00     0.147 A 
ATOM      5  HN  UNL d   1       0.250  -4.679  -0.362  1.00  0.00     0.168 HD
ATOM      6  C   UNL d   1       0.476  -3.600  -3.468  0.00  0.00     0.107 A 
ATOM      7  S   UNL d   1       1.302  -2.269  -2.770  0.00  0.00    -0.084 SA
BRANCH   4   8
ATOM      8  O   UNL d   1      -0.568  -5.597  -2.734  0.00  0.00    -0.346 OA
ATOM      9  H   UNL d   1      -0.727  -6.020  -1.872  0.00  0.00     0.219 HD
ENDBRANCH   4   8
ENDBRANCH   1   2
BRANCH   1  10
ATOM     10  C   UNL d   1       3.126  -2.110  -0.009  0.00  0.00     0.165 C 
ATOM     11  O   UNL d   1       3.592  -0.972   0.100  0.00  0.00    -0.292 OA
BRANCH  10  12
ATOM     12  C   UNL d   1       4.074  -3.268  -0.114  0.00  0.00     0.010 A 
ATOM     13  C   UNL d   1       3.655  -4.603  -0.134  0.00  0.00     0.015 A 
ATOM     14  C   UNL d   1       4.586  -5.633  -0.301  0.00  0.00     0.001 A 
ATOM     15  C   UNL d   1       5.943  -5.341  -0.416  0.00  0.00     0.000 A 
ATOM     16  C   UNL d   1       6.376  -4.019  -0.353  0.00  0.00     0.001 A 
ATOM     17  C   UNL d   1       5.446  -2.988  -0.205  0.00  0.00     0.015 A 
ENDBRANCH  10  12
ENDBRANCH   1  10
TORSDOF 4
