REMARK  7 active torsions:
REMARK  status: ('A' for Active; 'I' for Inactive)
REMARK    1  A    between atoms: C_2  and  C_1 
REMARK    2  A    between atoms: O_15  and  C_2 
REMARK    3  A    between atoms: N_7  and  C_3 
REMARK    4  A    between atoms: C_9  and  N_6 
REMARK    5  A    between atoms: C_14  and  N_7 
REMARK    6  A    between atoms: C_16  and  C_9 
REMARK    7  A    between atoms: C_17  and  O_15 
ROOT
ATOM      1  C   UNL d   1      -0.126   1.382   0.134  0.00  0.00     0.134 C 
ATOM      2  C   UNL d   1      -0.806   0.797   1.151  0.00  0.00     0.112 C 
ATOM      3  C   UNL d   1       0.472   0.596  -0.957  0.00  0.00     0.107 C 
ATOM      4  N   UNL d   1       0.934  -0.052  -1.802  0.00  0.00    -0.191 NA
ENDROOT
BRANCH   1   5
ATOM      5  C   UNL d   1      -0.088   2.887   0.150  0.00  0.00     0.305 C 
ATOM      6  O   UNL d   1      -0.623   3.602   0.987  0.00  0.00    -0.258 OA
BRANCH   5   7
ATOM      7  O   UNL d   1       0.546   3.323  -0.966  0.00  0.00    -0.317 OA
BRANCH   7   8
ATOM      8  C   UNL d   1       0.302   4.693  -1.312  0.00  0.00     0.174 C 
ATOM      9  C   UNL d   1      -0.948   4.732  -2.172  0.00  0.00     0.034 C 
ENDBRANCH   7   8
ENDBRANCH   5   7
ENDBRANCH   1   5
BRANCH   2  10
ATOM     10  N   UNL d   1      -1.041  -0.554   1.319  0.00  0.00    -0.393 N 
ATOM     11  H   UNL d   1      -0.603  -1.179   0.642  0.00  0.00     0.159 HD
BRANCH  10  12
ATOM     12  C   UNL d   1      -1.866  -1.197   2.345  0.00  0.00     0.084 C 
ATOM     13  C   UNL d   1      -1.884  -2.714   2.130  0.00  0.00     0.055 C 
ATOM     14  C   UNL d   1      -2.703  -3.109   0.899  0.00  0.00     0.275 C 
ATOM     15  N   UNL d   1      -4.076  -2.576   0.938  0.00  0.00     0.092 N 
ATOM     16  C   UNL d   1      -4.064  -1.111   1.088  0.00  0.00     0.275 C 
ATOM     17  C   UNL d   1      -3.301  -0.673   2.338  0.00  0.00     0.055 C 
BRANCH  15  18
ATOM     18  C   UNL d   1      -4.780  -2.982  -0.299  0.00  0.00     0.311 C 
BRANCH  18  19
ATOM     19  C   UNL d   1      -6.230  -2.549  -0.370  0.00  0.00    -0.030 A 
ATOM     20  C   UNL d   1      -6.662  -1.681  -1.385  0.00  0.00     0.009 A 
ATOM     21  C   UNL d   1      -7.995  -1.273  -1.450  0.00  0.00     0.001 A 
ATOM     22  C   UNL d   1      -8.910  -1.730  -0.504  0.00  0.00     0.000 A 
ATOM     23  C   UNL d   1      -8.495  -2.597   0.506  0.00  0.00     0.001 A 
ATOM     24  C   UNL d   1      -7.162  -3.006   0.573  0.00  0.00     0.009 A 
ENDBRANCH  18  19
ENDBRANCH  15  18
ENDBRANCH  10  12
ENDBRANCH   2  10
TORSDOF 7
