REMARK  5 active torsions:
REMARK  status: ('A' for Active; 'I' for Inactive)
REMARK    1  A    between atoms: C_11  and  C_4 
REMARK    2  A    between atoms: C_7  and  C_12 
REMARK    3  A    between atoms: O_10  and  C_7 
REMARK    4  A    between atoms: O_9  and  C_11 
REMARK    5  A    between atoms: C_12  and  O_9 
ROOT
ATOM      1  N   UNL d   1      -1.558   1.130   0.023  0.00  0.00    -0.342 N 
ATOM      2  HN  UNL d   1      -1.877   2.099   0.017  1.00  0.00     0.167 HD
ATOM      3  N   UNL d   1      -1.529  -1.089   0.049  0.00  0.00    -0.342 N 
ATOM      4  C   UNL d   1      -2.310   0.045   0.033  0.00  0.00     0.106 A 
ATOM      5  C   UNL d   1      -0.262   0.685   0.022  0.00  0.00     0.060 A 
ATOM      6  C   UNL d   1      -0.213  -0.705   0.030  0.00  0.00     0.060 A 
ATOM      7  C   UNL d   1       0.937   1.414   0.007  0.00  0.00     0.032 A 
ATOM      8  C   UNL d   1       0.980  -1.430   0.018  0.00  0.00     0.032 A 
ATOM      9  C   UNL d   1       2.167  -0.686  -0.001  0.00  0.00     0.002 A 
ATOM     10  C   UNL d   1       2.148   0.711  -0.004  0.00  0.00     0.002 A 
ATOM     11  H   UNL d   1      -1.867  -2.036   0.055  0.00  0.00     0.167 HD
ENDROOT
BRANCH   4  12
ATOM     12  C   UNL d   1      -3.791  -0.015  -0.014  0.00  0.00     0.244 C 
BRANCH  12  13
ATOM     13  O   UNL d   1      -4.256  -0.230   1.327  0.00  0.00    -0.373 OA
BRANCH  13  14
ATOM     14  C   UNL d   1      -5.676  -0.096   1.398  0.00  0.00     0.277 C 
BRANCH  14  15
ATOM     15  C   UNL d   1      -6.343  -1.338   0.833  0.00  0.00     0.164 C 
ATOM     16  O   UNL d   1      -7.223  -1.335  -0.012  0.00  0.00    -0.648 OA
BRANCH  15  17
ATOM     17  O   UNL d   1      -5.814  -2.476   1.351  0.00  0.00    -0.775 OA
ATOM     18  H   UNL d   1      -5.093  -2.263   1.982  0.00  0.00     0.167 HD
ENDBRANCH  15  17
ENDBRANCH  14  15
ENDBRANCH  13  14
ENDBRANCH  12  13
ENDBRANCH   4  12
TORSDOF 5
