REMARK  9 active torsions:
REMARK  status: ('A' for Active; 'I' for Inactive)
REMARK    1  A    between atoms: S_2  and  C_1 
REMARK    2  A    between atoms: N_8  and  S_2 
REMARK    3  A    between atoms: C_9  and  C_3 
REMARK    4  A    between atoms: C_13  and  N_4 
REMARK    5  A    between atoms: C_14  and  C_5 
REMARK    6  A    between atoms: C_7  and  C_12 
REMARK    7  A    between atoms: C_15  and  N_8 
REMARK    8  A    between atoms: O_22  and  C_9 
REMARK    9  A    between atoms: C_30  and  O_22 
ROOT
ATOM      1  C   UNL d   1      -0.271  -1.224  -0.060  0.00  0.00     0.121 A 
ATOM      2  C   UNL d   1       1.068  -0.717  -0.078  0.00  0.00     0.087 A 
ATOM      3  N   UNL d   1      -0.377   1.037  -0.033  0.00  0.00    -0.312 N 
ATOM      4  C   UNL d   1      -1.168  -0.141  -0.016  0.00  0.00     0.074 A 
ATOM      5  C   UNL d   1       0.969   0.669  -0.034  0.00  0.00     0.031 A 
ATOM      6  C   UNL d   1       2.105   1.644   0.087  0.00  0.00     0.070 C 
ENDROOT
BRANCH   1   7
ATOM      7  S   UNL d   1      -0.645  -2.930  -0.158  0.00  0.00     0.249 S 
ATOM      8  O   UNL d   1       0.504  -3.522  -0.818  0.00  0.00    -0.205 OA
ATOM      9  O   UNL d   1      -1.041  -3.301   1.184  0.00  0.00    -0.205 OA
BRANCH   7  10
ATOM     10  N   UNL d   1      -1.915  -3.187  -1.262  0.00  0.00    -0.181 NA
ATOM     11  H   UNL d   1      -1.587  -2.847  -2.166  0.00  0.00     0.146 HD
BRANCH  10  12
ATOM     12  C   UNL d   1      -2.324  -4.564  -1.348  0.00  0.00     0.023 A 
ATOM     13  C   UNL d   1      -1.578  -5.501  -2.079  0.00  0.00     0.040 A 
ATOM     14  C   UNL d   1      -1.975  -6.849  -2.122  0.00  0.00     0.049 A 
ATOM     15  C   UNL d   1      -3.122  -7.241  -1.415  0.00  0.00     0.016 A 
ATOM     16  C   UNL d   1      -3.853  -6.309  -0.676  0.00  0.00     0.003 A 
ATOM     17  C   UNL d   1      -3.447  -4.971  -0.632  0.00  0.00     0.024 A 
BRANCH  14  18
ATOM     18  C   UNL d   1      -1.198  -7.880  -2.908  0.00  0.00     0.417 C 
ATOM     19  F   UNL d   1      -0.106  -7.375  -3.546  0.00  0.00    -0.166 F 
ATOM     20  F   UNL d   1      -0.739  -8.898  -2.130  0.00  0.00    -0.166 F 
ATOM     21  F   UNL d   1      -1.955  -8.466  -3.878  0.00  0.00    -0.166 F 
ENDBRANCH  14  18
ENDBRANCH  10  12
ENDBRANCH   7  10
ENDBRANCH   1   7
BRANCH   2  22
ATOM     22  C   UNL d   1       2.350  -1.424  -0.197  0.00  0.00     0.296 C 
ATOM     23  O   UNL d   1       3.244  -1.012  -0.928  0.00  0.00    -0.259 OA
BRANCH  22  24
ATOM     24  O   UNL d   1       2.446  -2.543   0.573  0.00  0.00    -0.318 OA
BRANCH  24  25
ATOM     25  C   UNL d   1       3.470  -3.472   0.172  0.00  0.00     0.174 C 
ATOM     26  C   UNL d   1       4.450  -3.704   1.301  0.00  0.00     0.034 C 
ENDBRANCH  24  25
ENDBRANCH  22  24
ENDBRANCH   2  22
BRANCH   4  27
ATOM     27  C   UNL d   1      -2.657  -0.154  -0.046  0.00  0.00    -0.007 A 
ATOM     28  C   UNL d   1      -3.389   0.712  -0.879  0.00  0.00     0.014 A 
ATOM     29  C   UNL d   1      -4.784   0.797  -0.799  0.00  0.00     0.001 A 
ATOM     30  C   UNL d   1      -5.486  -0.055   0.045  0.00  0.00     0.000 A 
ATOM     31  C   UNL d   1      -4.790  -0.975   0.821  0.00  0.00     0.001 A 
ATOM     32  C   UNL d   1      -3.389  -1.003   0.797  0.00  0.00     0.014 A 
ENDBRANCH   4  27
BRANCH   3  33
ATOM     33  C   UNL d   1      -0.836   2.402  -0.063  0.00  0.00     0.040 A 
ATOM     34  C   UNL d   1      -1.911   2.824   0.728  0.00  0.00     0.030 A 
ATOM     35  C   UNL d   1      -2.408   4.128   0.606  0.00  0.00     0.002 A 
ATOM     36  C   UNL d   1      -1.807   5.034  -0.265  0.00  0.00     0.000 A 
ATOM     37  C   UNL d   1      -0.710   4.638  -1.025  0.00  0.00     0.002 A 
ATOM     38  C   UNL d   1      -0.236   3.325  -0.938  0.00  0.00     0.030 A 
ENDBRANCH   3  33
TORSDOF 9
