REMARK  4 active torsions:
REMARK  status: ('A' for Active; 'I' for Inactive)
REMARK       I    between atoms: N_2  and  C_1 
REMARK    1  A    between atoms: C_3  and  C_1 
REMARK    2  A    between atoms: C_8  and  N_2 
REMARK    3  A    between atoms: C_4  and  C_8 
REMARK    4  A    between atoms: O_10  and  C_4 
ROOT
ATOM      1  C   UNL d   1       0.935   0.043  -0.010  0.00  0.00     0.252 C 
ATOM      2  N   UNL d   1       0.245   0.386  -1.147  0.00  0.00    -0.347 N 
ATOM      3  O   UNL d   1       2.113   0.334   0.165  0.00  0.00    -0.268 OA
ATOM      4  H   UNL d   1      -0.763   0.278  -1.208  0.00  0.00     0.163 HD
ENDROOT
BRANCH   1   5
ATOM      5  C   UNL d   1       0.175  -0.690   1.035  0.00  0.00     0.033 A 
ATOM      6  C   UNL d   1       0.553  -0.523   2.372  0.00  0.00     0.041 A 
ATOM      7  C   UNL d   1      -0.123  -1.219   3.372  0.00  0.00     0.035 A 
ATOM      8 CL   UNL d   1       0.330  -1.008   5.018  0.00  0.00    -0.084 Cl
ATOM      9  C   UNL d   1      -1.165  -2.089   3.049  0.00  0.00     0.024 A 
ATOM     10  C   UNL d   1      -1.537  -2.265   1.716  0.00  0.00     0.003 A 
ATOM     11  C   UNL d   1      -0.869  -1.566   0.707  0.00  0.00     0.017 A 
ENDBRANCH   1   5
BRANCH   2  12
ATOM     12  C   UNL d   1       0.899   1.112  -2.218  0.00  0.00     0.232 C 
BRANCH  12  13
ATOM     13  C   UNL d   1      -0.076   1.383  -3.353  0.00  0.00     0.158 C 
ATOM     14  O   UNL d   1      -1.252   1.043  -3.342  0.00  0.00    -0.649 OA
BRANCH  13  15
ATOM     15  O   UNL d   1       0.479   2.051  -4.391  0.00  0.00    -0.775 OA
ATOM     16  H   UNL d   1       1.424   2.267  -4.268  0.00  0.00     0.167 HD
ENDBRANCH  13  15
ENDBRANCH  12  13
ENDBRANCH   2  12
TORSDOF 4
