REMARK  3 active torsions:
REMARK  status: ('A' for Active; 'I' for Inactive)
REMARK    1  A    between atoms: O_12  and  C_3 
REMARK    2  A    between atoms: C_10  and  C_4 
REMARK    3  A    between atoms: N_9  and  C_10 
ROOT
ATOM      1  N   UNL d   1       1.780   0.464   1.179  0.00  0.00    -0.325 N 
ATOM      2  HN  UNL d   1       2.208   0.918   1.986  1.00  0.00     0.169 HD
ATOM      3  C   UNL d   1       0.643  -0.235   1.266  0.00  0.00     0.154 A 
ATOM      4  C   UNL d   1       2.319   0.522  -0.053  0.00  0.00     0.112 A 
ATOM      5  C   UNL d   1       0.001  -0.879   0.218  0.00  0.00     0.042 A 
ATOM      6  N   UNL d   1       1.791  -0.064  -1.151  0.00  0.00    -0.344 N 
ATOM      7  HN  UNL d   1       2.249   0.013  -2.060  1.00  0.00     0.167 HD
ATOM      8  C   UNL d   1       0.646  -0.748  -1.011  0.00  0.00     0.048 A 
ATOM      9  C   UNL d   1      -1.201  -1.614   0.331  0.00  0.00     0.018 A 
ATOM     10  C   UNL d   1       0.061  -1.351  -2.120  0.00  0.00     0.030 A 
ATOM     11  C   UNL d   1      -1.762  -2.215  -0.792  0.00  0.00     0.001 A 
ATOM     12  C   UNL d   1      -1.129  -2.080  -2.023  0.00  0.00     0.002 A 
ENDROOT
BRANCH   4  13
ATOM     13  C   UNL d   1       3.600   1.320  -0.234  0.00  0.00     0.348 C 
BRANCH  13  14
ATOM     14  N   UNL d   1       4.897   0.636  -0.092  0.00  0.00     0.099 N 
ATOM     15  C   UNL d   1       5.143  -0.439  -1.066  0.00  0.00     0.299 C 
ATOM     16  C   UNL d   1       4.763  -1.859  -0.609  0.00  0.00     0.198 C 
ATOM     17  O   UNL d   1       5.290  -2.157   0.690  0.00  0.00    -0.388 OA
ATOM     18  C   UNL d   1       4.800  -1.211   1.646  0.00  0.00     0.198 C 
ATOM     19  C   UNL d   1       5.231   0.215   1.275  0.00  0.00     0.299 C 
ENDBRANCH  13  14
ENDBRANCH   4  13
BRANCH   3  20
ATOM     20  O   UNL d   1       0.128  -0.258   2.525  0.00  0.00    -0.345 OA
ATOM     21  H   UNL d   1       0.782   0.290   2.994  0.00  0.00     0.219 HD
ENDBRANCH   3  20
TORSDOF 3
