REMARK  10 active torsions:
REMARK  status: ('A' for Active; 'I' for Inactive)
REMARK    1  A    between atoms: N_10  and  C_1 
REMARK    2  A    between atoms: C_15  and  C_2 
REMARK    3  A    between atoms: C_7  and  C_13 
REMARK    4  A    between atoms: C_8  and  C_12 
REMARK       I    between atoms: C_9  and  N_10 
REMARK    5  A    between atoms: O_14  and  C_9 
REMARK    6  A    between atoms: N_11  and  O_14 
REMARK    7  A    between atoms: C_21  and  N_11 
REMARK    8  A    between atoms: C_22  and  N_11 
REMARK    9  A    between atoms: C_19  and  C_21 
REMARK   10  A    between atoms: C_20  and  C_22 
ROOT
ATOM      1  N   UNL d   1       2.493  -0.825   0.697  0.00  0.00    -0.178 NA
ENDROOT
BRANCH   1   2
ATOM      2  O   UNL d   1       2.887  -2.247   0.473  0.00  0.00    -0.206 OA
BRANCH   2   3
ATOM      3  C   UNL d   1       1.799  -3.110   0.289  0.00  0.00     0.382 C 
ATOM      4  N   UNL d   1       2.239  -4.412   0.213  0.00  0.00    -0.297 N 
ATOM      5  H   UNL d   1       3.236  -4.491   0.057  0.00  0.00     0.171 HD
ATOM      6  O   UNL d   1       0.624  -2.750   0.212  0.00  0.00    -0.237 OA
BRANCH   4   7
ATOM      7  C   UNL d   1       1.467  -5.537  -0.118  0.00  0.00     0.098 C 
ATOM      8  C   UNL d   1       0.142  -6.034   0.233  0.00  0.00     0.094 C 
ATOM      9  N   UNL d   1      -0.110  -7.148  -0.484  0.00  0.00    -0.258 N 
ATOM     10  O   UNL d   1       1.008  -7.449  -1.191  0.00  0.00    -0.240 OA
ATOM     11  HN  UNL d   1      -0.986  -7.672  -0.494  1.00  0.00     0.195 HD
ATOM     12  C   UNL d   1       1.967  -6.535  -0.941  0.00  0.00     0.101 C 
ATOM     13  C   UNL d   1       3.233  -6.807  -1.644  0.00  0.00     0.081 C 
BRANCH   8  14
ATOM     14  C   UNL d   1      -0.874  -5.661   1.236  0.00  0.00    -0.005 A 
ATOM     15  C   UNL d   1      -0.625  -4.763   2.275  0.00  0.00     0.014 A 
ATOM     16  C   UNL d   1      -1.621  -4.459   3.217  0.00  0.00     0.001 A 
ATOM     17  C   UNL d   1      -2.873  -5.069   3.153  0.00  0.00     0.000 A 
ATOM     18  C   UNL d   1      -3.129  -6.005   2.161  0.00  0.00     0.001 A 
ATOM     19  C   UNL d   1      -2.136  -6.302   1.222  0.00  0.00     0.014 A 
ENDBRANCH   8  14
ENDBRANCH   4   7
ENDBRANCH   2   3
ENDBRANCH   1   2
BRANCH   1  20
ATOM     20  C   UNL d   1       2.211  -0.772   2.152  0.00  0.00     0.160 C 
BRANCH  20  21
ATOM     21  C   UNL d   1       1.828   0.596   2.679  0.00  0.00    -0.042 A 
ATOM     22  C   UNL d   1       0.763   1.310   2.112  0.00  0.00     0.024 A 
ATOM     23  C   UNL d   1       0.376   2.560   2.624  0.00  0.00     0.048 A 
ATOM     24  C   UNL d   1       1.075   3.090   3.721  0.00  0.00     0.016 A 
ATOM     25  C   UNL d   1       2.134   2.385   4.292  0.00  0.00     0.001 A 
ATOM     26  C   UNL d   1       2.512   1.148   3.771  0.00  0.00     0.008 A 
BRANCH  23  27
ATOM     27  C   UNL d   1      -0.780   3.317   2.017  0.00  0.00     0.417 C 
ATOM     28  F   UNL d   1      -1.388   2.659   0.991  0.00  0.00    -0.166 F 
ATOM     29  F   UNL d   1      -1.762   3.580   2.923  0.00  0.00    -0.166 F 
ATOM     30  F   UNL d   1      -0.408   4.526   1.511  0.00  0.00    -0.166 F 
ENDBRANCH  23  27
ENDBRANCH  20  21
ENDBRANCH   1  20
BRANCH   1  31
ATOM     31  C   UNL d   1       3.687   0.016   0.423  0.00  0.00     0.160 C 
BRANCH  31  32
ATOM     32  C   UNL d   1       4.089   0.144  -1.031  0.00  0.00    -0.042 A 
ATOM     33  C   UNL d   1       5.399  -0.175  -1.427  0.00  0.00     0.024 A 
ATOM     34  C   UNL d   1       5.807  -0.050  -2.765  0.00  0.00     0.048 A 
ATOM     35  C   UNL d   1       4.886   0.420  -3.712  0.00  0.00     0.016 A 
ATOM     36  C   UNL d   1       3.602   0.799  -3.320  0.00  0.00     0.001 A 
ATOM     37  C   UNL d   1       3.210   0.674  -1.985  0.00  0.00     0.008 A 
BRANCH  34  38
ATOM     38  C   UNL d   1       7.204  -0.425  -3.192  0.00  0.00     0.417 C 
ATOM     39  F   UNL d   1       8.003  -0.812  -2.157  0.00  0.00    -0.166 F 
ATOM     40  F   UNL d   1       7.215  -1.462  -4.074  0.00  0.00    -0.166 F 
ATOM     41  F   UNL d   1       7.862   0.598  -3.806  0.00  0.00    -0.166 F 
ENDBRANCH  34  38
ENDBRANCH  31  32
ENDBRANCH   1  31
TORSDOF 10
