REMARK  3 active torsions:
REMARK  status: ('A' for Active; 'I' for Inactive)
REMARK    1  A    between atoms: S_9  and  C_3 
REMARK    2  A    between atoms: C_10  and  N_8 
REMARK    3  A    between atoms: C_13  and  C_10 
ROOT
ATOM      1  S   UNL d   1      -1.291   0.325   0.334  0.00  0.00    -0.027 SA
ATOM      2  C   UNL d   1       0.061   1.334   0.684  0.00  0.00     0.162 A 
ATOM      3  C   UNL d   1      -0.677  -0.781   1.488  0.00  0.00     0.129 A 
ATOM      4  N   UNL d   1       0.864   0.828   1.596  0.00  0.00    -0.279 N 
ATOM      5  HN  UNL d   1       1.712   1.292   1.921  1.00  0.00     0.189 HD
ATOM      6  N   UNL d   1       0.437  -0.396   2.067  0.00  0.00    -0.286 N 
ATOM      7  HN  UNL d   1       0.928  -0.937   2.779  1.00  0.00     0.188 HD
ATOM      8  N   UNL d   1       0.221   2.522   0.054  0.00  0.00    -0.365 N 
ATOM      9  H   UNL d   1      -0.366   2.720  -0.747  0.00  0.00     0.162 HD
ENDROOT
BRANCH   8  10
ATOM     10  C   UNL d   1       1.545   3.109   0.006  0.00  0.00     0.160 C 
BRANCH  10  11
ATOM     11  C   UNL d   1       1.438   4.615  -0.029  0.00  0.00    -0.039 A 
ATOM     12  C   UNL d   1       1.984   5.353  -1.090  0.00  0.00     0.032 A 
ATOM     13  C   UNL d   1       1.927   6.748  -1.075  0.00  0.00     0.034 A 
ATOM     14 CL   UNL d   1       2.613   7.642  -2.375  0.00  0.00    -0.084 Cl
ATOM     15  C   UNL d   1       1.328   7.423  -0.012  0.00  0.00     0.024 A 
ATOM     16  C   UNL d   1       0.779   6.698   1.044  0.00  0.00     0.002 A 
ATOM     17  C   UNL d   1       0.835   5.304   1.036  0.00  0.00     0.009 A 
ENDBRANCH  10  11
ENDBRANCH   8  10
BRANCH   3  18
ATOM     18  S   UNL d   1      -1.457  -2.302   1.858  0.00  0.00    -0.108 SA
ATOM     19  C   UNL d   1      -0.422  -2.881   3.223  0.00  0.00     0.097 C 
ENDBRANCH   3  18
TORSDOF 3
