REMARK  3 active torsions:
REMARK  status: ('A' for Active; 'I' for Inactive)
REMARK    1  A    between atoms: N_2  and  C_1 
REMARK    2  A    between atoms: C_11  and  C_1 
REMARK    3  A    between atoms: C_8  and  N_2 
ROOT
ATOM      1  N   UNL d   1       0.411  -1.207  -0.201  0.00  0.00    -0.346 N 
ATOM      2  H   UNL d   1      -0.589  -1.042  -0.269  0.00  0.00     0.167 HD
ENDROOT
BRANCH   1   3
ATOM      3  C   UNL d   1       1.225  -0.073  -0.188  0.00  0.00     0.111 C 
ATOM      4  S   UNL d   1       2.698   0.035   0.632  0.00  0.00    -0.059 SA
BRANCH   3   5
ATOM      5  C   UNL d   1       0.646   1.107  -0.921  0.00  0.00     0.002 A 
ATOM      6  C   UNL d   1       0.869   2.424  -0.489  0.00  0.00     0.014 A 
ATOM      7  C   UNL d   1       0.430   3.507  -1.254  0.00  0.00     0.001 A 
ATOM      8  C   UNL d   1      -0.246   3.288  -2.452  0.00  0.00     0.000 A 
ATOM      9  C   UNL d   1      -0.497   1.986  -2.881  0.00  0.00     0.001 A 
ATOM     10  C   UNL d   1      -0.053   0.898  -2.122  0.00  0.00     0.014 A 
ENDBRANCH   3   5
ENDBRANCH   1   3
BRANCH   1  11
ATOM     11  C   UNL d   1       0.794  -2.569  -0.114  0.00  0.00     0.035 A 
ATOM     12  C   UNL d   1      -0.157  -3.498   0.321  0.00  0.00     0.069 A 
ATOM     13  C   UNL d   1       0.205  -4.832   0.351  0.00  0.00     0.107 A 
ATOM     14  O   UNL d   1      -0.582  -5.864   0.762  0.00  0.00    -0.323 OA
ATOM     15  C   UNL d   1       1.448  -5.260  -0.054  0.00  0.00     0.105 A 
ATOM     16  C   UNL d   1       0.291  -6.988   0.520  0.00  0.00     0.352 A 
ATOM     17  O   UNL d   1       1.595  -6.607   0.037  0.00  0.00    -0.323 OA
ATOM     18  C   UNL d   1       2.399  -4.378  -0.509  0.00  0.00     0.042 A 
ATOM     19  C   UNL d   1       2.062  -3.020  -0.541  0.00  0.00     0.032 A 
ENDBRANCH   1  11
TORSDOF 3
