REMARK  8 active torsions:
REMARK  status: ('A' for Active; 'I' for Inactive)
REMARK    1  A    between atoms: N_6  and  C_1 
REMARK    2  A    between atoms: N_4  and  C_2 
REMARK    3  A    between atoms: N_5  and  C_3 
REMARK    4  A    between atoms: C_13  and  N_6 
REMARK    5  A    between atoms: C_7  and  C_8 
REMARK    6  A    between atoms: N_11  and  C_20 
REMARK    7  A    between atoms: C_15  and  C_14 
REMARK    8  A    between atoms: O_25  and  C_21 
ROOT
ATOM      1  N   UNL d   1       2.698  -0.555   0.401  0.00  0.00    -0.350 N 
ATOM      2  H   UNL d   1       1.686  -0.722   0.321  0.00  0.00     0.166 HD
ENDROOT
BRANCH   1   3
ATOM      3  C   UNL d   1       3.051   0.590   1.158  0.00  0.00     0.099 A 
ATOM      4  C   UNL d   1       4.379   1.072   1.246  0.00  0.00     0.132 A 
ATOM      5  C   UNL d   1       4.744   2.215   1.991  0.00  0.00     0.054 A 
ATOM      6  C   UNL d   1       3.776   2.956   2.668  0.00  0.00     0.052 A 
ATOM      7  C   UNL d   1       2.448   2.521   2.601  0.00  0.00     0.054 A 
ATOM      8  C   UNL d   1       2.088   1.355   1.876  0.00  0.00     0.132 A 
BRANCH   4   9
ATOM      9  N   UNL d   1       5.479   0.435   0.536  0.00  0.00    -0.113 N 
ATOM     10  O   UNL d   1       5.454   0.463  -0.702  0.00  0.00    -0.532 OA
ATOM     11  O   UNL d   1       6.409   0.007   1.231  0.00  0.00    -0.532 OA
ENDBRANCH   4   9
BRANCH   6  12
ATOM     12  C   UNL d   1       4.169   4.186   3.455  0.00  0.00     0.417 C 
ATOM     13  F   UNL d   1       3.115   4.807   4.046  0.00  0.00    -0.166 F 
ATOM     14  F   UNL d   1       5.046   3.896   4.452  0.00  0.00    -0.166 F 
ATOM     15  F   UNL d   1       4.774   5.122   2.676  0.00  0.00    -0.166 F 
ENDBRANCH   6  12
BRANCH   8  16
ATOM     16  N   UNL d   1       0.663   0.952   1.953  0.00  0.00    -0.113 N 
ATOM     17  O   UNL d   1       0.334  -0.118   1.427  0.00  0.00    -0.532 OA
ATOM     18  O   UNL d   1      -0.112   1.701   2.556  0.00  0.00    -0.532 OA
ENDBRANCH   8  16
ENDBRANCH   1   3
BRANCH   1  19
ATOM     19  C   UNL d   1       3.343  -1.825   0.310  0.00  0.00     0.059 A 
ATOM     20  C   UNL d   1       3.113  -2.662  -0.817  0.00  0.00     0.059 A 
ATOM     21  C   UNL d   1       3.732  -3.925  -0.841  0.00  0.00     0.032 A 
ATOM     22  C   UNL d   1       4.575  -4.345   0.191  0.00  0.00     0.002 A 
ATOM     23  C   UNL d   1       4.801  -3.518   1.282  0.00  0.00     0.002 A 
ATOM     24  C   UNL d   1       4.177  -2.276   1.348  0.00  0.00     0.032 A 
BRANCH  20  25
ATOM     25  N   UNL d   1       2.229  -2.233  -1.847  0.00  0.00    -0.363 N 
ATOM     26  C   UNL d   1       2.462  -2.595  -3.074  0.00  0.00     0.102 C 
ATOM     27  HN  UNL d   1       1.423  -1.649  -1.625  1.00  0.00     0.165 HD
BRANCH  26  28
ATOM     28  C   UNL d   1       1.585  -2.190  -4.199  0.00  0.00     0.012 A 
ATOM     29  C   UNL d   1       0.471  -1.364  -4.014  0.00  0.00     0.077 A 
ATOM     30  C   UNL d   1      -0.327  -1.004  -5.098  0.00  0.00     0.037 A 
ATOM     31  C   UNL d   1      -0.008  -1.457  -6.380  0.00  0.00     0.003 A 
ATOM     32  C   UNL d   1       1.106  -2.274  -6.575  0.00  0.00     0.001 A 
ATOM     33  C   UNL d   1       1.901  -2.646  -5.485  0.00  0.00     0.015 A 
BRANCH  29  34
ATOM     34  O   UNL d   1       0.119  -0.863  -2.791  0.00  0.00    -0.360 OA
ATOM     35  H   UNL d   1       0.784  -1.199  -2.148  0.00  0.00     0.217 HD
ENDBRANCH  29  34
ENDBRANCH  26  28
ENDBRANCH  20  25
ENDBRANCH   1  19
TORSDOF 8
