REMARK  6 active torsions:
REMARK  status: ('A' for Active; 'I' for Inactive)
REMARK    1  A    between atoms: N_10  and  C_1 
REMARK    2  A    between atoms: N_4  and  C_2 
REMARK    3  A    between atoms: N_5  and  C_3 
REMARK    4  A    between atoms: C_6  and  C_7 
REMARK    5  A    between atoms: N_14  and  N_10 
REMARK       I    between atoms: C_13  and  N_14 
REMARK    6  A    between atoms: C_19  and  C_13 
ROOT
ATOM      1  N   UNL d   1       5.173  -2.707  -4.035  0.00  0.00    -0.197 NA
ATOM      2  C   UNL d   1       5.018  -3.123  -2.962  0.00  0.00     0.068 C 
ATOM      3  C   UNL d   1       4.753  -3.619  -1.614  0.00  0.00     0.227 C 
ENDROOT
BRANCH   3   4
ATOM      4  C   UNL d   1       4.168  -2.536  -0.740  0.00  0.00     0.245 C 
ATOM      5  N   UNL d   1       3.050  -1.878  -1.252  0.00  0.00    -0.286 N 
ATOM      6  H   UNL d   1       2.930  -1.807  -2.264  0.00  0.00     0.184 HD
ATOM      7  O   UNL d   1       4.594  -2.300   0.392  0.00  0.00    -0.271 OA
BRANCH   5   8
ATOM      8  N   UNL d   1       2.649  -0.734  -0.531  0.00  0.00    -0.199 NA
ATOM      9  H   UNL d   1       3.102  -0.722   0.402  0.00  0.00     0.153 HD
BRANCH   8  10
ATOM     10  C   UNL d   1       1.251  -0.532  -0.430  0.00  0.00     0.093 A 
ATOM     11  C   UNL d   1       0.272  -1.532  -0.292  0.00  0.00     0.129 A 
ATOM     12  C   UNL d   1      -1.107  -1.252  -0.185  0.00  0.00     0.054 A 
ATOM     13  C   UNL d   1      -1.564   0.073  -0.185  0.00  0.00     0.052 A 
ATOM     14  C   UNL d   1      -0.616   1.099  -0.266  0.00  0.00     0.054 A 
ATOM     15  C   UNL d   1       0.754   0.787  -0.367  0.00  0.00     0.129 A 
BRANCH  11  16
ATOM     16  N   UNL d   1       0.639  -2.930  -0.243  0.00  0.00    -0.114 N 
ATOM     17  O   UNL d   1       1.099  -3.357   0.822  0.00  0.00    -0.532 OA
ATOM     18  O   UNL d   1       0.428  -3.597  -1.266  0.00  0.00    -0.532 OA
ENDBRANCH  11  16
BRANCH  13  19
ATOM     19  C   UNL d   1      -3.045   0.373  -0.098  0.00  0.00     0.417 C 
ATOM     20  F   UNL d   1      -3.324   1.703  -0.078  0.00  0.00    -0.166 F 
ATOM     21  F   UNL d   1      -3.732  -0.146  -1.149  0.00  0.00    -0.166 F 
ATOM     22  F   UNL d   1      -3.608  -0.152   1.023  0.00  0.00    -0.166 F 
ENDBRANCH  13  19
BRANCH  15  23
ATOM     23  N   UNL d   1       1.676   1.908  -0.452  0.00  0.00    -0.114 N 
ATOM     24  O   UNL d   1       2.514   2.019   0.452  0.00  0.00    -0.532 OA
ATOM     25  O   UNL d   1       1.510   2.695  -1.393  0.00  0.00    -0.532 OA
ENDBRANCH  15  23
ENDBRANCH   8  10
ENDBRANCH   5   8
ENDBRANCH   3   4
TORSDOF 6
