REMARK  6 active torsions:
REMARK  status: ('A' for Active; 'I' for Inactive)
REMARK    1  A    between atoms: N_7  and  C_1 
REMARK    2  A    between atoms: C_14  and  C_2 
REMARK       I    between atoms: C_8  and  N_7 
REMARK    3  A    between atoms: O_12  and  C_8 
REMARK    4  A    between atoms: N_9  and  O_12 
REMARK    5  A    between atoms: C_13  and  C_11 
REMARK    6  A    between atoms: N_18  and  C_11 
ROOT
ATOM      1  N   UNL d   1       0.466  -2.415   0.831  0.00  0.00    -0.297 N 
ATOM      2  C   UNL d   1       0.280  -1.071   0.589  0.00  0.00     0.387 C 
ATOM      3  O   UNL d   1       0.975  -0.338  -0.099  0.00  0.00    -0.236 OA
ATOM      4  H   UNL d   1      -0.386  -2.895   1.061  0.00  0.00     0.171 HD
ENDROOT
BRANCH   2   5
ATOM      5  O   UNL d   1      -0.842  -0.673   1.276  0.00  0.00    -0.179 OA
BRANCH   5   6
ATOM      6  N   UNL d   1      -1.769  -0.007   0.439  0.00  0.00    -0.244 N 
ATOM      7  C   UNL d   1      -2.631   0.649   1.172  0.00  0.00     0.109 C 
ATOM      8  HN  UNL d   1      -1.766  -0.035  -0.580  1.00  0.00     0.196 HD
BRANCH   7   9
ATOM      9  C   UNL d   1      -3.849   1.258   0.527  0.00  0.00     0.004 A 
ATOM     10  C   UNL d   1      -4.008   1.229  -0.867  0.00  0.00     0.016 A 
ATOM     11  C   UNL d   1      -5.192   1.699  -1.456  0.00  0.00     0.024 A 
ATOM     12  C   UNL d   1      -6.216   2.203  -0.655  0.00  0.00     0.034 A 
ATOM     13  C   UNL d   1      -6.066   2.255   0.727  0.00  0.00     0.024 A 
ATOM     14 CL   UNL d   1      -7.684   2.739  -1.373  0.00  0.00    -0.084 Cl
ATOM     15  C   UNL d   1      -4.888   1.781   1.316  0.00  0.00     0.016 A 
ENDBRANCH   7   9
BRANCH   7  16
ATOM     16  N   UNL d   1      -2.470   0.783   2.537  0.00  0.00    -0.286 NA
ATOM     17  H   UNL d   1      -1.526   0.539   2.820  0.00  0.00     0.125 HD
ATOM     18  H   UNL d   1      -2.731   1.686   2.916  0.00  0.00     0.125 HD
ENDBRANCH   7  16
ENDBRANCH   5   6
ENDBRANCH   2   5
BRANCH   1  19
ATOM     19  C   UNL d   1       1.552  -3.160   0.398  0.00  0.00     0.098 C 
ATOM     20  C   UNL d   1       2.954  -2.868   0.288  0.00  0.00     0.094 C 
ATOM     21  N   UNL d   1       3.590  -3.902  -0.295  0.00  0.00    -0.258 N 
ATOM     22  O   UNL d   1       2.681  -4.928  -0.366  0.00  0.00    -0.240 OA
ATOM     23  HN  UNL d   1       4.557  -3.919  -0.619  1.00  0.00     0.195 HD
ATOM     24  C   UNL d   1       1.489  -4.512   0.125  0.00  0.00     0.101 C 
ATOM     25  C   UNL d   1       0.467  -5.564   0.266  0.00  0.00     0.081 C 
BRANCH  20  26
ATOM     26  C   UNL d   1       3.756  -1.817   0.927  0.00  0.00    -0.005 A 
ATOM     27  C   UNL d   1       3.363  -1.292   2.169  0.00  0.00     0.014 A 
ATOM     28  C   UNL d   1       4.226  -0.481   2.910  0.00  0.00     0.001 A 
ATOM     29  C   UNL d   1       5.497  -0.189   2.422  0.00  0.00     0.000 A 
ATOM     30  C   UNL d   1       5.897  -0.687   1.184  0.00  0.00     0.001 A 
ATOM     31  C   UNL d   1       5.032  -1.493   0.439  0.00  0.00     0.014 A 
ENDBRANCH  20  26
ENDBRANCH   1  19
TORSDOF 6
