REMARK  5 active torsions:
REMARK  status: ('A' for Active; 'I' for Inactive)
REMARK    1  A    between atoms: C_7  and  C_1 
REMARK    2  A    between atoms: C_8  and  C_7 
REMARK    3  A    between atoms: C_9  and  O_12 
REMARK    4  A    between atoms: C_10  and  C_9 
REMARK    5  A    between atoms: O_12  and  C_15 
ROOT
ATOM      1  C   UNL d   1      -1.779  -1.058  -0.026  0.00  0.00     0.029 C 
ATOM      2  C   UNL d   1      -1.985   0.416  -0.009  0.00  0.00     0.295 C 
ATOM      3  C   UNL d   1      -0.533  -1.583  -0.054  0.00  0.00    -0.036 C 
ATOM      4  O   UNL d   1      -0.929   1.193  -0.447  0.00  0.00    -0.274 OA
ATOM      5  C   UNL d   1       0.373   0.688  -0.353  0.00  0.00     0.093 A 
ATOM      6  C   UNL d   1       0.617  -0.659  -0.088  0.00  0.00     0.005 A 
ATOM      7  C   UNL d   1       1.395   1.628  -0.468  0.00  0.00     0.075 A 
ATOM      8  C   UNL d   1       1.952  -1.042   0.113  0.00  0.00     0.017 A 
ATOM      9  C   UNL d   1       2.708   1.225  -0.253  0.00  0.00     0.082 A 
ATOM     10  O   UNL d   1      -3.063   0.921   0.288  0.00  0.00    -0.259 OA
ATOM     11  C   UNL d   1       2.995  -0.102   0.051  0.00  0.00     0.038 A 
ATOM     12  C   UNL d   1      -0.247  -3.063  -0.037  0.00  0.00     0.050 C 
ENDROOT
BRANCH   1  13
ATOM     13  C   UNL d   1      -3.073  -1.841  -0.067  0.00  0.00     0.089 C 
BRANCH  13  14
ATOM     14  C   UNL d   1      -3.644  -2.384   1.228  0.00  0.00     0.007 A 
ATOM     15  C   UNL d   1      -4.835  -3.139   1.204  0.00  0.00     0.043 A 
ATOM     16 CL   UNL d   1      -5.694  -3.443  -0.270  0.00  0.00    -0.084 Cl
ATOM     17  C   UNL d   1      -5.378  -3.687   2.374  0.00  0.00     0.024 A 
ATOM     18  C   UNL d   1      -4.747  -3.489   3.599  0.00  0.00     0.005 A 
ATOM     19  C   UNL d   1      -3.582  -2.734   3.649  0.00  0.00     0.043 A 
ATOM     20  C   UNL d   1      -3.047  -2.188   2.480  0.00  0.00     0.124 A 
ATOM     21  F   UNL d   1      -1.923  -1.471   2.606  0.00  0.00    -0.205 F 
ENDBRANCH  13  14
ENDBRANCH   1  13
BRANCH   9  22
ATOM     22  O   UNL d   1       3.655   2.273  -0.240  0.00  0.00    -0.273 OA
BRANCH  22  23
ATOM     23  C   UNL d   1       5.035   2.127  -0.389  0.00  0.00     0.322 C 
ATOM     24  O   UNL d   1       5.611   1.093  -0.694  0.00  0.00    -0.257 OA
BRANCH  23  25
ATOM     25  C   UNL d   1       5.679   3.394  -0.117  0.00  0.00     0.150 A 
ATOM     26  O   UNL d   1       4.926   4.486   0.234  0.00  0.00    -0.317 OA
ATOM     27  C   UNL d   1       5.780   5.517   0.455  0.00  0.00     0.143 A 
ATOM     28  C   UNL d   1       7.078   5.117   0.249  0.00  0.00     0.027 A 
ATOM     29  C   UNL d   1       7.018   3.752  -0.123  0.00  0.00     0.045 A 
ENDBRANCH  23  25
ENDBRANCH  22  23
ENDBRANCH   9  22
TORSDOF 5
