REMARK  10 active torsions:
REMARK  status: ('A' for Active; 'I' for Inactive)
REMARK    1  A    between atoms: N_3  and  C_1 
REMARK    2  A    between atoms: S_18  and  C_1 
REMARK    3  A    between atoms: C_2  and  S_17 
REMARK    4  A    between atoms: N_4  and  C_2 
REMARK    5  A    between atoms: C_11  and  N_3 
REMARK    6  A    between atoms: C_12  and  N_4 
REMARK    7  A    between atoms: C_5  and  C_19 
REMARK    8  A    between atoms: C_20  and  C_6 
REMARK    9  A    between atoms: S_17  and  C_20 
REMARK   10  A    between atoms: C_19  and  S_18 
ROOT
ATOM      1  C   UNL d   1       3.678  -2.035   1.296  0.00  0.00    -0.042 A 
ATOM      2  C   UNL d   1       2.932  -4.810   1.389  0.00  0.00    -0.042 A 
ATOM      3  C   UNL d   1       3.636  -4.173   2.441  0.00  0.00     0.015 A 
ATOM      4  C   UNL d   1       2.985  -2.663   0.243  0.00  0.00     0.015 A 
ATOM      5  C   UNL d   1       2.622  -4.029   0.261  0.00  0.00    -0.054 A 
ATOM      6  C   UNL d   1       3.988  -2.807   2.428  0.00  0.00    -0.054 A 
ATOM      7  C   UNL d   1       4.710  -2.249   3.627  0.00  0.00     0.049 C 
ATOM      8  C   UNL d   1       1.925  -4.553  -0.965  0.00  0.00     0.049 C 
ENDROOT
BRANCH   1   9
ATOM      9  C   UNL d   1       3.941  -0.546   1.172  0.00  0.00     0.121 C 
BRANCH   9  10
ATOM     10  S   UNL d   1       5.617   0.024   1.468  0.00  0.00    -0.090 SA
BRANCH  10  11
ATOM     11  C   UNL d   1       6.565  -0.349   0.057  0.00  0.00     0.138 C 
ATOM     12  N   UNL d   1       7.467   0.531  -0.230  0.00  0.00    -0.380 N 
ATOM     13  H   UNL d   1       7.964   0.206  -1.064  0.00  0.00     0.158 HD
ATOM     14  HN  UNL d   1       7.651   1.393   0.283  1.00  0.00     0.158 HD
BRANCH  11  15
ATOM     15  N   UNL d   1       6.389  -1.509  -0.639  0.00  0.00    -0.336 N 
ATOM     16  H   UNL d   1       5.531  -2.026  -0.488  0.00  0.00     0.168 HD
BRANCH  15  17
ATOM     17  C   UNL d   1       7.445  -2.376  -1.034  0.00  0.00     0.056 A 
ATOM     18  C   UNL d   1       7.276  -3.266  -2.112  0.00  0.00     0.060 A 
ATOM     19 CL   UNL d   1       5.786  -3.320  -2.990  0.00  0.00    -0.082 Cl
ATOM     20  C   UNL d   1       8.315  -4.112  -2.521  0.00  0.00     0.026 A 
ATOM     21  C   UNL d   1       9.538  -4.091  -1.855  0.00  0.00     0.002 A 
ATOM     22  C   UNL d   1       9.728  -3.216  -0.788  0.00  0.00     0.002 A 
ATOM     23  C   UNL d   1       8.694  -2.361  -0.389  0.00  0.00     0.031 A 
ENDBRANCH  15  17
ENDBRANCH  11  15
ENDBRANCH  10  11
ENDBRANCH   9  10
ENDBRANCH   1   9
BRANCH   2  24
ATOM     24  C   UNL d   1       2.734  -6.316   1.547  0.00  0.00     0.121 C 
BRANCH  24  25
ATOM     25  S   UNL d   1       1.270  -7.123   0.830  0.00  0.00    -0.090 SA
BRANCH  25  26
ATOM     26  C   UNL d   1       1.532  -8.775   1.323  0.00  0.00     0.138 C 
ATOM     27  N   UNL d   1       2.688  -9.314   1.108  0.00  0.00    -0.380 N 
ATOM     28  H   UNL d   1       3.264  -8.665   0.576  0.00  0.00     0.158 HD
ATOM     29  HN  UNL d   1       2.977 -10.241   1.422  1.00  0.00     0.158 HD
BRANCH  26  30
ATOM     30  N   UNL d   1       0.462  -9.402   1.881  0.00  0.00    -0.336 N 
ATOM     31  H   UNL d   1      -0.461  -9.142   1.546  0.00  0.00     0.168 HD
BRANCH  30  32
ATOM     32  C   UNL d   1       0.490 -10.407   2.870  0.00  0.00     0.056 A 
ATOM     33  C   UNL d   1      -0.554 -11.345   2.984  0.00  0.00     0.060 A 
ATOM     34 CL   UNL d   1      -1.884 -11.339   1.876  0.00  0.00    -0.082 Cl
ATOM     35  C   UNL d   1      -0.544 -12.317   3.996  0.00  0.00     0.026 A 
ATOM     36  C   UNL d   1       0.516 -12.372   4.899  0.00  0.00     0.002 A 
ATOM     37  C   UNL d   1       1.578 -11.484   4.769  0.00  0.00     0.002 A 
ATOM     38  C   UNL d   1       1.569 -10.525   3.750  0.00  0.00     0.031 A 
ENDBRANCH  30  32
ENDBRANCH  26  30
ENDBRANCH  25  26
ENDBRANCH  24  25
ENDBRANCH   2  24
TORSDOF 10
