REMARK  3 active torsions:
REMARK  status: ('A' for Active; 'I' for Inactive)
REMARK    1  A    between atoms: C_10  and  N_1 
REMARK    2  A    between atoms: N_11  and  N_7 
REMARK    3  A    between atoms: C_12  and  N_11 
ROOT
ATOM      1  N   UNL d   1      -0.676  -1.349   0.020  0.00  0.00    -0.218 N 
ATOM      2  C   UNL d   1      -1.200  -0.064  -0.066  0.00  0.00     0.297 A 
ATOM      3  C   UNL d   1       0.036   0.780  -0.013  0.00  0.00     0.142 A 
ATOM      4  N   UNL d   1       0.728  -1.402   0.103  0.00  0.00    -0.293 N 
ATOM      5  HN  UNL d   1       1.297  -2.245   0.180  1.00  0.00     0.187 HD
ATOM      6  C   UNL d   1       1.166  -0.178   0.062  0.00  0.00     0.056 A 
ATOM      7  N   UNL d   1       0.167   2.068  -0.007  0.00  0.00    -0.293 N 
ATOM      8  HN  UNL d   1       1.081   2.520   0.030  1.00  0.00     0.187 HD
ATOM      9  O   UNL d   1      -2.321   0.393  -0.145  0.00  0.00    -0.264 OA
ATOM     10  C   UNL d   1       2.578   0.268   0.074  0.00  0.00     0.072 C 
ENDROOT
BRANCH   7  11
ATOM     11  N   UNL d   1      -0.989   2.779  -0.051  0.00  0.00    -0.300 N 
ATOM     12  H   UNL d   1      -1.907   2.327   0.026  0.00  0.00     0.187 HD
BRANCH  11  13
ATOM     13  C   UNL d   1      -0.968   4.181  -0.004  0.00  0.00     0.048 A 
ATOM     14  C   UNL d   1       0.225   4.915  -0.067  0.00  0.00     0.034 A 
ATOM     15  C   UNL d   1       0.209   6.312  -0.052  0.00  0.00     0.044 A 
ATOM     16  C   UNL d   1      -1.004   6.981   0.030  0.00  0.00     0.116 A 
ATOM     17  C   UNL d   1      -2.201   6.280   0.098  0.00  0.00     0.044 A 
ATOM     18  F   UNL d   1      -1.022   8.320   0.039  0.00  0.00    -0.206 F 
ATOM     19  C   UNL d   1      -2.181   4.883   0.078  0.00  0.00     0.034 A 
ENDBRANCH  11  13
ENDBRANCH   7  11
BRANCH   1  20
ATOM     20  C   UNL d   1      -1.394  -2.568  -0.024  0.00  0.00     0.060 A 
ATOM     21  C   UNL d   1      -2.757  -2.605  -0.348  0.00  0.00     0.031 A 
ATOM     22  C   UNL d   1      -3.445  -3.821  -0.420  0.00  0.00     0.002 A 
ATOM     23  C   UNL d   1      -2.785  -5.016  -0.149  0.00  0.00     0.000 A 
ATOM     24  C   UNL d   1      -1.435  -4.997   0.191  0.00  0.00     0.002 A 
ATOM     25  C   UNL d   1      -0.744  -3.782   0.246  0.00  0.00     0.031 A 
ENDBRANCH   1  20
TORSDOF 3
