REMARK  4 active torsions:
REMARK  status: ('A' for Active; 'I' for Inactive)
REMARK    1  A    between atoms: C_6  and  C_1 
REMARK    2  A    between atoms: C_5  and  C_2 
REMARK       I    between atoms: N_14  and  C_5 
REMARK    3  A    between atoms: N_16  and  C_7 
REMARK    4  A    between atoms: C_21  and  N_14 
REMARK       I    between atoms: C_17  and  N_16 
ROOT
ATOM      1  C   UNL d   1       0.175  -2.351   0.485  0.00  0.00     0.261 C 
ATOM      2  N   UNL d   1      -0.000  -3.648   0.047  0.00  0.00    -0.323 N 
ATOM      3  O   UNL d   1      -0.711  -1.516   0.576  0.00  0.00    -0.267 OA
ATOM      4  H   UNL d   1       0.727  -4.311   0.280  0.00  0.00     0.169 HD
ENDROOT
BRANCH   2   5
ATOM      5  C   UNL d   1      -0.806  -4.016  -1.074  0.00  0.00     0.035 A 
ATOM      6  C   UNL d   1      -1.547  -3.102  -1.840  0.00  0.00     0.043 A 
ATOM      7  C   UNL d   1      -2.060  -3.474  -3.096  0.00  0.00     0.002 A 
ATOM      8  C   UNL d   1      -2.730  -2.526  -3.986  0.00  0.00     0.050 C 
ATOM      9  C   UNL d   1      -1.868  -4.775  -3.539  0.00  0.00     0.090 A 
ATOM     10  C   UNL d   1      -3.035  -2.865  -5.245  0.00  0.00     0.112 C 
ATOM     11  C   UNL d   1      -2.737  -4.245  -5.742  0.00  0.00     0.315 C 
ATOM     12  O   UNL d   1      -2.253  -5.171  -4.831  0.00  0.00    -0.273 OA
ATOM     13  O   UNL d   1      -2.950  -4.536  -6.918  0.00  0.00    -0.257 OA
ATOM     14  C   UNL d   1      -1.233  -5.727  -2.747  0.00  0.00     0.040 A 
ATOM     15  C   UNL d   1      -0.699  -5.344  -1.515  0.00  0.00     0.032 A 
BRANCH  10  16
ATOM     16  N   UNL d   1      -3.634  -2.039  -6.189  0.00  0.00    -0.322 N 
ATOM     17  C   UNL d   1      -4.026  -0.724  -6.063  0.00  0.00     0.218 C 
ATOM     18  O   UNL d   1      -3.870  -0.023  -5.069  0.00  0.00    -0.274 OA
ATOM     19  C   UNL d   1      -4.692  -0.171  -7.300  0.00  0.00     0.117 C 
ATOM     20  H   UNL d   1      -3.773  -2.490  -7.092  0.00  0.00     0.169 HD
ENDBRANCH  10  16
ENDBRANCH   2   5
BRANCH   1  21
ATOM     21  C   UNL d   1       1.577  -1.967   0.601  0.00  0.00     0.093 A 
ATOM     22  C   UNL d   1       2.620  -2.181   1.549  0.00  0.00     0.088 A 
ATOM     23  N   UNL d   1       3.761  -1.600   1.120  0.00  0.00    -0.259 N 
ATOM     24  O   UNL d   1       3.488  -1.013  -0.074  0.00  0.00    -0.241 OA
ATOM     25  HN  UNL d   1       4.660  -1.602   1.602  1.00  0.00     0.195 HD
ATOM     26  C   UNL d   1       2.199  -1.240  -0.397  0.00  0.00     0.090 A 
ATOM     27  C   UNL d   1       1.794  -0.689  -1.701  0.00  0.00     0.080 C 
BRANCH  22  28
ATOM     28  C   UNL d   1       2.777  -2.894   2.812  0.00  0.00     0.054 C 
ATOM     29  C   UNL d   1       3.031  -2.102   3.943  0.00  0.00     0.130 C 
ATOM     30  F   UNL d   1       2.509  -0.869   4.034  0.00  0.00    -0.205 F 
ATOM     31  C   UNL d   1       3.946  -2.503   4.917  0.00  0.00     0.043 C 
ATOM     32  C   UNL d   1       4.591  -3.731   4.792  0.00  0.00     0.005 C 
ATOM     33  C   UNL d   1       4.233  -4.598   3.758  0.00  0.00     0.025 C 
ATOM     34  C   UNL d   1       3.309  -4.194   2.786  0.00  0.00     0.049 C 
ATOM     35 CL   UNL d   1       2.934  -5.292   1.502  0.00  0.00    -0.083 Cl
ENDBRANCH  22  28
ENDBRANCH   1  21
TORSDOF 4
