REMARK  10 active torsions:
REMARK  status: ('A' for Active; 'I' for Inactive)
REMARK    1  A    between atoms: C_15  and  N_1 
REMARK    2  A    between atoms: C_10  and  C_2 
REMARK    3  A    between atoms: S_8  and  C_5 
REMARK    4  A    between atoms: C_16  and  S_8 
REMARK    5  A    between atoms: C_9  and  C_16 
REMARK       I    between atoms: N_14  and  C_9 
REMARK    6  A    between atoms: C_11  and  C_12 
REMARK    7  A    between atoms: N_21  and  N_14 
REMARK    8  A    between atoms: C_22  and  C_15 
REMARK    9  A    between atoms: C_27  and  C_22 
REMARK   10  A    between atoms: O_23  and  C_27 
ROOT
ATOM      1  N   UNL d   1      -0.221  -1.271   0.018  0.00  0.00    -0.311 N 
ATOM      2  C   UNL d   1       0.970  -0.580  -0.158  0.00  0.00     0.134 A 
ATOM      3  N   UNL d   1       0.697   0.715  -0.209  0.00  0.00    -0.283 N 
ATOM      4  HN  UNL d   1       1.387   1.462  -0.282  1.00  0.00     0.188 HD
ATOM      5  C   UNL d   1      -1.196  -0.294  -0.008  0.00  0.00     0.163 A 
ATOM      6  N   UNL d   1      -0.656   0.890  -0.147  0.00  0.00    -0.278 N 
ATOM      7  HN  UNL d   1      -1.153   1.779  -0.200  1.00  0.00     0.189 HD
ENDROOT
BRANCH   2   8
ATOM      8  C   UNL d   1       2.334  -1.109  -0.207  0.00  0.00     0.009 C 
ATOM      9  C   UNL d   1       2.686  -2.223  -0.965  0.00  0.00     0.016 C 
ATOM     10  C   UNL d   1       3.962  -2.790  -0.852  0.00  0.00     0.009 C 
ATOM     11  C   UNL d   1       4.960  -2.209  -0.049  0.00  0.00    -0.051 C 
ATOM     12  C   UNL d   1       4.635  -1.010   0.600  0.00  0.00     0.009 C 
ATOM     13  C   UNL d   1       3.342  -0.472   0.527  0.00  0.00     0.016 C 
BRANCH  11  14
ATOM     14  C   UNL d   1       6.329  -2.897   0.110  0.00  0.00    -0.024 C 
ATOM     15  C   UNL d   1       7.362  -2.048   0.886  0.00  0.00     0.019 C 
ATOM     16  C   UNL d   1       6.144  -4.219   0.887  0.00  0.00     0.019 C 
ATOM     17  C   UNL d   1       6.942  -3.209  -1.272  0.00  0.00     0.019 C 
ENDBRANCH  11  14
ENDBRANCH   2   8
BRANCH   1  18
ATOM     18  C   UNL d   1      -0.486  -2.699   0.053  0.00  0.00     0.135 C 
BRANCH  18  19
ATOM     19  C   UNL d   1       0.426  -3.663   0.820  0.00  0.00     0.046 C 
BRANCH  19  20
ATOM     20  C   UNL d   1       0.655  -3.314   2.278  0.00  0.00     0.168 C 
BRANCH  20  21
ATOM     21  O   UNL d   1      -0.581  -3.457   2.968  0.00  0.00    -0.396 OA
ATOM     22  C   UNL d   1      -0.411  -3.314   4.371  0.00  0.00     0.201 C 
ENDBRANCH  20  21
ENDBRANCH  19  20
ENDBRANCH  18  19
ENDBRANCH   1  18
BRANCH   5  23
ATOM     23  S   UNL d   1      -2.902  -0.582   0.050  0.00  0.00    -0.083 SA
BRANCH  23  24
ATOM     24  C   UNL d   1      -3.455   0.511  -1.292  0.00  0.00     0.186 C 
BRANCH  24  25
ATOM     25  C   UNL d   1      -2.980  -0.032  -2.626  0.00  0.00     0.241 C 
ATOM     26  O   UNL d   1      -3.459  -1.040  -3.152  0.00  0.00    -0.271 OA
ATOM     27  N   UNL d   1      -1.935   0.682  -3.199  0.00  0.00    -0.293 N 
ATOM     28  H   UNL d   1      -1.481   1.446  -2.693  0.00  0.00     0.183 HD
BRANCH  27  29
ATOM     29  N   UNL d   1      -1.400   0.256  -4.434  0.00  0.00    -0.247 NA
ATOM     30  H   UNL d   1      -2.049  -0.449  -4.814  0.00  0.00     0.143 HD
ATOM     31  H   UNL d   1      -0.542  -0.268  -4.243  0.00  0.00     0.143 HD
ENDBRANCH  27  29
ENDBRANCH  24  25
ENDBRANCH  23  24
ENDBRANCH   5  23
TORSDOF 10
