REMARK  6 active torsions:
REMARK  status: ('A' for Active; 'I' for Inactive)
REMARK    1  A    between atoms: C_22  and  C_2 
REMARK    2  A    between atoms: C_7  and  O_9 
REMARK    3  A    between atoms: C_11  and  C_7 
REMARK    4  A    between atoms: O_9  and  C_12 
REMARK    5  A    between atoms: C_13  and  C_14 
REMARK    6  A    between atoms: C_26  and  C_22 
ROOT
ATOM      1  C   UNL d   1       0.309   0.379   0.070  0.00  0.00     0.092 A 
ATOM      2  C   UNL d   1      -0.383  -1.987   0.023  0.00  0.00    -0.039 C 
ATOM      3  O   UNL d   1      -1.007   0.756   0.402  0.00  0.00    -0.275 OA
ATOM      4  C   UNL d   1      -1.940  -0.200   0.751  0.00  0.00     0.288 C 
ATOM      5  C   UNL d   1       0.671  -0.964  -0.080  0.00  0.00     0.004 A 
ATOM      6  C   UNL d   1      -1.598  -1.595   0.439  0.00  0.00     0.090 C 
ATOM      7  C   UNL d   1       1.225   1.428  -0.034  0.00  0.00     0.075 A 
ATOM      8  C   UNL d   1       2.025  -1.240  -0.310  0.00  0.00     0.017 A 
ATOM      9  C   UNL d   1       2.566   1.131  -0.225  0.00  0.00     0.082 A 
ATOM     10  O   UNL d   1      -3.026   0.085   1.243  0.00  0.00    -0.260 OA
ATOM     11  C   UNL d   1       2.969  -0.201  -0.369  0.00  0.00     0.038 A 
ENDROOT
BRANCH   9  12
ATOM     12  O   UNL d   1       3.603   2.100  -0.250  0.00  0.00    -0.275 OA
BRANCH  12  13
ATOM     13  C   UNL d   1       3.458   3.456   0.036  0.00  0.00     0.298 C 
ATOM     14  O   UNL d   1       2.419   4.052   0.285  0.00  0.00    -0.259 OA
BRANCH  13  15
ATOM     15  C   UNL d   1       4.777   4.144  -0.007  0.00  0.00     0.040 A 
ATOM     16  C   UNL d   1       4.815   5.533   0.163  0.00  0.00     0.018 A 
ATOM     17  C   UNL d   1       6.029   6.231   0.079  0.00  0.00     0.009 A 
ATOM     18  C   UNL d   1       7.240   5.562  -0.182  0.00  0.00    -0.051 A 
ATOM     19  C   UNL d   1       7.184   4.162  -0.299  0.00  0.00     0.009 A 
ATOM     20  C   UNL d   1       5.972   3.460  -0.215  0.00  0.00     0.018 A 
BRANCH  18  21
ATOM     21  C   UNL d   1       8.547   6.355  -0.375  0.00  0.00    -0.024 C 
ATOM     22  C   UNL d   1       9.768   5.456  -0.675  0.00  0.00     0.019 C 
ATOM     23  C   UNL d   1       8.387   7.320  -1.570  0.00  0.00     0.019 C 
ATOM     24  C   UNL d   1       8.884   7.177   0.886  0.00  0.00     0.019 C 
ENDBRANCH  18  21
ENDBRANCH  13  15
ENDBRANCH  12  13
ENDBRANCH   9  12
BRANCH   2  25
ATOM     25  C   UNL d   1      -0.148  -3.418  -0.399  0.00  0.00     0.039 C 
BRANCH  25  26
ATOM     26  C   UNL d   1       0.392  -4.314   0.718  0.00  0.00     0.000 C 
ATOM     27  C   UNL d   1       0.595  -5.739   0.221  0.00  0.00     0.005 C 
ENDBRANCH  25  26
ENDBRANCH   2  25
TORSDOF 6
