REMARK  3 active torsions:
REMARK  status: ('A' for Active; 'I' for Inactive)
REMARK    1  A    between atoms: C_4  and  N_1 
REMARK    2  A    between atoms: C_12  and  N_2 
REMARK    3  A    between atoms: C_14  and  C_12 
ROOT
ATOM      1  N   UNL d   1      -0.457  -1.380  -0.070  0.00  0.00    -0.224 N 
ATOM      2  N   UNL d   1       0.878   0.484  -0.062  0.00  0.00    -0.258 N 
ATOM      3  C   UNL d   1       0.845  -0.894  -0.264  0.00  0.00     0.343 C 
ATOM      4  C   UNL d   1      -0.330   1.089   0.123  0.00  0.00     0.311 C 
ATOM      5  S   UNL d   1      -1.560  -0.144   0.309  0.00  0.00     0.060 SA
ATOM      6  O   UNL d   1       1.835  -1.565  -0.539  0.00  0.00    -0.245 OA
ATOM      7  O   UNL d   1      -0.581   2.285   0.150  0.00  0.00    -0.258 OA
ENDROOT
BRANCH   1   8
ATOM      8  C   UNL d   1      -0.819  -2.723  -0.052  0.00  0.00     0.106 A 
ATOM      9  C   UNL d   1      -0.353  -3.749  -0.857  0.00  0.00     0.102 A 
ATOM     10  O   UNL d   1      -0.949  -4.916  -0.492  0.00  0.00    -0.240 OA
ATOM     11  C   UNL d   1       0.519  -3.870  -2.042  0.00  0.00     0.081 C 
ATOM     12  N   UNL d   1      -1.837  -4.691   0.533  0.00  0.00    -0.263 N 
ATOM     13  C   UNL d   1      -1.777  -3.380   0.787  0.00  0.00     0.059 A 
ATOM     14  HN  UNL d   1      -2.421  -5.383   1.003  1.00  0.00     0.194 HD
ATOM     15  C   UNL d   1      -2.599  -2.832   1.894  0.00  0.00     0.072 C 
ENDBRANCH   1   8
BRANCH   2  16
ATOM     16  C   UNL d   1       2.084   1.268  -0.219  0.00  0.00     0.142 C 
BRANCH  16  17
ATOM     17  C   UNL d   1       2.624   1.881   1.048  0.00  0.00     0.004 A 
ATOM     18  C   UNL d   1       3.018   1.029   2.230  0.00  0.00     0.007 A 
ATOM     19  C   UNL d   1       1.883   2.005   2.362  0.00  0.00     0.007 A 
ENDBRANCH  16  17
ENDBRANCH   2  16
TORSDOF 3
