REMARK  2 active torsions:
REMARK  status: ('A' for Active; 'I' for Inactive)
REMARK    1  A    between atoms: C_8  and  C_6 
REMARK    2  A    between atoms: C_9  and  C_10 
ROOT
ATOM      1  N   UNL d   1       2.608  -3.041   0.029  0.00  0.00    -0.305 N 
ATOM      2  HN  UNL d   1       3.153  -3.497  -0.702  1.00  0.00     0.186 HD
ATOM      3  C   UNL d   1       3.019  -2.671   1.208  0.00  0.00     0.043 C 
ATOM      4  N   UNL d   1       1.295  -2.685  -0.015  0.00  0.00    -0.322 N 
ATOM      5  C   UNL d   1       2.084  -1.746   1.928  0.00  0.00     0.067 C 
ATOM      6  C   UNL d   1       0.763  -2.263   1.305  0.00  0.00     0.144 C 
ATOM      7  C   UNL d   1       4.357  -2.853   1.745  0.00  0.00    -0.005 A 
ATOM      8  C   UNL d   1       5.307  -1.896   1.380  0.00  0.00    -0.046 A 
ATOM      9  C   UNL d   1       0.735  -1.994  -1.161  0.00  0.00     0.171 C 
ATOM     10  C   UNL d   1       2.432  -0.290   1.482  0.00  0.00     0.013 C 
ATOM     11  C   UNL d   1       4.625  -3.790   2.747  0.00  0.00     0.014 A 
ATOM     12  C   UNL d   1       3.911   0.163   1.332  0.00  0.00     0.005 C 
ATOM     13  C   UNL d   1       4.871  -0.735   0.524  0.00  0.00     0.039 C 
ATOM     14  C   UNL d   1       6.581  -1.954   1.953  0.00  0.00     0.008 A 
ATOM     15  C   UNL d   1       5.877  -3.796   3.362  0.00  0.00     0.001 A 
ATOM     16  C   UNL d   1       6.861  -2.897   2.946  0.00  0.00     0.001 A 
ENDROOT
BRANCH   6  17
ATOM     17  C   UNL d   1       0.080  -3.509   1.883  0.00  0.00    -0.033 C 
ATOM     18  C   UNL d   1       0.757  -4.458   2.651  0.00  0.00     0.010 C 
ATOM     19  C   UNL d   1       0.296  -5.778   2.731  0.00  0.00     0.008 C 
ATOM     20  C   UNL d   1      -0.886  -6.186   2.090  0.00  0.00    -0.051 C 
ATOM     21  C   UNL d   1      -1.653  -5.184   1.479  0.00  0.00     0.008 C 
ATOM     22  C   UNL d   1      -1.179  -3.869   1.376  0.00  0.00     0.010 C 
BRANCH  20  23
ATOM     23  C   UNL d   1      -1.228  -7.683   1.974  0.00  0.00    -0.024 C 
ATOM     24  C   UNL d   1      -2.614  -7.959   1.349  0.00  0.00     0.019 C 
ATOM     25  C   UNL d   1      -0.177  -8.360   1.062  0.00  0.00     0.019 C 
ATOM     26  C   UNL d   1      -1.203  -8.365   3.357  0.00  0.00     0.019 C 
ENDBRANCH  20  23
ENDBRANCH   6  17
TORSDOF 2
