REMARK  8 active torsions:
REMARK  status: ('A' for Active; 'I' for Inactive)
REMARK       I    between atoms: N_3  and  C_1 
REMARK    1  A    between atoms: O_5  and  C_1 
REMARK    2  A    between atoms: C_2  and  N_3 
REMARK    3  A    between atoms: C_4  and  C_2 
REMARK    4  A    between atoms: C_11  and  C_2 
REMARK       I    between atoms: N_10  and  C_4 
REMARK    5  A    between atoms: C_8  and  O_5 
REMARK    6  A    between atoms: S_9  and  C_11 
REMARK    7  A    between atoms: C_13  and  S_9 
REMARK    8  A    between atoms: C_12  and  C_13 
ROOT
ATOM      1  C   UNL d   1       1.096  -1.462   1.880  0.00  0.00     0.188 C 
ENDROOT
BRANCH   1   2
ATOM      2  N   UNL d   1       0.392  -0.694   0.854  0.00  0.00    -0.323 N 
ATOM      3  C   UNL d   1       0.643  -0.838  -0.475  0.00  0.00     0.362 C 
ATOM      4  O   UNL d   1       1.457  -1.617  -0.937  0.00  0.00    -0.238 OA
ATOM      5  H   UNL d   1      -0.318  -0.024   1.116  0.00  0.00     0.165 HD
BRANCH   3   6
ATOM      6  O   UNL d   1      -0.116   0.037  -1.175  0.00  0.00    -0.294 OA
BRANCH   6   7
ATOM      7  C   UNL d   1       0.006   0.109  -2.621  0.00  0.00     0.061 C 
ATOM      8  C   UNL d   1      -0.479  -1.186  -3.283  0.00  0.00     0.046 C 
ATOM      9  C   UNL d   1      -0.924   1.254  -3.050  0.00  0.00     0.046 C 
ATOM     10  C   UNL d   1       1.435   0.470  -3.049  0.00  0.00     0.046 C 
ENDBRANCH   6   7
ENDBRANCH   3   6
ENDBRANCH   1   2
BRANCH   1  11
ATOM     11  C   UNL d   1       1.839  -0.491   2.810  0.00  0.00     0.239 C 
ATOM     12  O   UNL d   1       1.889  -0.604   4.031  0.00  0.00    -0.271 OA
ATOM     13  N   UNL d   1       2.589   0.460   2.173  0.00  0.00    -0.368 N 
ATOM     14  H   UNL d   1       2.649   0.505   1.164  0.00  0.00     0.159 HD
ATOM     15  H   UNL d   1       3.170   1.071   2.731  0.00  0.00     0.159 HD
ENDBRANCH   1  11
BRANCH   1  16
ATOM     16  C   UNL d   1       0.175  -2.389   2.683  0.00  0.00     0.109 C 
BRANCH  16  17
ATOM     17  S   UNL d   1      -0.778  -3.583   1.667  0.00  0.00    -0.162 SA
BRANCH  17  18
ATOM     18  C   UNL d   1       0.596  -4.551   0.961  0.00  0.00     0.112 C 
BRANCH  18  19
ATOM     19  C   UNL d   1       0.094  -5.609   0.012  0.00  0.00    -0.049 A 
ATOM     20  C   UNL d   1      -0.095  -5.308  -1.346  0.00  0.00     0.008 A 
ATOM     21  C   UNL d   1      -0.563  -6.282  -2.228  0.00  0.00     0.001 A 
ATOM     22  C   UNL d   1      -0.848  -7.564  -1.763  0.00  0.00     0.000 A 
ATOM     23  C   UNL d   1      -0.672  -7.872  -0.415  0.00  0.00     0.001 A 
ATOM     24  C   UNL d   1      -0.206  -6.899   0.470  0.00  0.00     0.008 A 
ENDBRANCH  18  19
ENDBRANCH  17  18
ENDBRANCH  16  17
ENDBRANCH   1  16
TORSDOF 8
