REMARK  5 active torsions:
REMARK  status: ('A' for Active; 'I' for Inactive)
REMARK    1  A    between atoms: C_5  and  C_1 
REMARK    2  A    between atoms: C_7  and  C_3 
REMARK    3  A    between atoms: N_4  and  C_5 
REMARK    4  A    between atoms: O_13  and  C_6 
REMARK    5  A    between atoms: O_12  and  N_8 
ROOT
ATOM      1  C   UNL d   1       0.702  -5.027  -0.214  0.00  0.00     0.004 A 
ATOM      2  C   UNL d   1       0.043  -3.775  -0.283  0.00  0.00     0.025 A 
ATOM      3  C   UNL d   1      -1.340  -3.657  -0.136  0.00  0.00    -0.011 A 
ATOM      4  C   UNL d   1      -0.082  -6.183  -0.080  0.00  0.00     0.076 A 
ATOM      5  C   UNL d   1      -2.101  -4.815   0.018  0.00  0.00     0.016 A 
ATOM      6  C   UNL d   1      -1.476  -6.067   0.030  0.00  0.00     0.038 A 
ENDROOT
BRANCH   1   7
ATOM      7  C   UNL d   1       2.213  -5.007  -0.339  0.00  0.00     0.313 C 
BRANCH   7   8
ATOM      8  N   UNL d   1       2.854  -3.980   0.514  0.00  0.00     0.092 N 
ATOM      9  C   UNL d   1       4.318  -4.011   0.394  0.00  0.00     0.273 C 
ATOM     10  C   UNL d   1       4.825  -4.607   1.694  0.00  0.00     0.032 C 
ATOM     11  C   UNL d   1       3.833  -4.080   2.705  0.00  0.00     0.032 C 
ATOM     12  C   UNL d   1       2.519  -4.119   1.945  0.00  0.00     0.273 C 
ENDBRANCH   7   8
ENDBRANCH   1   7
BRANCH   4  13
ATOM     13  O   UNL d   1       0.356  -7.475  -0.193  0.00  0.00    -0.355 OA
ATOM     14  C   UNL d   1       1.377  -7.896   0.702  0.00  0.00     0.210 C 
ENDBRANCH   4  13
BRANCH   3  15
ATOM     15  C   UNL d   1      -2.018  -2.323  -0.157  0.00  0.00     0.038 C 
ATOM     16  N   UNL d   1      -3.264  -2.256  -0.529  0.00  0.00    -0.273 N 
ATOM     17  HN  UNL d   1      -3.822  -3.062  -0.811  1.00  0.00     0.193 HD
ATOM     18  C   UNL d   1      -1.233  -1.095   0.276  0.00  0.00     0.071 C 
BRANCH  16  19
ATOM     19  O   UNL d   1      -3.741  -0.943  -0.495  0.00  0.00    -0.290 OA
ATOM     20  H   UNL d   1      -4.651  -1.043  -0.816  0.00  0.00     0.244 HD
ENDBRANCH  16  19
ENDBRANCH   3  15
TORSDOF 5
