REMARK  2 active torsions:
REMARK  status: ('A' for Active; 'I' for Inactive)
REMARK    1  A    between atoms: C_9  and  C_2 
REMARK    2  A    between atoms: C_8  and  C_3 
ROOT
ATOM      1  N   UNL d   1      -1.157   0.026  -0.016  0.00  0.00    -0.324 N 
ATOM      2  C   UNL d   1      -0.336   1.122   0.003  0.00  0.00     0.148 A 
ATOM      3  C   UNL d   1      -0.356  -1.085  -0.008  0.00  0.00     0.133 A 
ATOM      4  N   UNL d   1       0.913   0.701   0.023  0.00  0.00    -0.282 N 
ATOM      5  HN  UNL d   1       1.744   1.292   0.039  1.00  0.00     0.188 HD
ATOM      6  N   UNL d   1       0.899  -0.675   0.019  0.00  0.00    -0.283 N 
ATOM      7  HN  UNL d   1       1.722  -1.277   0.034  1.00  0.00     0.188 HD
ATOM      8  H   UNL d   1      -2.164   0.074  -0.032  0.00  0.00     0.169 HD
ENDROOT
BRANCH   2   9
ATOM      9  C   UNL d   1      -0.836   2.487   0.002  0.00  0.00     0.078 A 
ATOM     10  N   UNL d   1      -2.191   2.603   0.003  0.00  0.00    -0.363 N 
ATOM     11  C   UNL d   1      -2.688   3.861   0.010  0.00  0.00     0.088 A 
ATOM     12  HN  UNL d   1      -2.800   1.785  -0.002  1.00  0.00     0.165 HD
ATOM     13  C   UNL d   1      -1.904   5.004   0.014  0.00  0.00     0.017 A 
ATOM     14  C   UNL d   1      -0.521   4.856   0.010  0.00  0.00     0.004 A 
ATOM     15  C   UNL d   1       0.026   3.577   0.003  0.00  0.00     0.033 A 
ENDBRANCH   2   9
BRANCH   3  16
ATOM     16  C   UNL d   1      -0.818  -2.469  -0.027  0.00  0.00     0.025 A 
ATOM     17  C   UNL d   1       0.105  -3.512   0.031  0.00  0.00     0.102 A 
ATOM     18  N   UNL d   1      -0.219  -4.831   0.012  0.00  0.00    -0.374 N 
ATOM     19  C   UNL d   1      -1.530  -5.131  -0.070  0.00  0.00     0.087 A 
ATOM     20  HN  UNL d   1       0.495  -5.558   0.058  1.00  0.00     0.164 HD
ATOM     21  C   UNL d   1      -2.530  -4.175  -0.132  0.00  0.00     0.018 A 
ATOM     22  C   UNL d   1      -2.167  -2.828  -0.109  0.00  0.00     0.018 A 
ENDBRANCH   3  16
TORSDOF 2
