REMARK  5 active torsions:
REMARK  status: ('A' for Active; 'I' for Inactive)
REMARK    1  A    between atoms: N_6  and  C_1 
REMARK    2  A    between atoms: N_7  and  C_1 
REMARK    3  A    between atoms: C_2  and  C_8 
REMARK    4  A    between atoms: C_8  and  N_6 
REMARK    5  A    between atoms: C_9  and  N_7 
ROOT
ATOM      1  C   UNL d   1       0.935  -0.193  -0.122  0.00  0.00     0.167 C 
ATOM      2  S   UNL d   1       0.256  -1.702   0.108  0.00  0.00    -0.041 SA
ENDROOT
BRANCH   1   3
ATOM      3  N   UNL d   1       0.248   1.002  -0.045  0.00  0.00    -0.367 N 
ATOM      4  H   UNL d   1       0.801   1.840   0.055  0.00  0.00     0.161 HD
BRANCH   3   5
ATOM      5  C   UNL d   1      -1.183   1.143   0.173  0.00  0.00     0.126 C 
BRANCH   5   6
ATOM      6  C   UNL d   1      -1.499   2.548   0.579  0.00  0.00     0.003 A 
ATOM      7  C   UNL d   1      -1.241   3.009   1.992  0.00  0.00     0.007 A 
ATOM      8  C   UNL d   1      -2.653   2.818   1.511  0.00  0.00     0.007 A 
ENDBRANCH   5   6
ENDBRANCH   3   5
ENDBRANCH   1   3
BRANCH   1   9
ATOM      9  N   UNL d   1       2.264   0.034  -0.423  0.00  0.00    -0.368 N 
ATOM     10  H   UNL d   1       2.511   0.960  -0.741  0.00  0.00     0.161 HD
BRANCH   9  11
ATOM     11  C   UNL d   1       3.315  -0.978  -0.437  0.00  0.00     0.117 C 
ATOM     12  C   UNL d   1       4.591  -0.457  -1.073  0.00  0.00     0.026 C 
ENDBRANCH   9  11
ENDBRANCH   1   9
TORSDOF 5
