REMARK  3 active torsions:
REMARK  status: ('A' for Active; 'I' for Inactive)
REMARK    1  A    between atoms: N_7  and  C_1 
REMARK    2  A    between atoms: N_12  and  C_5 
REMARK       I    between atoms: C_6  and  N_7 
REMARK    3  A    between atoms: C_10  and  C_6 
ROOT
ATOM      1  C   UNL d   1       1.030  -1.254  -0.141  0.00  0.00     0.050 C 
ATOM      2  C   UNL d   1      -0.267   0.768   0.115  0.00  0.00    -0.039 C 
ATOM      3  C   UNL d   1      -0.199  -0.632   0.092  0.00  0.00    -0.016 C 
ATOM      4  C   UNL d   1       2.165  -0.457  -0.461  0.00  0.00    -0.013 C 
ATOM      5  C   UNL d   1       2.118   0.963  -0.309  0.00  0.00     0.019 C 
ATOM      6  C   UNL d   1      -1.587  -1.239   0.195  0.00  0.00    -0.017 C 
ATOM      7  C   UNL d   1      -1.686   1.280   0.220  0.00  0.00    -0.019 C 
ATOM      8  C   UNL d   1       0.877   1.550  -0.019  0.00  0.00     0.032 C 
ATOM      9  C   UNL d   1      -2.479  -0.003  -0.128  0.00  0.00     0.027 C 
ATOM     10  C   UNL d   1      -1.895  -1.794   1.590  0.00  0.00     0.020 C 
ATOM     11  C   UNL d   1      -1.864  -2.328  -0.857  0.00  0.00     0.020 C 
ATOM     12  C   UNL d   1       3.419  -1.089  -1.011  0.00  0.00     0.052 C 
ATOM     13  C   UNL d   1      -2.010   1.813   1.618  0.00  0.00     0.020 C 
ATOM     14  C   UNL d   1      -1.978   2.374  -0.821  0.00  0.00     0.020 C 
ENDROOT
BRANCH   1  15
ATOM     15  N   UNL d   1       1.111  -2.669  -0.142  0.00  0.00    -0.322 N 
ATOM     16  C   UNL d   1       1.337  -3.365   1.046  0.00  0.00     0.257 C 
ATOM     17  O   UNL d   1       1.252  -2.859   2.157  0.00  0.00    -0.267 OA
ATOM     18  H   UNL d   1       1.583  -3.067  -0.949  0.00  0.00     0.169 HD
BRANCH  16  19
ATOM     19  C   UNL d   1       1.710  -4.824   0.950  0.00  0.00     0.054 A 
ATOM     20  C   UNL d   1       2.196  -5.498  -0.182  0.00  0.00     0.049 A 
ATOM     21 CL   UNL d   1       2.420  -4.771  -1.736  0.00  0.00    -0.083 Cl
ATOM     22  C   UNL d   1       2.555  -6.855  -0.105  0.00  0.00     0.025 A 
ATOM     23  C   UNL d   1       2.420  -7.567   1.084  0.00  0.00     0.002 A 
ATOM     24  C   UNL d   1       1.923  -6.926   2.208  0.00  0.00     0.001 A 
ATOM     25  C   UNL d   1       1.578  -5.570   2.148  0.00  0.00     0.019 A 
ENDBRANCH  16  19
ENDBRANCH   1  15
BRANCH   5  26
ATOM     26  N   UNL d   1       3.277   1.744  -0.460  0.00  0.00    -0.283 NA
ATOM     27  C   UNL d   1       3.405   3.015   0.280  0.00  0.00     0.096 C 
ATOM     28  C   UNL d   1       3.522   4.083  -0.802  0.00  0.00     0.016 C 
ATOM     29  C   UNL d   1       4.309   3.360  -1.877  0.00  0.00     0.016 C 
ATOM     30  C   UNL d   1       3.709   1.955  -1.854  0.00  0.00     0.096 C 
ENDBRANCH   5  26
TORSDOF 3
