REMARK  11 active torsions:
REMARK  status: ('A' for Active; 'I' for Inactive)
REMARK    1  A    between atoms: O_14  and  C_1 
REMARK    2  A    between atoms: C_2  and  C_3 
REMARK    3  A    between atoms: S_4  and  C_2 
REMARK    4  A    between atoms: C_5  and  C_2 
REMARK    5  A    between atoms: C_11  and  S_4 
REMARK    6  A    between atoms: C_10  and  C_5 
REMARK    7  A    between atoms: O_17  and  C_6 
REMARK    8  A    between atoms: O_16  and  C_7 
REMARK    9  A    between atoms: O_18  and  C_10 
REMARK   10  A    between atoms: N_15  and  C_12 
REMARK   11  A    between atoms: C_21  and  O_18 
ROOT
ATOM      1  C   UNL d   1      -2.739   0.556  -0.417  0.00  0.00     0.095 C 
ENDROOT
BRANCH   1   2
ATOM      2  C   UNL d   1      -1.319   0.063  -0.109  0.00  0.00    -0.038 A 
ATOM      3  C   UNL d   1      -0.280   0.055  -1.043  0.00  0.00     0.048 A 
ATOM      4  C   UNL d   1       0.957  -0.536  -0.775  0.00  0.00     0.104 A 
ATOM      5  C   UNL d   1       1.169  -1.193   0.439  0.00  0.00     0.135 A 
ATOM      6  C   UNL d   1       0.185  -1.109   1.442  0.00  0.00     0.104 A 
ATOM      7  C   UNL d   1      -1.042  -0.490   1.160  0.00  0.00     0.048 A 
BRANCH   4   8
ATOM      8  O   UNL d   1       1.883  -0.330  -1.761  0.00  0.00    -0.353 OA
ATOM      9  C   UNL d   1       2.555  -1.497  -2.212  0.00  0.00     0.210 C 
ENDBRANCH   4   8
BRANCH   5  10
ATOM     10  O   UNL d   1       2.367  -1.827   0.651  0.00  0.00    -0.351 OA
ATOM     11  C   UNL d   1       2.212  -3.218   0.950  0.00  0.00     0.210 C 
ENDBRANCH   5  10
BRANCH   6  12
ATOM     12  O   UNL d   1       0.483  -1.683   2.654  0.00  0.00    -0.353 OA
ATOM     13  C   UNL d   1      -0.224  -1.189   3.785  0.00  0.00     0.210 C 
ENDBRANCH   6  12
ENDBRANCH   1   2
BRANCH   1  14
ATOM     14  S   UNL d   1      -2.984   1.411  -2.057  0.00  0.00    -0.118 SA
BRANCH  14  15
ATOM     15  C   UNL d   1      -1.916   2.848  -1.931  0.00  0.00     0.022 C 
ATOM     16  C   UNL d   1      -2.097   3.869  -0.981  0.00  0.00     0.022 C 
ATOM     17  C   UNL d   1      -1.124   4.875  -0.885  0.00  0.00     0.024 C 
ATOM     18  C   UNL d   1      -0.067   4.946  -1.796  0.00  0.00     0.002 C 
ATOM     19  C   UNL d   1       0.040   4.001  -2.809  0.00  0.00     0.001 C 
ATOM     20  C   UNL d   1      -0.887   2.963  -2.880  0.00  0.00     0.020 C 
BRANCH  16  21
ATOM     21  N   UNL d   1      -3.112   3.808  -0.004  0.00  0.00    -0.302 NA
ATOM     22  H   UNL d   1      -3.921   3.290  -0.344  0.00  0.00     0.124 HD
ATOM     23  H   UNL d   1      -3.378   4.725   0.343  0.00  0.00     0.124 HD
ENDBRANCH  16  21
ENDBRANCH  14  15
ENDBRANCH   1  14
BRANCH   1  24
ATOM     24  C   UNL d   1      -3.657  -0.683  -0.390  0.00  0.00     0.131 C 
BRANCH  24  25
ATOM     25  C   UNL d   1      -5.117  -0.384  -0.589  0.00  0.00     0.260 C 
ATOM     26  O   UNL d   1      -5.686   0.640  -0.221  0.00  0.00    -0.265 OA
BRANCH  25  27
ATOM     27  O   UNL d   1      -5.715  -1.458  -1.174  0.00  0.00    -0.322 OA
BRANCH  27  28
ATOM     28  C   UNL d   1      -7.110  -1.329  -1.478  0.00  0.00     0.174 C 
ATOM     29  C   UNL d   1      -7.957  -1.634  -0.258  0.00  0.00     0.034 C 
ENDBRANCH  27  28
ENDBRANCH  25  27
ENDBRANCH  24  25
ENDBRANCH   1  24
TORSDOF 11
