REMARK  5 active torsions:
REMARK  status: ('A' for Active; 'I' for Inactive)
REMARK    1  A    between atoms: N_4  and  C_1 
REMARK       I    between atoms: C_5  and  N_4 
REMARK       I    between atoms: N_10  and  C_5 
REMARK    2  A    between atoms: O_20  and  C_8 
REMARK    3  A    between atoms: C_16  and  N_10 
REMARK    4  A    between atoms: C_23  and  C_15 
REMARK    5  A    between atoms: C_24  and  C_23 
ROOT
ATOM      1  N   UNL d   1       1.979  -2.686   0.067  0.00  0.00    -0.166 N 
ATOM      2  C   UNL d   1       1.410  -3.634   0.861  0.00  0.00     0.170 C 
ATOM      3  N   UNL d   1       2.151  -4.749   1.117  0.00  0.00    -0.230 NA
ATOM      4  N   UNL d   1       0.277  -3.549   1.492  0.00  0.00    -0.375 N 
ATOM      5  HN  UNL d   1      -0.107  -4.243   2.134  1.00  0.00     0.158 HD
ATOM      6  H   UNL d   1       2.987  -2.616   0.134  0.00  0.00     0.187 HD
ATOM      7  H   UNL d   1       1.704  -5.227   1.900  0.00  0.00     0.136 HD
ATOM      8  H   UNL d   1      -0.163  -2.657   1.228  0.00  0.00     0.158 HD
ENDROOT
BRANCH   1   9
ATOM      9  C   UNL d   1       1.424  -1.422  -0.119  0.00  0.00     0.686 A 
ATOM     10  N   UNL d   1       0.093  -1.320  -0.259  0.00  0.00    -0.170 N 
ATOM     11  C   UNL d   1      -0.390  -0.085  -0.363  0.00  0.00     0.157 A 
ATOM     12  HN  UNL d   1      -0.512  -2.141  -0.283  1.00  0.00     0.186 HD
ATOM     13  C   UNL d   1       0.349   1.059  -0.295  0.00  0.00     0.082 A 
ATOM     14  C   UNL d   1       1.703   0.875  -0.117  0.00  0.00     0.030 A 
ATOM     15  N   UNL d   1       2.253  -0.362  -0.070  0.00  0.00    -0.195 N 
ATOM     16  HN  UNL d   1       3.263  -0.486  -0.000  1.00  0.00     0.184 HD
BRANCH  11  17
ATOM     17  O   UNL d   1      -1.742  -0.022  -0.483  0.00  0.00    -0.346 OA
ATOM     18  H   UNL d   1      -1.975  -0.967  -0.456  0.00  0.00     0.219 HD
ENDBRANCH  11  17
BRANCH  14  19
ATOM     19  C   UNL d   1       2.549   2.091   0.205  0.00  0.00     0.057 C 
BRANCH  19  20
ATOM     20  C   UNL d   1       4.063   1.996   0.005  0.00  0.00     0.002 C 
ATOM     21  C   UNL d   1       4.788   1.131   1.027  0.00  0.00     0.005 C 
ENDBRANCH  19  20
ENDBRANCH  14  19
ENDBRANCH   1   9
BRANCH   3  22
ATOM     22  C   UNL d   1       2.510  -5.737   0.162  0.00  0.00     0.017 A 
ATOM     23  C   UNL d   1       3.084  -6.932   0.648  0.00  0.00     0.050 A 
ATOM     24  C   UNL d   1       3.469  -7.950  -0.223  0.00  0.00     0.074 A 
ATOM     25 CL   UNL d   1       4.133  -9.402   0.415  0.00  0.00    -0.081 Cl
ATOM     26  C   UNL d   1       3.305  -7.784  -1.596  0.00  0.00     0.138 A 
ATOM     27  C   UNL d   1       2.768  -6.602  -2.098  0.00  0.00     0.046 A 
ATOM     28  F   UNL d   1       3.662  -8.751  -2.453  0.00  0.00    -0.204 F 
ATOM     29  C   UNL d   1       2.379  -5.583  -1.225  0.00  0.00     0.027 A 
ENDBRANCH   3  22
TORSDOF 5
