REMARK  3 active torsions:
REMARK  status: ('A' for Active; 'I' for Inactive)
REMARK    1  A    between atoms: N_2  and  C_1 
REMARK    2  A    between atoms: N_5  and  C_3 
REMARK       I    between atoms: C_4  and  N_5 
REMARK    3  A    between atoms: C_7  and  C_4 
ROOT
ATOM      1  C   UNL d   1      -4.671   1.747   0.333  0.00  0.00     0.132 A 
ATOM      2  C   UNL d   1      -3.590   1.082  -0.279  0.00  0.00     0.068 A 
ATOM      3  C   UNL d   1      -5.182   2.948  -0.183  0.00  0.00     0.080 A 
ATOM      4  C   UNL d   1      -2.919   1.744  -1.319  0.00  0.00     0.035 A 
ATOM      5  C   UNL d   1      -4.548   3.529  -1.269  0.00  0.00     0.118 A 
ATOM      6  C   UNL d   1      -3.402   2.962  -1.814  0.00  0.00     0.044 A 
ATOM      7  F   UNL d   1      -5.020   4.676  -1.772  0.00  0.00    -0.206 F 
ENDROOT
BRANCH   2   8
ATOM      8  N   UNL d   1      -3.146  -0.237   0.016  0.00  0.00    -0.324 N 
ATOM      9  C   UNL d   1      -4.007  -1.260   0.396  0.00  0.00     0.229 C 
ATOM     10  O   UNL d   1      -5.223  -1.102   0.485  0.00  0.00    -0.272 OA
ATOM     11  H   UNL d   1      -2.252  -0.518  -0.367  0.00  0.00     0.169 HD
BRANCH   9  12
ATOM     12  C   UNL d   1      -3.360  -2.650   0.578  0.00  0.00     0.030 C 
ATOM     13  C   UNL d   1      -2.168  -2.573   1.545  0.00  0.00     0.025 C 
ATOM     14  C   UNL d   1      -4.402  -3.618   1.171  0.00  0.00     0.025 C 
ATOM     15  C   UNL d   1      -2.901  -3.200  -0.781  0.00  0.00     0.025 C 
ENDBRANCH   9  12
ENDBRANCH   2   8
BRANCH   1  16
ATOM     16  N   UNL d   1      -5.135   1.369   1.664  0.00  0.00    -0.113 N 
ATOM     17  O   UNL d   1      -4.270   1.120   2.513  0.00  0.00    -0.532 OA
ATOM     18  O   UNL d   1      -6.355   1.452   1.888  0.00  0.00    -0.532 OA
ENDBRANCH   1  16
TORSDOF 3
