REMARK  3 active torsions:
REMARK  status: ('A' for Active; 'I' for Inactive)
REMARK    1  A    between atoms: C_2  and  C_1 
REMARK       I    between atoms: N_3  and  C_2 
REMARK    2  A    between atoms: C_8  and  C_4 
REMARK    3  A    between atoms: S_16  and  C_7 
ROOT
ATOM      1  C   UNL d   1      -0.160  -1.264   0.009  0.00  0.00     0.093 A 
ATOM      2  C   UNL d   1      -1.449  -0.722   0.342  0.00  0.00     0.088 A 
ATOM      3  N   UNL d   1      -1.342   0.576   0.674  0.00  0.00    -0.259 N 
ATOM      4  HN  UNL d   1      -2.100   1.195   0.961  1.00  0.00     0.195 HD
ATOM      5  O   UNL d   1      -0.020   0.910   0.552  0.00  0.00    -0.241 OA
ATOM      6  C   UNL d   1       0.686  -0.177   0.169  0.00  0.00     0.090 A 
ATOM      7  C   UNL d   1       2.143   0.026   0.017  0.00  0.00     0.080 C 
ENDROOT
BRANCH   1   8
ATOM      8  C   UNL d   1       0.349  -2.591  -0.353  0.00  0.00     0.264 C 
ATOM      9  N   UNL d   1      -0.443  -3.473  -1.121  0.00  0.00    -0.294 N 
ATOM     10  C   UNL d   1      -0.268  -4.873  -1.179  0.00  0.00     0.144 C 
ATOM     11  C   UNL d   1      -1.315  -2.940  -2.162  0.00  0.00     0.136 C 
ATOM     12  N   UNL d   1      -0.939  -5.663  -1.939  0.00  0.00    -0.370 N 
ATOM     13  C   UNL d   1      -1.972  -5.179  -2.837  0.00  0.00     0.123 C 
ATOM     14  HN  UNL d   1      -0.739  -6.663  -1.910  1.00  0.00     0.161 HD
ATOM     15  C   UNL d   1      -2.507  -3.843  -2.382  0.00  0.00     0.040 C 
ATOM     16  O   UNL d   1       1.517  -2.848  -0.070  0.00  0.00    -0.267 OA
BRANCH  10  17
ATOM     17  S   UNL d   1       0.890  -5.654  -0.113  0.00  0.00    -0.098 SA
ATOM     18  C   UNL d   1       1.262  -7.153  -1.056  0.00  0.00     0.099 C 
ENDBRANCH  10  17
ENDBRANCH   1   8
BRANCH   2  19
ATOM     19  C   UNL d   1      -2.770  -1.346   0.397  0.00  0.00     0.054 A 
ATOM     20  C   UNL d   1      -3.897  -0.794  -0.244  0.00  0.00     0.049 A 
ATOM     21 CL   UNL d   1      -3.824   0.629  -1.231  0.00  0.00    -0.083 Cl
ATOM     22  C   UNL d   1      -5.145  -1.426  -0.165  0.00  0.00     0.025 A 
ATOM     23  C   UNL d   1      -5.287  -2.616   0.544  0.00  0.00     0.005 A 
ATOM     24  C   UNL d   1      -4.184  -3.171   1.183  0.00  0.00     0.043 A 
ATOM     25  C   UNL d   1      -2.945  -2.535   1.115  0.00  0.00     0.130 A 
ATOM     26  F   UNL d   1      -1.902  -3.110   1.732  0.00  0.00    -0.205 F 
ENDBRANCH   2  19
TORSDOF 3
