REMARK  4 active torsions:
REMARK  status: ('A' for Active; 'I' for Inactive)
REMARK    1  A    between atoms: C_11  and  N_6 
REMARK    2  A    between atoms: C_9  and  C_10 
REMARK       I    between atoms: C_10  and  N_13 
REMARK    3  A    between atoms: C_12  and  C_11 
REMARK       I    between atoms: N_14  and  C_12 
REMARK    4  A    between atoms: N_13  and  N_14 
ROOT
ATOM      1  C   UNL d   1       3.174   0.740   0.070  0.00  0.00     0.257 C 
ATOM      2  N   UNL d   1       3.311  -0.621   0.199  0.00  0.00    -0.266 N 
ATOM      3  O   UNL d   1       4.166   1.454  -0.120  0.00  0.00    -0.270 OA
ATOM      4  H   UNL d   1       2.525  -1.270   0.113  0.00  0.00     0.190 HD
ENDROOT
BRANCH   1   5
ATOM      5  C   UNL d   1       1.821   1.383   0.191  0.00  0.00     0.272 C 
BRANCH   5   6
ATOM      6  N   UNL d   1       0.658   0.532   0.322  0.00  0.00    -0.194 N 
ATOM      7  N   UNL d   1       0.465  -0.544  -0.470  0.00  0.00    -0.115 N 
ATOM      8  C   UNL d   1      -0.876  -0.581  -0.508  0.00  0.00     0.709 A 
ATOM      9  HN  UNL d   1       1.147  -1.158  -0.915  1.00  0.00     0.207 HD
ATOM     10  N   UNL d   1      -1.450   0.371   0.296  0.00  0.00    -0.113 N 
ATOM     11  N   UNL d   1      -1.631  -1.358  -1.313  0.00  0.00    -0.211 N 
ATOM     12  N   UNL d   1      -0.464   1.062   0.844  0.00  0.00     0.011 NA
ATOM     13  HN  UNL d   1      -2.448   0.518   0.444  1.00  0.00     0.203 HD
ATOM     14  C   UNL d   1      -1.220  -2.729  -1.616  0.00  0.00     0.167 C 
ATOM     15  C   UNL d   1      -3.068  -1.115  -1.460  0.00  0.00     0.167 C 
ATOM     16  C   UNL d   1      -1.749  -3.129  -3.002  0.00  0.00     0.188 C 
ATOM     17  O   UNL d   1      -3.170  -2.931  -3.111  0.00  0.00    -0.388 OA
ATOM     18  C   UNL d   1      -3.501  -1.553  -2.870  0.00  0.00     0.188 C 
ENDBRANCH   5   6
ENDBRANCH   1   5
BRANCH   2  19
ATOM     19  N   UNL d   1       4.593  -1.145  -0.062  0.00  0.00    -0.263 N 
ATOM     20  C   UNL d   1       4.949  -2.377   0.434  0.00  0.00     0.271 C 
ATOM     21  O   UNL d   1       4.139  -3.092   1.027  0.00  0.00    -0.266 OA
ATOM     22  H   UNL d   1       5.278  -0.482  -0.430  0.00  0.00     0.190 HD
BRANCH  20  23
ATOM     23  C   UNL d   1       6.360  -2.857   0.224  0.00  0.00     0.055 A 
ATOM     24  C   UNL d   1       7.337  -2.258  -0.590  0.00  0.00     0.049 A 
ATOM     25 CL   UNL d   1       7.123  -0.773  -1.451  0.00  0.00    -0.083 Cl
ATOM     26  C   UNL d   1       8.591  -2.872  -0.759  0.00  0.00     0.025 A 
ATOM     27  C   UNL d   1       8.892  -4.072  -0.119  0.00  0.00     0.002 A 
ATOM     28  C   UNL d   1       7.949  -4.660   0.713  0.00  0.00     0.001 A 
ATOM     29  C   UNL d   1       6.699  -4.057   0.883  0.00  0.00     0.019 A 
ENDBRANCH  20  23
ENDBRANCH   2  19
TORSDOF 4
