REMARK  5 active torsions:
REMARK  status: ('A' for Active; 'I' for Inactive)
REMARK    1  A    between atoms: C_7  and  C_3 
REMARK    2  A    between atoms: C_8  and  N_4 
REMARK       I    between atoms: N_11  and  C_7 
REMARK    3  A    between atoms: N_9  and  N_11 
REMARK    4  A    between atoms: C_20  and  C_13 
REMARK    5  A    between atoms: C_19  and  C_18 
ROOT
ATOM      1  N   UNL d   1       0.945  -0.711  -0.170  0.00  0.00    -0.288 N 
ATOM      2  HN  UNL d   1       1.779  -1.270  -0.348  1.00  0.00     0.188 HD
ATOM      3  C   UNL d   1      -0.321  -1.147  -0.029  0.00  0.00     0.119 A 
ATOM      4  N   UNL d   1       0.867   0.652  -0.021  0.00  0.00    -0.261 N 
ATOM      5  C   UNL d   1      -1.218  -0.060   0.105  0.00  0.00     0.063 A 
ATOM      6  C   UNL d   1      -0.453   1.080   0.058  0.00  0.00     0.033 A 
ATOM      7  C   UNL d   1      -0.939   2.485  -0.016  0.00  0.00     0.070 C 
ENDROOT
BRANCH   3   8
ATOM      8  C   UNL d   1      -0.736  -2.561  -0.049  0.00  0.00     0.287 C 
ATOM      9  N   UNL d   1       0.300  -3.481  -0.159  0.00  0.00    -0.265 N 
ATOM     10  H   UNL d   1       1.255  -3.143  -0.220  0.00  0.00     0.190 HD
ATOM     11  O   UNL d   1      -1.923  -2.868   0.041  0.00  0.00    -0.264 OA
BRANCH   9  12
ATOM     12  N   UNL d   1      -0.007  -4.814  -0.158  0.00  0.00    -0.312 N 
ATOM     13  C   UNL d   1       0.965  -5.662  -0.256  0.00  0.00     0.088 C 
ATOM     14  HN  UNL d   1      -0.974  -5.129  -0.082  1.00  0.00     0.185 HD
BRANCH  13  15
ATOM     15  C   UNL d   1       0.669  -7.165  -0.251  0.00  0.00    -0.018 C 
ATOM     16  C   UNL d   1      -0.274  -7.504  -1.414  0.00  0.00     0.020 C 
ATOM     17  C   UNL d   1       1.976  -7.950  -0.413  0.00  0.00     0.020 C 
ATOM     18  C   UNL d   1       0.009  -7.549   1.081  0.00  0.00     0.020 C 
ENDBRANCH  13  15
ENDBRANCH   9  12
ENDBRANCH   3   8
BRANCH   4  19
ATOM     19  C   UNL d   1       2.051   1.443  -0.013  0.00  0.00     0.056 A 
ATOM     20  C   UNL d   1       3.157   1.033  -0.764  0.00  0.00     0.032 A 
ATOM     21  C   UNL d   1       4.286   1.855  -0.850  0.00  0.00     0.010 A 
ATOM     22  C   UNL d   1       4.349   3.074  -0.155  0.00  0.00    -0.055 A 
ATOM     23  C   UNL d   1       3.256   3.450   0.635  0.00  0.00     0.010 A 
ATOM     24  C   UNL d   1       2.120   2.638   0.713  0.00  0.00     0.032 A 
BRANCH  22  25
ATOM     25  C   UNL d   1       5.581   3.962  -0.205  0.00  0.00     0.010 C 
ATOM     26  C   UNL d   1       6.806   3.223   0.336  0.00  0.00     0.015 C 
ATOM     27  C   UNL d   1       5.845   4.512  -1.608  0.00  0.00     0.015 C 
ENDBRANCH  22  25
ENDBRANCH   4  19
TORSDOF 5
