REMARK  6 active torsions:
REMARK  status: ('A' for Active; 'I' for Inactive)
REMARK    1  A    between atoms: C_6  and  N_1 
REMARK    2  A    between atoms: C_9  and  C_2 
REMARK    3  A    between atoms: S_16  and  C_3 
REMARK    4  A    between atoms: C_15  and  C_9 
REMARK    5  A    between atoms: O_22  and  C_10 
REMARK    6  A    between atoms: O_23  and  C_13 
ROOT
ATOM      1  N   UNL d   1      -0.330  -1.254   0.137  0.00  0.00    -0.278 N 
ATOM      2  C   UNL d   1       0.924  -0.648  -0.028  0.00  0.00     0.109 A 
ATOM      3  C   UNL d   1      -1.209  -0.169   0.074  0.00  0.00     0.164 A 
ATOM      4  N   UNL d   1       0.770   0.660  -0.128  0.00  0.00    -0.286 N 
ATOM      5  HN  UNL d   1       1.524   1.340  -0.226  1.00  0.00     0.188 HD
ATOM      6  N   UNL d   1      -0.552   0.954  -0.078  0.00  0.00    -0.278 N 
ATOM      7  HN  UNL d   1      -0.963   1.885  -0.147  1.00  0.00     0.189 HD
ENDROOT
BRANCH   2   8
ATOM      8  C   UNL d   1       2.280  -1.260  -0.157  0.00  0.00     0.117 C 
BRANCH   8   9
ATOM      9  C   UNL d   1       2.567  -2.200  -1.306  0.00  0.00    -0.048 A 
ATOM     10  C   UNL d   1       3.846  -2.793  -1.354  0.00  0.00     0.047 A 
ATOM     11  C   UNL d   1       4.265  -3.575  -2.442  0.00  0.00     0.102 A 
ATOM     12  C   UNL d   1       3.363  -3.813  -3.488  0.00  0.00     0.101 A 
ATOM     13  C   UNL d   1       2.079  -3.259  -3.423  0.00  0.00     0.040 A 
ATOM     14  C   UNL d   1       1.690  -2.441  -2.361  0.00  0.00     0.010 A 
BRANCH  11  15
ATOM     15  O   UNL d   1       5.509  -4.148  -2.486  0.00  0.00    -0.353 OA
ATOM     16  C   UNL d   1       6.554  -3.453  -1.812  0.00  0.00     0.210 C 
ENDBRANCH  11  15
BRANCH  12  17
ATOM     17  O   UNL d   1       3.555  -4.545  -4.629  0.00  0.00    -0.353 OA
ATOM     18  C   UNL d   1       4.892  -4.845  -5.010  0.00  0.00     0.210 C 
ENDBRANCH  12  17
ENDBRANCH   8   9
ENDBRANCH   2   8
BRANCH   1  19
ATOM     19  C   UNL d   1      -0.663  -2.648   0.224  0.00  0.00     0.049 A 
ATOM     20  C   UNL d   1       0.022  -3.569   1.042  0.00  0.00    -0.035 A 
ATOM     21  C   UNL d   1      -0.364  -4.926   1.004  0.00  0.00     0.009 A 
ATOM     22  C   UNL d   1       1.094  -3.247   2.042  0.00  0.00     0.050 C 
ATOM     23  C   UNL d   1      -1.464  -5.354   0.265  0.00  0.00     0.007 A 
ATOM     24  C   UNL d   1      -2.193  -4.442  -0.489  0.00  0.00    -0.060 A 
ATOM     25  C   UNL d   1      -1.756  -3.111  -0.546  0.00  0.00     0.037 A 
ATOM     26  C   UNL d   1      -3.428  -4.894  -1.214  0.00  0.00     0.048 C 
ENDBRANCH   1  19
BRANCH   3  27
ATOM     27  S   UNL d   1      -2.932  -0.169   0.306  0.00  0.00    -0.105 SA
ATOM     28  H   UNL d   1      -3.120  -1.419   0.740  0.00  0.00     0.110 HD
ENDBRANCH   3  27
TORSDOF 6
