REMARK  3 active torsions:
REMARK  status: ('A' for Active; 'I' for Inactive)
REMARK    1  A    between atoms: C_2  and  N_1 
REMARK    2  A    between atoms: N_8  and  N_3 
REMARK    3  A    between atoms: C_7  and  C_11 
ROOT
ATOM      1  C   UNL d   1       0.080   1.063   0.580  0.00  0.00     0.102 A 
ATOM      2  C   UNL d   1       0.519   2.396   0.551  0.00  0.00     0.037 A 
ATOM      3  C   UNL d   1      -1.134   0.725   1.195  0.00  0.00     0.037 A 
ATOM      4  C   UNL d   1      -1.455   3.052   1.787  0.00  0.00    -0.020 A 
ATOM      5  C   UNL d   1      -1.904   1.726   1.792  0.00  0.00     0.015 A 
ATOM      6  C   UNL d   1      -0.250   3.390   1.163  0.00  0.00     0.015 A 
ENDROOT
BRANCH   4   7
ATOM      7  C   UNL d   1      -2.211   4.098   2.506  0.00  0.00     0.113 C 
ATOM      8  N   UNL d   1      -3.448   3.923   2.844  0.00  0.00    -0.330 N 
ATOM      9  HN  UNL d   1      -3.979   3.098   2.565  1.00  0.00     0.180 HD
BRANCH   8  10
ATOM     10  N   UNL d   1      -3.992   4.918   3.601  0.00  0.00    -0.240 NA
ATOM     11  C   UNL d   1      -4.147   6.253   3.005  0.00  0.00     0.135 C 
ATOM     12  C   UNL d   1      -5.269   4.535   4.221  0.00  0.00     0.135 C 
ENDBRANCH   8  10
ENDBRANCH   4   7
BRANCH   1  13
ATOM     13  N   UNL d   1       0.909   0.010  -0.021  0.00  0.00    -0.116 N 
ATOM     14  O   UNL d   1       1.955   0.356  -0.588  0.00  0.00    -0.532 OA
ATOM     15  O   UNL d   1       0.517  -1.161   0.079  0.00  0.00    -0.532 OA
ENDBRANCH   1  13
TORSDOF 3
