REMARK  4 active torsions:
REMARK  status: ('A' for Active; 'I' for Inactive)
REMARK    1  A    between atoms: C_9  and  C_3 
REMARK    2  A    between atoms: C_7  and  C_4 
REMARK    3  A    between atoms: C_8  and  C_7 
REMARK       I    between atoms: N_11  and  C_8 
REMARK    4  A    between atoms: N_15  and  N_11 
ROOT
ATOM      1  N   UNL d   1      -1.336  -1.001  -0.098  0.00  0.00    -0.352 N 
ATOM      2  HN  UNL d   1      -2.097  -1.678  -0.155  1.00  0.00     0.166 HD
ATOM      3  C   UNL d   1      -1.498   0.308  -0.082  0.00  0.00     0.085 A 
ATOM      4  C   UNL d   1       0.013  -1.334  -0.026  0.00  0.00     0.031 A 
ATOM      5  S   UNL d   1      -0.037   1.206   0.054  0.00  0.00    -0.075 SA
ATOM      6  C   UNL d   1       0.868  -0.248   0.070  0.00  0.00     0.004 A 
ATOM      7  C   UNL d   1       2.352  -0.186   0.169  0.00  0.00     0.058 C 
ENDROOT
BRANCH   4   8
ATOM      8  C   UNL d   1       0.368  -2.784  -0.013  0.00  0.00     0.162 C 
BRANCH   8   9
ATOM      9  C   UNL d   1       1.153  -3.194  -1.240  0.00  0.00     0.237 C 
ATOM     10  O   UNL d   1       2.383  -3.246  -1.257  0.00  0.00    -0.272 OA
ATOM     11  N   UNL d   1       0.368  -3.536  -2.333  0.00  0.00    -0.294 N 
ATOM     12  H   UNL d   1      -0.645  -3.414  -2.308  0.00  0.00     0.183 HD
BRANCH  11  13
ATOM     13  N   UNL d   1       0.977  -4.033  -3.505  0.00  0.00    -0.247 NA
ATOM     14  H   UNL d   1       1.716  -4.682  -3.208  0.00  0.00     0.143 HD
ATOM     15  H   UNL d   1       1.505  -3.262  -3.928  0.00  0.00     0.143 HD
ENDBRANCH  11  13
ENDBRANCH   8   9
ENDBRANCH   4   8
BRANCH   3  16
ATOM     16  C   UNL d   1      -2.801   0.990  -0.127  0.00  0.00    -0.002 A 
ATOM     17  C   UNL d   1      -3.924   0.385   0.466  0.00  0.00     0.016 A 
ATOM     18  C   UNL d   1      -5.176   1.008   0.440  0.00  0.00     0.024 A 
ATOM     19  C   UNL d   1      -5.322   2.241  -0.189  0.00  0.00     0.034 A 
ATOM     20  C   UNL d   1      -4.228   2.854  -0.793  0.00  0.00     0.024 A 
ATOM     21 CL   UNL d   1      -6.861   3.009  -0.229  0.00  0.00    -0.084 Cl
ATOM     22  C   UNL d   1      -2.977   2.232  -0.762  0.00  0.00     0.016 A 
ENDBRANCH   3  16
TORSDOF 4
