REMARK  2 active torsions:
REMARK  status: ('A' for Active; 'I' for Inactive)
REMARK    1  A    between atoms: C_9  and  C_7 
REMARK    2  A    between atoms: O_16  and  C_10 
ROOT
ATOM      1  C   UNL d   1       0.661  -0.923   0.592  0.00  0.00     0.111 A 
ATOM      2  N   UNL d   1       0.654   0.451   0.552  0.00  0.00    -0.335 N 
ATOM      3  HN  UNL d   1       1.364   1.082   0.180  1.00  0.00     0.168 HD
ATOM      4  C   UNL d   1      -0.580  -1.419   1.262  0.00  0.00     0.316 A 
ATOM      5  O   UNL d   1      -1.252  -0.267   1.544  0.00  0.00    -0.261 OA
ATOM      6  C   UNL d   1      -0.477   0.744   1.105  0.00  0.00     0.124 A 
ATOM      7  C   UNL d   1       1.635  -1.674   0.061  0.00  0.00     0.047 C 
ATOM      8  O   UNL d   1      -0.948  -2.546   1.519  0.00  0.00    -0.257 OA
ATOM      9  C   UNL d   1      -1.035   2.104   1.301  0.00  0.00     0.098 C 
ENDROOT
BRANCH   7  10
ATOM     10  C   UNL d   1       1.622  -3.135   0.004  0.00  0.00    -0.034 A 
ATOM     11  C   UNL d   1       1.042  -3.776  -1.096  0.00  0.00     0.014 A 
ATOM     12  C   UNL d   1       0.967  -5.171  -1.146  0.00  0.00     0.037 A 
ATOM     13  C   UNL d   1       1.471  -5.938  -0.096  0.00  0.00     0.068 A 
ATOM     14  C   UNL d   1       2.073  -5.297   0.991  0.00  0.00     0.037 A 
ATOM     15  C   UNL d   1       2.150  -3.901   1.044  0.00  0.00     0.014 A 
BRANCH  13  16
ATOM     16  O   UNL d   1       1.430  -7.303  -0.009  0.00  0.00    -0.356 OA
ATOM     17  C   UNL d   1       0.791  -7.992  -1.077  0.00  0.00     0.210 C 
ENDBRANCH  13  16
ENDBRANCH   7  10
TORSDOF 2
