REMARK  6 active torsions:
REMARK  status: ('A' for Active; 'I' for Inactive)
REMARK    1  A    between atoms: N_9  and  S_1 
REMARK    2  A    between atoms: C_10  and  S_1 
REMARK    3  A    between atoms: C_4  and  C_11 
REMARK    4  A    between atoms: C_18  and  C_8 
REMARK    5  A    between atoms: C_15  and  N_9 
REMARK    6  A    between atoms: C_14  and  C_18 
ROOT
ATOM      1  C   UNL d   1       2.420  -2.242  -3.569  0.00  0.00     0.019 A 
ATOM      2  C   UNL d   1       0.791  -2.042  -1.776  0.00  0.00     0.043 A 
ATOM      3  C   UNL d   1       2.071  -1.806  -2.282  0.00  0.00     0.046 A 
ATOM      4  C   UNL d   1       1.455  -2.912  -4.338  0.00  0.00     0.016 A 
ATOM      5  C   UNL d   1       0.174  -3.143  -3.831  0.00  0.00     0.003 A 
ATOM      6  C   UNL d   1      -0.158  -2.710  -2.548  0.00  0.00     0.030 A 
ENDROOT
BRANCH   1   7
ATOM      7  C   UNL d   1       3.756  -1.985  -4.087  0.00  0.00     0.174 A 
ATOM      8  N   UNL d   1       4.895  -1.792  -3.454  0.00  0.00    -0.277 N 
ATOM      9  N   UNL d   1       5.838  -1.493  -4.418  0.00  0.00    -0.281 N 
ATOM     10  HN  UNL d   1       5.050  -1.850  -2.447  1.00  0.00     0.189 HD
ATOM     11  C   UNL d   1       5.204  -1.510  -5.572  0.00  0.00     0.144 A 
ATOM     12  HN  UNL d   1       6.827  -1.299  -4.266  1.00  0.00     0.189 HD
ATOM     13  O   UNL d   1       3.879  -1.839  -5.447  0.00  0.00    -0.277 OA
BRANCH  11  14
ATOM     14  C   UNL d   1       5.686  -1.111  -6.916  0.00  0.00     0.124 C 
BRANCH  14  15
ATOM     15  C   UNL d   1       6.229  -2.251  -7.744  0.00  0.00    -0.045 A 
ATOM     16  C   UNL d   1       5.396  -2.960  -8.623  0.00  0.00     0.050 A 
ATOM     17  C   UNL d   1       5.920  -3.988  -9.407  0.00  0.00     0.119 A 
ATOM     18  F   UNL d   1       5.112  -4.643 -10.252  0.00  0.00    -0.206 F 
ATOM     19  C   UNL d   1       7.260  -4.338  -9.335  0.00  0.00     0.084 A 
ATOM     20  C   UNL d   1       8.080  -3.647  -8.455  0.00  0.00     0.119 A 
ATOM     21  C   UNL d   1       7.582  -2.617  -7.659  0.00  0.00     0.050 A 
ATOM     22  F   UNL d   1       9.377  -3.970  -8.374  0.00  0.00    -0.206 F 
ENDBRANCH  14  15
ENDBRANCH  11  14
ENDBRANCH   1   7
BRANCH   2  23
ATOM     23  N   UNL d   1       0.439  -1.544  -0.492  0.00  0.00    -0.281 N 
ATOM     24  H   UNL d   1      -0.109  -2.152   0.115  0.00  0.00     0.179 HD
BRANCH  23  25
ATOM     25  S   UNL d   1      -0.035   0.078  -0.347  0.00  0.00     0.263 S 
ATOM     26  O   UNL d   1       0.959   0.925  -0.971  0.00  0.00    -0.200 OA
ATOM     27  O   UNL d   1      -0.425   0.261   1.034  0.00  0.00    -0.200 OA
BRANCH  25  28
ATOM     28  C   UNL d   1      -1.519   0.154  -1.329  0.00  0.00     0.079 A 
ATOM     29  C   UNL d   1      -2.755  -0.103  -0.730  0.00  0.00     0.026 A 
ATOM     30  C   UNL d   1      -3.919  -0.047  -1.501  0.00  0.00     0.008 A 
ATOM     31  C   UNL d   1      -3.854   0.272  -2.864  0.00  0.00    -0.062 A 
ATOM     32  C   UNL d   1      -2.610   0.555  -3.445  0.00  0.00     0.008 A 
ATOM     33  C   UNL d   1      -5.113   0.318  -3.681  0.00  0.00     0.048 C 
ATOM     34  C   UNL d   1      -1.443   0.508  -2.679  0.00  0.00     0.026 A 
ENDBRANCH  25  28
ENDBRANCH  23  25
ENDBRANCH   2  23
TORSDOF 6
