REMARK  2 active torsions:
REMARK  status: ('A' for Active; 'I' for Inactive)
REMARK    1  A    between atoms: C_2  and  N_1 
REMARK    2  A    between atoms: C_6  and  C_4 
ROOT
ATOM      1  C   UNL d   1       0.103  -3.246   1.739  0.00  0.00    -0.035 A 
ATOM      2  C   UNL d   1      -1.246  -5.279   3.106  0.00  0.00     0.116 A 
ATOM      3  F   UNL d   1      -1.892  -6.253   3.760  0.00  0.00    -0.206 F 
ATOM      4  C   UNL d   1       0.511  -3.635   3.024  0.00  0.00     0.014 A 
ATOM      5  C   UNL d   1      -1.007  -3.883   1.160  0.00  0.00     0.014 A 
ATOM      6  C   UNL d   1      -1.676  -4.902   1.841  0.00  0.00     0.043 A 
ATOM      7  C   UNL d   1      -0.160  -4.654   3.705  0.00  0.00     0.043 A 
ENDROOT
BRANCH   1   8
ATOM      8  C   UNL d   1       0.813  -2.145   1.069  0.00  0.00     0.035 C 
ATOM      9  C   UNL d   1       0.939  -2.063  -0.262  0.00  0.00     0.168 C 
BRANCH   9  10
ATOM     10  N   UNL d   1       1.633  -0.945  -0.857  0.00  0.00    -0.127 N 
ATOM     11  O   UNL d   1       1.680  -0.941  -2.093  0.00  0.00    -0.532 OA
ATOM     12  O   UNL d   1       2.121  -0.079  -0.120  0.00  0.00    -0.532 OA
ENDBRANCH   9  10
ENDBRANCH   1   8
TORSDOF 2
