REMARK  5 active torsions:
REMARK  status: ('A' for Active; 'I' for Inactive)
REMARK    1  A    between atoms: C_7  and  C_3 
REMARK    2  A    between atoms: C_10  and  C_4 
REMARK    3  A    between atoms: O_11  and  C_10 
REMARK    4  A    between atoms: C_12  and  O_11 
REMARK    5  A    between atoms: O_21  and  C_13 
ROOT
ATOM      1  N   UNL d   1       1.440  -0.583   0.014  0.00  0.00    -0.351 N 
ATOM      2  HN  UNL d   1       2.332  -1.076  -0.014  1.00  0.00     0.166 HD
ATOM      3  C   UNL d   1       1.294   0.796   0.014  0.00  0.00     0.049 A 
ATOM      4  C   UNL d   1       0.258  -1.165   0.055  0.00  0.00     0.075 A 
ATOM      5  S   UNL d   1      -1.088  -0.093   0.097  0.00  0.00    -0.084 SA
ATOM      6  C   UNL d   1      -0.013   1.240   0.055  0.00  0.00     0.082 A 
ENDROOT
BRANCH   4   7
ATOM      7  C   UNL d   1       0.034  -2.645   0.012  0.00  0.00     0.240 C 
BRANCH   7   8
ATOM      8  O   UNL d   1       0.029  -3.124   1.358  0.00  0.00    -0.345 OA
BRANCH   8   9
ATOM      9  C   UNL d   1      -0.150  -4.473   1.518  0.00  0.00     0.069 A 
ATOM     10  C   UNL d   1      -0.381  -5.390   0.494  0.00  0.00     0.039 A 
ATOM     11  C   UNL d   1      -0.567  -6.747   0.784  0.00  0.00     0.039 A 
ATOM     12  C   UNL d   1      -0.520  -7.200   2.102  0.00  0.00     0.068 A 
ATOM     13  C   UNL d   1      -0.279  -6.283   3.126  0.00  0.00     0.039 A 
ATOM     14  C   UNL d   1      -0.096  -4.928   2.836  0.00  0.00     0.039 A 
BRANCH  12  15
ATOM     15  O   UNL d   1      -0.701  -8.493   2.510  0.00  0.00    -0.356 OA
ATOM     16  C   UNL d   1      -0.967  -9.451   1.492  0.00  0.00     0.210 C 
ENDBRANCH  12  15
ENDBRANCH   8   9
ENDBRANCH   7   8
ENDBRANCH   4   7
BRANCH   3  17
ATOM     17  C   UNL d   1       2.456   1.679  -0.000  0.00  0.00    -0.009 A 
ATOM     18  C   UNL d   1       2.401   2.960  -0.566  0.00  0.00     0.014 A 
ATOM     19  C   UNL d   1       3.520   3.798  -0.540  0.00  0.00     0.007 A 
ATOM     20  C   UNL d   1       4.716   3.367   0.044  0.00  0.00    -0.062 A 
ATOM     21  C   UNL d   1       4.780   2.083   0.594  0.00  0.00     0.007 A 
ATOM     22  C   UNL d   1       5.902   4.284   0.078  0.00  0.00     0.048 C 
ATOM     23  C   UNL d   1       3.660   1.247   0.567  0.00  0.00     0.014 A 
ENDBRANCH   3  17
TORSDOF 5
