REMARK  3 active torsions:
REMARK  status: ('A' for Active; 'I' for Inactive)
REMARK    1  A    between atoms: C_8  and  N_1 
REMARK    2  A    between atoms: N_10  and  C_7 
REMARK    3  A    between atoms: C_13  and  N_10 
ROOT
ATOM      1  N   UNL d   1      -1.163   1.117  -0.006  0.00  0.00    -0.220 N 
ATOM      2  C   UNL d   1       0.061  -0.772   0.048  0.00  0.00     0.073 A 
ATOM      3  N   UNL d   1       0.174   1.525  -0.042  0.00  0.00    -0.294 N 
ATOM      4  HN  UNL d   1       0.520   2.483  -0.090  1.00  0.00     0.187 HD
ATOM      5  C   UNL d   1      -1.333  -0.274   0.052  0.00  0.00     0.280 A 
ATOM      6  C   UNL d   1       0.891   0.434  -0.002  0.00  0.00     0.039 A 
ATOM      7  C   UNL d   1       0.346  -2.077   0.077  0.00  0.00     0.107 C 
ATOM      8  O   UNL d   1      -2.326  -0.978   0.099  0.00  0.00    -0.265 OA
ATOM      9  C   UNL d   1       2.382   0.430   0.001  0.00  0.00     0.071 C 
ENDROOT
BRANCH   7  10
ATOM     10  N   UNL d   1       1.548  -2.739   0.111  0.00  0.00    -0.365 N 
ATOM     11  H   UNL d   1       2.390  -2.191   0.235  0.00  0.00     0.165 HD
BRANCH  10  12
ATOM     12  C   UNL d   1       1.758  -4.124  -0.025  0.00  0.00     0.032 A 
ATOM     13  C   UNL d   1       0.813  -4.986  -0.604  0.00  0.00     0.032 A 
ATOM     14  C   UNL d   1       1.035  -6.364  -0.661  0.00  0.00     0.044 A 
ATOM     15  C   UNL d   1       2.198  -6.892  -0.121  0.00  0.00     0.116 A 
ATOM     16  C   UNL d   1       3.145  -6.066   0.470  0.00  0.00     0.044 A 
ATOM     17  F   UNL d   1       2.408  -8.213  -0.165  0.00  0.00    -0.206 F 
ATOM     18  C   UNL d   1       2.924  -4.687   0.518  0.00  0.00     0.032 A 
ENDBRANCH  10  12
ENDBRANCH   7  10
BRANCH   1  19
ATOM     19  C   UNL d   1      -2.176   2.107   0.033  0.00  0.00     0.060 A 
ATOM     20  C   UNL d   1      -3.523   1.774   0.221  0.00  0.00     0.032 A 
ATOM     21  C   UNL d   1      -4.507   2.765   0.305  0.00  0.00     0.009 A 
ATOM     22  C   UNL d   1      -4.168   4.115   0.189  0.00  0.00    -0.062 A 
ATOM     23  C   UNL d   1      -2.831   4.458  -0.022  0.00  0.00     0.009 A 
ATOM     24  C   UNL d   1      -5.230   5.166   0.319  0.00  0.00     0.048 C 
ATOM     25  C   UNL d   1      -1.847   3.464  -0.098  0.00  0.00     0.032 A 
ENDBRANCH   1  19
TORSDOF 3
