REMARK  2 active torsions:
REMARK  status: ('A' for Active; 'I' for Inactive)
REMARK    1  A    between atoms: C_7  and  C_3 
REMARK    2  A    between atoms: C_8  and  C_4 
ROOT
ATOM      1  N   UNL d   1       1.391  -0.597  -0.024  0.00  0.00    -0.349 N 
ATOM      2  HN  UNL d   1       2.272  -1.110  -0.042  1.00  0.00     0.166 HD
ATOM      3  C   UNL d   1       0.196  -1.158   0.004  0.00  0.00     0.084 A 
ATOM      4  C   UNL d   1       1.282   0.788  -0.027  0.00  0.00     0.050 A 
ATOM      5  S   UNL d   1      -1.120  -0.042   0.017  0.00  0.00    -0.081 SA
ATOM      6  C   UNL d   1      -0.014   1.261   0.006  0.00  0.00     0.082 A 
ENDROOT
BRANCH   3   7
ATOM      7  C   UNL d   1      -0.043  -2.613  -0.027  0.00  0.00    -0.002 A 
ATOM      8  C   UNL d   1      -1.180  -3.208   0.547  0.00  0.00     0.016 A 
ATOM      9  C   UNL d   1      -1.378  -4.592   0.483  0.00  0.00     0.024 A 
ATOM     10  C   UNL d   1      -0.438  -5.398  -0.152  0.00  0.00     0.034 A 
ATOM     11  C   UNL d   1       0.703  -4.833  -0.716  0.00  0.00     0.024 A 
ATOM     12 CL   UNL d   1      -0.689  -7.097  -0.240  0.00  0.00    -0.084 Cl
ATOM     13  C   UNL d   1       0.900  -3.450  -0.647  0.00  0.00     0.016 A 
ENDBRANCH   3   7
BRANCH   4  14
ATOM     14  C   UNL d   1       2.460   1.649  -0.031  0.00  0.00    -0.009 A 
ATOM     15  C   UNL d   1       2.431   2.933  -0.595  0.00  0.00     0.014 A 
ATOM     16  C   UNL d   1       3.565   3.751  -0.568  0.00  0.00     0.007 A 
ATOM     17  C   UNL d   1       4.751   3.301   0.021  0.00  0.00    -0.062 A 
ATOM     18  C   UNL d   1       4.789   2.016   0.573  0.00  0.00     0.007 A 
ATOM     19  C   UNL d   1       5.954   4.196   0.053  0.00  0.00     0.048 C 
ATOM     20  C   UNL d   1       3.655   1.197   0.542  0.00  0.00     0.014 A 
ENDBRANCH   4  14
TORSDOF 2
