REMARK  2 active torsions:
REMARK  status: ('A' for Active; 'I' for Inactive)
REMARK       I    between atoms: N_2  and  C_1 
REMARK    1  A    between atoms: C_4  and  C_1 
REMARK       I    between atoms: C_3  and  N_2 
REMARK       I    between atoms: N_8  and  C_3 
REMARK    2  A    between atoms: C_5  and  N_8 
ROOT
ATOM      1  C   UNL d   1       1.077  -0.114  -0.137  0.00  0.00     0.263 C 
ATOM      2  N   UNL d   1       0.482   0.981  -0.744  0.00  0.00    -0.275 N 
ATOM      3  C   UNL d   1       1.057   2.200  -1.055  0.00  0.00     0.328 C 
ATOM      4  N   UNL d   1       2.419   2.185  -1.162  0.00  0.00    -0.293 N 
ATOM      5  O   UNL d   1       2.294  -0.223  -0.025  0.00  0.00    -0.267 OA
ATOM      6  O   UNL d   1       0.293   3.147  -1.210  0.00  0.00    -0.247 OA
ATOM      7  H   UNL d   1      -0.522   1.084  -0.678  0.00  0.00     0.173 HD
ATOM      8  H   UNL d   1       2.883   1.290  -1.060  0.00  0.00     0.172 HD
ENDROOT
BRANCH   1   9
ATOM      9  C   UNL d   1       0.159  -1.208   0.311  0.00  0.00     0.075 A 
ATOM     10  C   UNL d   1       0.525  -2.555   0.125  0.00  0.00     0.051 A 
ATOM     11 CL   UNL d   1       1.990  -3.060  -0.650  0.00  0.00    -0.083 Cl
ATOM     12  C   UNL d   1      -0.331  -3.592   0.528  0.00  0.00     0.025 A 
ATOM     13  C   UNL d   1      -1.563  -3.309   1.108  0.00  0.00     0.003 A 
ATOM     14  C   UNL d   1      -1.936  -1.985   1.307  0.00  0.00     0.025 A 
ATOM     15  C   UNL d   1      -1.080  -0.941   0.928  0.00  0.00     0.051 A 
ATOM     16 CL   UNL d   1      -1.640   0.654   1.302  0.00  0.00    -0.083 Cl
ENDBRANCH   1   9
BRANCH   4  17
ATOM     17  C   UNL d   1       3.220   3.292  -1.332  0.00  0.00     0.125 A 
ATOM     18  N   UNL d   1       2.805   4.558  -1.260  0.00  0.00    -0.284 N 
ATOM     19  N   UNL d   1       3.917   5.290  -1.393  0.00  0.00    -0.306 N 
ATOM     20  HN  UNL d   1       1.850   4.893  -1.132  1.00  0.00     0.188 HD
ATOM     21  C   UNL d   1       3.855   6.721  -1.224  0.00  0.00     0.177 C 
ATOM     22  C   UNL d   1       5.035   4.544  -1.618  0.00  0.00     0.113 A 
ATOM     23  C   UNL d   1       4.617   3.234  -1.566  0.00  0.00     0.069 A 
ENDBRANCH   4  17
TORSDOF 2
