REMARK  1 active torsions:
REMARK  status: ('A' for Active; 'I' for Inactive)
REMARK    1  A    between atoms: C_6  and  N_1 
ROOT
ATOM      1  C   UNL d   1      -2.629  -3.822   2.891  0.00  0.00     0.325 A 
ATOM      2  N   UNL d   1      -2.381  -3.361   1.588  0.00  0.00    -0.306 N 
ATOM      3  N   UNL d   1      -1.767  -3.109   3.737  0.00  0.00    -0.307 N 
ATOM      4  C   UNL d   1      -1.381  -2.397   1.636  0.00  0.00     0.065 A 
ATOM      5  C   UNL d   1       0.222  -0.796   0.987  0.00  0.00     0.105 A 
ATOM      6  C   UNL d   1      -1.002  -2.240   2.971  0.00  0.00     0.063 A 
ATOM      7  C   UNL d   1      -0.796  -1.690   0.614  0.00  0.00     0.068 A 
ATOM      8  O   UNL d   1      -3.431  -4.675   3.219  0.00  0.00    -0.247 OA
ATOM      9  C   UNL d   1      -0.021  -1.359   3.361  0.00  0.00     0.034 A 
ATOM     10  C   UNL d   1       0.603  -0.623   2.345  0.00  0.00     0.038 A 
ATOM     11  H   UNL d   1      -2.861  -3.712   0.774  0.00  0.00     0.170 HD
ATOM     12  H   UNL d   1      -1.728  -3.248   4.734  0.00  0.00     0.170 HD
ENDROOT
BRANCH   5  13
ATOM     13  N   UNL d   1       0.924  -0.037  -0.057  0.00  0.00    -0.116 N 
ATOM     14  O   UNL d   1       0.582  -0.225  -1.233  0.00  0.00    -0.532 OA
ATOM     15  O   UNL d   1       1.821   0.739   0.300  0.00  0.00    -0.532 OA
ENDBRANCH   5  13
TORSDOF 1
