REMARK  6 active torsions:
REMARK  status: ('A' for Active; 'I' for Inactive)
REMARK    1  A    between atoms: C_9  and  C_1 
REMARK    2  A    between atoms: C_10  and  C_1 
REMARK    3  A    between atoms: N_11  and  N_2 
REMARK    4  A    between atoms: C_4  and  C_7 
REMARK    5  A    between atoms: C_5  and  C_6 
REMARK    6  A    between atoms: C_12  and  N_11 
ROOT
ATOM      1  C   UNL d   1      -1.649   4.747  -0.619  0.00  0.00     0.050 A 
ATOM      2  C   UNL d   1      -0.176   5.100  -2.531  0.00  0.00     0.050 A 
ATOM      3  C   UNL d   1      -1.299   5.464  -1.771  0.00  0.00     0.032 A 
ATOM      4  C   UNL d   1       0.268   3.261  -0.974  0.00  0.00     0.049 A 
ATOM      5  C   UNL d   1      -0.861   3.649  -0.238  0.00  0.00     0.047 A 
ATOM      6  C   UNL d   1       0.610   4.009  -2.110  0.00  0.00     0.047 A 
ENDROOT
BRANCH   4   7
ATOM      7  N   UNL d   1       1.076   2.176  -0.560  0.00  0.00    -0.300 N 
ATOM      8  H   UNL d   1       1.819   1.938  -1.231  0.00  0.00     0.187 HD
BRANCH   7   9
ATOM      9  N   UNL d   1       0.426   1.142   0.055  0.00  0.00    -0.294 N 
ATOM     10  C   UNL d   1       1.067   0.017   0.236  0.00  0.00     0.139 C 
ATOM     11  HN  UNL d   1      -0.540   1.246   0.365  1.00  0.00     0.187 HD
BRANCH  10  12
ATOM     12  C   UNL d   1       0.229  -1.127   0.770  0.00  0.00     0.177 C 
ATOM     13  O   UNL d   1       0.709  -1.899   1.590  0.00  0.00    -0.291 OA
ATOM     14  C   UNL d   1      -1.163  -1.285   0.227  0.00  0.00     0.098 C 
ENDBRANCH  10  12
BRANCH  10  15
ATOM     15  C   UNL d   1       2.535  -0.156  -0.117  0.00  0.00     0.177 C 
ATOM     16  O   UNL d   1       2.939   0.316  -1.181  0.00  0.00    -0.291 OA
ATOM     17  C   UNL d   1       3.456  -0.807   0.876  0.00  0.00     0.098 C 
ENDBRANCH  10  15
ENDBRANCH   7   9
ENDBRANCH   4   7
BRANCH   1  18
ATOM     18  C   UNL d   1      -2.847   5.130   0.215  0.00  0.00     0.417 C 
ATOM     19  F   UNL d   1      -3.491   6.241  -0.241  0.00  0.00    -0.166 F 
ATOM     20  F   UNL d   1      -3.788   4.147   0.257  0.00  0.00    -0.166 F 
ATOM     21  F   UNL d   1      -2.521   5.394   1.510  0.00  0.00    -0.166 F 
ENDBRANCH   1  18
BRANCH   2  22
ATOM     22  C   UNL d   1       0.184   5.849  -3.792  0.00  0.00     0.417 C 
ATOM     23  F   UNL d   1      -0.663   6.878  -4.073  0.00  0.00    -0.166 F 
ATOM     24  F   UNL d   1       1.430   6.395  -3.740  0.00  0.00    -0.166 F 
ATOM     25  F   UNL d   1       0.171   5.048  -4.893  0.00  0.00    -0.166 F 
ENDBRANCH   2  22
TORSDOF 6
