REMARK  3 active torsions:
REMARK  status: ('A' for Active; 'I' for Inactive)
REMARK    1  A    between atoms: N_2  and  S_1 
REMARK    2  A    between atoms: C_3  and  S_1 
REMARK    3  A    between atoms: C_13  and  C_7 
ROOT
ATOM      1  N   UNL d   1       0.372   0.372   1.639  0.00  0.00    -0.187 N 
ATOM      2  N   UNL d   1      -0.129  -0.567   2.484  0.00  0.00    -0.283 N 
ATOM      3  HN  UNL d   1      -0.249  -1.565   2.309  1.00  0.00     0.188 HD
ATOM      4  C   UNL d   1      -0.432   0.115   3.603  0.00  0.00     0.073 A 
ATOM      5  C   UNL d   1      -0.211   1.517   3.436  0.00  0.00    -0.014 A 
ATOM      6  C   UNL d   1       0.282   1.639   2.153  0.00  0.00     0.138 A 
ATOM      7  C   UNL d   1      -0.398   2.637   4.391  0.00  0.00     0.052 C 
ENDROOT
BRANCH   1   8
ATOM      8  S   UNL d   1       1.029   0.072   0.067  0.00  0.00     0.284 S 
ATOM      9  O   UNL d   1       1.826  -1.135   0.190  0.00  0.00    -0.198 OA
ATOM     10  O   UNL d   1       1.593   1.319  -0.412  0.00  0.00    -0.198 OA
BRANCH   8  11
ATOM     11  C   UNL d   1      -0.215  -0.314  -1.071  0.00  0.00     0.107 A 
ATOM     12  C   UNL d   1      -1.291   0.530  -1.480  0.00  0.00     0.063 A 
ATOM     13  C   UNL d   1      -2.071  -0.068  -2.440  0.00  0.00     0.093 A 
ATOM     14 BR   UNL d   1      -1.605   2.275  -0.817  0.00  0.00    -0.047 Br
ATOM     15 CL   UNL d   1      -3.467   0.558  -3.229  0.00  0.00    -0.075 Cl
ATOM     16  S   UNL d   1      -1.531  -1.616  -2.869  0.00  0.00    -0.087 SA
ATOM     17  C   UNL d   1      -0.224  -1.511  -1.768  0.00  0.00     0.078 A 
ENDBRANCH   8  11
ENDBRANCH   1   8
BRANCH   4  18
ATOM     18  C   UNL d   1      -0.929  -0.607   4.836  0.00  0.00     0.033 A 
ATOM     19  S   UNL d   1      -1.491   0.144   6.266  0.00  0.00    -0.100 SA
ATOM     20  C   UNL d   1      -1.791  -1.351   7.033  0.00  0.00     0.050 A 
ATOM     21  C   UNL d   1      -1.462  -2.413   6.224  0.00  0.00     0.008 A 
ATOM     22  C   UNL d   1      -0.971  -1.984   4.953  0.00  0.00     0.021 A 
ENDBRANCH   4  18
TORSDOF 3
