REMARK  9 active torsions:
REMARK  status: ('A' for Active; 'I' for Inactive)
REMARK    1  A    between atoms: N_5  and  S_1 
REMARK    2  A    between atoms: C_7  and  S_1 
REMARK    3  A    between atoms: C_2  and  N_10 
REMARK    4  A    between atoms: N_4  and  C_2 
REMARK    5  A    between atoms: C_3  and  C_12 
REMARK       I    between atoms: C_6  and  N_4 
REMARK    6  A    between atoms: C_21  and  N_5 
REMARK    7  A    between atoms: C_11  and  C_6 
REMARK    8  A    between atoms: N_10  and  C_24 
REMARK    9  A    between atoms: C_25  and  C_14 
ROOT
ATOM      1  C   UNL d   1       0.828   0.094  -2.140  0.00  0.00     0.080 A 
ATOM      2  C   UNL d   1       0.231  -0.462  -3.273  0.00  0.00     0.027 A 
ATOM      3  C   UNL d   1       1.055   1.471  -2.076  0.00  0.00     0.027 A 
ATOM      4  C   UNL d   1      -0.037   1.760  -4.242  0.00  0.00     0.034 A 
ATOM      5  C   UNL d   1      -0.192   0.371  -4.322  0.00  0.00     0.031 A 
ATOM      6  C   UNL d   1       0.612   2.296  -3.120  0.00  0.00     0.031 A 
ENDROOT
BRANCH   4   7
ATOM      7  N   UNL d   1      -0.631   2.666  -5.157  0.00  0.00    -0.333 N 
ATOM      8  H   UNL d   1      -0.837   3.593  -4.782  0.00  0.00     0.168 HD
BRANCH   7   9
ATOM      9  C   UNL d   1      -0.979   2.503  -6.477  0.00  0.00     0.179 C 
ATOM     10  S   UNL d   1      -0.335   1.409  -7.570  0.00  0.00    -0.040 SA
BRANCH   9  11
ATOM     11  N   UNL d   1      -1.949   3.367  -6.970  0.00  0.00    -0.300 N 
ATOM     12  C   UNL d   1      -2.706   4.320  -6.305  0.00  0.00     0.247 C 
ATOM     13  O   UNL d   1      -2.456   4.721  -5.173  0.00  0.00    -0.268 OA
ATOM     14  H   UNL d   1      -2.181   3.171  -7.934  0.00  0.00     0.171 HD
BRANCH  12  15
ATOM     15  C   UNL d   1      -3.846   4.856  -7.121  0.00  0.00     0.075 C 
ATOM     16  C   UNL d   1      -4.708   5.730  -6.561  0.00  0.00     0.017 C 
BRANCH  16  17
ATOM     17  C   UNL d   1      -5.902   6.355  -7.174  0.00  0.00    -0.036 A 
ATOM     18  C   UNL d   1      -6.610   5.815  -8.257  0.00  0.00     0.011 A 
ATOM     19  C   UNL d   1      -7.789   6.425  -8.719  0.00  0.00     0.001 A 
ATOM     20  C   UNL d   1      -8.276   7.576  -8.107  0.00  0.00     0.000 A 
ATOM     21  C   UNL d   1      -7.583   8.128  -7.035  0.00  0.00     0.001 A 
ATOM     22  C   UNL d   1      -6.409   7.520  -6.573  0.00  0.00     0.011 A 
ENDBRANCH  16  17
ENDBRANCH  12  15
ENDBRANCH   9  11
ENDBRANCH   7   9
ENDBRANCH   4   7
BRANCH   1  23
ATOM     23  S   UNL d   1       1.094  -0.908  -0.693  0.00  0.00     0.263 S 
ATOM     24  O   UNL d   1       0.380  -0.259   0.388  0.00  0.00    -0.200 OA
ATOM     25  O   UNL d   1       0.840  -2.293  -1.025  0.00  0.00    -0.200 OA
BRANCH  23  26
ATOM     26  N   UNL d   1       2.725  -0.704  -0.337  0.00  0.00    -0.281 N 
ATOM     27  H   UNL d   1       2.864  -0.516   0.657  0.00  0.00     0.179 HD
BRANCH  26  28
ATOM     28  C   UNL d   1       3.694  -1.518  -0.975  0.00  0.00     0.042 A 
ATOM     29  C   UNL d   1       4.509  -0.938  -1.942  0.00  0.00     0.031 A 
ATOM     30  C   UNL d   1       5.550  -1.677  -2.510  0.00  0.00     0.018 A 
ATOM     31  C   UNL d   1       5.787  -3.002  -2.111  0.00  0.00     0.048 A 
ATOM     32  C   UNL d   1       4.946  -3.578  -1.144  0.00  0.00     0.018 A 
ATOM     33  C   UNL d   1       3.906  -2.837  -0.574  0.00  0.00     0.031 A 
BRANCH  31  34
ATOM     34  C   UNL d   1       6.934  -3.795  -2.692  0.00  0.00     0.417 C 
ATOM     35  F   UNL d   1       7.677  -3.093  -3.594  0.00  0.00    -0.166 F 
ATOM     36  F   UNL d   1       7.811  -4.213  -1.737  0.00  0.00    -0.166 F 
ATOM     37  F   UNL d   1       6.521  -4.918  -3.341  0.00  0.00    -0.166 F 
ENDBRANCH  31  34
ENDBRANCH  26  28
ENDBRANCH  23  26
ENDBRANCH   1  23
TORSDOF 9
