REMARK  1 active torsions:
REMARK  status: ('A' for Active; 'I' for Inactive)
REMARK    1  A    between atoms: O_12  and  C_6 
ROOT
ATOM      1  C   UNL d   1       0.108   0.926  -0.028  0.00  0.00    -0.032 C 
ATOM      2  C   UNL d   1      -1.057  -1.361  -0.101  0.00  0.00    -0.037 C 
ATOM      3  C   UNL d   1       0.324  -0.635  -0.267  0.00  0.00     0.003 C 
ATOM      4  C   UNL d   1      -1.944  -0.073  -0.075  0.00  0.00     0.028 C 
ATOM      5  C   UNL d   1      -1.113   0.999  -0.908  0.00  0.00     0.018 C 
ATOM      6  C   UNL d   1      -2.923   0.701   0.812  0.00  0.00     0.059 C 
ATOM      7  C   UNL d   1      -0.411   1.579   1.361  0.00  0.00     0.013 C 
ATOM      8  C   UNL d   1       1.595  -0.975   0.465  0.00  0.00     0.006 C 
ATOM      9  C   UNL d   1       1.534   1.433  -0.275  0.00  0.00    -0.010 C 
ATOM     10  C   UNL d   1      -2.004   1.712   1.626  0.00  0.00     0.038 C 
ATOM     11  C   UNL d   1       2.430   0.313   0.340  0.00  0.00     0.005 C 
ATOM     12  C   UNL d   1      -1.115  -2.256   1.164  0.00  0.00     0.015 C 
ATOM     13  C   UNL d   1      -1.444  -2.232  -1.296  0.00  0.00     0.015 C 
ATOM     14  C   UNL d   1      -4.027   1.409   0.027  0.00  0.00     0.046 C 
ATOM     15  C   UNL d   1       1.888   1.751  -1.718  0.00  0.00     0.011 C 
ENDROOT
BRANCH   6  16
ATOM     16  O   UNL d   1      -3.571  -0.188   1.732  0.00  0.00    -0.390 OA
ATOM     17  H   UNL d   1      -4.045  -0.854   1.210  0.00  0.00     0.210 HD
ENDBRANCH   6  16
TORSDOF 1
