REMARK  3 active torsions:
REMARK  status: ('A' for Active; 'I' for Inactive)
REMARK    1  A    between atoms: C_7  and  O_10 
REMARK    2  A    between atoms: C_8  and  C_7 
REMARK    3  A    between atoms: O_10  and  C_13 
ROOT
ATOM      1  C   UNL d   1      -0.618   2.140  -0.153  0.00  0.00     0.299 C 
ATOM      2  C   UNL d   1       1.392   0.723  -0.057  0.00  0.00     0.093 A 
ATOM      3  O   UNL d   1       0.760   1.973  -0.241  0.00  0.00    -0.274 OA
ATOM      4  C   UNL d   1       0.633  -0.431   0.135  0.00  0.00     0.009 A 
ATOM      5  C   UNL d   1      -0.826  -0.353   0.045  0.00  0.00    -0.007 A 
ATOM      6  C   UNL d   1      -1.437   0.904  -0.053  0.00  0.00     0.051 A 
ATOM      7  C   UNL d   1       2.792   0.721  -0.048  0.00  0.00     0.075 A 
ATOM      8  C   UNL d   1       1.339  -1.609   0.423  0.00  0.00     0.018 A 
ATOM      9  C   UNL d   1       3.463  -0.475   0.198  0.00  0.00     0.082 A 
ATOM     10  O   UNL d   1      -1.134   3.251  -0.194  0.00  0.00    -0.259 OA
ATOM     11  C   UNL d   1       2.738  -1.633   0.461  0.00  0.00     0.038 A 
ATOM     12  C   UNL d   1      -1.660  -1.488   0.033  0.00  0.00     0.013 A 
ATOM     13  C   UNL d   1      -2.838   1.024  -0.089  0.00  0.00     0.018 A 
ATOM     14  C   UNL d   1      -3.051  -1.371  -0.023  0.00  0.00     0.001 A 
ATOM     15  C   UNL d   1      -3.642  -0.114  -0.067  0.00  0.00     0.001 A 
ENDROOT
BRANCH   9  16
ATOM     16  O   UNL d   1       4.880  -0.415   0.160  0.00  0.00    -0.273 OA
BRANCH  16  17
ATOM     17  C   UNL d   1       5.745  -1.508   0.315  0.00  0.00     0.322 C 
ATOM     18  O   UNL d   1       5.407  -2.663   0.549  0.00  0.00    -0.257 OA
BRANCH  17  19
ATOM     19  C   UNL d   1       7.120  -1.096   0.160  0.00  0.00     0.150 A 
ATOM     20  O   UNL d   1       7.438   0.192  -0.182  0.00  0.00    -0.317 OA
ATOM     21  C   UNL d   1       8.793   0.259  -0.268  0.00  0.00     0.143 A 
ATOM     22  C   UNL d   1       9.359  -0.960   0.019  0.00  0.00     0.027 A 
ATOM     23  C   UNL d   1       8.283  -1.835   0.290  0.00  0.00     0.045 A 
ENDBRANCH  17  19
ENDBRANCH  16  17
ENDBRANCH   9  16
TORSDOF 3
