REMARK  7 active torsions:
REMARK  status: ('A' for Active; 'I' for Inactive)
REMARK    1  A    between atoms: C_8  and  C_3 
REMARK    2  A    between atoms: C_9  and  N_4 
REMARK    3  A    between atoms: C_11  and  C_9 
REMARK    4  A    between atoms: C_10  and  N_15 
REMARK    5  A    between atoms: N_14  and  C_10 
REMARK       I    between atoms: N_16  and  C_11 
REMARK    6  A    between atoms: C_18  and  N_14 
REMARK    7  A    between atoms: N_15  and  N_16 
ROOT
ATOM      1  C   UNL d   1      -2.985  -1.287   0.231  0.00  0.00     0.257 C 
ATOM      2  N   UNL d   1      -2.314  -2.427   0.599  0.00  0.00    -0.266 N 
ATOM      3  O   UNL d   1      -4.198  -1.341   0.023  0.00  0.00    -0.270 OA
ATOM      4  H   UNL d   1      -2.858  -3.284   0.676  0.00  0.00     0.190 HD
ENDROOT
BRANCH   1   5
ATOM      5  C   UNL d   1      -2.214  -0.001   0.117  0.00  0.00     0.271 C 
BRANCH   5   6
ATOM      6  N   UNL d   1      -2.018   0.359  -1.266  0.00  0.00    -0.207 N 
ATOM      7  N   UNL d   1      -2.312   1.592  -1.726  0.00  0.00    -0.268 N 
ATOM      8  C   UNL d   1      -1.809   1.518  -2.970  0.00  0.00     0.144 A 
ATOM      9  HN  UNL d   1      -2.786   2.366  -1.260  1.00  0.00     0.190 HD
ATOM     10  N   UNL d   1      -1.181   0.315  -3.208  0.00  0.00    -0.266 N 
ATOM     11  N   UNL d   1      -1.286  -0.405  -2.099  0.00  0.00    -0.002 NA
ATOM     12  HN  UNL d   1      -0.721   0.031  -4.073  1.00  0.00     0.186 HD
BRANCH   8  13
ATOM     13  C   UNL d   1      -1.885   2.596  -3.949  0.00  0.00     0.014 A 
ATOM     14  C   UNL d   1      -2.423   3.843  -3.594  0.00  0.00     0.039 A 
ATOM     15  C   UNL d   1      -2.490   4.877  -4.529  0.00  0.00     0.036 A 
ATOM     16 CL   UNL d   1      -3.145   6.400  -4.070  0.00  0.00    -0.084 Cl
ATOM     17  C   UNL d   1      -2.029   4.688  -5.827  0.00  0.00     0.047 A 
ATOM     18  C   UNL d   1      -1.498   3.454  -6.185  0.00  0.00     0.036 A 
ATOM     19  C   UNL d   1      -1.420   2.409  -5.260  0.00  0.00     0.039 A 
ATOM     20 CL   UNL d   1      -0.927   3.209  -7.791  0.00  0.00    -0.084 Cl
ENDBRANCH   8  13
ENDBRANCH   5   6
ENDBRANCH   1   5
BRANCH   2  21
ATOM     21  N   UNL d   1      -0.924  -2.552   0.548  0.00  0.00    -0.273 N 
ATOM     22  H   UNL d   1      -0.477  -2.336  -0.341  0.00  0.00     0.189 HD
BRANCH  21  23
ATOM     23  C   UNL d   1      -0.252  -3.326   1.470  0.00  0.00     0.191 C 
ATOM     24  S   UNL d   1      -0.795  -3.662   3.015  0.00  0.00    -0.039 SA
BRANCH  23  25
ATOM     25  N   UNL d   1       0.994  -3.762   1.100  0.00  0.00    -0.332 N 
ATOM     26  H   UNL d   1       1.593  -4.023   1.879  0.00  0.00     0.168 HD
BRANCH  25  27
ATOM     27  C   UNL d   1       1.467  -4.101  -0.185  0.00  0.00     0.035 A 
ATOM     28  C   UNL d   1       0.613  -4.390  -1.256  0.00  0.00     0.054 A 
ATOM     29  C   UNL d   1       1.130  -4.746  -2.507  0.00  0.00     0.053 A 
ATOM     30 CL   UNL d   1      -0.005  -5.089  -3.763  0.00  0.00    -0.083 Cl
ATOM     31  C   UNL d   1       2.512  -4.827  -2.690  0.00  0.00     0.032 A 
ATOM     32  C   UNL d   1       3.368  -4.573  -1.614  0.00  0.00     0.023 A 
ATOM     33 BR   UNL d   1       3.300  -5.292  -4.352  0.00  0.00    -0.049 Br
ATOM     34  C   UNL d   1       2.845  -4.226  -0.363  0.00  0.00     0.031 A 
ENDBRANCH  25  27
ENDBRANCH  23  25
ENDBRANCH  21  23
ENDBRANCH   2  21
TORSDOF 7
