REMARK  5 active torsions:
REMARK  status: ('A' for Active; 'I' for Inactive)
REMARK    1  A    between atoms: N_6  and  C_1 
REMARK    2  A    between atoms: N_3  and  C_2 
REMARK       I    between atoms: C_10  and  N_6 
REMARK    3  A    between atoms: C_9  and  C_10 
REMARK    4  A    between atoms: O_22  and  C_20 
REMARK    5  A    between atoms: C_23  and  O_22 
ROOT
ATOM      1  C   UNL d   1      -1.992  -0.779   0.211  0.00  0.00     0.152 C 
ATOM      2  N   UNL d   1      -0.979  -1.592  -0.001  0.00  0.00    -0.335 N 
ATOM      3  HN  UNL d   1      -1.061  -2.591  -0.193  1.00  0.00     0.168 HD
ATOM      4  S   UNL d   1      -1.572   0.827   0.598  0.00  0.00    -0.052 SA
ATOM      5  C   UNL d   1       0.084   0.484   0.279  0.00  0.00     0.037 A 
ATOM      6  C   UNL d   1       0.220  -0.889   0.075  0.00  0.00     0.051 A 
ATOM      7  C   UNL d   1       1.182   1.358   0.215  0.00  0.00     0.058 A 
ATOM      8  C   UNL d   1       1.522  -1.412  -0.076  0.00  0.00     0.034 A 
ATOM      9  C   UNL d   1       2.462   0.829   0.016  0.00  0.00     0.070 A 
ATOM     10  C   UNL d   1       2.633  -0.549  -0.092  0.00  0.00     0.039 A 
ENDROOT
BRANCH   1  11
ATOM     11  N   UNL d   1      -3.301  -1.182   0.051  0.00  0.00    -0.301 N 
ATOM     12  C   UNL d   1      -4.425  -0.532   0.518  0.00  0.00     0.281 C 
ATOM     13  O   UNL d   1      -4.422   0.530   1.147  0.00  0.00    -0.265 OA
ATOM     14  H   UNL d   1      -3.409  -2.089  -0.379  0.00  0.00     0.171 HD
BRANCH  12  15
ATOM     15  C   UNL d   1      -5.686  -1.233   0.287  0.00  0.00     0.146 A 
ATOM     16  O   UNL d   1      -5.703  -2.431  -0.385  0.00  0.00    -0.283 OA
ATOM     17  C   UNL d   1      -6.986  -2.890  -0.310  0.00  0.00     0.215 A 
ATOM     18  C   UNL d   1      -7.805  -2.019   0.368  0.00  0.00     0.066 A 
ATOM     19  C   UNL d   1      -6.972  -0.926   0.708  0.00  0.00     0.047 A 
BRANCH  17  20
ATOM     20  N   UNL d   1      -7.244  -4.176  -0.879  0.00  0.00    -0.090 N 
ATOM     21  O   UNL d   1      -8.387  -4.627  -0.732  0.00  0.00    -0.530 OA
ATOM     22  O   UNL d   1      -6.309  -4.740  -1.466  0.00  0.00    -0.530 OA
ENDBRANCH  17  20
ENDBRANCH  12  15
ENDBRANCH   1  11
BRANCH   9  23
ATOM     23  O   UNL d   1       3.455   1.770  -0.047  0.00  0.00    -0.351 OA
BRANCH  23  24
ATOM     24  C   UNL d   1       4.790   1.298  -0.231  0.00  0.00     0.171 C 
ATOM     25  C   UNL d   1       5.723   2.496  -0.264  0.00  0.00     0.034 C 
ENDBRANCH  23  24
ENDBRANCH   9  23
TORSDOF 5
