REMARK  5 active torsions:
REMARK  status: ('A' for Active; 'I' for Inactive)
REMARK    1  A    between atoms: C_14  and  C_3 
REMARK    2  A    between atoms: C_6  and  C_18 
REMARK    3  A    between atoms: C_17  and  C_9 
REMARK    4  A    between atoms: O_22  and  C_12 
REMARK    5  A    between atoms: C_18  and  C_17 
ROOT
ATOM      1  C   UNL d   1       3.091  -1.334   0.115  0.00  0.00     0.172 C 
ATOM      2  O   UNL d   1       1.880  -1.437  -0.076  0.00  0.00    -0.291 OA
ENDROOT
BRANCH   1   3
ATOM      3  C   UNL d   1       3.776   0.010   0.022  0.00  0.00     0.079 A 
ATOM      4  S   UNL d   1       2.836   1.319  -0.766  0.00  0.00    -0.046 SA
ATOM      5  C   UNL d   1       4.163   2.388  -0.506  0.00  0.00     0.172 A 
ATOM      6  N   UNL d   1       5.201   1.764   0.113  0.00  0.00    -0.235 N 
ATOM      7  N   UNL d   1       4.402   3.649  -0.723  0.00  0.00    -0.316 N 
ATOM      8  N   UNL d   1       6.205   2.639   0.309  0.00  0.00    -0.273 N 
ATOM      9  C   UNL d   1       5.004   0.423   0.422  0.00  0.00     0.053 A 
ATOM     10  C   UNL d   1       5.684   3.789  -0.190  0.00  0.00     0.207 A 
ATOM     11  HN  UNL d   1       7.122   2.479   0.725  1.00  0.00     0.189 HD
ATOM     12  C   UNL d   1       6.111  -0.281   1.136  0.00  0.00     0.072 C 
ATOM     13  HN  UNL d   1       3.809   4.350  -1.167  1.00  0.00     0.169 HD
BRANCH  10  14
ATOM     14  C   UNL d   1       6.425   5.113  -0.163  0.00  0.00     0.450 C 
ATOM     15  F   UNL d   1       5.588   6.182  -0.266  0.00  0.00    -0.163 F 
ATOM     16  F   UNL d   1       7.128   5.290   0.991  0.00  0.00    -0.163 F 
ATOM     17  F   UNL d   1       7.319   5.219  -1.183  0.00  0.00    -0.163 F 
ENDBRANCH  10  14
ENDBRANCH   1   3
BRANCH   1  18
ATOM     18  C   UNL d   1       3.948  -2.543   0.456  0.00  0.00     0.132 C 
BRANCH  18  19
ATOM     19  C   UNL d   1       3.478  -3.976   0.357  0.00  0.00     0.059 C 
ATOM     20  C   UNL d   1       2.243  -4.511   0.271  0.00  0.00     0.091 C 
ATOM     21  C   UNL d   1       2.068  -5.970   0.285  0.00  0.00     0.032 A 
ATOM     22  C   UNL d   1       0.823  -6.600   0.403  0.00  0.00     0.017 A 
ATOM     23  C   UNL d   1       3.193  -6.780   0.184  0.00  0.00     0.092 A 
ATOM     24  C   UNL d   1       0.727  -7.998   0.415  0.00  0.00     0.001 A 
ATOM     25  C   UNL d   1       1.873  -8.784   0.289  0.00  0.00     0.003 A 
ATOM     26  C   UNL d   1       3.115  -8.173   0.167  0.00  0.00     0.038 A 
ATOM     27  O   UNL d   1       4.478  -6.231   0.149  0.00  0.00    -0.274 OA
ATOM     28  C   UNL d   1       4.657  -4.896   0.444  0.00  0.00     0.297 C 
ATOM     29  O   UNL d   1       5.773  -4.461   0.719  0.00  0.00    -0.259 OA
BRANCH  20  30
ATOM     30  O   UNL d   1       1.063  -3.809   0.210  0.00  0.00    -0.359 OA
ATOM     31  H   UNL d   1       1.225  -2.850   0.079  0.00  0.00     0.217 HD
ENDBRANCH  20  30
ENDBRANCH  18  19
ENDBRANCH   1  18
TORSDOF 5
