REMARK  4 active torsions:
REMARK  status: ('A' for Active; 'I' for Inactive)
REMARK    1  A    between atoms: C_5  and  C_1 
REMARK    2  A    between atoms: C_6  and  C_1 
REMARK    3  A    between atoms: O_16  and  C_5 
REMARK    4  A    between atoms: O_17  and  C_6 
ROOT
ATOM      1  C   UNL d   1       1.006   0.131  -0.037  0.00  0.00     0.117 C 
ATOM      2  C   UNL d   1       0.260  -0.932  -0.448  0.00  0.00    -0.049 C 
ATOM      3  C   UNL d   1      -1.273  -0.961  -0.533  0.00  0.00     0.017 C 
ATOM      4  C   UNL d   1       0.832  -2.289  -0.896  0.00  0.00     0.017 C 
ATOM      5  C   UNL d   1      -1.153  -2.632  -2.421  0.00  0.00    -0.013 C 
ATOM      6  C   UNL d   1      -1.245  -3.432  -0.027  0.00  0.00    -0.013 C 
ATOM      7  C   UNL d   1       0.383  -2.580  -2.342  0.00  0.00     0.013 C 
ATOM      8  C   UNL d   1       0.290  -3.393   0.033  0.00  0.00     0.013 C 
ATOM      9  C   UNL d   1      -1.706  -1.270  -1.979  0.00  0.00     0.013 C 
ATOM     10  C   UNL d   1      -1.797  -2.062   0.407  0.00  0.00     0.013 C 
ATOM     11  C   UNL d   1      -1.684  -3.724  -1.473  0.00  0.00     0.009 C 
ENDROOT
BRANCH   1  12
ATOM     12  C   UNL d   1       0.428   1.424   0.422  0.00  0.00     0.299 C 
ATOM     13  O   UNL d   1       0.896   2.511   0.106  0.00  0.00    -0.259 OA
BRANCH  12  14
ATOM     14  O   UNL d   1      -0.644   1.237   1.230  0.00  0.00    -0.322 OA
ATOM     15  C   UNL d   1      -1.394   2.406   1.574  0.00  0.00     0.213 C 
ENDBRANCH  12  14
ENDBRANCH   1  12
BRANCH   1  16
ATOM     16  C   UNL d   1       2.496   0.106  -0.149  0.00  0.00     0.299 C 
ATOM     17  O   UNL d   1       3.118  -0.394  -1.071  0.00  0.00    -0.259 OA
BRANCH  16  18
ATOM     18  O   UNL d   1       3.050   0.723   0.932  0.00  0.00    -0.322 OA
ATOM     19  C   UNL d   1       4.465   0.874   0.873  0.00  0.00     0.213 C 
ENDBRANCH  16  18
ENDBRANCH   1  16
TORSDOF 4
