REMARK  1 active torsions:
REMARK  status: ('A' for Active; 'I' for Inactive)
REMARK    1  A    between atoms: C_15  and  C_13 
ROOT
ATOM      1  C   UNL d   1      -1.029  -0.906  -0.006  0.00  0.00     0.134 A 
ATOM      2  C   UNL d   1      -0.442   0.323   0.009  0.00  0.00     0.113 A 
ATOM      3  C   UNL d   1       1.795  -0.702  -0.020  0.00  0.00     0.138 A 
ATOM      4  N   UNL d   1      -2.435  -0.951   0.081  0.00  0.00    -0.288 N 
ATOM      5  C   UNL d   1       0.973   0.397  -0.001  0.00  0.00     0.129 A 
ATOM      6  N   UNL d   1      -0.193  -2.074  -0.103  0.00  0.00    -0.302 N 
ATOM      7  N   UNL d   1      -2.606   1.412  -0.024  0.00  0.00    -0.270 N 
ATOM      8  C   UNL d   1      -3.246   0.193  -0.009  0.00  0.00     0.332 C 
ATOM      9  C   UNL d   1      -1.242   1.566   0.057  0.00  0.00     0.268 C 
ATOM     10  C   UNL d   1       1.232  -2.030  -0.049  0.00  0.00     0.278 A 
ATOM     11  N   UNL d   1       3.115  -0.351  -0.015  0.00  0.00    -0.329 N 
ATOM     12  HN  UNL d   1       3.933  -0.961  -0.036  1.00  0.00     0.168 HD
ATOM     13  C   UNL d   1       3.080   0.966   0.022  0.00  0.00     0.159 A 
ATOM     14  O   UNL d   1       1.813   1.492   0.027  0.00  0.00    -0.289 OA
ATOM     15  O   UNL d   1      -4.476   0.114  -0.053  0.00  0.00    -0.246 OA
ATOM     16  O   UNL d   1      -0.705   2.670   0.150  0.00  0.00    -0.267 OA
ATOM     17  O   UNL d   1       1.947  -3.031  -0.043  0.00  0.00    -0.265 OA
ATOM     18  C   UNL d   1      -3.203  -2.166   0.310  0.00  0.00     0.163 C 
ATOM     19  C   UNL d   1      -3.406   2.626  -0.035  0.00  0.00     0.164 C 
ATOM     20  C   UNL d   1      -0.682  -3.428  -0.312  0.00  0.00     0.161 C 
ENDROOT
BRANCH  13  21
ATOM     21  C   UNL d   1       4.211   1.886   0.078  0.00  0.00     0.017 A 
ATOM     22  C   UNL d   1       5.510   1.358  -0.038  0.00  0.00     0.041 A 
ATOM     23  C   UNL d   1       6.637   2.180   0.053  0.00  0.00     0.056 A 
ATOM     24 CL   UNL d   1       8.189   1.434  -0.093  0.00  0.00    -0.083 Cl
ATOM     25  C   UNL d   1       6.478   3.552   0.262  0.00  0.00     0.055 A 
ATOM     26  C   UNL d   1       5.192   4.092   0.366  0.00  0.00     0.026 A 
ATOM     27 CL   UNL d   1       7.822   4.627   0.407  0.00  0.00    -0.083 Cl
ATOM     28  C   UNL d   1       4.065   3.265   0.272  0.00  0.00     0.017 A 
ENDBRANCH  13  21
TORSDOF 1
