REMARK  2 active torsions:
REMARK  status: ('A' for Active; 'I' for Inactive)
REMARK    1  A    between atoms: N_5  and  N_1 
REMARK       I    between atoms: C_3  and  N_5 
REMARK       I    between atoms: N_10  and  C_3 
REMARK    2  A    between atoms: C_6  and  C_4 
ROOT
ATOM      1  N   UNL d   1       1.066   0.103   0.109  0.00  0.00    -0.299 N 
ATOM      2  HN  UNL d   1       2.082   0.131   0.189  1.00  0.00     0.186 HD
ATOM      3  C   UNL d   1       0.358  -0.476   1.039  0.00  0.00     0.048 C 
ATOM      4  C   UNL d   1      -1.153  -0.587   1.074  0.00  0.00     0.072 C 
ENDROOT
BRANCH   1   5
ATOM      5  N   UNL d   1       0.455   0.671  -0.968  0.00  0.00    -0.252 N 
ATOM      6  C   UNL d   1       1.172   1.346  -1.926  0.00  0.00     0.332 C 
ATOM      7  O   UNL d   1       0.664   1.827  -2.930  0.00  0.00    -0.246 OA
ATOM      8  N   UNL d   1       2.500   1.442  -1.662  0.00  0.00    -0.351 N 
ATOM      9  H   UNL d   1       2.843   0.783  -0.978  0.00  0.00     0.160 HD
ATOM     10  H   UNL d   1       3.103   1.770  -2.400  0.00  0.00     0.160 HD
ATOM     11  H   UNL d   1      -0.537   0.583  -1.139  0.00  0.00     0.191 HD
ENDBRANCH   1   5
BRANCH   3  12
ATOM     12  C   UNL d   1       1.084  -1.090   2.201  0.00  0.00     0.055 A 
ATOM     13  N   UNL d   1       0.320  -1.740   3.114  0.00  0.00    -0.364 N 
ATOM     14  C   UNL d   1       0.965  -2.290   4.166  0.00  0.00     0.088 A 
ATOM     15  HN  UNL d   1      -0.692  -1.811   3.011  1.00  0.00     0.165 HD
ATOM     16  C   UNL d   1       2.337  -2.222   4.353  0.00  0.00     0.017 A 
ATOM     17  C   UNL d   1       3.100  -1.552   3.404  0.00  0.00     0.004 A 
ATOM     18  C   UNL d   1       2.467  -0.975   2.307  0.00  0.00     0.031 A 
ENDBRANCH   3  12
TORSDOF 2
