REMARK  5 active torsions:
REMARK  status: ('A' for Active; 'I' for Inactive)
REMARK    1  A    between atoms: N_4  and  C_1 
REMARK       I    between atoms: C_5  and  N_4 
REMARK       I    between atoms: N_10  and  C_5 
REMARK    2  A    between atoms: O_15  and  C_8 
REMARK    3  A    between atoms: C_14  and  N_10 
REMARK    4  A    between atoms: C_22  and  C_13 
REMARK    5  A    between atoms: O_21  and  C_22 
ROOT
ATOM      1  N   UNL d   1       1.867  -2.101  -0.189  0.00  0.00    -0.166 N 
ATOM      2  C   UNL d   1       3.221  -2.078  -0.044  0.00  0.00     0.170 C 
ATOM      3  N   UNL d   1       3.776  -0.921   0.409  0.00  0.00    -0.230 NA
ATOM      4  N   UNL d   1       4.035  -3.087  -0.166  0.00  0.00    -0.375 N 
ATOM      5  HN  UNL d   1       5.042  -3.071  -0.007  1.00  0.00     0.158 HD
ATOM      6  H   UNL d   1       1.369  -1.487   0.437  0.00  0.00     0.187 HD
ATOM      7  H   UNL d   1       4.776  -1.101   0.512  0.00  0.00     0.136 HD
ATOM      8  H   UNL d   1       3.476  -3.903  -0.452  0.00  0.00     0.158 HD
ENDROOT
BRANCH   1   9
ATOM      9  C   UNL d   1       1.154  -3.291  -0.348  0.00  0.00     0.686 A 
ATOM     10  N   UNL d   1       1.624  -4.232  -1.184  0.00  0.00    -0.170 N 
ATOM     11  C   UNL d   1       0.915  -5.360  -1.255  0.00  0.00     0.157 A 
ATOM     12  HN  UNL d   1       2.473  -4.092  -1.732  1.00  0.00     0.186 HD
ATOM     13  C   UNL d   1      -0.196  -5.646  -0.521  0.00  0.00     0.084 A 
ATOM     14  C   UNL d   1      -0.590  -4.650   0.347  0.00  0.00     0.054 A 
ATOM     15  N   UNL d   1       0.067  -3.461   0.417  0.00  0.00    -0.193 N 
ATOM     16  HN  UNL d   1      -0.260  -2.718   1.035  1.00  0.00     0.184 HD
BRANCH  11  17
ATOM     17  O   UNL d   1       1.430  -6.285  -2.104  0.00  0.00    -0.346 OA
ATOM     18  H   UNL d   1       2.219  -5.819  -2.434  0.00  0.00     0.219 HD
ENDBRANCH  11  17
BRANCH  14  19
ATOM     19  C   UNL d   1      -1.685  -4.940   1.357  0.00  0.00     0.224 C 
BRANCH  19  20
ATOM     20  O   UNL d   1      -2.316  -3.760   1.857  0.00  0.00    -0.390 OA
ATOM     21  C   UNL d   1      -1.668  -3.232   3.008  0.00  0.00     0.201 C 
ENDBRANCH  19  20
ENDBRANCH  14  19
ENDBRANCH   1   9
BRANCH   3  22
ATOM     22  C   UNL d   1       3.641   0.381  -0.133  0.00  0.00     0.015 A 
ATOM     23  C   UNL d   1       4.017   1.449   0.694  0.00  0.00     0.024 A 
ATOM     24  C   UNL d   1       4.082   2.757   0.214  0.00  0.00     0.008 A 
ATOM     25  C   UNL d   1       3.784   3.032  -1.122  0.00  0.00    -0.062 A 
ATOM     26  C   UNL d   1       3.408   1.973  -1.960  0.00  0.00     0.008 A 
ATOM     27  C   UNL d   1       3.928   4.436  -1.633  0.00  0.00     0.048 C 
ATOM     28  C   UNL d   1       3.338   0.653  -1.468  0.00  0.00     0.024 A 
ENDBRANCH   3  22
TORSDOF 5
