REMARK  0 active torsions:
REMARK  status: ('A' for Active; 'I' for Inactive)
ROOT
ATOM      1  N   UNL d   1      -2.110   1.016   0.015  0.00  0.00    -0.359 N 
ATOM      2  HN  UNL d   1      -2.393   1.996   0.020  1.00  0.00     0.166 HD
ATOM      3  C   UNL d   1      -0.809   0.679  -0.005  0.00  0.00     0.042 A 
ATOM      4  C   UNL d   1      -0.376  -0.664  -0.013  0.00  0.00    -0.008 A 
ATOM      5  C   UNL d   1       0.998  -0.966  -0.023  0.00  0.00     0.037 A 
ATOM      6  C   UNL d   1       0.151   1.681  -0.012  0.00  0.00     0.032 A 
ATOM      7  C   UNL d   1      -3.037   0.029   0.029  0.00  0.00     0.005 A 
ATOM      8  C   UNL d   1      -1.353  -1.666  -0.006  0.00  0.00     0.015 A 
ATOM      9  C   UNL d   1       1.935   0.063  -0.022  0.00  0.00     0.035 A 
ATOM     10  C   UNL d   1      -2.699  -1.318   0.017  0.00  0.00     0.025 A 
ATOM     11  C   UNL d   1       1.518   1.388  -0.019  0.00  0.00     0.026 A 
ATOM     12 CL   UNL d   1       3.615  -0.307  -0.021  0.00  0.00    -0.084 Cl
ATOM     13  C   UNL d   1      -4.477   0.445   0.074  0.00  0.00     0.068 C 
ENDROOT
TORSDOF 0
