REMARK  2 active torsions:
REMARK  status: ('A' for Active; 'I' for Inactive)
REMARK    1  A    between atoms: C_9  and  C_3 
REMARK    2  A    between atoms: C_8  and  C_7 
ROOT
ATOM      1  N   UNL d   1      -0.758   0.051   0.069  0.00  0.00    -0.331 N 
ATOM      2  HN  UNL d   1      -1.745  -0.207   0.100  1.00  0.00     0.168 HD
ATOM      3  C   UNL d   1      -0.234   1.232   0.027  0.00  0.00     0.162 A 
ATOM      4  C   UNL d   1       0.338  -0.767   0.064  0.00  0.00     0.111 A 
ATOM      5  O   UNL d   1       1.117   1.319  -0.008  0.00  0.00    -0.256 OA
ATOM      6  C   UNL d   1       1.585   0.040   0.019  0.00  0.00     0.316 A 
ATOM      7  C   UNL d   1       0.338  -2.105   0.065  0.00  0.00     0.048 C 
ATOM      8  O   UNL d   1       2.744  -0.327  -0.006  0.00  0.00    -0.257 OA
ENDROOT
BRANCH   7   9
ATOM      9  C   UNL d   1      -0.914  -2.866   0.022  0.00  0.00    -0.028 A 
ATOM     10  C   UNL d   1      -1.538  -3.198  -1.196  0.00  0.00    -0.052 A 
ATOM     11  C   UNL d   1      -0.955  -2.849  -2.539  0.00  0.00     0.049 C 
ATOM     12  C   UNL d   1      -2.784  -3.846  -1.167  0.00  0.00     0.007 A 
ATOM     13  C   UNL d   1      -3.394  -4.172   0.045  0.00  0.00     0.001 A 
ATOM     14  C   UNL d   1      -2.766  -3.857   1.246  0.00  0.00     0.001 A 
ATOM     15  C   UNL d   1      -1.532  -3.206   1.236  0.00  0.00     0.012 A 
ENDBRANCH   7   9
BRANCH   3  16
ATOM     16  C   UNL d   1      -0.969   2.505   0.033  0.00  0.00     0.015 A 
ATOM     17  C   UNL d   1      -2.364   2.473   0.161  0.00  0.00     0.016 A 
ATOM     18  C   UNL d   1      -3.091   3.662   0.206  0.00  0.00     0.001 A 
ATOM     19  C   UNL d   1      -2.428   4.885   0.119  0.00  0.00     0.000 A 
ATOM     20  C   UNL d   1      -1.040   4.921  -0.022  0.00  0.00     0.001 A 
ATOM     21  C   UNL d   1      -0.307   3.733  -0.067  0.00  0.00     0.016 A 
ENDBRANCH   3  16
TORSDOF 2
