REMARK  8 active torsions:
REMARK  status: ('A' for Active; 'I' for Inactive)
REMARK    1  A    between atoms: C_12  and  N_6 
REMARK    2  A    between atoms: N_11  and  C_8 
REMARK    3  A    between atoms: C_21  and  N_11 
REMARK    4  A    between atoms: C_20  and  C_12 
REMARK    5  A    between atoms: C_15  and  O_19 
REMARK    6  A    between atoms: O_19  and  C_22 
REMARK    7  A    between atoms: C_22  and  C_21 
REMARK    8  A    between atoms: C_26  and  C_21 
ROOT
ATOM      1  C   UNL d   1      -0.175  -0.786  -0.271  0.00  0.00     0.160 A 
ATOM      2  C   UNL d   1      -0.475   0.538  -0.165  0.00  0.00     0.165 A 
ATOM      3  N   UNL d   1      -1.278  -1.560  -0.265  0.00  0.00    -0.174 N 
ATOM      4  HN  UNL d   1      -1.321  -2.576  -0.347  1.00  0.00     0.186 HD
ATOM      5  N   UNL d   1       1.115  -1.251  -0.300  0.00  0.00    -0.287 N 
ATOM      6  N   UNL d   1      -1.855   0.588  -0.159  0.00  0.00    -0.170 N 
ATOM      7  N   UNL d   1       1.837   1.013  -0.106  0.00  0.00    -0.269 N 
ATOM      8  C   UNL d   1      -2.289  -0.729  -0.131  0.00  0.00     0.683 A 
ATOM      9  C   UNL d   1       2.169  -0.348  -0.219  0.00  0.00     0.332 A 
ATOM     10  C   UNL d   1       0.535   1.532  -0.041  0.00  0.00     0.282 A 
ATOM     11  O   UNL d   1       3.343  -0.734  -0.233  0.00  0.00    -0.246 OA
ATOM     12  O   UNL d   1       0.300   2.724   0.140  0.00  0.00    -0.265 OA
ATOM     13  C   UNL d   1       1.407  -2.671  -0.386  0.00  0.00     0.163 C 
ATOM     14  C   UNL d   1       2.918   1.974   0.002  0.00  0.00     0.164 C 
ENDROOT
BRANCH   8  15
ATOM     15  N   UNL d   1      -3.570  -1.090   0.114  0.00  0.00    -0.219 N 
ATOM     16  H   UNL d   1      -4.278  -0.772  -0.539  0.00  0.00     0.178 HD
BRANCH  15  17
ATOM     17  C   UNL d   1      -3.785  -2.466   0.625  0.00  0.00     0.123 C 
BRANCH  17  18
ATOM     18  C   UNL d   1      -4.576  -2.392   1.952  0.00  0.00     0.204 C 
BRANCH  18  19
ATOM     19  O   UNL d   1      -3.893  -1.602   2.944  0.00  0.00    -0.320 OA
BRANCH  19  20
ATOM     20  C   UNL d   1      -2.903  -2.239   3.624  0.00  0.00     0.254 C 
ATOM     21  O   UNL d   1      -2.569  -3.404   3.467  0.00  0.00    -0.266 OA
ATOM     22  C   UNL d   1      -2.255  -1.297   4.594  0.00  0.00     0.126 C 
ENDBRANCH  19  20
ENDBRANCH  18  19
ENDBRANCH  17  18
BRANCH  17  23
ATOM     23  C   UNL d   1      -4.553  -3.333  -0.384  0.00  0.00     0.023 C 
ATOM     24  C   UNL d   1      -3.790  -3.595  -1.674  0.00  0.00     0.007 C 
ENDBRANCH  17  23
ENDBRANCH  15  17
ENDBRANCH   8  15
BRANCH   6  25
ATOM     25  C   UNL d   1      -2.671   1.782   0.022  0.00  0.00     0.186 C 
BRANCH  25  26
ATOM     26  C   UNL d   1      -3.025   2.452  -1.288  0.00  0.00    -0.039 A 
ATOM     27  C   UNL d   1      -4.218   2.135  -1.954  0.00  0.00     0.009 A 
ATOM     28  C   UNL d   1      -4.545   2.752  -3.165  0.00  0.00     0.001 A 
ATOM     29  C   UNL d   1      -3.685   3.691  -3.728  0.00  0.00     0.000 A 
ATOM     30  C   UNL d   1      -2.503   4.026  -3.075  0.00  0.00     0.001 A 
ATOM     31  C   UNL d   1      -2.179   3.415  -1.861  0.00  0.00     0.009 A 
ENDBRANCH  25  26
ENDBRANCH   6  25
TORSDOF 8
