REMARK  8 active torsions:
REMARK  status: ('A' for Active; 'I' for Inactive)
REMARK    1  A    between atoms: N_4  and  C_1 
REMARK    2  A    between atoms: S_5  and  C_1 
REMARK    3  A    between atoms: C_3  and  C_7 
REMARK    4  A    between atoms: O_11  and  C_3 
REMARK    5  A    between atoms: C_8  and  N_4 
REMARK    6  A    between atoms: C_7  and  S_5 
REMARK    7  A    between atoms: C_10  and  C_8 
REMARK    8  A    between atoms: C_17  and  O_11 
ROOT
ATOM      1  N   UNL d   1       0.298   0.645  -0.737  0.00  0.00    -0.371 N 
ATOM      2  H   UNL d   1       0.850   0.960  -1.524  0.00  0.00     0.161 HD
ENDROOT
BRANCH   1   3
ATOM      3  C   UNL d   1       0.934  -0.260   0.068  0.00  0.00     0.135 C 
ATOM      4  S   UNL d   1       0.353  -0.942   1.474  0.00  0.00    -0.053 SA
BRANCH   3   5
ATOM      5  S   UNL d   1       2.526  -0.577  -0.605  0.00  0.00    -0.091 SA
BRANCH   5   6
ATOM      6  C   UNL d   1       2.417  -2.375  -0.878  0.00  0.00     0.192 C 
BRANCH   6   7
ATOM      7  C   UNL d   1       1.213  -2.792  -1.703  0.00  0.00     0.268 C 
ATOM      8  O   UNL d   1       0.397  -2.054  -2.232  0.00  0.00    -0.264 OA
BRANCH   7   9
ATOM      9  O   UNL d   1       1.155  -4.158  -1.720  0.00  0.00    -0.321 OA
BRANCH   9  10
ATOM     10  C   UNL d   1      -0.104  -4.721  -2.119  0.00  0.00     0.174 C 
ATOM     11  C   UNL d   1      -0.948  -4.900  -0.868  0.00  0.00     0.034 C 
ENDBRANCH   9  10
ENDBRANCH   7   9
ENDBRANCH   6   7
ENDBRANCH   5   6
ENDBRANCH   3   5
ENDBRANCH   1   3
BRANCH   1  12
ATOM     12  C   UNL d   1      -1.138   0.790  -0.878  0.00  0.00     0.159 C 
BRANCH  12  13
ATOM     13  C   UNL d   1      -1.608   2.181  -0.547  0.00  0.00    -0.040 A 
ATOM     14  C   UNL d   1      -1.660   3.177  -1.536  0.00  0.00     0.012 A 
ATOM     15  C   UNL d   1      -2.138   4.452  -1.228  0.00  0.00     0.043 A 
ATOM     16  C   UNL d   1      -2.555   4.735   0.067  0.00  0.00     0.116 A 
ATOM     17  C   UNL d   1      -2.495   3.770   1.064  0.00  0.00     0.043 A 
ATOM     18  F   UNL d   1      -3.025   5.955   0.356  0.00  0.00    -0.206 F 
ATOM     19  C   UNL d   1      -2.016   2.495   0.760  0.00  0.00     0.012 A 
ENDBRANCH  12  13
ENDBRANCH   1  12
TORSDOF 8
