REMARK  3 active torsions:
REMARK  status: ('A' for Active; 'I' for Inactive)
REMARK    1  A    between atoms: C_8  and  C_1 
REMARK    2  A    between atoms: O_13  and  C_1 
REMARK    3  A    between atoms: C_6  and  C_2 
ROOT
ATOM      1  C   UNL d   1      -1.272  -0.013  -0.125  0.00  0.00     0.252 C 
ATOM      2  C   UNL d   1       0.966  -0.662  -0.001  0.00  0.00     0.043 C 
ATOM      3  N   UNL d   1      -0.282   1.010   0.214  0.00  0.00    -0.289 N 
ATOM      4  N   UNL d   1       1.002   0.632   0.060  0.00  0.00    -0.303 N 
ATOM      5  HN  UNL d   1       1.824   1.234   0.004  1.00  0.00     0.186 HD
ATOM      6  C   UNL d   1      -0.408  -1.257   0.127  0.00  0.00     0.131 C 
ATOM      7  C   UNL d   1      -0.673   2.394   0.337  0.00  0.00     0.175 C 
ENDROOT
BRANCH   2   8
ATOM      8  C   UNL d   1       2.170  -1.444  -0.138  0.00  0.00     0.023 A 
ATOM      9  C   UNL d   1       2.215  -2.826  -0.209  0.00  0.00     0.157 A 
ATOM     10  O   UNL d   1       3.493  -3.270  -0.322  0.00  0.00    -0.321 OA
ATOM     11  C   UNL d   1       4.298  -2.170  -0.327  0.00  0.00     0.086 A 
ATOM     12  C   UNL d   1       3.533  -1.014  -0.224  0.00  0.00     0.012 A 
ATOM     13  C   UNL d   1       5.687  -2.194  -0.422  0.00  0.00     0.038 A 
ATOM     14  C   UNL d   1       4.208   0.223  -0.218  0.00  0.00     0.015 A 
ATOM     15  C   UNL d   1       5.609   0.234  -0.314  0.00  0.00     0.001 A 
ATOM     16  C   UNL d   1       6.332  -0.955  -0.412  0.00  0.00     0.003 A 
ENDBRANCH   2   8
BRANCH   1  17
ATOM     17  C   UNL d   1      -2.578  -0.066   0.732  0.00  0.00     0.439 C 
ATOM     18  F   UNL d   1      -2.481   0.677   1.861  0.00  0.00    -0.166 F 
ATOM     19  F   UNL d   1      -3.649   0.409   0.046  0.00  0.00    -0.166 F 
ATOM     20  F   UNL d   1      -2.883  -1.329   1.116  0.00  0.00    -0.166 F 
ENDBRANCH   1  17
BRANCH   1  21
ATOM     21  O   UNL d   1      -1.526   0.048  -1.535  0.00  0.00    -0.362 OA
ATOM     22  H   UNL d   1      -0.789   0.587  -1.878  0.00  0.00     0.213 HD
ENDBRANCH   1  21
TORSDOF 3
