REMARK  7 active torsions:
REMARK  status: ('A' for Active; 'I' for Inactive)
REMARK    1  A    between atoms: C_10  and  N_1 
REMARK    2  A    between atoms: C_7  and  C_4 
REMARK    3  A    between atoms: N_6  and  C_9 
REMARK    4  A    between atoms: C_8  and  C_7 
REMARK    5  A    between atoms: C_21  and  C_10 
REMARK    6  A    between atoms: S_17  and  C_18 
REMARK    7  A    between atoms: C_20  and  S_17 
ROOT
ATOM      1  C   UNL d   1      -3.903   0.325   0.138  0.00  0.00    -0.000 A 
ATOM      2  C   UNL d   1      -4.144  -0.559   1.210  0.00  0.00     0.113 A 
ATOM      3  C   UNL d   1      -5.345  -1.294   1.258  0.00  0.00     0.038 A 
ATOM      4  C   UNL d   1      -4.909   0.493  -0.834  0.00  0.00     0.032 A 
ATOM      5  C   UNL d   1      -6.121  -0.202  -0.756  0.00  0.00     0.006 A 
ATOM      6  C   UNL d   1      -6.321  -1.120   0.275  0.00  0.00     0.021 A 
ENDROOT
BRANCH   1   7
ATOM      7  C   UNL d   1      -2.690   1.133  -0.054  0.00  0.00     0.038 C 
BRANCH   7   8
ATOM      8  C   UNL d   1      -2.521   2.379   0.409  0.00  0.00     0.076 A 
ATOM      9  C   UNL d   1      -3.506   3.179   1.189  0.00  0.00     0.266 A 
ATOM     10  N   UNL d   1      -3.017   4.452   1.419  0.00  0.00    -0.294 N 
ATOM     11  O   UNL d   1      -4.602   2.755   1.535  0.00  0.00    -0.266 OA
ATOM     12  C   UNL d   1      -1.752   4.725   0.946  0.00  0.00     0.149 A 
ATOM     13  S   UNL d   1      -1.094   3.301   0.144  0.00  0.00    -0.055 SA
ATOM     14  S   UNL d   1      -0.892   6.153   1.022  0.00  0.00    -0.052 SA
BRANCH  10  15
ATOM     15  C   UNL d   1      -3.882   5.413   2.101  0.00  0.00     0.172 C 
BRANCH  15  16
ATOM     16  C   UNL d   1      -3.764   5.347   3.607  0.00  0.00    -0.040 A 
ATOM     17  C   UNL d   1      -2.913   6.218   4.301  0.00  0.00     0.009 A 
ATOM     18  C   UNL d   1      -2.789   6.135   5.689  0.00  0.00     0.001 A 
ATOM     19  C   UNL d   1      -3.516   5.183   6.400  0.00  0.00     0.000 A 
ATOM     20  C   UNL d   1      -4.376   4.320   5.726  0.00  0.00     0.001 A 
ATOM     21  C   UNL d   1      -4.500   4.402   4.338  0.00  0.00     0.009 A 
ENDBRANCH  15  16
ENDBRANCH  10  15
ENDBRANCH   7   8
ENDBRANCH   1   7
BRANCH   2  22
ATOM     22  N   UNL d   1      -3.188  -0.744   2.320  0.00  0.00    -0.115 N 
ATOM     23  O   UNL d   1      -2.142  -0.083   2.329  0.00  0.00    -0.532 OA
ATOM     24  O   UNL d   1      -3.488  -1.567   3.199  0.00  0.00    -0.532 OA
ENDBRANCH   2  22
BRANCH   5  25
ATOM     25  S   UNL d   1      -7.393   0.083  -1.964  0.00  0.00    -0.091 SA
BRANCH  25  26
ATOM     26  C   UNL d   1      -8.389   1.400  -1.268  0.00  0.00     0.005 A 
ATOM     27  C   UNL d   1      -8.189   1.970  -0.005  0.00  0.00     0.019 A 
ATOM     28  C   UNL d   1      -9.032   2.983   0.464  0.00  0.00     0.001 A 
ATOM     29  C   UNL d   1     -10.083   3.443  -0.326  0.00  0.00     0.000 A 
ATOM     30  C   UNL d   1     -10.289   2.892  -1.587  0.00  0.00     0.001 A 
ATOM     31  C   UNL d   1      -9.448   1.878  -2.054  0.00  0.00     0.019 A 
ENDBRANCH  25  26
ENDBRANCH   5  25
TORSDOF 7
