REMARK  6 active torsions:
REMARK  status: ('A' for Active; 'I' for Inactive)
REMARK    1  A    between atoms: C_3  and  N_1 
REMARK    2  A    between atoms: C_2  and  N_10 
REMARK    3  A    between atoms: N_11  and  C_2 
REMARK    4  A    between atoms: N_10  and  N_4 
REMARK    5  A    between atoms: C_12  and  C_6 
REMARK    6  A    between atoms: N_13  and  N_11 
ROOT
ATOM      1  N   UNL d   1       2.074  -3.078  -2.379  0.00  0.00    -0.309 N 
ATOM      2  HN  UNL d   1       1.416  -3.433  -3.072  1.00  0.00     0.186 HD
ATOM      3  C   UNL d   1       1.856  -1.982  -1.730  0.00  0.00     0.121 C 
ENDROOT
BRANCH   1   4
ATOM      4  N   UNL d   1       3.230  -3.732  -2.087  0.00  0.00    -0.276 N 
ATOM      5  H   UNL d   1       3.824  -3.380  -1.346  0.00  0.00     0.189 HD
BRANCH   4   6
ATOM      6  C   UNL d   1       3.648  -4.819  -2.850  0.00  0.00     0.201 C 
ATOM      7  S   UNL d   1       2.671  -5.700  -3.896  0.00  0.00    -0.038 SA
BRANCH   6   8
ATOM      8  N   UNL d   1       5.012  -5.078  -2.647  0.00  0.00    -0.299 N 
ATOM      9  H   UNL d   1       5.560  -4.307  -2.271  0.00  0.00     0.183 HD
BRANCH   8  10
ATOM     10  N   UNL d   1       5.718  -5.984  -3.475  0.00  0.00    -0.248 NA
ATOM     11  H   UNL d   1       5.079  -6.274  -4.228  0.00  0.00     0.143 HD
ATOM     12  H   UNL d   1       5.881  -6.840  -2.939  0.00  0.00     0.143 HD
ENDBRANCH   8  10
ENDBRANCH   6   8
ENDBRANCH   4   6
ENDBRANCH   1   4
BRANCH   3  13
ATOM     13  C   UNL d   1       0.651  -1.172  -2.021  0.00  0.00     0.014 A 
ATOM     14  C   UNL d   1       0.194  -0.153  -1.183  0.00  0.00     0.114 A 
ATOM     15  C   UNL d   1      -0.973   0.572  -1.475  0.00  0.00     0.037 A 
ATOM     16  C   UNL d   1      -1.680   0.281  -2.641  0.00  0.00     0.002 A 
ATOM     17  C   UNL d   1      -1.229  -0.724  -3.498  0.00  0.00     0.001 A 
ATOM     18  C   UNL d   1      -0.075  -1.448  -3.190  0.00  0.00     0.015 A 
BRANCH  14  19
ATOM     19  N   UNL d   1       0.893   0.175   0.038  0.00  0.00    -0.115 N 
ATOM     20  O   UNL d   1       2.048   0.612  -0.075  0.00  0.00    -0.532 OA
ATOM     21  O   UNL d   1       0.288   0.001   1.099  0.00  0.00    -0.532 OA
ENDBRANCH  14  19
ENDBRANCH   3  13
TORSDOF 6
