REMARK  4 active torsions:
REMARK  status: ('A' for Active; 'I' for Inactive)
REMARK    1  A    between atoms: C_7  and  C_1 
REMARK    2  A    between atoms: O_15  and  C_7 
REMARK    3  A    between atoms: C_8  and  C_13 
REMARK    4  A    between atoms: N_9  and  O_15 
ROOT
ATOM      1  N   UNL d   1      -5.397  -0.112  -0.114  0.00  0.00    -0.268 N 
ATOM      2  HN  UNL d   1      -5.658  -1.098  -0.132  1.00  0.00     0.194 HD
ATOM      3  C   UNL d   1      -6.247   0.862  -0.107  0.00  0.00     0.129 C 
ENDROOT
BRANCH   1   4
ATOM      4  O   UNL d   1      -4.064   0.356  -0.094  0.00  0.00    -0.194 OA
BRANCH   4   5
ATOM      5  C   UNL d   1      -3.214  -0.736  -0.048  0.00  0.00     0.333 C 
ATOM      6  O   UNL d   1      -3.580  -1.912  -0.035  0.00  0.00    -0.256 OA
BRANCH   5   7
ATOM      7  C   UNL d   1      -1.786  -0.392  -0.021  0.00  0.00     0.127 A 
ATOM      8  N   UNL d   1      -1.286   0.860  -0.024  0.00  0.00    -0.293 N 
ATOM      9  N   UNL d   1       0.054   0.686  -0.004  0.00  0.00    -0.300 N 
ATOM     10  HN  UNL d   1      -1.802   1.739  -0.038  1.00  0.00     0.187 HD
ATOM     11  C   UNL d   1       0.927   1.838   0.004  0.00  0.00     0.177 C 
ATOM     12  C   UNL d   1       0.441  -0.628   0.007  0.00  0.00     0.026 A 
ATOM     13  C   UNL d   1      -0.731  -1.348   0.006  0.00  0.00     0.063 A 
ATOM     14  C   UNL d   1       1.852  -1.082   0.015  0.00  0.00     0.070 C 
ENDBRANCH   5   7
ENDBRANCH   4   5
ENDBRANCH   1   4
BRANCH   3  15
ATOM     15  C   UNL d   1      -7.707   0.599  -0.109  0.00  0.00     0.025 A 
ATOM     16  C   UNL d   1      -8.267  -0.533   0.515  0.00  0.00     0.047 A 
ATOM     17 CL   UNL d   1      -7.365  -1.657   1.475  0.00  0.00    -0.083 Cl
ATOM     18  C   UNL d   1      -9.646  -0.775   0.441  0.00  0.00     0.025 A 
ATOM     19  C   UNL d   1     -10.485   0.106  -0.234  0.00  0.00     0.003 A 
ATOM     20  C   UNL d   1      -9.947   1.243  -0.831  0.00  0.00     0.025 A 
ATOM     21  C   UNL d   1      -8.568   1.492  -0.769  0.00  0.00     0.047 A 
ATOM     22 CL   UNL d   1      -8.004   2.920  -1.569  0.00  0.00    -0.083 Cl
ENDBRANCH   3  15
TORSDOF 4
