REMARK  1 active torsions:
REMARK  status: ('A' for Active; 'I' for Inactive)
REMARK    1  A    between atoms: C_9  and  C_4 
ROOT
ATOM      1  N   UNL d   1       0.915   0.492  -0.030  0.00  0.00    -0.322 N 
ATOM      2  C   UNL d   1       1.726  -0.619  -0.112  0.00  0.00     0.044 A 
ATOM      3  N   UNL d   1      -0.319  -2.034  -0.001  0.00  0.00    -0.374 N 
ATOM      4  C   UNL d   1       1.096  -1.954  -0.346  0.00  0.00     0.167 C 
ATOM      5  C   UNL d   1      -0.496   0.418  -0.034  0.00  0.00     0.065 A 
ATOM      6  C   UNL d   1      -1.072  -0.863   0.054  0.00  0.00     0.056 A 
ATOM      7  C   UNL d   1       1.720   1.606   0.073  0.00  0.00     0.097 A 
ATOM      8  C   UNL d   1       3.044  -0.207  -0.036  0.00  0.00     0.029 A 
ATOM      9  C   UNL d   1       3.037   1.199   0.087  0.00  0.00     0.020 A 
ATOM     10  C   UNL d   1      -1.292   1.569  -0.071  0.00  0.00     0.032 A 
ATOM     11  C   UNL d   1      -2.467  -0.957   0.114  0.00  0.00     0.031 A 
ATOM     12  C   UNL d   1      -2.681   1.447  -0.030  0.00  0.00     0.002 A 
ATOM     13  C   UNL d   1      -3.267   0.188   0.069  0.00  0.00     0.002 A 
ATOM     14  H   UNL d   1      -0.590  -2.761   0.654  0.00  0.00     0.160 HD
ENDROOT
BRANCH   4  15
ATOM     15  C   UNL d   1       1.842  -3.101   0.303  0.00  0.00    -0.014 A 
ATOM     16  C   UNL d   1       2.336  -4.143  -0.480  0.00  0.00     0.097 A 
ATOM     17  N   UNL d   1       3.025  -5.202   0.004  0.00  0.00    -0.375 N 
ATOM     18  C   UNL d   1       3.233  -5.232   1.336  0.00  0.00     0.087 A 
ATOM     19  HN  UNL d   1       3.370  -5.942  -0.609  1.00  0.00     0.164 HD
ATOM     20  C   UNL d   1       2.778  -4.257   2.208  0.00  0.00     0.018 A 
ATOM     21  C   UNL d   1       2.069  -3.179   1.682  0.00  0.00     0.012 A 
ENDBRANCH   4  15
TORSDOF 1
