REMARK  3 active torsions:
REMARK  status: ('A' for Active; 'I' for Inactive)
REMARK    1  A    between atoms: C_8  and  N_3 
REMARK    2  A    between atoms: C_7  and  C_4 
REMARK    3  A    between atoms: C_9  and  C_5 
ROOT
ATOM      1  N   UNL d   1       1.160  -0.189   0.120  0.00  0.00    -0.301 N 
ATOM      2  HN  UNL d   1       2.159  -0.382   0.190  1.00  0.00     0.187 HD
ATOM      3  N   UNL d   1       0.151  -1.111   0.115  0.00  0.00    -0.283 N 
ATOM      4  C   UNL d   1       0.603   0.982   0.018  0.00  0.00     0.038 A 
ATOM      5  C   UNL d   1      -1.182  -0.521  -0.000  0.00  0.00     0.147 A 
ATOM      6  C   UNL d   1      -0.899   0.977  -0.040  0.00  0.00     0.091 A 
ENDROOT
BRANCH   4   7
ATOM      7  C   UNL d   1       1.362   2.252  -0.059  0.00  0.00    -0.012 A 
ATOM      8  C   UNL d   1       2.760   2.222  -0.056  0.00  0.00     0.014 A 
ATOM      9  C   UNL d   1       3.489   3.413  -0.152  0.00  0.00     0.007 A 
ATOM     10  C   UNL d   1       2.829   4.644  -0.248  0.00  0.00    -0.062 A 
ATOM     11  C   UNL d   1       1.432   4.670  -0.251  0.00  0.00     0.007 A 
ATOM     12  C   UNL d   1       3.620   5.915  -0.360  0.00  0.00     0.048 C 
ATOM     13  C   UNL d   1       0.701   3.483  -0.155  0.00  0.00     0.014 A 
ENDBRANCH   4   7
BRANCH   3  14
ATOM     14  C   UNL d   1       0.420  -2.477   0.057  0.00  0.00     0.051 A 
ATOM     15  C   UNL d   1       1.619  -2.994   0.573  0.00  0.00     0.031 A 
ATOM     16  C   UNL d   1       1.884  -4.369   0.575  0.00  0.00     0.002 A 
ATOM     17  C   UNL d   1       0.964  -5.257   0.029  0.00  0.00     0.000 A 
ATOM     18  C   UNL d   1      -0.224  -4.771  -0.509  0.00  0.00     0.002 A 
ATOM     19  C   UNL d   1      -0.492  -3.398  -0.484  0.00  0.00     0.031 A 
ENDBRANCH   3  14
BRANCH   5  20
ATOM     20  C   UNL d   1      -2.093  -0.867   1.169  0.00  0.00    -0.033 A 
ATOM     21  C   UNL d   1      -1.586  -1.069   2.465  0.00  0.00     0.009 A 
ATOM     22  C   UNL d   1      -2.438  -1.370   3.526  0.00  0.00     0.001 A 
ATOM     23  C   UNL d   1      -3.811  -1.459   3.312  0.00  0.00     0.000 A 
ATOM     24  C   UNL d   1      -4.329  -1.249   2.037  0.00  0.00     0.001 A 
ATOM     25  C   UNL d   1      -3.479  -0.953   0.970  0.00  0.00     0.009 A 
ENDBRANCH   5  20
TORSDOF 3
