REMARK  5 active torsions:
REMARK  status: ('A' for Active; 'I' for Inactive)
REMARK    1  A    between atoms: N_5  and  C_1 
REMARK    2  A    between atoms: C_2  and  N_5 
REMARK    3  A    between atoms: N_12  and  C_2 
REMARK    4  A    between atoms: C_9  and  C_16 
REMARK    5  A    between atoms: C_16  and  N_12 
ROOT
ATOM      1  N   UNL d   1      -1.653   2.217   0.110  0.00  0.00    -0.331 N 
ATOM      2  H   UNL d   1      -1.154   2.653  -0.657  0.00  0.00     0.168 HD
ENDROOT
BRANCH   1   3
ATOM      3  C   UNL d   1      -3.006   2.438   0.093  0.00  0.00     0.172 C 
ATOM      4  S   UNL d   1      -4.221   1.313   0.316  0.00  0.00    -0.041 SA
BRANCH   3   5
ATOM      5  N   UNL d   1      -3.390   3.724  -0.183  0.00  0.00    -0.362 N 
ATOM      6  H   UNL d   1      -4.396   3.835  -0.145  0.00  0.00     0.162 HD
BRANCH   5   7
ATOM      7  C   UNL d   1      -2.703   4.673  -1.042  0.00  0.00     0.168 C 
BRANCH   7   8
ATOM      8  C   UNL d   1      -1.516   5.306  -0.387  0.00  0.00     0.000 A 
ATOM      9  S   UNL d   1      -0.125   5.639  -1.339  0.00  0.00    -0.105 SA
ATOM     10  C   UNL d   1       0.681   6.378  -0.031  0.00  0.00     0.050 A 
ATOM     11  C   UNL d   1      -0.075   6.362   1.120  0.00  0.00     0.008 A 
ATOM     12  C   UNL d   1      -1.344   5.739   0.914  0.00  0.00     0.017 A 
ENDBRANCH   7   8
ENDBRANCH   5   7
ENDBRANCH   3   5
ENDBRANCH   1   3
BRANCH   1  13
ATOM     13  C   UNL d   1      -0.929   1.177   0.754  0.00  0.00     0.069 A 
ATOM     14  C   UNL d   1       0.185   0.639   0.072  0.00  0.00     0.042 A 
ATOM     15  C   UNL d   1       0.970  -0.369   0.638  0.00  0.00     0.063 A 
ATOM     16 BR   UNL d   1       0.681   1.254  -1.662  0.00  0.00    -0.049 Br
ATOM     17  C   UNL d   1       0.654  -0.837   1.901  0.00  0.00     0.119 A 
ATOM     18  C   UNL d   1      -0.403  -0.301   2.622  0.00  0.00     0.063 A 
ATOM     19  F   UNL d   1       1.411  -1.793   2.458  0.00  0.00    -0.206 F 
ATOM     20  C   UNL d   1      -1.172   0.729   2.068  0.00  0.00     0.042 A 
ATOM     21 BR   UNL d   1      -2.320   1.622   3.303  0.00  0.00    -0.049 Br
ENDBRANCH   1  13
TORSDOF 5
