REMARK  7 active torsions:
REMARK  status: ('A' for Active; 'I' for Inactive)
REMARK    1  A    between atoms: C_3  and  C_1 
REMARK    2  A    between atoms: S_4  and  C_1 
REMARK    3  A    between atoms: S_5  and  C_2 
REMARK    4  A    between atoms: S_6  and  C_2 
REMARK    5  A    between atoms: C_10  and  S_4 
REMARK    6  A    between atoms: C_11  and  S_5 
REMARK    7  A    between atoms: C_12  and  S_6 
ROOT
ATOM      1  C   UNL d   1       1.199  -0.096  -0.231  0.00  0.00     0.113 C 
ATOM      2  C   UNL d   1       0.280  -0.978  -0.715  0.00  0.00     0.069 C 
ENDROOT
BRANCH   2   3
ATOM      3  S   UNL d   1      -1.414  -0.903  -0.245  0.00  0.00    -0.082 SA
BRANCH   3   4
ATOM      4  C   UNL d   1      -1.644  -2.108   1.062  0.00  0.00     0.006 A 
ATOM      5  C   UNL d   1      -2.707  -1.855   1.951  0.00  0.00     0.019 A 
ATOM      6  C   UNL d   1      -3.088  -2.792   2.919  0.00  0.00     0.001 A 
ATOM      7  C   UNL d   1      -2.412  -3.999   3.017  0.00  0.00     0.000 A 
ATOM      8  C   UNL d   1      -1.341  -4.261   2.159  0.00  0.00     0.001 A 
ATOM      9  C   UNL d   1      -0.962  -3.320   1.190  0.00  0.00     0.019 A 
ENDBRANCH   3   4
ENDBRANCH   2   3
BRANCH   2  10
ATOM     10  S   UNL d   1       0.667  -2.180  -1.955  0.00  0.00    -0.082 SA
BRANCH  10  11
ATOM     11  C   UNL d   1       0.283  -1.252  -3.439  0.00  0.00     0.006 A 
ATOM     12  C   UNL d   1       1.290  -0.567  -4.128  0.00  0.00     0.019 A 
ATOM     13  C   UNL d   1       1.010   0.094  -5.328  0.00  0.00     0.001 A 
ATOM     14  C   UNL d   1      -0.279   0.060  -5.860  0.00  0.00     0.000 A 
ATOM     15  C   UNL d   1      -1.284  -0.632  -5.190  0.00  0.00     0.001 A 
ATOM     16  C   UNL d   1      -1.005  -1.287  -3.984  0.00  0.00     0.019 A 
ENDBRANCH  10  11
ENDBRANCH   2  10
BRANCH   1  17
ATOM     17  C   UNL d   1       0.830   1.005   0.743  0.00  0.00     0.425 C 
ATOM     18  F   UNL d   1       1.845   1.876   1.004  0.00  0.00    -0.165 F 
ATOM     19  F   UNL d   1      -0.189   1.783   0.286  0.00  0.00    -0.165 F 
ATOM     20  F   UNL d   1       0.443   0.512   1.950  0.00  0.00    -0.165 F 
ENDBRANCH   1  17
BRANCH   1  21
ATOM     21  S   UNL d   1       2.889  -0.098  -0.789  0.00  0.00    -0.084 SA
BRANCH  21  22
ATOM     22  C   UNL d   1       3.711  -0.456   0.750  0.00  0.00     0.005 A 
ATOM     23  C   UNL d   1       3.536  -1.691   1.377  0.00  0.00     0.019 A 
ATOM     24  C   UNL d   1       4.146  -1.948   2.604  0.00  0.00     0.001 A 
ATOM     25  C   UNL d   1       4.948  -0.976   3.203  0.00  0.00     0.000 A 
ATOM     26  C   UNL d   1       5.157   0.245   2.564  0.00  0.00     0.001 A 
ATOM     27  C   UNL d   1       4.546   0.503   1.335  0.00  0.00     0.019 A 
ENDBRANCH  21  22
ENDBRANCH   1  21
TORSDOF 7
