REMARK  0 active torsions:
REMARK  status: ('A' for Active; 'I' for Inactive)
ROOT
ATOM      1  S   UNL d   1       0.435   1.758   0.935  0.00  0.00     0.266 S 
ATOM      2  N   UNL d   1      -0.335   2.226  -0.463  0.00  0.00    -0.246 N 
ATOM      3  C   UNL d   1       1.665   0.574   0.443  0.00  0.00     0.097 A 
ATOM      4  C   UNL d   1      -1.633   1.848  -0.845  0.00  0.00     0.266 C 
ATOM      5  C   UNL d   1       1.487  -0.406  -0.547  0.00  0.00     0.030 A 
ATOM      6  S   UNL d   1       0.118  -0.630  -1.672  0.00  0.00    -0.088 SA
ATOM      7  C   UNL d   1      -2.101   0.514  -0.427  0.00  0.00     0.050 A 
ATOM      8  C   UNL d   1      -1.324  -0.636  -0.633  0.00  0.00     0.021 A 
ATOM      9  O   UNL d   1       1.145   2.949   1.362  0.00  0.00    -0.200 OA
ATOM     10  O   UNL d   1      -0.471   1.087   1.834  0.00  0.00    -0.200 OA
ATOM     11  C   UNL d   1       2.559  -1.291  -0.796  0.00  0.00     0.044 A 
ATOM     12  C   UNL d   1       2.894   0.671   1.130  0.00  0.00     0.028 A 
ATOM     13  O   UNL d   1      -2.330   2.595  -1.513  0.00  0.00    -0.267 OA
ATOM     14  C   UNL d   1       3.765  -1.192  -0.102  0.00  0.00     0.035 A 
ATOM     15  C   UNL d   1       3.942  -0.203   0.854  0.00  0.00     0.025 A 
ATOM     16 CL   UNL d   1       5.045  -2.288  -0.444  0.00  0.00    -0.084 Cl
ATOM     17  C   UNL d   1      -3.300   0.458   0.294  0.00  0.00     0.018 A 
ATOM     18  C   UNL d   1      -1.762  -1.847  -0.084  0.00  0.00     0.020 A 
ATOM     19  C   UNL d   1      -3.707  -0.749   0.857  0.00  0.00     0.001 A 
ATOM     20  C   UNL d   1      -2.936  -1.897   0.673  0.00  0.00     0.001 A 
ATOM     21  H   UNL d   1      -0.091   3.179  -0.726  0.00  0.00     0.182 HD
ENDROOT
TORSDOF 0
