REMARK  4 active torsions:
REMARK  status: ('A' for Active; 'I' for Inactive)
REMARK    1  A    between atoms: C_8  and  C_3 
REMARK    2  A    between atoms: C_15  and  C_7 
REMARK       I    between atoms: C_9  and  N_10 
REMARK    3  A    between atoms: N_10  and  C_20 
REMARK    4  A    between atoms: N_13  and  C_12 
ROOT
ATOM      1  N   UNL d   1       1.582  -0.085  -0.037  0.00  0.00    -0.331 N 
ATOM      2  HN  UNL d   1       2.525  -0.474  -0.060  1.00  0.00     0.168 HD
ATOM      3  C   UNL d   1       1.219   1.158  -0.039  0.00  0.00     0.162 A 
ATOM      4  C   UNL d   1       0.380  -0.749   0.002  0.00  0.00     0.111 A 
ATOM      5  O   UNL d   1      -0.107   1.427   0.004  0.00  0.00    -0.256 OA
ATOM      6  C   UNL d   1      -0.749   0.227   0.036  0.00  0.00     0.316 A 
ATOM      7  C   UNL d   1       0.273  -2.083  -0.006  0.00  0.00     0.047 C 
ATOM      8  O   UNL d   1      -1.950   0.059   0.076  0.00  0.00    -0.257 OA
ENDROOT
BRANCH   3   9
ATOM      9  C   UNL d   1       2.088   2.339  -0.086  0.00  0.00     0.015 A 
ATOM     10  C   UNL d   1       3.478   2.186  -0.136  0.00  0.00     0.018 A 
ATOM     11  C   UNL d   1       4.307   3.314  -0.195  0.00  0.00     0.030 A 
ATOM     12  C   UNL d   1       3.762   4.604  -0.205  0.00  0.00     0.034 A 
ATOM     13  C   UNL d   1       2.375   4.744  -0.152  0.00  0.00     0.030 A 
ATOM     14  C   UNL d   1       1.541   3.627  -0.091  0.00  0.00     0.018 A 
BRANCH  12  15
ATOM     15  N   UNL d   1       4.651   5.702  -0.273  0.00  0.00    -0.328 N 
ATOM     16  C   UNL d   1       4.311   7.043  -0.288  0.00  0.00     0.218 C 
ATOM     17  O   UNL d   1       3.179   7.516  -0.241  0.00  0.00    -0.274 OA
ATOM     18  C   UNL d   1       5.498   7.967  -0.375  0.00  0.00     0.117 C 
ATOM     19  H   UNL d   1       5.636   5.473  -0.311  0.00  0.00     0.169 HD
ENDBRANCH  12  15
ENDBRANCH   3   9
BRANCH   7  20
ATOM     20  C   UNL d   1      -0.982  -2.828   0.014  0.00  0.00    -0.034 A 
ATOM     21  C   UNL d   1      -1.559  -3.268  -1.175  0.00  0.00     0.013 A 
ATOM     22  C   UNL d   1      -2.760  -3.993  -1.153  0.00  0.00     0.030 A 
ATOM     23  C   UNL d   1      -3.423  -4.312   0.044  0.00  0.00     0.029 A 
ATOM     24  C   UNL d   1      -2.812  -3.850   1.223  0.00  0.00     0.030 A 
ATOM     25  C   UNL d   1      -1.618  -3.115   1.216  0.00  0.00     0.013 A 
BRANCH  23  26
ATOM     26  N   UNL d   1      -4.573  -5.091   0.086  0.00  0.00    -0.390 N 
ATOM     27  C   UNL d   1      -5.602  -4.839   1.094  0.00  0.00     0.149 C 
ATOM     28  C   UNL d   1      -5.038  -5.842  -1.077  0.00  0.00     0.149 C 
ENDBRANCH  23  26
ENDBRANCH   7  20
TORSDOF 4
