REMARK  5 active torsions:
REMARK  status: ('A' for Active; 'I' for Inactive)
REMARK    1  A    between atoms: S_10  and  C_1 
REMARK    2  A    between atoms: C_14  and  C_5 
REMARK    3  A    between atoms: C_11  and  C_7 
REMARK    4  A    between atoms: C_15  and  C_7 
REMARK    5  A    between atoms: N_8  and  S_10 
ROOT
ATOM      1  C   UNL d   1      -1.485   1.349   0.064  0.00  0.00     0.126 A 
ATOM      2  N   UNL d   1      -0.190   0.850   0.035  0.00  0.00    -0.299 N 
ATOM      3  N   UNL d   1      -1.565  -0.924  -0.109  0.00  0.00    -0.339 N 
ATOM      4  HN  UNL d   1      -1.914  -1.878  -0.204  1.00  0.00     0.167 HD
ATOM      5  C   UNL d   1      -2.314   0.234  -0.015  0.00  0.00     0.080 A 
ATOM      6  C   UNL d   1      -0.312  -0.540  -0.051  0.00  0.00     0.113 A 
ATOM      7  C   UNL d   1       1.062   1.477   0.090  0.00  0.00     0.099 A 
ATOM      8  C   UNL d   1       0.883  -1.315  -0.054  0.00  0.00     0.049 A 
ATOM      9  C   UNL d   1       2.185   0.742   0.060  0.00  0.00     0.018 A 
ATOM     10  C   UNL d   1       2.082  -0.705  -0.003  0.00  0.00     0.005 A 
ENDROOT
BRANCH   1  11
ATOM     11  S   UNL d   1      -1.870   3.030   0.290  0.00  0.00     0.007 SA
BRANCH  11  12
ATOM     12  N   UNL d   1      -0.851   3.841  -0.748  0.00  0.00    -0.320 N 
ATOM     13  C   UNL d   1      -1.326   4.886  -1.381  0.00  0.00     0.133 C 
ATOM     14  HN  UNL d   1       0.112   3.534  -0.887  1.00  0.00     0.174 HD
BRANCH  13  15
ATOM     15  C   UNL d   1      -2.800   5.324  -1.422  0.00  0.00     0.433 C 
ATOM     16  F   UNL d   1      -3.063   6.328  -2.308  0.00  0.00    -0.165 F 
ATOM     17  F   UNL d   1      -3.635   4.310  -1.786  0.00  0.00    -0.165 F 
ATOM     18  F   UNL d   1      -3.239   5.777  -0.214  0.00  0.00    -0.165 F 
ENDBRANCH  13  15
BRANCH  13  19
ATOM     19  C   UNL d   1      -0.340   5.744  -2.118  0.00  0.00    -0.004 A 
ATOM     20  C   UNL d   1       0.795   5.147  -2.682  0.00  0.00     0.013 A 
ATOM     21  C   UNL d   1       1.735   5.925  -3.364  0.00  0.00     0.001 A 
ATOM     22  C   UNL d   1       1.552   7.301  -3.485  0.00  0.00     0.000 A 
ATOM     23  C   UNL d   1       0.442   7.907  -2.901  0.00  0.00     0.001 A 
ATOM     24  C   UNL d   1      -0.494   7.135  -2.207  0.00  0.00     0.013 A 
ENDBRANCH  13  19
ENDBRANCH  11  12
ENDBRANCH   1  11
BRANCH   5  25
ATOM     25  C   UNL d   1      -3.774   0.163  -0.040  0.00  0.00    -0.006 A 
ATOM     26  C   UNL d   1      -4.605   1.086   0.608  0.00  0.00     0.014 A 
ATOM     27  C   UNL d   1      -5.998   0.990   0.516  0.00  0.00     0.001 A 
ATOM     28  C   UNL d   1      -6.583  -0.054  -0.196  0.00  0.00     0.000 A 
ATOM     29  C   UNL d   1      -5.776  -1.009  -0.806  0.00  0.00     0.001 A 
ATOM     30  C   UNL d   1      -4.384  -0.900  -0.727  0.00  0.00     0.014 A 
ENDBRANCH   5  25
TORSDOF 5
