REMARK  4 active torsions:
REMARK  status: ('A' for Active; 'I' for Inactive)
REMARK    1  A    between atoms: N_4  and  C_1 
REMARK       I    between atoms: C_6  and  N_4 
REMARK       I    between atoms: N_10  and  C_6 
REMARK    2  A    between atoms: C_12  and  N_10 
REMARK    3  A    between atoms: C_13  and  C_12 
REMARK    4  A    between atoms: C_14  and  C_13 
ROOT
ATOM      1  N   UNL d   1       2.627   1.532  -0.100  0.00  0.00    -0.294 N 
ATOM      2  C   UNL d   1       3.878   0.977  -0.127  0.00  0.00     0.321 C 
ATOM      3  O   UNL d   1       4.010  -0.244  -0.152  0.00  0.00    -0.247 OA
ATOM      4  N   UNL d   1       4.925   1.846  -0.107  0.00  0.00    -0.343 N 
ATOM      5  H   UNL d   1       1.873   0.862  -0.083  0.00  0.00     0.172 HD
ATOM      6  H   UNL d   1       4.663   2.829  -0.173  0.00  0.00     0.164 HD
ENDROOT
BRANCH   1   7
ATOM      7  C   UNL d   1       2.305   2.872  -0.108  0.00  0.00     0.125 A 
ATOM      8  N   UNL d   1       3.210   3.853  -0.169  0.00  0.00    -0.284 N 
ATOM      9  N   UNL d   1       2.490   4.983  -0.152  0.00  0.00    -0.306 N 
ATOM     10  HN  UNL d   1       4.225   3.762  -0.217  1.00  0.00     0.188 HD
ATOM     11  C   UNL d   1       3.171   6.253  -0.208  0.00  0.00     0.177 C 
ATOM     12  C   UNL d   1       1.148   4.765  -0.094  0.00  0.00     0.113 A 
ATOM     13  C   UNL d   1       0.992   3.398  -0.064  0.00  0.00     0.069 A 
ENDBRANCH   1   7
BRANCH   4  14
ATOM     14  C   UNL d   1       6.314   1.480  -0.193  0.00  0.00     0.124 C 
BRANCH  14  15
ATOM     15  C   UNL d   1       6.795   1.330  -1.636  0.00  0.00     0.019 C 
BRANCH  15  16
ATOM     16  C   UNL d   1       6.725   2.641  -2.425  0.00  0.00    -0.003 C 
ATOM     17  C   UNL d   1       7.275   2.469  -3.834  0.00  0.00     0.005 C 
ENDBRANCH  15  16
ENDBRANCH  14  15
ENDBRANCH   4  14
TORSDOF 4
