REMARK  8 active torsions:
REMARK  status: ('A' for Active; 'I' for Inactive)
REMARK       I    between atoms: N_13  and  C1_1 
REMARK    1  A    between atoms: O3_3  and  C1_1 
REMARK    2  A    between atoms: C6_4  and  O3_3 
REMARK    3  A    between atoms: C7_5  and  C6_4 
REMARK    4  A    between atoms: CB_11  and  CA_12 
REMARK    5  A    between atoms: CG_15  and  CB_11 
REMARK    6  A    between atoms: CA_12  and  N_13 
REMARK    7  A    between atoms: C_14  and  CA_12 
REMARK    8  A    between atoms: OXT_19  and  C_14 
REMARK       I    between atoms: ND2_18  and  CG_15 
ROOT
ATOM      1  C1  <1> d   1       0.965   0.056   0.569  0.00  0.00     0.361 C 
ATOM      2  O1  <1> d   1       0.331  -0.981   0.701  0.00  0.00    -0.238 OA
ATOM      3  N   ASN d   1       0.350   1.200   0.153  0.00  0.00    -0.322 N 
ATOM      4  H   ASN d   1      -0.657   1.106   0.034  0.00  0.00     0.165 HD
ENDROOT
BRANCH   3   5
ATOM      5  CA  ASN d   1       0.996   2.386  -0.427  0.00  0.00     0.193 C 
BRANCH   5   6
ATOM      6  CB  ASN d   1       0.108   3.084  -1.468  0.00  0.00     0.138 C 
BRANCH   6   7
ATOM      7  CG  ASN d   1      -1.189   3.576  -0.865  0.00  0.00     0.217 C 
ATOM      8  OD1 ASN d   1      -1.774   2.980   0.034  0.00  0.00    -0.274 OA
ATOM      9  ND2 ASN d   1      -1.728   4.685  -1.441  0.00  0.00    -0.370 N 
ATOM     10 1HD2 ASN d   1      -1.180   5.316  -2.012  0.00  0.00     0.159 HD
ATOM     11 2HD2 ASN d   1      -2.565   5.061  -1.013  0.00  0.00     0.159 HD
ENDBRANCH   6   7
ENDBRANCH   5   6
BRANCH   5  12
ATOM     12  C   ASN d   1       1.417   3.422   0.621  0.00  0.00     0.164 C 
ATOM     13  O   ASN d   1       1.995   4.464   0.345  0.00  0.00    -0.648 OA
BRANCH  12  14
ATOM     14  OXT ASN d   1       1.049   3.107   1.881  0.00  0.00    -0.775 OA
ATOM     15  HXT ASN d   1       0.551   2.263   1.892  0.00  0.00     0.167 HD
ENDBRANCH  12  14
ENDBRANCH   5  12
ENDBRANCH   3   5
BRANCH   1  16
ATOM     16  O3  <1> d   1       2.282   0.222   0.827  0.00  0.00    -0.299 OA
BRANCH  16  17
ATOM     17  C6  <1> d   1       2.990  -0.979   1.183  0.00  0.00     0.219 C 
BRANCH  17  18
ATOM     18  C7  <1> d   1       2.930  -1.304   2.659  0.00  0.00    -0.034 A 
ATOM     19  C8  <1> d   1       1.958  -2.188   3.152  0.00  0.00     0.009 A 
ATOM     20  C11 <1> d   1       1.930  -2.541   4.503  0.00  0.00     0.001 A 
ATOM     21  C12 <1> d   1       2.875  -2.015   5.380  0.00  0.00     0.000 A 
ATOM     22  C10 <1> d   1       3.838  -1.125   4.907  0.00  0.00     0.001 A 
ATOM     23  C9  <1> d   1       3.862  -0.765   3.556  0.00  0.00     0.009 A 
ENDBRANCH  17  18
ENDBRANCH  16  17
ENDBRANCH   1  16
TORSDOF 8
