REMARK  6 active torsions:
REMARK  status: ('A' for Active; 'I' for Inactive)
REMARK    1  A    between atoms: C_10  and  C_3 
REMARK    2  A    between atoms: C_4  and  C_9 
REMARK    3  A    between atoms: C_23  and  C_5 
REMARK    4  A    between atoms: C_8  and  C_13 
REMARK    5  A    between atoms: O_24  and  C_23 
REMARK    6  A    between atoms: C_25  and  O_24 
ROOT
ATOM      1  N   UNL d   1       0.509  -0.417  -1.013  0.00  0.00    -0.351 N 
ATOM      2  HN  UNL d   1       0.536  -0.745  -1.979  1.00  0.00     0.166 HD
ATOM      3  C   UNL d   1       0.682   0.902  -0.618  0.00  0.00     0.049 A 
ATOM      4  C   UNL d   1       0.307  -1.187   0.038  0.00  0.00     0.075 A 
ATOM      5  S   UNL d   1       0.320  -0.372   1.556  0.00  0.00    -0.084 SA
ATOM      6  C   UNL d   1       0.614   1.108   0.747  0.00  0.00     0.082 A 
ENDROOT
BRANCH   4   7
ATOM      7  C   UNL d   1       0.027  -2.662  -0.009  0.00  0.00     0.240 C 
BRANCH   7   8
ATOM      8  O   UNL d   1       1.274  -3.341   0.175  0.00  0.00    -0.345 OA
BRANCH   8   9
ATOM      9  C   UNL d   1       1.213  -4.702   0.041  0.00  0.00     0.069 A 
ATOM     10  C   UNL d   1       2.356  -5.311  -0.477  0.00  0.00     0.037 A 
ATOM     11  C   UNL d   1       2.399  -6.697  -0.664  0.00  0.00     0.012 A 
ATOM     12  C   UNL d   1       1.302  -7.503  -0.320  0.00  0.00    -0.035 A 
ATOM     13  C   UNL d   1       0.176  -6.880   0.243  0.00  0.00     0.012 A 
ATOM     14  C   UNL d   1       0.132  -5.492   0.423  0.00  0.00     0.037 A 
BRANCH  12  15
ATOM     15  C   UNL d   1       1.350  -8.996  -0.576  0.00  0.00     0.141 C 
ATOM     16  S   UNL d   1       0.039  -9.537  -1.723  0.00  0.00    -0.148 SA
ATOM     17  C   UNL d   1      -0.214 -11.160  -0.973  0.00  0.00     0.085 C 
ATOM     18  C   UNL d   1      -0.173 -10.977   0.531  0.00  0.00     0.085 C 
ATOM     19  S   UNL d   1       1.280  -9.980   0.959  0.00  0.00    -0.148 SA
ENDBRANCH  12  15
ENDBRANCH   8   9
ENDBRANCH   7   8
ENDBRANCH   4   7
BRANCH   3  20
ATOM     20  C   UNL d   1       0.934   1.960  -1.591  0.00  0.00    -0.009 A 
ATOM     21  C   UNL d   1       0.547   3.287  -1.355  0.00  0.00     0.014 A 
ATOM     22  C   UNL d   1       0.806   4.285  -2.301  0.00  0.00     0.017 A 
ATOM     23  C   UNL d   1       1.455   3.979  -3.504  0.00  0.00     0.048 A 
ATOM     24  C   UNL d   1       1.835   2.649  -3.744  0.00  0.00     0.017 A 
ATOM     25  C   UNL d   1       1.573   1.652  -2.799  0.00  0.00     0.014 A 
BRANCH  23  26
ATOM     26  C   UNL d   1       1.743   5.047  -4.531  0.00  0.00     0.417 C 
ATOM     27  F   UNL d   1       1.310   6.286  -4.163  0.00  0.00    -0.166 F 
ATOM     28  F   UNL d   1       3.074   5.180  -4.787  0.00  0.00    -0.166 F 
ATOM     29  F   UNL d   1       1.154   4.789  -5.732  0.00  0.00    -0.166 F 
ENDBRANCH  23  26
ENDBRANCH   3  20
TORSDOF 6
