REMARK  4 active torsions:
REMARK  status: ('A' for Active; 'I' for Inactive)
REMARK    1  A    between atoms: C_5  and  C_1 
REMARK    2  A    between atoms: C_12  and  C_2 
REMARK    3  A    between atoms: C_15  and  C_6 
REMARK    4  A    between atoms: C_14  and  C_7 
ROOT
ATOM      1  C   UNL d   1       1.187   0.682  -0.038  0.00  0.00     0.059 A 
ATOM      2  C   UNL d   1      -0.132   1.082   0.009  0.00  0.00     0.174 A 
ATOM      3  C   UNL d   1      -0.130  -1.141  -0.031  0.00  0.00     0.089 A 
ATOM      4  O   UNL d   1      -0.937  -0.036   0.013  0.00  0.00    -0.304 OA
ATOM      5  C   UNL d   1       1.185  -0.735  -0.113  0.00  0.00     0.056 A 
ENDROOT
BRANCH   1   6
ATOM      6  C   UNL d   1       2.404   1.534  -0.005  0.00  0.00     0.185 A 
ATOM      7  N   UNL d   1       3.622   1.047  -0.123  0.00  0.00    -0.318 N 
ATOM      8  C   UNL d   1       4.415   2.164  -0.002  0.00  0.00     0.145 A 
ATOM      9  HN  UNL d   1       3.907   0.078  -0.270  1.00  0.00     0.169 HD
ATOM     10  N   UNL d   1       3.734   3.301   0.188  0.00  0.00    -0.241 N 
ATOM     11  O   UNL d   1       2.406   2.890   0.179  0.00  0.00    -0.217 OA
ATOM     12  HN  UNL d   1       4.102   4.245   0.310  1.00  0.00     0.196 HD
BRANCH   8  13
ATOM     13  C   UNL d   1       5.908   2.105  -0.084  0.00  0.00     0.050 A 
ATOM     14  S   UNL d   1       6.934   3.458   0.101  0.00  0.00    -0.098 SA
ATOM     15  C   UNL d   1       8.335   2.509  -0.146  0.00  0.00     0.050 A 
ATOM     16  C   UNL d   1       8.028   1.184  -0.367  0.00  0.00     0.009 A 
ATOM     17  C   UNL d   1       6.621   0.949  -0.324  0.00  0.00     0.023 A 
ENDBRANCH   8  13
ENDBRANCH   1   6
BRANCH   2  18
ATOM     18  C   UNL d   1      -0.841   2.386   0.042  0.00  0.00     0.440 C 
ATOM     19  F   UNL d   1      -0.011   3.446  -0.115  0.00  0.00    -0.164 F 
ATOM     20  F   UNL d   1      -1.769   2.481  -0.944  0.00  0.00    -0.164 F 
ATOM     21  F   UNL d   1      -1.493   2.576   1.217  0.00  0.00    -0.164 F 
ENDBRANCH   2  18
BRANCH   3  22
ATOM     22  C   UNL d   1      -0.805  -2.439   0.005  0.00  0.00     0.019 A 
ATOM     23  C   UNL d   1      -0.251  -3.579   0.618  0.00  0.00     0.047 A 
ATOM     24 CL   UNL d   1       1.235  -3.550   1.510  0.00  0.00    -0.083 Cl
ATOM     25  C   UNL d   1      -0.912  -4.814   0.567  0.00  0.00     0.025 A 
ATOM     26  C   UNL d   1      -2.141  -4.930  -0.077  0.00  0.00     0.002 A 
ATOM     27  C   UNL d   1      -2.720  -3.809  -0.662  0.00  0.00     0.001 A 
ATOM     28  C   UNL d   1      -2.059  -2.576  -0.619  0.00  0.00     0.016 A 
ENDBRANCH   3  22
TORSDOF 4
