REMARK  4 active torsions:
REMARK  status: ('A' for Active; 'I' for Inactive)
REMARK    1  A    between atoms: C_5  and  N_1 
REMARK    2  A    between atoms: C_2  and  C_8 
REMARK    3  A    between atoms: C_9  and  C_3 
REMARK    4  A    between atoms: C_4  and  C_13 
ROOT
ATOM      1  C   UNL d   1       1.496  -2.998   4.045  0.00  0.00     0.055 C 
ATOM      2  C   UNL d   1       0.386  -3.408   3.396  0.00  0.00     0.035 C 
ATOM      3  C   UNL d   1       2.308  -1.935   3.482  0.00  0.00     0.100 C 
ATOM      4  N   UNL d   1       2.940  -1.077   3.011  0.00  0.00    -0.191 NA
ENDROOT
BRANCH   1   5
ATOM      5  C   UNL d   1       1.876  -3.616   5.359  0.00  0.00    -0.015 A 
ATOM      6  C   UNL d   1       2.536  -2.862   6.346  0.00  0.00     0.029 A 
ATOM      7  C   UNL d   1       2.936  -3.432   7.576  0.00  0.00     0.048 A 
ATOM      8  C   UNL d   1       2.662  -4.783   7.825  0.00  0.00     0.016 A 
ATOM      9  C   UNL d   1       2.004  -5.550   6.868  0.00  0.00     0.002 A 
ATOM     10  C   UNL d   1       1.623  -4.973   5.649  0.00  0.00     0.013 A 
BRANCH   7  11
ATOM     11  C   UNL d   1       3.671  -2.615   8.615  0.00  0.00     0.417 C 
ATOM     12  F   UNL d   1       3.869  -1.320   8.247  0.00  0.00    -0.166 F 
ATOM     13  F   UNL d   1       3.011  -2.569   9.805  0.00  0.00    -0.166 F 
ATOM     14  F   UNL d   1       4.906  -3.119   8.892  0.00  0.00    -0.166 F 
ENDBRANCH   7  11
ENDBRANCH   1   5
BRANCH   2  15
ATOM     15  C   UNL d   1      -0.070  -2.847   2.117  0.00  0.00    -0.032 A 
ATOM     16  C   UNL d   1       0.452  -3.311   0.904  0.00  0.00     0.047 A 
ATOM     17  C   UNL d   1       0.059  -2.699  -0.296  0.00  0.00     0.103 A 
ATOM     18  C   UNL d   1      -0.860  -1.641  -0.295  0.00  0.00     0.036 A 
ATOM     19  C   UNL d   1      -1.386  -1.194   0.917  0.00  0.00     0.003 A 
ATOM     20  C   UNL d   1      -0.994  -1.794   2.116  0.00  0.00     0.011 A 
BRANCH  17  21
ATOM     21  N   UNL d   1       0.622  -3.160  -1.572  0.00  0.00    -0.116 N 
ATOM     22  O   UNL d   1       1.422  -4.108  -1.537  0.00  0.00    -0.532 OA
ATOM     23  O   UNL d   1       0.259  -2.583  -2.605  0.00  0.00    -0.532 OA
ENDBRANCH  17  21
ENDBRANCH   2  15
TORSDOF 4
