REMARK  3 active torsions:
REMARK  status: ('A' for Active; 'I' for Inactive)
REMARK    1  A    between atoms: C_4  and  C_1 
REMARK    2  A    between atoms: O_7  and  C_4 
REMARK    3  A    between atoms: C_8  and  O_7 
ROOT
ATOM      1  C   UNL d   1       3.903  -0.108   0.471  0.00  0.00     0.307 C 
ATOM      2  O   UNL d   1       4.681   0.806   0.222  0.00  0.00    -0.258 OA
ENDROOT
BRANCH   1   3
ATOM      3  C   UNL d   1       2.456  -0.082   0.326  0.00  0.00     0.103 A 
ATOM      4  S   UNL d   1       1.731   1.379  -0.202  0.00  0.00    -0.082 SA
ATOM      5  C   UNL d   1       0.140   0.743  -0.100  0.00  0.00     0.018 A 
ATOM      6  C   UNL d   1      -1.064   1.418  -0.385  0.00  0.00     0.020 A 
ATOM      7  C   UNL d   1       0.150  -0.589   0.315  0.00  0.00     0.004 A 
ATOM      8  C   UNL d   1      -2.273   0.729  -0.272  0.00  0.00     0.001 A 
ATOM      9  C   UNL d   1      -2.292  -0.601   0.119  0.00  0.00     0.001 A 
ATOM     10  C   UNL d   1      -1.098  -1.260   0.418  0.00  0.00     0.014 A 
ATOM     11  C   UNL d   1       1.493  -1.041   0.582  0.00  0.00     0.068 A 
ATOM     12 CL   UNL d   1       1.759  -2.641   1.173  0.00  0.00    -0.082 Cl
ENDBRANCH   1   3
BRANCH   1  13
ATOM     13  O   UNL d   1       4.300  -1.348   0.964  0.00  0.00    -0.273 OA
BRANCH  13  14
ATOM     14  C   UNL d   1       5.529  -1.399   1.635  0.00  0.00     0.101 A 
ATOM     15  C   UNL d   1       5.729  -0.733   2.851  0.00  0.00     0.070 A 
ATOM     16  C   UNL d   1       6.921  -0.923   3.547  0.00  0.00     0.069 A 
ATOM     17 CL   UNL d   1       4.513   0.257   3.572  0.00  0.00    -0.081 Cl
ATOM     18  C   UNL d   1       7.874  -1.799   3.039  0.00  0.00     0.118 A 
ATOM     19  C   UNL d   1       7.668  -2.483   1.844  0.00  0.00     0.045 A 
ATOM     20  F   UNL d   1       9.002  -2.011   3.731  0.00  0.00    -0.206 F 
ATOM     21  C   UNL d   1       6.485  -2.285   1.133  0.00  0.00     0.042 A 
ENDBRANCH  13  14
ENDBRANCH   1  13
TORSDOF 3
