REMARK  7 active torsions:
REMARK  status: ('A' for Active; 'I' for Inactive)
REMARK    1  A    between atoms: N_4  and  C_1 
REMARK    2  A    between atoms: C_9  and  C_2 
REMARK    3  A    between atoms: O_17  and  C_3 
REMARK       I    between atoms: C_6  and  N_4 
REMARK    4  A    between atoms: O_18  and  C_5 
REMARK    5  A    between atoms: C_10  and  C_6 
REMARK    6  A    between atoms: O_20  and  C_8 
REMARK    7  A    between atoms: O_19  and  C_9 
ROOT
ATOM      1  C   UNL d   1       1.346  -0.424   0.144  0.00  0.00     0.088 C 
ATOM      2  C   UNL d   1       0.473  -1.205  -0.633  0.00  0.00     0.071 C 
ATOM      3  C   UNL d   1       0.981   0.907   0.443  0.00  0.00     0.132 C 
ATOM      4  C   UNL d   1      -0.343   1.339   0.237  0.00  0.00     0.137 C 
ATOM      5  C   UNL d   1      -0.854  -0.778  -0.805  0.00  0.00     0.059 C 
ATOM      6  C   UNL d   1      -1.284   0.454  -0.311  0.00  0.00     0.105 C 
ENDROOT
BRANCH   1   7
ATOM      7  N   UNL d   1       2.535  -1.002   0.679  0.00  0.00    -0.319 N 
ATOM      8  C   UNL d   1       2.813  -0.914   2.045  0.00  0.00     0.263 C 
ATOM      9  O   UNL d   1       2.117  -0.275   2.835  0.00  0.00    -0.267 OA
ATOM     10  H   UNL d   1       2.874  -1.857   0.234  0.00  0.00     0.169 HD
BRANCH   8  11
ATOM     11  C   UNL d   1       3.929  -1.717   2.532  0.00  0.00     0.072 A 
ATOM     12  S   UNL d   1       5.074  -2.453   1.499  0.00  0.00    -0.097 SA
ATOM     13  C   UNL d   1       5.949  -3.105   2.819  0.00  0.00     0.050 A 
ATOM     14  C   UNL d   1       5.377  -2.781   4.029  0.00  0.00     0.009 A 
ATOM     15  C   UNL d   1       4.220  -1.974   3.864  0.00  0.00     0.025 A 
ENDBRANCH   8  11
ENDBRANCH   1   7
BRANCH   2  16
ATOM     16  C   UNL d   1       0.946  -2.446  -1.307  0.00  0.00     0.295 C 
ATOM     17  O   UNL d   1       2.077  -2.893  -1.194  0.00  0.00    -0.259 OA
BRANCH  16  18
ATOM     18  O   UNL d   1      -0.017  -2.901  -2.147  0.00  0.00    -0.322 OA
ATOM     19  C   UNL d   1       0.384  -3.895  -3.090  0.00  0.00     0.213 C 
ENDBRANCH  16  18
ENDBRANCH   2  16
BRANCH   3  20
ATOM     20  O   UNL d   1       1.890   1.808   0.948  0.00  0.00    -0.351 OA
ATOM     21  C   UNL d   1       3.078   1.928   0.159  0.00  0.00     0.210 C 
ENDBRANCH   3  20
BRANCH   4  22
ATOM     22  O   UNL d   1      -0.817   2.574   0.612  0.00  0.00    -0.351 OA
ATOM     23  C   UNL d   1      -0.037   3.674   0.155  0.00  0.00     0.210 C 
ENDBRANCH   4  22
BRANCH   6  24
ATOM     24  O   UNL d   1      -2.581   0.889  -0.410  0.00  0.00    -0.353 OA
ATOM     25  C   UNL d   1      -3.579  -0.122  -0.526  0.00  0.00     0.210 C 
ENDBRANCH   6  24
TORSDOF 7
