REMARK  0 active torsions:
REMARK  status: ('A' for Active; 'I' for Inactive)
ROOT
ATOM      1  C   UNL d   1      -1.001  -0.980   0.023  0.00  0.00     0.091 A 
ATOM      2  C   UNL d   1      -0.609   0.345   0.019  0.00  0.00     0.073 A 
ATOM      3  S   UNL d   1       0.341  -2.036   0.023  0.00  0.00    -0.075 SA
ATOM      4  C   UNL d   1       0.812   0.497   0.043  0.00  0.00    -0.026 A 
ATOM      5  C   UNL d   1       1.440  -0.735   0.017  0.00  0.00    -0.008 A 
ATOM      6  N   UNL d   1      -2.279  -1.448   0.022  0.00  0.00    -0.346 N 
ATOM      7  HN  UNL d   1      -2.506  -2.443   0.030  1.00  0.00     0.167 HD
ATOM      8  C   UNL d   1      -1.651   1.352  -0.010  0.00  0.00     0.259 A 
ATOM      9  N   UNL d   1      -2.925   0.828  -0.005  0.00  0.00    -0.319 N 
ATOM     10  C   UNL d   1      -3.180  -0.522   0.010  0.00  0.00     0.184 A 
ATOM     11  O   UNL d   1      -1.449   2.561  -0.041  0.00  0.00    -0.267 OA
ATOM     12  C   UNL d   1       1.580   1.786   0.048  0.00  0.00     0.041 C 
ATOM     13  C   UNL d   1       2.922  -0.945   0.015  0.00  0.00     0.047 C 
ATOM     14  C   UNL d   1       3.073   1.569   0.339  0.00  0.00     0.005 C 
ATOM     15  C   UNL d   1       3.635   0.350  -0.407  0.00  0.00     0.005 C 
ATOM     16  H   UNL d   1      -3.678   1.499  -0.025  0.00  0.00     0.169 HD
ENDROOT
TORSDOF 0
