REMARK  2 active torsions:
REMARK  status: ('A' for Active; 'I' for Inactive)
REMARK    1  A    between atoms: N_2  and  C_1 
REMARK    2  A    between atoms: C_3  and  N_2 
ROOT
ATOM      1  C   UNL d   1       0.941   1.810  -1.785  0.00  0.00     0.040 A 
ATOM      2  C   UNL d   1       1.954   1.333  -2.638  0.00  0.00    -0.035 A 
ATOM      3  C   UNL d   1       2.511   2.210  -3.591  0.00  0.00     0.015 A 
ATOM      4  C   UNL d   1       0.451   3.110  -1.973  0.00  0.00     0.030 A 
ATOM      5  C   UNL d   1       2.045   3.521  -3.744  0.00  0.00    -0.061 A 
ATOM      6  C   UNL d   1       0.996   3.959  -2.938  0.00  0.00     0.009 A 
ATOM      7  C   UNL d   1       2.574  -0.035  -2.529  0.00  0.00     0.050 C 
ATOM      8  C   UNL d   1       2.672   4.432  -4.756  0.00  0.00     0.048 C 
ENDROOT
BRANCH   1   9
ATOM      9  N   UNL d   1       0.389   0.964  -0.797  0.00  0.00    -0.333 N 
ATOM     10  H   UNL d   1       0.454  -0.033  -0.962  0.00  0.00     0.168 HD
BRANCH   9  11
ATOM     11  C   UNL d   1      -0.270   1.268   0.349  0.00  0.00     0.170 C 
ATOM     12  S   UNL d   1      -1.131   0.107   1.171  0.00  0.00    -0.041 SA
ATOM     13  N   UNL d   1      -0.159   2.513   0.855  0.00  0.00    -0.376 N 
ATOM     14  H   UNL d   1       0.669   3.048   0.625  0.00  0.00     0.158 HD
ATOM     15  H   UNL d   1      -0.535   2.665   1.783  0.00  0.00     0.158 HD
ENDBRANCH   9  11
ENDBRANCH   1   9
TORSDOF 2
