REMARK  0 active torsions:
REMARK  status: ('A' for Active; 'I' for Inactive)
ROOT
ATOM      1  N   UNL d   1       0.906   1.022  -0.097  0.00  0.00    -0.342 N 
ATOM      2  C   UNL d   1      -0.035  -0.065  -0.060  0.00  0.00     0.082 C 
ATOM      3  C   UNL d   1       2.243   0.757   0.036  0.00  0.00     0.228 C 
ATOM      4  S   UNL d   1       0.972  -1.577  -0.134  0.00  0.00    -0.128 SA
ATOM      5  O   UNL d   1       3.090   1.639   0.052  0.00  0.00    -0.273 OA
ATOM      6  C   UNL d   1       2.534  -0.716   0.176  0.00  0.00     0.179 C 
ATOM      7  C   UNL d   1      -0.883  -0.046   1.225  0.00  0.00     0.042 C 
ATOM      8  C   UNL d   1      -1.028   0.029  -1.232  0.00  0.00     0.042 C 
ATOM      9  C   UNL d   1      -2.253   0.455   0.779  0.00  0.00     0.003 C 
ATOM     10  C   UNL d   1      -2.409  -0.140  -0.609  0.00  0.00     0.003 C 
ATOM     11  H   UNL d   1       0.619   1.991  -0.160  0.00  0.00     0.164 HD
ENDROOT
TORSDOF 0
