REMARK  2 active torsions:
REMARK  status: ('A' for Active; 'I' for Inactive)
REMARK    1  A    between atoms: N_8  and  C_1 
REMARK       I    between atoms: C_2  and  N_5 
REMARK    2  A    between atoms: C_7  and  C_2 
REMARK       I    between atoms: N_5  and  C_6 
REMARK       I    between atoms: C_6  and  N_8 
ROOT
ATOM      1  C   UNL d   1       1.508  -3.797   0.313  0.00  0.00     0.263 C 
ATOM      2  N   UNL d   1       2.793  -4.231   0.569  0.00  0.00    -0.275 N 
ATOM      3  C   UNL d   1       3.935  -3.496   0.789  0.00  0.00     0.329 C 
ATOM      4  N   UNL d   1       3.827  -2.149   0.615  0.00  0.00    -0.288 N 
ATOM      5  O   UNL d   1       1.216  -2.650  -0.006  0.00  0.00    -0.267 OA
ATOM      6  O   UNL d   1       4.936  -4.124   1.130  0.00  0.00    -0.247 OA
ATOM      7  H   UNL d   1       2.959  -5.212   0.753  0.00  0.00     0.173 HD
ATOM      8  H   UNL d   1       3.021  -1.775   0.128  0.00  0.00     0.172 HD
ENDROOT
BRANCH   4   9
ATOM      9  C   UNL d   1       4.832  -1.302   0.998  0.00  0.00     0.153 A 
ATOM     10  N   UNL d   1       5.847  -1.571   1.774  0.00  0.00    -0.335 N 
ATOM     11  C   UNL d   1       6.630  -0.446   1.928  0.00  0.00     0.053 A 
ATOM     12  HN  UNL d   1       6.034  -2.478   2.203  1.00  0.00     0.168 HD
ATOM     13  C   UNL d   1       7.793  -0.362   2.717  0.00  0.00     0.054 A 
ATOM     14  C   UNL d   1       6.196   0.679   1.223  0.00  0.00     0.035 A 
ATOM     15  C   UNL d   1       8.501   0.838   2.758  0.00  0.00     0.036 A 
ATOM     16 CL   UNL d   1       9.916   0.952   3.733  0.00  0.00    -0.084 Cl
ATOM     17  C   UNL d   1       8.079   1.944   2.024  0.00  0.00     0.025 A 
ATOM     18  C   UNL d   1       6.916   1.885   1.245  0.00  0.00     0.023 A 
ATOM     19  S   UNL d   1       4.716   0.292   0.416  0.00  0.00    -0.052 SA
ENDBRANCH   4   9
BRANCH   1  20
ATOM     20  C   UNL d   1       0.466  -4.848   0.428  0.00  0.00     0.075 A 
ATOM     21  C   UNL d   1      -0.589  -4.693   1.339  0.00  0.00     0.051 A 
ATOM     22 CL   UNL d   1      -0.740  -3.315   2.371  0.00  0.00    -0.083 Cl
ATOM     23  C   UNL d   1      -1.549  -5.703   1.484  0.00  0.00     0.025 A 
ATOM     24  C   UNL d   1      -1.461  -6.872   0.730  0.00  0.00     0.003 A 
ATOM     25  C   UNL d   1      -0.419  -7.031  -0.181  0.00  0.00     0.025 A 
ATOM     26  C   UNL d   1       0.537  -6.022  -0.340  0.00  0.00     0.051 A 
ATOM     27 CL   UNL d   1       1.777  -6.299  -1.514  0.00  0.00    -0.083 Cl
ENDBRANCH   1  20
TORSDOF 2
