REMARK  13 active torsions:
REMARK  status: ('A' for Active; 'I' for Inactive)
REMARK    1  A    between atoms: C_17  and  C_3 
REMARK    2  A    between atoms: C_25  and  C_6 
REMARK    3  A    between atoms: C_7  and  C_18 
REMARK    4  A    between atoms: O_33  and  C_8 
REMARK    5  A    between atoms: C_10  and  C_13 
REMARK    6  A    between atoms: O_34  and  C_11 
REMARK    7  A    between atoms: O_35  and  C_12 
REMARK    8  A    between atoms: C_13  and  C_20 
REMARK    9  A    between atoms: C_21  and  C_13 
REMARK       I    between atoms: C_16  and  N_22 
REMARK   10  A    between atoms: C_20  and  C_16 
REMARK   11  A    between atoms: C_19  and  C_21 
REMARK   12  A    between atoms: O_36  and  C_19 
REMARK   13  A    between atoms: N_22  and  C_25 
ROOT
ATOM      1  C   UNL d   1       3.216  -3.336   0.320  0.00  0.00     0.218 C 
ATOM      2  N   UNL d   1       4.524  -3.217  -0.092  0.00  0.00    -0.353 N 
ATOM      3  O   UNL d   1       2.580  -2.417   0.817  0.00  0.00    -0.274 OA
ATOM      4  H   UNL d   1       5.058  -4.042  -0.345  0.00  0.00     0.162 HD
ENDROOT
BRANCH   1   5
ATOM      5  C   UNL d   1       2.643  -4.735   0.091  0.00  0.00     0.112 C 
BRANCH   5   6
ATOM      6  C   UNL d   1       1.140  -4.722  -0.286  0.00  0.00     0.037 C 
BRANCH   6   7
ATOM      7  C   UNL d   1       0.790  -4.041  -1.612  0.00  0.00    -0.048 A 
ATOM      8  C   UNL d   1       1.754  -3.504  -2.461  0.00  0.00     0.047 A 
ATOM      9  C   UNL d   1       1.431  -2.759  -3.609  0.00  0.00     0.104 A 
ATOM     10  C   UNL d   1       0.077  -2.563  -3.964  0.00  0.00     0.135 A 
ATOM     11  C   UNL d   1      -0.912  -3.123  -3.128  0.00  0.00     0.104 A 
ATOM     12  C   UNL d   1      -0.544  -3.851  -1.978  0.00  0.00     0.047 A 
BRANCH   9  13
ATOM     13  O   UNL d   1       2.438  -2.155  -4.327  0.00  0.00    -0.353 OA
ATOM     14  C   UNL d   1       3.681  -2.861  -4.373  0.00  0.00     0.210 C 
ENDBRANCH   9  13
BRANCH  10  15
ATOM     15  O   UNL d   1      -0.376  -1.888  -5.064  0.00  0.00    -0.351 OA
ATOM     16  C   UNL d   1       0.513  -1.452  -6.080  0.00  0.00     0.210 C 
ENDBRANCH  10  15
BRANCH  11  17
ATOM     17  O   UNL d   1      -2.278  -3.098  -3.245  0.00  0.00    -0.353 OA
ATOM     18  C   UNL d   1      -2.929  -2.208  -4.135  0.00  0.00     0.210 C 
ENDBRANCH  11  17
ENDBRANCH   6   7
BRANCH   6  19
ATOM     19  C   UNL d   1       0.539  -6.139  -0.189  0.00  0.00     0.119 C 
BRANCH  19  20
ATOM     20  C   UNL d   1       1.025  -7.070  -1.270  0.00  0.00     0.140 C 
ATOM     21  O   UNL d   1       2.181  -7.454  -1.343  0.00  0.00    -0.650 OA
BRANCH  20  22
ATOM     22  O   UNL d   1       0.069  -7.460  -2.140  0.00  0.00    -0.776 OA
ATOM     23  H   UNL d   1      -0.805  -7.051  -2.004  0.00  0.00     0.167 HD
ENDBRANCH  20  22
ENDBRANCH  19  20
ENDBRANCH   6  19
ENDBRANCH   5   6
ENDBRANCH   1   5
BRANCH   2  24
ATOM     24  C   UNL d   1       5.226  -1.947  -0.062  0.00  0.00     0.209 C 
BRANCH  24  25
ATOM     25  C   UNL d   1       6.331  -1.982  -1.060  0.00  0.00     0.166 A 
ATOM     26  N   UNL d   1       7.078  -2.989  -1.440  0.00  0.00    -0.321 N 
ATOM     27  C   UNL d   1       7.919  -2.413  -2.369  0.00  0.00     0.137 A 
ATOM     28  HN  UNL d   1       7.045  -3.959  -1.126  1.00  0.00     0.169 HD
ATOM     29  N   UNL d   1       7.674  -1.103  -2.572  0.00  0.00    -0.242 N 
ATOM     30  O   UNL d   1       6.627  -0.817  -1.702  0.00  0.00    -0.221 OA
ATOM     31  HN  UNL d   1       8.147  -0.469  -3.216  1.00  0.00     0.196 HD
BRANCH  27  32
ATOM     32  C   UNL d   1       8.999  -3.152  -3.023  0.00  0.00     0.010 A 
ATOM     33  C   UNL d   1       9.241  -4.491  -2.669  0.00  0.00     0.016 A 
ATOM     34  C   UNL d   1      10.325  -5.189  -3.220  0.00  0.00     0.017 A 
ATOM     35  C   UNL d   1      11.188  -4.565  -4.131  0.00  0.00     0.048 A 
ATOM     36  C   UNL d   1      10.920  -3.241  -4.514  0.00  0.00     0.017 A 
ATOM     37  C   UNL d   1       9.835  -2.546  -3.962  0.00  0.00     0.016 A 
BRANCH  35  38
ATOM     38  C   UNL d   1      12.398  -5.281  -4.681  0.00  0.00     0.417 C 
ATOM     39  F   UNL d   1      12.554  -6.543  -4.192  0.00  0.00    -0.166 F 
ATOM     40  F   UNL d   1      12.362  -5.406  -6.036  0.00  0.00    -0.166 F 
ATOM     41  F   UNL d   1      13.558  -4.627  -4.397  0.00  0.00    -0.166 F 
ENDBRANCH  35  38
ENDBRANCH  27  32
ENDBRANCH  24  25
ENDBRANCH   2  24
TORSDOF 13
