REMARK  1 active torsions:
REMARK  status: ('A' for Active; 'I' for Inactive)
REMARK    1  A    between atoms: C_2  and  N_1 
ROOT
ATOM      1  N   UNL d   1       0.662   1.103  -0.545  0.00  0.00    -0.251 N 
ATOM      2  C   UNL d   1       1.389  -0.090  -0.339  0.00  0.00     0.240 C 
ATOM      3  C   UNL d   1      -0.647   1.342  -0.076  0.00  0.00     0.240 C 
ATOM      4  S   UNL d   1      -0.754  -1.177   1.009  0.00  0.00    -0.150 SA
ATOM      5  O   UNL d   1       2.625  -0.144  -0.373  0.00  0.00    -0.272 OA
ATOM      6  O   UNL d   1      -1.139   2.456   0.113  0.00  0.00    -0.272 OA
ATOM      7  C   UNL d   1      -1.544   0.132   0.076  0.00  0.00     0.178 C 
ATOM      8  C   UNL d   1       0.631  -1.377  -0.108  0.00  0.00     0.178 C 
ENDROOT
BRANCH   1   9
ATOM      9  C   UNL d   1       1.397   2.198  -1.144  0.00  0.00     0.048 A 
ATOM     10  C   UNL d   1       2.196   1.937  -2.274  0.00  0.00     0.054 A 
ATOM     11  C   UNL d   1       2.859   2.969  -2.939  0.00  0.00     0.037 A 
ATOM     12 CL   UNL d   1       3.776   2.615  -4.351  0.00  0.00    -0.084 Cl
ATOM     13  C   UNL d   1       2.763   4.278  -2.488  0.00  0.00     0.048 A 
ATOM     14  C   UNL d   1       1.991   4.546  -1.363  0.00  0.00     0.037 A 
ATOM     15  C   UNL d   1       1.305   3.524  -0.698  0.00  0.00     0.054 A 
ATOM     16 CL   UNL d   1       1.879   6.165  -0.785  0.00  0.00    -0.084 Cl
ENDBRANCH   1   9
TORSDOF 1
