REMARK  10 active torsions:
REMARK  status: ('A' for Active; 'I' for Inactive)
REMARK    1  A    between atoms: N_4  and  C_1 
REMARK       I    between atoms: C_9  and  N_4 
REMARK    2  A    between atoms: C_7  and  C_5 
REMARK    3  A    between atoms: C_10  and  C_7 
REMARK    4  A    between atoms: C_18  and  C_9 
REMARK    5  A    between atoms: O_17  and  C_10 
REMARK    6  A    between atoms: C_11  and  C_19 
REMARK    7  A    between atoms: O_16  and  C_11 
REMARK    8  A    between atoms: S_15  and  C_18 
REMARK    9  A    between atoms: C_19  and  S_15 
REMARK   10  A    between atoms: C_20  and  O_17 
ROOT
ATOM      1  C   UNL d   1       0.393  -1.298   0.076  0.00  0.00     0.151 A 
ATOM      2  N   UNL d   1       1.523  -0.648   0.142  0.00  0.00    -0.339 N 
ATOM      3  HN  UNL d   1       2.441  -1.080   0.252  1.00  0.00     0.168 HD
ATOM      4  C   UNL d   1       1.293   0.714   0.041  0.00  0.00     0.027 A 
ATOM      5  S   UNL d   1      -1.016  -0.356  -0.100  0.00  0.00    -0.064 SA
ATOM      6  C   UNL d   1      -0.044   1.060  -0.055  0.00  0.00     0.078 A 
ENDROOT
BRANCH   1   7
ATOM      7  N   UNL d   1       0.187  -2.648   0.125  0.00  0.00    -0.306 N 
ATOM      8  C   UNL d   1       1.229  -3.513   0.364  0.00  0.00     0.232 C 
ATOM      9  O   UNL d   1       2.395  -3.208   0.617  0.00  0.00    -0.272 OA
ATOM     10  H   UNL d   1      -0.755  -2.973  -0.032  0.00  0.00     0.171 HD
BRANCH   8  11
ATOM     11  C   UNL d   1       0.858  -4.979   0.243  0.00  0.00     0.177 C 
BRANCH  11  12
ATOM     12  S   UNL d   1       1.298  -5.616  -1.407  0.00  0.00    -0.149 SA
BRANCH  12  13
ATOM     13  C   UNL d   1       3.071  -5.179  -1.513  0.00  0.00     0.184 C 
BRANCH  13  14
ATOM     14  C   UNL d   1       3.906  -5.827  -0.430  0.00  0.00     0.149 C 
ATOM     15  O   UNL d   1       4.327  -6.974  -0.490  0.00  0.00    -0.649 OA
BRANCH  14  16
ATOM     16  O   UNL d   1       4.149  -5.039   0.643  0.00  0.00    -0.776 OA
ATOM     17  H   UNL d   1       3.708  -4.151   0.617  0.00  0.00     0.167 HD
ENDBRANCH  14  16
ENDBRANCH  13  14
ENDBRANCH  12  13
ENDBRANCH  11  12
ENDBRANCH   8  11
ENDBRANCH   1   7
BRANCH   4  18
ATOM     18  C   UNL d   1       2.475   1.624   0.077  0.00  0.00     0.168 C 
BRANCH  18  19
ATOM     19  C   UNL d   1       2.661   2.391  -1.211  0.00  0.00     0.264 C 
ATOM     20  O   UNL d   1       1.853   2.482  -2.124  0.00  0.00    -0.265 OA
BRANCH  19  21
ATOM     21  O   UNL d   1       3.900   2.968  -1.204  0.00  0.00    -0.322 OA
BRANCH  21  22
ATOM     22  C   UNL d   1       4.352   3.483  -2.464  0.00  0.00     0.174 C 
ATOM     23  C   UNL d   1       5.084   2.372  -3.194  0.00  0.00     0.034 C 
ENDBRANCH  21  22
ENDBRANCH  19  21
ENDBRANCH  18  19
ENDBRANCH   4  18
TORSDOF 10
