REMARK  2 active torsions:
REMARK  status: ('A' for Active; 'I' for Inactive)
REMARK    1  A    between atoms: C_6  and  C_1 
REMARK    2  A    between atoms: N_4  and  C_9 
ROOT
ATOM      1  C   UNL d   1       0.017   1.131  -0.189  0.00  0.00     0.112 C 
ATOM      2  C   UNL d   1       1.296   0.313   0.078  0.00  0.00     0.058 C 
ATOM      3  C   UNL d   1      -1.271   0.312  -0.043  0.00  0.00     0.058 C 
ATOM      4  N   UNL d   1       0.008  -1.675   0.191  0.00  0.00    -0.361 N 
ATOM      5  C   UNL d   1       1.234  -1.031   0.219  0.00  0.00     0.023 C 
ATOM      6  C   UNL d   1      -1.216  -1.032   0.115  0.00  0.00     0.023 C 
ATOM      7  C   UNL d   1       2.530   1.028   0.129  0.00  0.00     0.098 C 
ATOM      8  C   UNL d   1      -2.520   1.002  -0.102  0.00  0.00     0.098 C 
ATOM      9  N   UNL d   1       3.526   1.622   0.155  0.00  0.00    -0.192 NA
ATOM     10  N   UNL d   1      -3.538   1.552  -0.172  0.00  0.00    -0.192 NA
ATOM     11  C   UNL d   1      -2.449  -1.900   0.188  0.00  0.00     0.069 C 
ATOM     12  C   UNL d   1       2.438  -1.928   0.378  0.00  0.00     0.069 C 
ATOM     13  H   UNL d   1       0.003  -2.679   0.359  0.00  0.00     0.165 HD
ENDROOT
BRANCH   1  14
ATOM     14  C   UNL d   1       0.083   1.767  -1.593  0.00  0.00    -0.011 A 
ATOM     15  C   UNL d   1      -0.042   3.142  -1.909  0.00  0.00     0.110 A 
ATOM     16  C   UNL d   1       0.091   3.573  -3.249  0.00  0.00     0.037 A 
ATOM     17  C   UNL d   1       0.332   2.664  -4.278  0.00  0.00     0.002 A 
ATOM     18  C   UNL d   1       0.425   1.311  -3.993  0.00  0.00     0.001 A 
ATOM     19  C   UNL d   1       0.294   0.871  -2.676  0.00  0.00     0.011 A 
BRANCH  15  20
ATOM     20  N   UNL d   1      -0.329   4.198  -0.913  0.00  0.00    -0.115 N 
ATOM     21  O   UNL d   1      -0.659   3.862   0.228  0.00  0.00    -0.532 OA
ATOM     22  O   UNL d   1      -0.236   5.377  -1.283  0.00  0.00    -0.532 OA
ENDBRANCH  15  20
ENDBRANCH   1  14
TORSDOF 2
