REMARK  3 active torsions:
REMARK  status: ('A' for Active; 'I' for Inactive)
REMARK    1  A    between atoms: S_7  and  C_1 
REMARK    2  A    between atoms: C_10  and  C_5 
REMARK    3  A    between atoms: C_13  and  S_7 
ROOT
ATOM      1  C   UNL d   1      -1.502   1.276   0.067  0.00  0.00     0.110 A 
ATOM      2  N   UNL d   1      -0.214   0.764   0.047  0.00  0.00    -0.300 N 
ATOM      3  N   UNL d   1      -1.605  -0.991  -0.084  0.00  0.00    -0.339 N 
ATOM      4  HN  UNL d   1      -1.965  -1.941  -0.175  1.00  0.00     0.167 HD
ATOM      5  C   UNL d   1      -2.342   0.173   0.012  0.00  0.00     0.079 A 
ATOM      6  C   UNL d   1      -0.345  -0.623  -0.033  0.00  0.00     0.113 A 
ATOM      7  C   UNL d   1       1.035   1.395   0.093  0.00  0.00     0.099 A 
ATOM      8  C   UNL d   1       0.848  -1.400  -0.045  0.00  0.00     0.049 A 
ATOM      9  C   UNL d   1       2.158   0.657   0.070  0.00  0.00     0.018 A 
ATOM     10  C   UNL d   1       2.048  -0.791   0.005  0.00  0.00     0.005 A 
ENDROOT
BRANCH   1  11
ATOM     11  S   UNL d   1      -1.785   2.985   0.217  0.00  0.00    -0.070 SA
BRANCH  11  12
ATOM     12  C   UNL d   1      -2.072   3.523  -1.462  0.00  0.00     0.007 A 
ATOM     13  C   UNL d   1      -2.356   2.691  -2.550  0.00  0.00     0.020 A 
ATOM     14  C   UNL d   1      -2.564   3.229  -3.828  0.00  0.00     0.019 A 
ATOM     15  C   UNL d   1      -2.496   4.606  -4.025  0.00  0.00     0.006 A 
ATOM     16  C   UNL d   1      -2.236   5.452  -2.951  0.00  0.00     0.019 A 
ATOM     17  I   UNL d   1      -2.778   5.402  -5.922  0.00  0.00    -0.045 I 
ATOM     18  C   UNL d   1      -2.028   4.910  -1.680  0.00  0.00     0.020 A 
ENDBRANCH  11  12
ENDBRANCH   1  11
BRANCH   5  19
ATOM     19  C   UNL d   1      -3.799   0.142  -0.017  0.00  0.00    -0.007 A 
ATOM     20  C   UNL d   1      -4.596   1.086   0.642  0.00  0.00     0.014 A 
ATOM     21  C   UNL d   1      -5.990   1.036   0.547  0.00  0.00     0.001 A 
ATOM     22  C   UNL d   1      -6.606   0.026  -0.186  0.00  0.00     0.000 A 
ATOM     23  C   UNL d   1      -5.831  -0.945  -0.815  0.00  0.00     0.001 A 
ATOM     24  C   UNL d   1      -4.437  -0.887  -0.728  0.00  0.00     0.014 A 
ENDBRANCH   5  19
TORSDOF 3
