REMARK  5 active torsions:
REMARK  status: ('A' for Active; 'I' for Inactive)
REMARK    1  A    between atoms: N_8  and  C_1 
REMARK    2  A    between atoms: C_5  and  N_11 
REMARK    3  A    between atoms: N_10  and  C_5 
REMARK    4  A    between atoms: C_6  and  C_7 
REMARK    5  A    between atoms: C_13  and  N_10 
ROOT
ATOM      1  N   UNL d   1      -4.513   0.046  -0.058  0.00  0.00    -0.360 N 
ATOM      2  N   UNL d   1      -6.846   1.820   0.511  0.00  0.00    -0.356 N 
ATOM      3  C   UNL d   1      -5.255   0.680  -1.153  0.00  0.00     0.145 C 
ATOM      4  C   UNL d   1      -6.010   1.938  -0.701  0.00  0.00     0.145 C 
ATOM      5  C   UNL d   1      -5.698   0.239   2.109  0.00  0.00     0.040 C 
ATOM      6  C   UNL d   1      -5.323  -0.653   0.928  0.00  0.00     0.126 C 
ATOM      7  C   UNL d   1      -6.115   1.678   1.776  0.00  0.00     0.127 C 
ENDROOT
BRANCH   2   8
ATOM      8  C   UNL d   1      -8.205   1.552   0.469  0.00  0.00     0.174 C 
ATOM      9  S   UNL d   1      -8.943   0.462  -0.564  0.00  0.00    -0.041 SA
BRANCH   8  10
ATOM     10  N   UNL d   1      -8.975   2.179   1.422  0.00  0.00    -0.333 N 
ATOM     11  H   UNL d   1      -9.811   1.660   1.680  0.00  0.00     0.168 HD
BRANCH  10  12
ATOM     12  C   UNL d   1      -9.084   3.591   1.590  0.00  0.00     0.049 A 
ATOM     13  C   UNL d   1      -9.909   4.124   2.597  0.00  0.00     0.074 A 
ATOM     14  C   UNL d   1     -10.099   5.523   2.667  0.00  0.00     0.018 A 
ATOM     15  C   UNL d   1      -9.493   6.380   1.752  0.00  0.00     0.001 A 
ATOM     16  C   UNL d   1      -8.671   5.854   0.765  0.00  0.00     0.002 A 
ATOM     17  C   UNL d   1      -8.466   4.474   0.688  0.00  0.00     0.030 A 
BRANCH  13  18
ATOM     18  C   UNL d   1     -10.570   3.287   3.662  0.00  0.00     0.419 C 
ATOM     19  F   UNL d   1     -10.563   1.946   3.416  0.00  0.00    -0.166 F 
ATOM     20  F   UNL d   1      -9.985   3.447   4.882  0.00  0.00    -0.166 F 
ATOM     21  F   UNL d   1     -11.884   3.611   3.839  0.00  0.00    -0.166 F 
ENDBRANCH  13  18
ENDBRANCH  10  12
ENDBRANCH   8  10
ENDBRANCH   2   8
BRANCH   1  22
ATOM     22  C   UNL d   1      -3.152   0.135  -0.008  0.00  0.00     0.147 A 
ATOM     23  N   UNL d   1      -2.437   0.857  -0.845  0.00  0.00    -0.336 N 
ATOM     24  C   UNL d   1      -1.080   0.725  -0.603  0.00  0.00     0.051 A 
ATOM     25  HN  UNL d   1      -2.833   1.440  -1.582  1.00  0.00     0.168 HD
ATOM     26  C   UNL d   1      -0.040   1.343  -1.329  0.00  0.00     0.032 A 
ATOM     27  C   UNL d   1      -0.747  -0.108   0.462  0.00  0.00     0.036 A 
ATOM     28  C   UNL d   1       1.295   1.107  -0.971  0.00  0.00     0.026 A 
ATOM     29  C   UNL d   1       1.595   0.268   0.095  0.00  0.00     0.035 A 
ATOM     30  C   UNL d   1       0.584  -0.356   0.833  0.00  0.00     0.045 A 
ATOM     31 CL   UNL d   1       3.240  -0.015   0.521  0.00  0.00    -0.084 Cl
ATOM     32  S   UNL d   1      -2.190  -0.709   1.164  0.00  0.00    -0.052 SA
ENDBRANCH   1  22
TORSDOF 5
