REMARK  3 active torsions:
REMARK  status: ('A' for Active; 'I' for Inactive)
REMARK    1  A    between atoms: C_17  and  C_5 
REMARK    2  A    between atoms: C_18  and  C_5 
REMARK    3  A    between atoms: C_8  and  N_6 
ROOT
ATOM      1  C   UNL d   1      -0.445  -1.040  -0.249  0.00  0.00     0.146 C 
ATOM      2  S   UNL d   1       1.315  -1.117  -0.444  0.00  0.00    -0.057 SA
ATOM      3  N   UNL d   1      -0.818   0.249   0.063  0.00  0.00    -0.356 N 
ATOM      4  C   UNL d   1       1.492   0.589  -0.124  0.00  0.00     0.005 C 
ATOM      5  C   UNL d   1       0.153   1.307  -0.256  0.00  0.00     0.064 C 
ATOM      6  N   UNL d   1      -1.297  -2.001  -0.411  0.00  0.00    -0.337 N 
ATOM      7  HN  UNL d   1      -2.279  -1.822  -0.200  1.00  0.00     0.168 HD
ATOM      8  C   UNL d   1       2.678   1.083   0.262  0.00  0.00     0.029 C 
ATOM      9  H   UNL d   1      -1.801   0.444  -0.085  0.00  0.00     0.162 HD
ENDROOT
BRANCH   6  10
ATOM     10  C   UNL d   1      -0.931  -3.278  -0.863  0.00  0.00     0.037 A 
ATOM     11  C   UNL d   1       0.107  -4.030  -0.308  0.00  0.00     0.053 A 
ATOM     12  C   UNL d   1       0.522  -5.216  -0.915  0.00  0.00     0.037 A 
ATOM     13 CL   UNL d   1       1.921  -6.027  -0.326  0.00  0.00    -0.084 Cl
ATOM     14  C   UNL d   1      -0.162  -5.728  -2.012  0.00  0.00     0.048 A 
ATOM     15  C   UNL d   1      -1.276  -5.045  -2.488  0.00  0.00     0.037 A 
ATOM     16  C   UNL d   1      -1.655  -3.825  -1.927  0.00  0.00     0.053 A 
ATOM     17 CL   UNL d   1      -2.179  -5.701  -3.799  0.00  0.00    -0.084 Cl
ENDBRANCH   6  10
BRANCH   5  18
ATOM     18  C   UNL d   1      -0.061   2.514   0.689  0.00  0.00     0.032 C 
ATOM     19  C   UNL d   1       0.015   2.216   2.182  0.00  0.00     0.008 C 
ENDBRANCH   5  18
BRANCH   5  20
ATOM     20  C   UNL d   1      -0.087   1.731  -1.738  0.00  0.00     0.032 C 
ATOM     21  C   UNL d   1       0.925   2.721  -2.304  0.00  0.00     0.008 C 
ENDBRANCH   5  20
TORSDOF 3
