REMARK  4 active torsions:
REMARK  status: ('A' for Active; 'I' for Inactive)
REMARK    1  A    between atoms: N_2  and  C_1 
REMARK       I    between atoms: C_3  and  N_2 
REMARK    2  A    between atoms: C_8  and  N_2 
REMARK       I    between atoms: N_7  and  C_3 
REMARK    3  A    between atoms: C_12  and  N_7 
REMARK    4  A    between atoms: C_10  and  C_8 
ROOT
ATOM      1  N   UNL d   1       2.064   1.408  -0.172  0.00  0.00    -0.271 N 
ATOM      2  C   UNL d   1       3.421   0.991  -0.048  0.00  0.00     0.329 C 
ATOM      3  N   UNL d   1       3.620  -0.375  -0.087  0.00  0.00    -0.308 N 
ATOM      4  O   UNL d   1       4.348   1.795   0.042  0.00  0.00    -0.246 OA
ATOM      5  H   UNL d   1       2.768  -0.930   0.002  0.00  0.00     0.170 HD
ENDROOT
BRANCH   1   6
ATOM      6  C   UNL d   1       0.983   0.527  -0.149  0.00  0.00     0.147 C 
ATOM      7  N   UNL d   1       1.101  -0.710   0.227  0.00  0.00    -0.369 N 
ATOM      8  C   UNL d   1      -0.227  -1.359   0.280  0.00  0.00     0.137 C 
ATOM      9  HN  UNL d   1       1.983  -1.169   0.454  1.00  0.00     0.161 HD
ATOM     10  C   UNL d   1      -1.165  -0.711  -0.727  0.00  0.00     0.069 C 
ATOM     11  S   UNL d   1      -0.615   1.006  -0.667  0.00  0.00    -0.088 SA
ATOM     12  C   UNL d   1      -1.011  -1.291  -2.126  0.00  0.00     0.023 C 
ENDBRANCH   1   6
BRANCH   1  13
ATOM     13  C   UNL d   1       1.890   2.887  -0.250  0.00  0.00     0.125 C 
ATOM     14  C   UNL d   1       1.050   3.443   0.915  0.00  0.00     0.038 C 
BRANCH  13  15
ATOM     15  C   UNL d   1       1.557   3.387  -1.654  0.00  0.00    -0.035 A 
ATOM     16  C   UNL d   1       0.346   4.016  -1.982  0.00  0.00     0.009 A 
ATOM     17  C   UNL d   1       0.097   4.459  -3.284  0.00  0.00     0.001 A 
ATOM     18  C   UNL d   1       1.061   4.302  -4.275  0.00  0.00     0.000 A 
ATOM     19  C   UNL d   1       2.277   3.701  -3.967  0.00  0.00     0.001 A 
ATOM     20  C   UNL d   1       2.522   3.246  -2.670  0.00  0.00     0.009 A 
ENDBRANCH  13  15
ENDBRANCH   1  13
BRANCH   3  21
ATOM     21  C   UNL d   1       4.826  -1.093  -0.186  0.00  0.00     0.036 A 
ATOM     22  C   UNL d   1       6.090  -0.501  -0.276  0.00  0.00     0.031 A 
ATOM     23  C   UNL d   1       7.235  -1.292  -0.432  0.00  0.00     0.026 A 
ATOM     24  C   UNL d   1       7.121  -2.677  -0.501  0.00  0.00     0.034 A 
ATOM     25  C   UNL d   1       5.872  -3.282  -0.398  0.00  0.00     0.026 A 
ATOM     26 CL   UNL d   1       8.525  -3.644  -0.727  0.00  0.00    -0.084 Cl
ATOM     27  C   UNL d   1       4.731  -2.491  -0.236  0.00  0.00     0.031 A 
ENDBRANCH   3  21
TORSDOF 4
