REMARK  6 active torsions:
REMARK  status: ('A' for Active; 'I' for Inactive)
REMARK       I    between atoms: C_2  and  N_1 
REMARK    1  A    between atoms: C_7  and  C_2 
REMARK    2  A    between atoms: N_3  and  C_6 
REMARK    3  A    between atoms: C_4  and  C_8 
REMARK    4  A    between atoms: C_13  and  C_5 
REMARK    5  A    between atoms: O_23  and  C_13 
REMARK    6  A    between atoms: C_25  and  O_23 
ROOT
ATOM      1  N   UNL d   1      -1.357  -0.564   0.163  0.00  0.00    -0.332 N 
ATOM      2  C   UNL d   1      -2.384  -1.375   0.641  0.00  0.00     0.254 C 
ATOM      3  C   UNL d   1      -0.147  -1.210  -0.343  0.00  0.00     0.173 C 
ATOM      4  S   UNL d   1       1.197  -0.024   0.016  0.00  0.00    -0.140 SA
ATOM      5  O   UNL d   1      -2.309  -2.602   0.606  0.00  0.00    -0.267 OA
ATOM      6  C   UNL d   1      -1.276   0.896   0.240  0.00  0.00     0.137 C 
ATOM      7  C   UNL d   1       0.116   1.401  -0.126  0.00  0.00     0.096 C 
ENDROOT
BRANCH   2   8
ATOM      8  C   UNL d   1      -3.607  -0.780   1.250  0.00  0.00     0.032 A 
ATOM      9  C   UNL d   1      -4.289   0.293   0.670  0.00  0.00     0.018 A 
ATOM     10  C   UNL d   1      -5.436   0.816   1.277  0.00  0.00     0.017 A 
ATOM     11  C   UNL d   1      -5.952   0.242   2.448  0.00  0.00     0.048 A 
ATOM     12  C   UNL d   1      -5.300  -0.875   2.994  0.00  0.00     0.017 A 
ATOM     13  C   UNL d   1      -4.138  -1.379   2.403  0.00  0.00     0.018 A 
BRANCH  11  14
ATOM     14  C   UNL d   1      -7.204   0.789   3.093  0.00  0.00     0.417 C 
ATOM     15  F   UNL d   1      -7.652   1.938   2.516  0.00  0.00    -0.166 F 
ATOM     16  F   UNL d   1      -8.245  -0.087   3.036  0.00  0.00    -0.166 F 
ATOM     17  F   UNL d   1      -7.029   1.081   4.411  0.00  0.00    -0.166 F 
ENDBRANCH  11  14
ENDBRANCH   2   8
BRANCH   3  18
ATOM     18  C   UNL d   1      -0.267  -1.516  -1.851  0.00  0.00     0.212 C 
BRANCH  18  19
ATOM     19  O   UNL d   1       0.932  -2.129  -2.338  0.00  0.00    -0.348 OA
BRANCH  19  20
ATOM     20  C   UNL d   1       1.038  -2.223  -3.699  0.00  0.00     0.069 A 
ATOM     21  C   UNL d   1       2.344  -2.201  -4.199  0.00  0.00     0.039 A 
ATOM     22  C   UNL d   1       2.583  -2.314  -5.571  0.00  0.00     0.039 A 
ATOM     23  C   UNL d   1       1.498  -2.467  -6.444  0.00  0.00     0.103 A 
ATOM     24  C   UNL d   1       0.189  -2.503  -5.952  0.00  0.00     0.039 A 
ATOM     25  C   UNL d   1      -0.037  -2.384  -4.575  0.00  0.00     0.039 A 
BRANCH  23  26
ATOM     26  N   UNL d   1       1.737  -2.597  -7.885  0.00  0.00    -0.116 N 
ATOM     27  O   UNL d   1       0.749  -2.738  -8.622  0.00  0.00    -0.532 OA
ATOM     28  O   UNL d   1       2.911  -2.547  -8.286  0.00  0.00    -0.532 OA
ENDBRANCH  23  26
ENDBRANCH  19  20
ENDBRANCH  18  19
ENDBRANCH   3  18
TORSDOF 6
