REMARK  4 active torsions:
REMARK  status: ('A' for Active; 'I' for Inactive)
REMARK    1  A    between atoms: C_7  and  N_1 
REMARK    2  A    between atoms: C_6  and  C_3 
REMARK    3  A    between atoms: N_11  and  C_6 
REMARK    4  A    between atoms: C_16  and  C_10 
ROOT
ATOM      1  N   UNL d   1       0.948   0.682   0.040  0.00  0.00    -0.262 N 
ATOM      2  C   UNL d   1      -0.244   1.375   0.157  0.00  0.00     0.153 A 
ATOM      3  C   UNL d   1      -0.541  -1.128   0.349  0.00  0.00     0.091 A 
ATOM      4  C   UNL d   1       0.869  -0.710   0.081  0.00  0.00     0.272 A 
ATOM      5  S   UNL d   1      -1.561   0.245   0.446  0.00  0.00    -0.053 SA
ATOM      6  S   UNL d   1      -0.551   3.010  -0.033  0.00  0.00    -0.052 SA
ATOM      7  O   UNL d   1       1.784  -1.513  -0.041  0.00  0.00    -0.266 OA
ENDROOT
BRANCH   1   8
ATOM      8  C   UNL d   1       2.223   1.309  -0.080  0.00  0.00     0.044 A 
ATOM      9  C   UNL d   1       3.096   0.950  -1.111  0.00  0.00     0.031 A 
ATOM     10  C   UNL d   1       4.367   1.528  -1.198  0.00  0.00     0.010 A 
ATOM     11  C   UNL d   1       4.810   2.441  -0.231  0.00  0.00    -0.055 A 
ATOM     12  C   UNL d   1       3.928   2.804   0.795  0.00  0.00     0.010 A 
ATOM     13  C   UNL d   1       2.645   2.251   0.866  0.00  0.00     0.031 A 
BRANCH  11  14
ATOM     14  C   UNL d   1       6.224   2.995  -0.245  0.00  0.00     0.010 C 
ATOM     15  C   UNL d   1       7.260   1.869  -0.165  0.00  0.00     0.015 C 
ATOM     16  C   UNL d   1       6.482   3.887  -1.460  0.00  0.00     0.015 C 
ENDBRANCH  11  14
ENDBRANCH   1   8
BRANCH   3  17
ATOM     17  C   UNL d   1      -0.861  -2.412   0.578  0.00  0.00     0.109 C 
BRANCH  17  18
ATOM     18  N   UNL d   1      -2.058  -3.064   0.871  0.00  0.00    -0.397 N 
ATOM     19  C   UNL d   1      -3.378  -2.631   0.415  0.00  0.00     0.148 C 
ATOM     20  C   UNL d   1      -2.066  -4.383   1.511  0.00  0.00     0.148 C 
ENDBRANCH  17  18
ENDBRANCH   3  17
TORSDOF 4
