REMARK  5 active torsions:
REMARK  status: ('A' for Active; 'I' for Inactive)
REMARK    1  A    between atoms: C_2  and  S_1 
REMARK    2  A    between atoms: N_13  and  S_1 
REMARK    3  A    between atoms: C_6  and  C_3 
REMARK    4  A    between atoms: C_17  and  C_8 
REMARK    5  A    between atoms: C_18  and  C_19 
ROOT
ATOM      1  N   UNL d   1      -0.293   0.574   6.311  0.00  0.00    -0.318 N 
ATOM      2  HN  UNL d   1       0.488   0.013   6.652  1.00  0.00     0.169 HD
ATOM      3  C   UNL d   1      -0.819   0.595   5.107  0.00  0.00     0.184 A 
ATOM      4  C   UNL d   1      -1.052   1.489   6.999  0.00  0.00     0.138 A 
ATOM      5  N   UNL d   1      -2.033   2.041   6.267  0.00  0.00    -0.242 N 
ATOM      6  HN  UNL d   1      -2.721   2.736   6.557  1.00  0.00     0.196 HD
ATOM      7  O   UNL d   1      -1.891   1.439   5.017  0.00  0.00    -0.217 OA
ENDROOT
BRANCH   3   8
ATOM      8  C   UNL d   1      -0.221  -0.145   3.975  0.00  0.00     0.050 A 
ATOM      9  C   UNL d   1       0.973  -0.895   4.023  0.00  0.00     0.069 A 
ATOM     10  C   UNL d   1       1.275  -1.288   2.728  0.00  0.00     0.186 A 
ATOM     11  O   UNL d   1       0.235  -0.874   1.910  0.00  0.00    -0.301 OA
ATOM     12  C   UNL d   1      -0.679  -0.211   2.682  0.00  0.00     0.065 A 
ATOM     13  C   UNL d   1      -1.904   0.270   2.003  0.00  0.00     0.077 C 
BRANCH  10  14
ATOM     14  S   UNL d   1       2.711  -2.173   2.106  0.00  0.00     0.266 S 
ATOM     15  O   UNL d   1       2.159  -3.220   1.272  0.00  0.00    -0.204 OA
ATOM     16  O   UNL d   1       3.495  -2.478   3.282  0.00  0.00    -0.204 OA
BRANCH  14  17
ATOM     17  N   UNL d   1       3.610  -1.112   1.126  0.00  0.00    -0.201 NA
ATOM     18  C   UNL d   1       4.354  -0.015   1.822  0.00  0.00     0.134 C 
ATOM     19  C   UNL d   1       5.725  -0.485   2.333  0.00  0.00     0.183 C 
ATOM     20  O   UNL d   1       6.506  -1.060   1.276  0.00  0.00    -0.389 OA
ATOM     21  C   UNL d   1       5.827  -2.191   0.709  0.00  0.00     0.183 C 
ATOM     22  C   UNL d   1       4.484  -1.771   0.107  0.00  0.00     0.134 C 
ENDBRANCH  14  17
ENDBRANCH  10  14
ENDBRANCH   3   8
BRANCH   4  23
ATOM     23  C   UNL d   1      -0.769   1.823   8.389  0.00  0.00     0.010 A 
ATOM     24  C   UNL d   1       0.176   1.094   9.120  0.00  0.00     0.016 A 
ATOM     25  C   UNL d   1       0.434   1.405  10.461  0.00  0.00     0.009 A 
ATOM     26  C   UNL d   1      -0.245   2.452  11.114  0.00  0.00    -0.051 A 
ATOM     27  C   UNL d   1      -1.170   3.189  10.357  0.00  0.00     0.009 A 
ATOM     28  C   UNL d   1      -1.431   2.879   9.019  0.00  0.00     0.016 A 
BRANCH  26  29
ATOM     29  C   UNL d   1       0.007   2.739  12.605  0.00  0.00    -0.024 C 
ATOM     30  C   UNL d   1      -0.850   3.901  13.156  0.00  0.00     0.019 C 
ATOM     31  C   UNL d   1      -0.338   1.483  13.435  0.00  0.00     0.019 C 
ATOM     32  C   UNL d   1       1.486   3.108  12.843  0.00  0.00     0.019 C 
ENDBRANCH  26  29
ENDBRANCH   4  23
TORSDOF 5
