REMARK  4 active torsions:
REMARK  status: ('A' for Active; 'I' for Inactive)
REMARK    1  A    between atoms: S_8  and  C_2 
REMARK    2  A    between atoms: C_13  and  S_8 
REMARK    3  A    between atoms: C_12  and  C_9 
REMARK    4  A    between atoms: C_10  and  C_13 
ROOT
ATOM      1  S   UNL d   1       0.322   2.828  -0.093  0.00  0.00    -0.089 SA
ENDROOT
BRANCH   1   2
ATOM      2  C   UNL d   1       0.124   1.111  -0.032  0.00  0.00     0.162 A 
ATOM      3  N   UNL d   1      -1.080   0.473   0.039  0.00  0.00    -0.326 N 
ATOM      4  C   UNL d   1      -0.785  -0.861   0.064  0.00  0.00     0.201 A 
ATOM      5  C   UNL d   1      -2.415   1.005   0.082  0.00  0.00     0.159 C 
ATOM      6  N   UNL d   1       0.516  -1.028   0.013  0.00  0.00    -0.294 N 
ATOM      7  N   UNL d   1       1.091   0.221  -0.047  0.00  0.00    -0.279 N 
ATOM      8  HN  UNL d   1       1.010  -1.920   0.018  1.00  0.00     0.187 HD
ATOM      9  HN  UNL d   1       2.090   0.421  -0.095  1.00  0.00     0.189 HD
ENDBRANCH   1   2
BRANCH   1  10
ATOM     10  C   UNL d   1       2.140   2.943  -0.149  0.00  0.00     0.109 C 
BRANCH  10  11
ATOM     11  C   UNL d   1       2.579   4.382  -0.173  0.00  0.00    -0.015 C 
ATOM     12  C   UNL d   1       3.875   4.742  -0.206  0.00  0.00     0.008 C 
BRANCH  12  13
ATOM     13  C   UNL d   1       4.365   6.130  -0.193  0.00  0.00    -0.036 A 
ATOM     14  C   UNL d   1       3.684   7.159   0.472  0.00  0.00     0.011 A 
ATOM     15  C   UNL d   1       4.203   8.456   0.508  0.00  0.00     0.001 A 
ATOM     16  C   UNL d   1       5.417   8.740  -0.112  0.00  0.00     0.000 A 
ATOM     17  C   UNL d   1       6.114   7.726  -0.764  0.00  0.00     0.001 A 
ATOM     18  C   UNL d   1       5.593   6.428  -0.801  0.00  0.00     0.011 A 
ENDBRANCH  12  13
ENDBRANCH  10  11
ENDBRANCH   1  10
TORSDOF 4
