REMARK  8 active torsions:
REMARK  status: ('A' for Active; 'I' for Inactive)
REMARK    1  A    between atoms: C_1  and  N_7 
REMARK    2  A    between atoms: C_2  and  O_11 
REMARK    3  A    between atoms: C_3  and  O_12 
REMARK    4  A    between atoms: C_5  and  O_15 
REMARK    5  A    between atoms: C_6  and  C_16 
REMARK    6  A    between atoms: N_9  and  N_7 
REMARK       I    between atoms: N_13  and  C_8 
REMARK       I    between atoms: N_14  and  C_8 
REMARK    7  A    between atoms: O_17  and  C_16 
REMARK    8  A    between atoms: O_30  and  N_27 
ROOT
ATOM      1  N   UNL d   2       1.905   0.537  -2.983  0.00  0.00     0.002 N 
ATOM      2  O   UNL d   2       0.864   0.285  -2.387  0.00  0.00    -0.511 OA
ATOM      3  O   UNL d   2       2.120   0.898  -4.135  0.00  0.00    -0.511 OA
ENDROOT
BRANCH   1   4
ATOM      4  O   UNL d   2       3.045   0.385  -2.207  0.00  0.00    -0.231 OA
ATOM      5  H   UNL d   2       2.590   0.109  -1.390  0.00  0.00     0.251 HD
ENDBRANCH   1   4
TORSDOF 8
