REMARK  4 active torsions:
REMARK  status: ('A' for Active; 'I' for Inactive)
REMARK    1  A    between atoms: N_2  and  S_1 
REMARK    2  A    between atoms: C_7  and  S_1 
REMARK       I    between atoms: N_8  and  C_4 
REMARK       I    between atoms: N_9  and  C_4 
REMARK    3  A    between atoms: N_10  and  N_8 
REMARK    4  A    between atoms: N_11  and  N_9 
ROOT
ATOM      1  N   UNL d   1       0.629  -0.824  -1.451  0.00  0.00    -0.111 N 
ATOM      2  HN  UNL d   1       1.439  -0.988  -2.048  1.00  0.00     0.197 HD
ATOM      3  C   UNL d   1      -0.548  -1.089  -1.931  0.00  0.00     0.712 C 
ATOM      4  N   UNL d   1      -1.835  -1.086  -1.408  0.00  0.00    -0.155 N 
ATOM      5  N   UNL d   1      -0.542  -1.479  -3.264  0.00  0.00    -0.155 N 
ATOM      6  H   UNL d   1      -2.471  -0.635  -2.070  0.00  0.00     0.199 HD
ATOM      7  H   UNL d   1       0.373  -1.491  -3.716  0.00  0.00     0.199 HD
ENDROOT
BRANCH   1   8
ATOM      8  S   UNL d   1       0.883  -0.254   0.030  0.00  0.00     0.276 S 
ATOM      9  O   UNL d   1       0.469  -1.232   1.021  0.00  0.00    -0.200 OA
ATOM     10  O   UNL d   1       0.435   1.125   0.110  0.00  0.00    -0.200 OA
BRANCH   8  11
ATOM     11  C   UNL d   1       2.669  -0.195   0.133  0.00  0.00     0.080 A 
ATOM     12  C   UNL d   1       3.325   1.023   0.341  0.00  0.00     0.025 A 
ATOM     13  C   UNL d   1       4.718   1.048   0.422  0.00  0.00     0.002 A 
ATOM     14  C   UNL d   1       5.447  -0.136   0.298  0.00  0.00     0.000 A 
ATOM     15  C   UNL d   1       4.788  -1.351   0.096  0.00  0.00     0.002 A 
ATOM     16  C   UNL d   1       3.394  -1.385   0.013  0.00  0.00     0.025 A 
ENDBRANCH   8  11
ENDBRANCH   1   8
BRANCH   4  17
ATOM     17  N   UNL d   1      -2.086  -0.779  -0.059  0.00  0.00    -0.235 NA
ATOM     18  H   UNL d   1      -1.416  -1.259   0.563  0.00  0.00     0.143 HD
ATOM     19  H   UNL d   1      -2.992  -1.154   0.231  0.00  0.00     0.143 HD
ENDBRANCH   4  17
BRANCH   5  20
ATOM     20  N   UNL d   1      -1.667  -2.001  -3.936  0.00  0.00    -0.235 NA
ATOM     21  H   UNL d   1      -2.454  -2.127  -3.298  0.00  0.00     0.143 HD
ATOM     22  H   UNL d   1      -1.461  -2.952  -4.254  0.00  0.00     0.143 HD
ENDBRANCH   5  20
TORSDOF 4
