REMARK  6 active torsions:
REMARK  status: ('A' for Active; 'I' for Inactive)
REMARK    1  A    between atoms: C_4  and  S_1 
REMARK    2  A    between atoms: N_11  and  S_1 
REMARK    3  A    between atoms: C_16  and  C_5 
REMARK    4  A    between atoms: C_8  and  C_13 
REMARK    5  A    between atoms: C_9  and  C_17 
REMARK    6  A    between atoms: C_13  and  N_11 
ROOT
ATOM      1  N   UNL d   1      -0.821  -4.343  -0.213  0.00  0.00    -0.321 N 
ATOM      2  HN  UNL d   1      -1.634  -3.734  -0.127  1.00  0.00     0.169 HD
ATOM      3  C   UNL d   1      -0.749  -5.715  -0.077  0.00  0.00     0.137 A 
ATOM      4  N   UNL d   1       0.484  -6.215  -0.273  0.00  0.00    -0.242 N 
ATOM      5  HN  UNL d   1       0.779  -7.190  -0.234  1.00  0.00     0.196 HD
ATOM      6  C   UNL d   1       0.427  -4.020  -0.481  0.00  0.00     0.167 A 
ATOM      7  O   UNL d   1       1.262  -5.095  -0.538  0.00  0.00    -0.221 OA
ENDROOT
BRANCH   6   8
ATOM      8  C   UNL d   1       1.038  -2.691  -0.757  0.00  0.00     0.218 C 
BRANCH   8   9
ATOM      9  N   UNL d   1       0.360  -1.666   0.035  0.00  0.00    -0.308 N 
ATOM     10  H   UNL d   1      -0.653  -1.774   0.164  0.00  0.00     0.172 HD
BRANCH   9  11
ATOM     11  S   UNL d   1       0.821  -0.074  -0.181  0.00  0.00     0.261 S 
ATOM     12  O   UNL d   1       0.014   0.748   0.696  0.00  0.00    -0.200 OA
ATOM     13  O   UNL d   1       2.264  -0.061  -0.083  0.00  0.00    -0.200 OA
BRANCH  11  14
ATOM     14  C   UNL d   1       0.407   0.334  -1.856  0.00  0.00     0.106 A 
ATOM     15  C   UNL d   1      -0.915   0.222  -2.285  0.00  0.00     0.066 A 
ATOM     16  N   UNL d   1      -1.892  -0.309  -1.514  0.00  0.00    -0.364 N 
ATOM     17  C   UNL d   1      -1.200   0.678  -3.596  0.00  0.00    -0.008 A 
ATOM     18  C   UNL d   1      -3.153  -0.360  -1.999  0.00  0.00     0.088 A 
ATOM     19  HN  UNL d   1      -1.680  -0.666  -0.582  1.00  0.00     0.165 HD
ATOM     20  C   UNL d   1      -3.513   0.078  -3.256  0.00  0.00     0.018 A 
ATOM     21  C   UNL d   1      -2.517   0.603  -4.066  0.00  0.00     0.015 A 
ATOM     22  C   UNL d   1      -0.186   1.199  -4.421  0.00  0.00     0.014 A 
ATOM     23  C   UNL d   1       1.127   1.261  -3.973  0.00  0.00     0.003 A 
ATOM     24  C   UNL d   1       1.428   0.830  -2.688  0.00  0.00     0.028 A 
ENDBRANCH  11  14
ENDBRANCH   9  11
ENDBRANCH   8   9
ENDBRANCH   6   8
BRANCH   3  25
ATOM     25  C   UNL d   1      -1.915  -6.540   0.226  0.00  0.00     0.010 A 
ATOM     26  C   UNL d   1      -3.181  -5.957   0.388  0.00  0.00     0.016 A 
ATOM     27  C   UNL d   1      -4.302  -6.750   0.666  0.00  0.00     0.017 A 
ATOM     28  C   UNL d   1      -4.180  -8.141   0.790  0.00  0.00     0.048 A 
ATOM     29  C   UNL d   1      -2.914  -8.723   0.634  0.00  0.00     0.017 A 
ATOM     30  C   UNL d   1      -1.796  -7.931   0.356  0.00  0.00     0.016 A 
BRANCH  28  31
ATOM     31  C   UNL d   1      -5.375  -9.016   1.083  0.00  0.00     0.417 C 
ATOM     32  F   UNL d   1      -6.539  -8.322   1.222  0.00  0.00    -0.166 F 
ATOM     33  F   UNL d   1      -5.603  -9.931   0.100  0.00  0.00    -0.166 F 
ATOM     34  F   UNL d   1      -5.228  -9.731   2.233  0.00  0.00    -0.166 F 
ENDBRANCH  28  31
ENDBRANCH   3  25
TORSDOF 6
