REMARK  3 active torsions:
REMARK  status: ('A' for Active; 'I' for Inactive)
REMARK    1  A    between atoms: C_8  and  N_5 
REMARK    2  A    between atoms: C_12  and  C_7 
REMARK    3  A    between atoms: C_13  and  C_7 
ROOT
ATOM      1  C   UNL d   1      -0.649  -1.066  -0.246  0.00  0.00     0.146 C 
ATOM      2  S   UNL d   1      -1.438   0.466   0.127  0.00  0.00    -0.057 SA
ATOM      3  N   UNL d   1       0.572  -1.130   0.369  0.00  0.00    -0.356 N 
ATOM      4  C   UNL d   1      -0.205   0.896   1.296  0.00  0.00     0.005 C 
ATOM      5  N   UNL d   1      -1.274  -1.919  -0.982  0.00  0.00    -0.335 N 
ATOM      6  HN  UNL d   1      -2.180  -1.668  -1.379  1.00  0.00     0.168 HD
ATOM      7  C   UNL d   1       0.816  -0.228   1.492  0.00  0.00     0.064 C 
ATOM      8  C   UNL d   1      -0.208   2.105   1.872  0.00  0.00     0.029 C 
ATOM      9  H   UNL d   1       1.004  -2.041   0.412  0.00  0.00     0.162 HD
ENDROOT
BRANCH   5  10
ATOM     10  C   UNL d   1      -0.731  -3.192  -1.249  0.00  0.00     0.056 A 
ATOM     11  C   UNL d   1      -1.507  -4.355  -1.080  0.00  0.00     0.060 A 
ATOM     12 CL   UNL d   1      -3.151  -4.272  -0.544  0.00  0.00    -0.082 Cl
ATOM     13  C   UNL d   1      -0.972  -5.622  -1.342  0.00  0.00     0.026 A 
ATOM     14  C   UNL d   1       0.347  -5.748  -1.774  0.00  0.00     0.002 A 
ATOM     15  C   UNL d   1       1.121  -4.608  -1.973  0.00  0.00     0.002 A 
ATOM     16  C   UNL d   1       0.576  -3.343  -1.739  0.00  0.00     0.031 A 
ENDBRANCH   5  10
BRANCH   7  17
ATOM     17  C   UNL d   1       2.292   0.247   1.461  0.00  0.00     0.032 C 
ATOM     18  C   UNL d   1       2.702   1.059   0.235  0.00  0.00     0.008 C 
ENDBRANCH   7  17
BRANCH   7  19
ATOM     19  C   UNL d   1       0.499  -0.992   2.808  0.00  0.00     0.032 C 
ATOM     20  C   UNL d   1       1.323  -2.256   3.049  0.00  0.00     0.008 C 
ENDBRANCH   7  19
TORSDOF 3
