REMARK  4 active torsions:
REMARK  status: ('A' for Active; 'I' for Inactive)
REMARK    1  A    between atoms: C_10  and  C_2 
REMARK       I    between atoms: C_6  and  N_11 
REMARK    2  A    between atoms: O_13  and  C_6 
REMARK    3  A    between atoms: N_11  and  N_8 
REMARK    4  A    between atoms: C_14  and  O_13 
ROOT
ATOM      1  N   UNL d   1       2.175  -3.145  -0.077  0.00  0.00    -0.305 N 
ATOM      2  HN  UNL d   1       1.222  -3.509  -0.076  1.00  0.00     0.186 HD
ATOM      3  C   UNL d   1       2.417  -1.876  -0.076  0.00  0.00     0.138 C 
ENDROOT
BRANCH   1   4
ATOM      4  N   UNL d   1       3.258  -3.971  -0.081  0.00  0.00    -0.246 N 
ATOM      5  C   UNL d   1       3.094  -5.316   0.147  0.00  0.00     0.379 C 
ATOM      6  O   UNL d   1       2.027  -5.902   0.276  0.00  0.00    -0.237 OA
ATOM      7  H   UNL d   1       4.204  -3.608  -0.075  0.00  0.00     0.192 HD
BRANCH   5   8
ATOM      8  O   UNL d   1       4.317  -5.894   0.280  0.00  0.00    -0.303 OA
BRANCH   8   9
ATOM      9  C   UNL d   1       4.299  -7.245   0.767  0.00  0.00     0.176 C 
ATOM     10  C   UNL d   1       4.327  -7.219   2.285  0.00  0.00     0.034 C 
ENDBRANCH   8   9
ENDBRANCH   5   8
ENDBRANCH   1   4
BRANCH   3  11
ATOM     11  C   UNL d   1       1.300  -0.961  -0.045  0.00  0.00     0.069 A 
ATOM     12  N   UNL d   1       1.526   0.412  -0.021  0.00  0.00    -0.291 N 
ATOM     13  N   UNL d   1       0.394   1.095   0.016  0.00  0.00    -0.061 NA
ATOM     14  HN  UNL d   1       2.453   0.839  -0.031  1.00  0.00     0.183 HD
ATOM     15  S   UNL d   1      -0.961   0.114   0.025  0.00  0.00    -0.010 SA
ATOM     16  C   UNL d   1      -0.036  -1.326  -0.023  0.00  0.00     0.097 A 
ENDBRANCH   3  11
TORSDOF 4
