REMARK  6 active torsions:
REMARK  status: ('A' for Active; 'I' for Inactive)
REMARK    1  A    between atoms: C_4  and  S_1 
REMARK    2  A    between atoms: N_6  and  S_1 
REMARK    3  A    between atoms: N_2  and  C_9 
REMARK    4  A    between atoms: O_5  and  C_3 
REMARK    5  A    between atoms: C_13  and  O_5 
REMARK    6  A    between atoms: C_14  and  N_6 
ROOT
ATOM      1  C   UNL d   1      -0.149   2.422  -3.603  0.00  0.00     0.119 A 
ATOM      2  C   UNL d   1       0.568   0.858  -1.397  0.00  0.00     0.083 A 
ATOM      3  C   UNL d   1      -0.201   1.019  -3.674  0.00  0.00     0.071 A 
ATOM      4  C   UNL d   1       0.162   3.027  -2.372  0.00  0.00     0.071 A 
ATOM      5  C   UNL d   1       0.143   0.232  -2.571  0.00  0.00     0.052 A 
ATOM      6  C   UNL d   1       0.559   2.246  -1.286  0.00  0.00     0.052 A 
ATOM      7 CL   UNL d   1      -0.670   0.211  -5.128  0.00  0.00    -0.081 Cl
ATOM      8 CL   UNL d   1       0.050   4.730  -2.093  0.00  0.00    -0.081 Cl
ENDROOT
BRANCH   2   9
ATOM      9  S   UNL d   1       1.078  -0.117  -0.003  0.00  0.00     0.263 S 
ATOM     10  O   UNL d   1       0.333  -1.353  -0.047  0.00  0.00    -0.200 OA
ATOM     11  O   UNL d   1       1.073   0.734   1.168  0.00  0.00    -0.200 OA
BRANCH   9  12
ATOM     12  N   UNL d   1       2.653  -0.497  -0.400  0.00  0.00    -0.281 N 
ATOM     13  H   UNL d   1       2.876  -1.489  -0.475  0.00  0.00     0.179 HD
BRANCH  12  14
ATOM     14  C   UNL d   1       3.690   0.468  -0.426  0.00  0.00     0.045 A 
ATOM     15  C   UNL d   1       4.306   0.899   0.749  0.00  0.00     0.054 A 
ATOM     16  C   UNL d   1       5.420   1.734   0.671  0.00  0.00     0.037 A 
ATOM     17 CL   UNL d   1       6.223   2.228   2.111  0.00  0.00    -0.084 Cl
ATOM     18  C   UNL d   1       5.916   2.152  -0.564  0.00  0.00     0.048 A 
ATOM     19  C   UNL d   1       5.282   1.726  -1.728  0.00  0.00     0.037 A 
ATOM     20  C   UNL d   1       4.177   0.878  -1.666  0.00  0.00     0.054 A 
ATOM     21 CL   UNL d   1       5.873   2.230  -3.263  0.00  0.00    -0.084 Cl
ENDBRANCH  12  14
ENDBRANCH   9  12
ENDBRANCH   2   9
BRANCH   1  22
ATOM     22  O   UNL d   1      -0.455   3.128  -4.749  0.00  0.00    -0.306 OA
BRANCH  22  23
ATOM     23  C   UNL d   1       0.389   4.149  -5.146  0.00  0.00     0.098 A 
ATOM     24  C   UNL d   1      -0.185   5.266  -5.773  0.00  0.00     0.070 A 
ATOM     25  C   UNL d   1       0.600   6.370  -6.116  0.00  0.00     0.062 A 
ATOM     26 CL   UNL d   1      -1.878   5.332  -6.108  0.00  0.00    -0.081 Cl
ATOM     27  C   UNL d   1       1.970   6.349  -5.828  0.00  0.00     0.104 A 
ATOM     28  C   UNL d   1       2.561   5.225  -5.237  0.00  0.00     0.039 A 
ATOM     29  C   UNL d   1       1.775   4.114  -4.926  0.00  0.00     0.041 A 
BRANCH  27  30
ATOM     30  N   UNL d   1       2.800   7.516  -6.151  0.00  0.00    -0.116 N 
ATOM     31  O   UNL d   1       2.267   8.448  -6.766  0.00  0.00    -0.532 OA
ATOM     32  O   UNL d   1       3.987   7.495  -5.792  0.00  0.00    -0.532 OA
ENDBRANCH  27  30
ENDBRANCH  22  23
ENDBRANCH   1  22
TORSDOF 6
