REMARK  6 active torsions:
REMARK  status: ('A' for Active; 'I' for Inactive)
REMARK    1  A    between atoms: N_2  and  C_1 
REMARK    2  A    between atoms: C_3  and  N_6 
REMARK    3  A    between atoms: N_8  and  C_3 
REMARK    4  A    between atoms: N_9  and  C_4 
REMARK    5  A    between atoms: C_5  and  C_10 
REMARK    6  A    between atoms: C_11  and  N_8 
ROOT
ATOM      1  N   UNL d   1       1.642  -5.444   0.624  0.00  0.00    -0.356 N 
ATOM      2  N   UNL d   1       1.139  -2.538   0.041  0.00  0.00    -0.377 N 
ATOM      3  C   UNL d   1       1.192  -4.948  -0.685  0.00  0.00     0.145 C 
ATOM      4  C   UNL d   1       1.507  -3.486  -1.037  0.00  0.00     0.143 C 
ATOM      5  C   UNL d   1       1.442  -3.585   2.288  0.00  0.00     0.040 C 
ATOM      6  C   UNL d   1       0.925  -4.934   1.791  0.00  0.00     0.127 C 
ATOM      7  C   UNL d   1       2.034  -2.666   1.224  0.00  0.00     0.124 C 
ENDROOT
BRANCH   2   8
ATOM      8  C   UNL d   1       0.847  -1.188  -0.235  0.00  0.00     0.063 A 
ATOM      9  C   UNL d   1       1.179  -0.414  -1.362  0.00  0.00     0.130 A 
ATOM     10  C   UNL d   1       0.988   0.984  -1.408  0.00  0.00     0.054 A 
ATOM     11  C   UNL d   1       0.434   1.659  -0.316  0.00  0.00     0.050 A 
ATOM     12  C   UNL d   1      -0.023   0.901   0.764  0.00  0.00     0.018 A 
ATOM     13  C   UNL d   1       0.166  -0.486   0.788  0.00  0.00     0.032 A 
BRANCH   9  14
ATOM     14  N   UNL d   1       1.795  -0.966  -2.546  0.00  0.00    -0.113 N 
ATOM     15  O   UNL d   1       3.013  -1.192  -2.502  0.00  0.00    -0.532 OA
ATOM     16  O   UNL d   1       1.069  -1.113  -3.536  0.00  0.00    -0.532 OA
ENDBRANCH   9  14
BRANCH  11  17
ATOM     17  C   UNL d   1       0.371   3.164  -0.269  0.00  0.00     0.417 C 
ATOM     18  F   UNL d   1       0.904   3.761  -1.369  0.00  0.00    -0.166 F 
ATOM     19  F   UNL d   1      -0.902   3.629  -0.165  0.00  0.00    -0.166 F 
ATOM     20  F   UNL d   1       1.049   3.671   0.797  0.00  0.00    -0.166 F 
ENDBRANCH  11  17
ENDBRANCH   2   8
BRANCH   1  21
ATOM     21  C   UNL d   1       2.775  -6.208   0.768  0.00  0.00     0.174 C 
ATOM     22  S   UNL d   1       4.271  -5.795   0.133  0.00  0.00    -0.041 SA
BRANCH  21  23
ATOM     23  N   UNL d   1       2.709  -7.354   1.514  0.00  0.00    -0.333 N 
ATOM     24  H   UNL d   1       3.636  -7.697   1.732  0.00  0.00     0.168 HD
BRANCH  23  25
ATOM     25  C   UNL d   1       1.716  -8.376   1.461  0.00  0.00     0.040 A 
ATOM     26  C   UNL d   1       1.981  -9.636   2.038  0.00  0.00    -0.035 A 
ATOM     27  C   UNL d   1       1.085 -10.703   1.805  0.00  0.00     0.015 A 
ATOM     28  C   UNL d   1       3.183  -9.956   2.889  0.00  0.00     0.050 C 
ATOM     29  C   UNL d   1      -0.071 -10.539   1.035  0.00  0.00    -0.061 A 
ATOM     30  C   UNL d   1      -0.355  -9.279   0.525  0.00  0.00     0.009 A 
ATOM     31  C   UNL d   1      -0.941 -11.711   0.698  0.00  0.00     0.048 C 
ATOM     32  C   UNL d   1       0.525  -8.218   0.740  0.00  0.00     0.030 A 
ENDBRANCH  23  25
ENDBRANCH  21  23
ENDBRANCH   1  21
TORSDOF 6
