REMARK  3 active torsions:
REMARK  status: ('A' for Active; 'I' for Inactive)
REMARK    1  A    between atoms: C_3  and  N_1 
REMARK       I    between atoms: C_2  and  N_4 
REMARK    2  A    between atoms: C_17  and  C_2 
REMARK    3  A    between atoms: N_5  and  C_6 
ROOT
ATOM      1  C   UNL d   1      -5.084   6.758  -2.702  0.00  0.00     0.224 C 
ATOM      2  N   UNL d   1      -4.584   5.736  -1.888  0.00  0.00    -0.350 N 
ATOM      3  N   UNL d   1      -2.034   4.275  -1.921  0.00  0.00    -0.366 N 
ATOM      4  C   UNL d   1      -3.554   5.919  -0.854  0.00  0.00     0.145 C 
ATOM      5  C   UNL d   1      -2.126   5.619  -1.343  0.00  0.00     0.144 C 
ATOM      6  O   UNL d   1      -5.803   6.482  -3.672  0.00  0.00    -0.273 OA
ATOM      7  C   UNL d   1      -4.035   3.608  -3.171  0.00  0.00     0.040 C 
ATOM      8  C   UNL d   1      -4.951   4.350  -2.192  0.00  0.00     0.127 C 
ATOM      9  C   UNL d   1      -2.598   4.113  -3.260  0.00  0.00     0.126 C 
ENDROOT
BRANCH   3  10
ATOM     10  C   UNL d   1      -1.194   3.311  -1.408  0.00  0.00     0.103 A 
ATOM     11  C   UNL d   1      -0.996   3.188  -0.029  0.00  0.00     0.051 A 
ATOM     12  C   UNL d   1      -0.137   2.215   0.487  0.00  0.00     0.041 A 
ATOM     13  C   UNL d   1       0.526   1.378  -0.401  0.00  0.00     0.118 A 
ATOM     14  C   UNL d   1       0.283   1.528  -1.752  0.00  0.00     0.125 A 
ATOM     15  N   UNL d   1      -0.571   2.459  -2.252  0.00  0.00    -0.350 N 
ATOM     16  HN  UNL d   1      -0.741   2.514  -3.257  1.00  0.00     0.166 HD
BRANCH  13  17
ATOM     17  N   UNL d   1       1.451   0.359   0.071  0.00  0.00    -0.114 N 
ATOM     18  O   UNL d   1       2.031  -0.334  -0.776  0.00  0.00    -0.532 OA
ATOM     19  O   UNL d   1       1.608   0.251   1.296  0.00  0.00    -0.532 OA
ENDBRANCH  13  17
ENDBRANCH   3  10
BRANCH   1  20
ATOM     20  C   UNL d   1      -4.740   8.230  -2.325  0.00  0.00     0.078 C 
ATOM     21  C   UNL d   1      -5.377   9.344  -3.209  0.00  0.00     0.014 C 
ATOM     22  C   UNL d   1      -4.055  10.119  -3.116  0.00  0.00     0.002 C 
ATOM     23  C   UNL d   1      -3.362   8.793  -2.764  0.00  0.00     0.014 C 
ENDBRANCH   1  20
TORSDOF 3
