REMARK  7 active torsions:
REMARK  status: ('A' for Active; 'I' for Inactive)
REMARK    1  A    between atoms: C_11  and  C_3 
REMARK    2  A    between atoms: C_17  and  C_6 
REMARK    3  A    between atoms: C_7  and  C_12 
REMARK    4  A    between atoms: C_9  and  O_15 
REMARK       I    between atoms: C_10  and  N_14 
REMARK       I    between atoms: N_13  and  C_10 
REMARK    5  A    between atoms: C_28  and  N_13 
REMARK    6  A    between atoms: N_14  and  C_17 
REMARK    7  A    between atoms: O_15  and  C_29 
ROOT
ATOM      1  C   UNL d   1       1.202  -2.242   0.136  0.00  0.00     0.211 C 
ENDROOT
BRANCH   1   2
ATOM      2  N   UNL d   1       2.607  -2.320  -0.216  0.00  0.00    -0.335 N 
ATOM      3  C   UNL d   1       3.157  -3.578  -0.320  0.00  0.00     0.321 C 
ATOM      4  N   UNL d   1       4.507  -3.539  -0.570  0.00  0.00    -0.309 N 
ATOM      5  O   UNL d   1       2.460  -4.580  -0.203  0.00  0.00    -0.247 OA
ATOM      6  H   UNL d   1       4.916  -2.624  -0.683  0.00  0.00     0.170 HD
ATOM      7  H   UNL d   1       3.196  -1.566   0.105  0.00  0.00     0.164 HD
BRANCH   4   8
ATOM      8  C   UNL d   1       5.378  -4.644  -0.677  0.00  0.00     0.036 A 
ATOM      9  C   UNL d   1       4.955  -5.974  -0.612  0.00  0.00     0.032 A 
ATOM     10  C   UNL d   1       5.875  -7.027  -0.655  0.00  0.00     0.039 A 
ATOM     11  C   UNL d   1       7.238  -6.761  -0.724  0.00  0.00     0.078 A 
ATOM     12  C   UNL d   1       7.667  -5.441  -0.870  0.00  0.00     0.039 A 
ATOM     13  C   UNL d   1       6.743  -4.388  -0.844  0.00  0.00     0.032 A 
BRANCH  11  14
ATOM     14  O   UNL d   1       8.205  -7.717  -0.738  0.00  0.00    -0.255 OA
BRANCH  14  15
ATOM     15  C   UNL d   1       8.093  -8.771   0.216  0.00  0.00     0.530 C 
ATOM     16  F   UNL d   1       7.004  -8.698   1.010  0.00  0.00    -0.144 F 
ATOM     17  F   UNL d   1       8.068  -9.954  -0.437  0.00  0.00    -0.144 F 
ATOM     18  F   UNL d   1       9.187  -8.754   1.010  0.00  0.00    -0.144 F 
ENDBRANCH  14  15
ENDBRANCH  11  14
ENDBRANCH   4   8
ENDBRANCH   1   2
BRANCH   1  19
ATOM     19  C   UNL d   1       0.721  -0.843   0.156  0.00  0.00     0.166 A 
ATOM     20  N   UNL d   1       1.377   0.299   0.137  0.00  0.00    -0.321 N 
ATOM     21  C   UNL d   1       0.350   1.225   0.179  0.00  0.00     0.137 A 
ATOM     22  HN  UNL d   1       2.383   0.460   0.101  1.00  0.00     0.169 HD
ATOM     23  N   UNL d   1      -0.874   0.677   0.246  0.00  0.00    -0.242 N 
ATOM     24  O   UNL d   1      -0.629  -0.689   0.232  0.00  0.00    -0.221 OA
ATOM     25  HN  UNL d   1      -1.774   1.153   0.295  1.00  0.00     0.196 HD
BRANCH  21  26
ATOM     26  C   UNL d   1       0.582   2.666   0.156  0.00  0.00     0.010 A 
ATOM     27  C   UNL d   1       1.886   3.180   0.144  0.00  0.00     0.016 A 
ATOM     28  C   UNL d   1       2.109   4.562   0.130  0.00  0.00     0.017 A 
ATOM     29  C   UNL d   1       1.031   5.459   0.127  0.00  0.00     0.048 A 
ATOM     30  C   UNL d   1      -0.274   4.946   0.130  0.00  0.00     0.017 A 
ATOM     31  C   UNL d   1      -0.494   3.566   0.145  0.00  0.00     0.016 A 
BRANCH  29  32
ATOM     32  C   UNL d   1       1.250   6.953   0.124  0.00  0.00     0.417 C 
ATOM     33  F   UNL d   1       2.564   7.311   0.138  0.00  0.00    -0.166 F 
ATOM     34  F   UNL d   1       0.711   7.556  -0.971  0.00  0.00    -0.166 F 
ATOM     35  F   UNL d   1       0.686   7.562   1.203  0.00  0.00    -0.166 F 
ENDBRANCH  29  32
ENDBRANCH  21  26
ENDBRANCH   1  19
TORSDOF 7
