REMARK  3 active torsions:
REMARK  status: ('A' for Active; 'I' for Inactive)
REMARK    1  A    between atoms: N_3  and  C_1 
REMARK       I    between atoms: C_2  and  N_3 
REMARK       I    between atoms: N_7  and  C_2 
REMARK    2  A    between atoms: C_8  and  N_3 
REMARK    3  A    between atoms: C_10  and  N_7 
ROOT
ATOM      1  C   UNL d   1       3.490   1.007  -0.220  0.00  0.00     0.333 C 
ATOM      2  N   UNL d   1       2.114   1.426  -0.177  0.00  0.00    -0.244 N 
ATOM      3  N   UNL d   1       3.665  -0.339  -0.508  0.00  0.00    -0.308 N 
ATOM      4  O   UNL d   1       4.438   1.764  -0.015  0.00  0.00    -0.246 OA
ATOM      5  H   UNL d   1       2.835  -0.911  -0.422  0.00  0.00     0.170 HD
ENDROOT
BRANCH   2   6
ATOM      6  C   UNL d   1       0.994   0.593   0.035  0.00  0.00     0.151 C 
ATOM      7  N   UNL d   1      -0.216   0.898  -0.308  0.00  0.00    -0.369 N 
ATOM      8  C   UNL d   1      -1.155  -0.196  -0.000  0.00  0.00     0.137 C 
ATOM      9  HN  UNL d   1      -0.486   1.784  -0.736  1.00  0.00     0.161 HD
ATOM     10  C   UNL d   1      -0.598  -1.069   1.116  0.00  0.00     0.069 C 
ATOM     11  S   UNL d   1       1.179  -0.964   0.824  0.00  0.00    -0.087 SA
ATOM     12  C   UNL d   1      -0.923  -0.541   2.507  0.00  0.00     0.023 C 
ENDBRANCH   2   6
BRANCH   2  13
ATOM     13  C   UNL d   1       1.862   2.864  -0.279  0.00  0.00     0.046 A 
ATOM     14  C   UNL d   1       2.694   3.710  -1.035  0.00  0.00     0.032 A 
ATOM     15  C   UNL d   1       2.450   5.090  -1.120  0.00  0.00     0.026 A 
ATOM     16  C   UNL d   1       1.364   5.650  -0.458  0.00  0.00     0.034 A 
ATOM     17  C   UNL d   1       0.522   4.842   0.295  0.00  0.00     0.026 A 
ATOM     18 CL   UNL d   1       1.063   7.338  -0.562  0.00  0.00    -0.084 Cl
ATOM     19  C   UNL d   1       0.774   3.467   0.388  0.00  0.00     0.032 A 
ENDBRANCH   2  13
BRANCH   3  20
ATOM     20  C   UNL d   1       4.859  -1.067  -0.686  0.00  0.00     0.037 A 
ATOM     21  C   UNL d   1       6.119  -0.492  -0.845  0.00  0.00     0.053 A 
ATOM     22  C   UNL d   1       7.231  -1.311  -1.063  0.00  0.00     0.036 A 
ATOM     23 CL   UNL d   1       8.785  -0.602  -1.287  0.00  0.00    -0.084 Cl
ATOM     24  C   UNL d   1       7.102  -2.700  -1.115  0.00  0.00     0.024 A 
ATOM     25  C   UNL d   1       5.850  -3.279  -0.943  0.00  0.00     0.004 A 
ATOM     26  C   UNL d   1       4.736  -2.466  -0.732  0.00  0.00     0.029 A 
ENDBRANCH   3  20
TORSDOF 3
