REMARK  5 active torsions:
REMARK  status: ('A' for Active; 'I' for Inactive)
REMARK       I    between atoms: N_4  and  C_1 
REMARK    1  A    between atoms: C_8  and  C_1 
REMARK    2  A    between atoms: C_3  and  O_7 
REMARK    3  A    between atoms: C_9  and  N_5 
REMARK    4  A    between atoms: O_7  and  C_8 
REMARK    5  A    between atoms: O_24  and  C_19 
ROOT
ATOM      1  C   UNL d   1       0.996   0.216   0.308  0.00  0.00     0.249 C 
ATOM      2  N   UNL d   1       0.456  -1.044   0.625  0.00  0.00    -0.347 N 
ATOM      3  N   UNL d   1       0.003  -3.857   0.607  0.00  0.00    -0.376 N 
ATOM      4  C   UNL d   1      -0.620  -1.641  -0.188  0.00  0.00     0.145 C 
ATOM      5  C   UNL d   1       1.386  -1.967   1.298  0.00  0.00     0.145 C 
ATOM      6  C   UNL d   1       0.792  -3.326   1.723  0.00  0.00     0.143 C 
ATOM      7  C   UNL d   1      -1.148  -2.995   0.303  0.00  0.00     0.143 C 
ATOM      8  O   UNL d   1       1.938   0.686   0.949  0.00  0.00    -0.270 OA
ENDROOT
BRANCH   1   9
ATOM      9  C   UNL d   1       0.453   0.931  -0.960  0.00  0.00     0.216 C 
ATOM     10  C   UNL d   1       1.440   1.988  -1.456  0.00  0.00     0.050 C 
BRANCH   9  11
ATOM     11  O   UNL d   1      -0.802   1.572  -0.731  0.00  0.00    -0.336 OA
BRANCH  11  12
ATOM     12  C   UNL d   1      -1.878   1.260  -1.529  0.00  0.00     0.084 C 
ATOM     13  C   UNL d   1      -3.193   1.411  -0.979  0.00  0.00     0.030 A 
ATOM     14  C   UNL d   1      -4.244   0.852  -1.758  0.00  0.00     0.051 A 
ATOM     15  C   UNL d   1      -3.550   2.059   0.260  0.00  0.00    -0.047 A 
ATOM     16  C   UNL d   1      -5.560   0.864  -1.286  0.00  0.00    -0.034 A 
ATOM     17  N   UNL d   1      -4.032   0.286  -2.960  0.00  0.00    -0.365 N 
ATOM     18  C   UNL d   1      -6.692   0.230  -2.058  0.00  0.00     0.050 C 
ATOM     19  C   UNL d   1      -5.880   1.465  -0.065  0.00  0.00     0.009 A 
ATOM     20  C   UNL d   1      -4.885   2.061   0.693  0.00  0.00     0.008 A 
ATOM     21  C   UNL d   1      -2.797   0.278  -3.482  0.00  0.00     0.091 C 
ATOM     22  HN  UNL d   1      -4.808  -0.135  -3.472  1.00  0.00     0.165 HD
ATOM     23  C   UNL d   1      -1.700   0.760  -2.819  0.00  0.00     0.054 C 
ATOM     24  C   UNL d   1      -2.599   2.790   1.173  0.00  0.00     0.049 C 
ENDBRANCH  11  12
ENDBRANCH   9  11
ENDBRANCH   1   9
BRANCH   3  25
ATOM     25  C   UNL d   1      -0.272  -5.223   0.493  0.00  0.00     0.064 A 
ATOM     26  C   UNL d   1      -0.505  -5.813  -0.772  0.00  0.00     0.094 A 
ATOM     27  C   UNL d   1      -0.860  -7.159  -0.896  0.00  0.00     0.039 A 
ATOM     28  C   UNL d   1      -0.959  -7.957   0.240  0.00  0.00     0.003 A 
ATOM     29  C   UNL d   1      -0.711  -7.407   1.494  0.00  0.00     0.002 A 
ATOM     30  C   UNL d   1      -0.367  -6.052   1.617  0.00  0.00     0.032 A 
BRANCH  26  31
ATOM     31  O   UNL d   1      -0.469  -5.104  -1.957  0.00  0.00    -0.354 OA
ATOM     32  C   UNL d   1       0.831  -4.579  -2.234  0.00  0.00     0.210 C 
ENDBRANCH  26  31
ENDBRANCH   3  25
TORSDOF 5
