REMARK  5 active torsions:
REMARK  status: ('A' for Active; 'I' for Inactive)
REMARK    1  A    between atoms: C_2  and  C_1 
REMARK    2  A    between atoms: S_3  and  C_10 
REMARK    3  A    between atoms: C_15  and  S_3 
REMARK    4  A    between atoms: C_18  and  C_8 
REMARK    5  A    between atoms: C_10  and  C_9 
ROOT
ATOM      1  C   UNL d   1       0.171  -2.713  -0.048  0.00  0.00     0.054 A 
ATOM      2  N   UNL d   1       0.848  -3.237   1.036  0.00  0.00    -0.352 N 
ATOM      3  HN  UNL d   1       1.096  -2.705   1.870  1.00  0.00     0.166 HD
ATOM      4  C   UNL d   1       1.132  -4.508   0.857  0.00  0.00     0.065 A 
ATOM      5  C   UNL d   1      -0.103  -3.627  -1.042  0.00  0.00     0.082 A 
ATOM      6  S   UNL d   1       0.530  -5.168  -0.615  0.00  0.00    -0.085 SA
ENDROOT
BRANCH   1   7
ATOM      7  C   UNL d   1      -0.117  -1.277  -0.054  0.00  0.00     0.052 A 
ATOM      8  C   UNL d   1       0.618  -0.253   0.631  0.00  0.00     0.080 A 
ATOM      9  N   UNL d   1       0.041   0.944   0.414  0.00  0.00    -0.259 N 
ATOM     10  O   UNL d   1      -1.027   0.722  -0.421  0.00  0.00    -0.241 OA
ATOM     11  HN  UNL d   1       0.339   1.842   0.796  1.00  0.00     0.195 HD
ATOM     12  C   UNL d   1      -1.122  -0.601  -0.712  0.00  0.00     0.087 A 
ATOM     13  C   UNL d   1      -2.226  -0.965  -1.619  0.00  0.00     0.080 C 
BRANCH   8  14
ATOM     14  C   UNL d   1       1.836  -0.336   1.446  0.00  0.00    -0.007 A 
ATOM     15  C   UNL d   1       1.976   0.459   2.592  0.00  0.00     0.014 A 
ATOM     16  C   UNL d   1       3.114   0.352   3.397  0.00  0.00     0.001 A 
ATOM     17  C   UNL d   1       4.121  -0.555   3.070  0.00  0.00     0.000 A 
ATOM     18  C   UNL d   1       4.011  -1.327   1.917  0.00  0.00     0.001 A 
ATOM     19  C   UNL d   1       2.888  -1.196   1.098  0.00  0.00     0.014 A 
ENDBRANCH   8  14
ENDBRANCH   1   7
BRANCH   4  20
ATOM     20  C   UNL d   1       2.052  -5.298   1.728  0.00  0.00     0.206 C 
BRANCH  20  21
ATOM     21  S   UNL d   1       1.313  -5.511   3.340  0.00  0.00     0.157 S 
ATOM     22  O   UNL d   1       1.249  -4.223   4.011  0.00  0.00    -0.227 OA
ATOM     23  O   UNL d   1       0.113  -6.309   3.164  0.00  0.00    -0.227 OA
BRANCH  21  24
ATOM     24  C   UNL d   1       2.501  -6.536   4.294  0.00  0.00     0.053 C 
ATOM     25  C   UNL d   1       3.878  -5.856   4.371  0.00  0.00     0.031 C 
ATOM     26  C   UNL d   1       1.946  -6.693   5.721  0.00  0.00     0.031 C 
ATOM     27  C   UNL d   1       2.648  -7.927   3.662  0.00  0.00     0.031 C 
ENDBRANCH  21  24
ENDBRANCH  20  21
ENDBRANCH   4  20
TORSDOF 5
