REMARK  11 active torsions:
REMARK  status: ('A' for Active; 'I' for Inactive)
REMARK    1  A    between atoms: C_5  and  C_1 
REMARK    2  A    between atoms: N_11  and  C_4 
REMARK    3  A    between atoms: C_21  and  N_11 
REMARK    4  A    between atoms: O_12  and  C_16 
REMARK    5  A    between atoms: C_18  and  O_12 
REMARK    6  A    between atoms: C_15  and  C_20 
REMARK    7  A    between atoms: C_16  and  C_15 
REMARK    8  A    between atoms: O_19  and  C_15 
REMARK    9  A    between atoms: N_17  and  C_22 
REMARK   10  A    between atoms: C_20  and  N_17 
REMARK   11  A    between atoms: C_22  and  C_21 
ROOT
ATOM      1  C   UNL d   1       3.359   6.749  -0.244  0.00  0.00     0.125 C 
ENDROOT
BRANCH   1   2
ATOM      2  N   UNL d   1       3.593   5.425  -0.793  0.00  0.00    -0.262 NA
ATOM      3  H   UNL d   1       2.924   4.708  -0.537  0.00  0.00     0.130 HD
BRANCH   2   4
ATOM      4  C   UNL d   1       4.853   4.905  -0.543  0.00  0.00     0.157 A 
ATOM      5  N   UNL d   1       4.911   3.575  -0.443  0.00  0.00    -0.329 N 
ATOM      6  C   UNL d   1       6.127   3.007  -0.232  0.00  0.00     0.120 A 
ATOM      7  HN  UNL d   1       4.070   3.004  -0.523  1.00  0.00     0.168 HD
ATOM      8  C   UNL d   1       7.275   3.768  -0.106  0.00  0.00     0.051 A 
ATOM      9  C   UNL d   1       7.108   5.125  -0.208  0.00  0.00     0.093 A 
ATOM     10  N   UNL d   1       5.917   5.708  -0.420  0.00  0.00    -0.343 N 
ATOM     11  HN  UNL d   1       5.826   6.722  -0.485  1.00  0.00     0.167 HD
BRANCH   6  12
ATOM     12  C   UNL d   1       6.231   1.496  -0.141  0.00  0.00     0.432 C 
ATOM     13  F   UNL d   1       5.037   0.844  -0.222  0.00  0.00    -0.165 F 
ATOM     14  F   UNL d   1       6.800   1.085   1.030  0.00  0.00    -0.165 F 
ATOM     15  F   UNL d   1       7.012   0.970  -1.129  0.00  0.00    -0.165 F 
ENDBRANCH   6  12
ENDBRANCH   2   4
ENDBRANCH   1   2
BRANCH   1  16
ATOM     16  C   UNL d   1       1.944   7.237  -0.618  0.00  0.00     0.284 C 
BRANCH  16  17
ATOM     17  N   UNL d   1       1.573   8.564  -0.110  0.00  0.00     0.087 N 
ATOM     18  H   UNL d   1       1.573   8.574   0.910  0.00  0.00     0.316 HD
BRANCH  17  19
ATOM     19  C   UNL d   1       2.427   9.639  -0.627  0.00  0.00     0.303 C 
BRANCH  19  20
ATOM     20  C   UNL d   1       2.027  11.020  -0.067  0.00  0.00     0.170 C 
BRANCH  20  21
ATOM     21  C   UNL d   1       2.969  12.099  -0.624  0.00  0.00     0.209 C 
BRANCH  21  22
ATOM     22  O   UNL d   1       2.655  13.344   0.002  0.00  0.00    -0.349 OA
BRANCH  22  23
ATOM     23  C   UNL d   1       3.305  14.454  -0.461  0.00  0.00     0.068 A 
ATOM     24  C   UNL d   1       4.382  14.468  -1.346  0.00  0.00     0.037 A 
ATOM     25  C   UNL d   1       4.964  15.683  -1.720  0.00  0.00     0.003 A 
ATOM     26  C   UNL d   1       4.469  16.884  -1.214  0.00  0.00     0.000 A 
ATOM     27  C   UNL d   1       3.392  16.873  -0.331  0.00  0.00     0.003 A 
ATOM     28  C   UNL d   1       2.814  15.661   0.045  0.00  0.00     0.037 A 
ENDBRANCH  22  23
ENDBRANCH  21  22
ENDBRANCH  20  21
BRANCH  20  29
ATOM     29  O   UNL d   1       0.669  11.333  -0.403  0.00  0.00    -0.392 OA
ATOM     30  H   UNL d   1       0.523  11.078  -1.329  0.00  0.00     0.210 HD
ENDBRANCH  20  29
ENDBRANCH  19  20
ENDBRANCH  17  19
ENDBRANCH  16  17
ENDBRANCH   1  16
TORSDOF 11
