REMARK  3 active torsions:
REMARK  status: ('A' for Active; 'I' for Inactive)
REMARK    1  A    between atoms: C_6  and  C_1 
REMARK    2  A    between atoms: O_10  and  C_2 
REMARK    3  A    between atoms: O_13  and  C_9 
ROOT
ATOM      1  C   UNL d   1       1.474  -1.486  -0.176  0.00  0.00     0.126 A 
ATOM      2  C   UNL d   1       1.947  -0.238  -0.372  0.00  0.00     0.152 A 
ATOM      3  O   UNL d   1       0.136  -1.829  -0.101  0.00  0.00    -0.306 OA
ATOM      4  C   UNL d   1       0.959   0.880  -0.409  0.00  0.00     0.220 A 
ATOM      5  C   UNL d   1      -0.455   0.517  -0.220  0.00  0.00     0.051 A 
ATOM      6  C   UNL d   1      -0.794  -0.826  -0.100  0.00  0.00     0.090 A 
ATOM      7  O   UNL d   1       1.290   2.051  -0.564  0.00  0.00    -0.284 OA
ATOM      8  C   UNL d   1      -1.446   1.502  -0.160  0.00  0.00     0.018 A 
ATOM      9  C   UNL d   1      -2.131  -1.199   0.049  0.00  0.00     0.038 A 
ATOM     10  C   UNL d   1      -2.782   1.130   0.002  0.00  0.00     0.001 A 
ATOM     11  C   UNL d   1      -3.124  -0.220   0.097  0.00  0.00     0.003 A 
ENDROOT
BRANCH   1  12
ATOM     12  C   UNL d   1       2.360  -2.647  -0.000  0.00  0.00     0.034 A 
ATOM     13  C   UNL d   1       2.928  -3.024   1.232  0.00  0.00     0.081 A 
ATOM     14  C   UNL d   1       3.803  -4.119   1.274  0.00  0.00     0.038 A 
ATOM     15  C   UNL d   1       4.110  -4.843   0.123  0.00  0.00     0.003 A 
ATOM     16  C   UNL d   1       3.554  -4.471  -1.094  0.00  0.00     0.001 A 
ATOM     17  C   UNL d   1       2.684  -3.382  -1.155  0.00  0.00     0.017 A 
BRANCH  13  18
ATOM     18  O   UNL d   1       2.814  -2.393   2.442  0.00  0.00    -0.355 OA
ATOM     19  C   UNL d   1       1.559  -1.827   2.791  0.00  0.00     0.210 C 
ENDBRANCH  13  18
ENDBRANCH   1  12
BRANCH   2  20
ATOM     20  O   UNL d   1       3.287   0.082  -0.502  0.00  0.00    -0.355 OA
ATOM     21  H   UNL d   1       3.817  -0.731  -0.468  0.00  0.00     0.218 HD
ENDBRANCH   2  20
TORSDOF 3
