REMARK  8 active torsions:
REMARK  status: ('A' for Active; 'I' for Inactive)
REMARK    1  A    between atoms: C_2  and  S_1 
REMARK    2  A    between atoms: N_7  and  S_1 
REMARK    3  A    between atoms: C_8  and  C_3 
REMARK    4  A    between atoms: O_14  and  C_8 
REMARK    5  A    between atoms: N_9  and  O_14 
REMARK    6  A    between atoms: C_15  and  C_11 
REMARK    7  A    between atoms: N_26  and  C_11 
REMARK    8  A    between atoms: C_16  and  C_17 
ROOT
ATOM      1  C   UNL d   1       0.138   0.761   2.841  0.00  0.00     0.317 C 
ATOM      2  O   UNL d   1       0.786   0.438   1.846  0.00  0.00    -0.257 OA
ENDROOT
BRANCH   1   3
ATOM      3  C   UNL d   1      -0.375  -0.231   3.789  0.00  0.00     0.074 A 
ATOM      4  C   UNL d   1      -0.471  -1.659   3.632  0.00  0.00     0.071 A 
ATOM      5  C   UNL d   1      -0.996  -2.205   4.803  0.00  0.00     0.186 A 
ATOM      6  O   UNL d   1      -1.198  -1.156   5.678  0.00  0.00    -0.301 OA
ATOM      7  C   UNL d   1      -0.781  -0.002   5.091  0.00  0.00     0.067 A 
ATOM      8  C   UNL d   1      -0.778   1.194   5.966  0.00  0.00     0.078 C 
BRANCH   5   9
ATOM      9  S   UNL d   1      -1.320  -3.921   5.320  0.00  0.00     0.266 S 
ATOM     10  O   UNL d   1      -1.536  -3.838   6.750  0.00  0.00    -0.204 OA
ATOM     11  O   UNL d   1      -0.223  -4.676   4.760  0.00  0.00    -0.204 OA
BRANCH   9  12
ATOM     12  N   UNL d   1      -2.772  -4.448   4.589  0.00  0.00    -0.201 NA
ATOM     13  C   UNL d   1      -2.635  -5.076   3.238  0.00  0.00     0.134 C 
ATOM     14  C   UNL d   1      -2.260  -6.560   3.361  0.00  0.00     0.183 C 
ATOM     15  O   UNL d   1      -3.257  -7.271   4.112  0.00  0.00    -0.389 OA
ATOM     16  C   UNL d   1      -3.347  -6.746   5.445  0.00  0.00     0.183 C 
ATOM     17  C   UNL d   1      -3.709  -5.255   5.439  0.00  0.00     0.134 C 
ENDBRANCH   9  12
ENDBRANCH   5   9
ENDBRANCH   1   3
BRANCH   1  18
ATOM     18  O   UNL d   1      -0.239   2.054   3.149  0.00  0.00    -0.193 OA
BRANCH  18  19
ATOM     19  N   UNL d   1       0.784   2.985   2.814  0.00  0.00    -0.246 N 
ATOM     20  C   UNL d   1       0.340   4.209   2.863  0.00  0.00     0.109 C 
ATOM     21  HN  UNL d   1       1.740   2.728   2.567  1.00  0.00     0.196 HD
BRANCH  20  22
ATOM     22  C   UNL d   1       1.331   5.346   2.841  0.00  0.00     0.004 A 
ATOM     23  C   UNL d   1       2.574   5.239   2.216  0.00  0.00     0.015 A 
ATOM     24  C   UNL d   1       3.520   6.277   2.336  0.00  0.00     0.009 A 
ATOM     25  C   UNL d   1       3.260   7.439   3.095  0.00  0.00    -0.051 A 
ATOM     26  C   UNL d   1       1.987   7.540   3.677  0.00  0.00     0.009 A 
ATOM     27  C   UNL d   1       1.038   6.515   3.553  0.00  0.00     0.015 A 
BRANCH  25  28
ATOM     28  C   UNL d   1       4.352   8.509   3.319  0.00  0.00    -0.024 C 
ATOM     29  C   UNL d   1       3.892   9.686   4.215  0.00  0.00     0.019 C 
ATOM     30  C   UNL d   1       5.576   7.872   4.017  0.00  0.00     0.019 C 
ATOM     31  C   UNL d   1       4.813   9.118   1.978  0.00  0.00     0.019 C 
ENDBRANCH  25  28
ENDBRANCH  20  22
BRANCH  20  32
ATOM     32  N   UNL d   1      -0.999   4.528   2.968  0.00  0.00    -0.286 NA
ATOM     33  H   UNL d   1      -1.602   3.765   2.684  0.00  0.00     0.125 HD
ATOM     34  H   UNL d   1      -1.268   5.401   2.527  0.00  0.00     0.125 HD
ENDBRANCH  20  32
ENDBRANCH  18  19
ENDBRANCH   1  18
TORSDOF 8
