REMARK  6 active torsions:
REMARK  status: ('A' for Active; 'I' for Inactive)
REMARK    1  A    between atoms: C_4  and  C_1 
REMARK    2  A    between atoms: C_13  and  C_5 
REMARK    3  A    between atoms: C_20  and  C_6 
REMARK    4  A    between atoms: C_21  and  C_7 
REMARK    5  A    between atoms: O_27  and  C_9 
REMARK    6  A    between atoms: C_10  and  C_14 
ROOT
ATOM      1  C   UNL d   1      -0.288  -0.478  -0.918  0.00  0.00     0.088 A 
ATOM      2  N   UNL d   1       0.618   0.444  -1.177  0.00  0.00    -0.349 N 
ATOM      3  HN  UNL d   1       0.810   0.819  -2.106  1.00  0.00     0.166 HD
ATOM      4  C   UNL d   1       1.275   0.836  -0.019  0.00  0.00     0.050 A 
ATOM      5  S   UNL d   1      -0.368  -0.939   0.746  0.00  0.00    -0.081 SA
ATOM      6  C   UNL d   1       0.794   0.251   1.136  0.00  0.00     0.082 A 
ENDROOT
BRANCH   4   7
ATOM      7  C   UNL d   1       2.427   1.731  -0.042  0.00  0.00    -0.008 A 
ATOM      8  C   UNL d   1       2.673   2.618   1.007  0.00  0.00     0.024 A 
ATOM      9  C   UNL d   1       3.840   3.401   1.066  0.00  0.00    -0.016 A 
ATOM     10  C   UNL d   1       4.766   3.255  -0.002  0.00  0.00     0.079 A 
ATOM     11  C   UNL d   1       4.538   2.415  -1.124  0.00  0.00    -0.016 A 
ATOM     12  C   UNL d   1       3.343   1.659  -1.100  0.00  0.00     0.024 A 
BRANCH   9  13
ATOM     13  C   UNL d   1       4.061   4.392   2.239  0.00  0.00    -0.021 C 
ATOM     14  C   UNL d   1       2.890   4.417   3.258  0.00  0.00     0.019 C 
ATOM     15  C   UNL d   1       5.322   4.026   3.053  0.00  0.00     0.019 C 
ATOM     16  C   UNL d   1       4.183   5.837   1.702  0.00  0.00     0.019 C 
ENDBRANCH   9  13
BRANCH  10  17
ATOM     17  O   UNL d   1       5.933   3.957   0.132  0.00  0.00    -0.360 OA
ATOM     18  H   UNL d   1       6.221   4.271  -0.732  0.00  0.00     0.217 HD
ENDBRANCH  10  17
BRANCH  11  19
ATOM     19  C   UNL d   1       5.504   2.279  -2.333  0.00  0.00    -0.021 C 
ATOM     20  C   UNL d   1       5.049   1.223  -3.382  0.00  0.00     0.019 C 
ATOM     21  C   UNL d   1       5.585   3.611  -3.115  0.00  0.00     0.019 C 
ATOM     22  C   UNL d   1       6.916   1.835  -1.890  0.00  0.00     0.019 C 
ENDBRANCH  11  19
ENDBRANCH   4   7
BRANCH   1  23
ATOM     23  C   UNL d   1      -1.100  -1.172  -1.946  0.00  0.00     0.041 A 
ATOM     24  C   UNL d   1      -0.502  -1.598  -3.156  0.00  0.00     0.049 A 
ATOM     25  C   UNL d   1      -1.246  -2.249  -4.155  0.00  0.00     0.041 A 
ATOM     26 CL   UNL d   1       1.187  -1.397  -3.507  0.00  0.00    -0.083 Cl
ATOM     27  C   UNL d   1      -2.606  -2.521  -3.982  0.00  0.00     0.051 A 
ATOM     28  C   UNL d   1      -3.210  -2.111  -2.792  0.00  0.00     0.041 A 
ATOM     29  C   UNL d   1      -2.481  -1.429  -1.802  0.00  0.00     0.049 A 
ATOM     30 CL   UNL d   1      -3.432  -0.889  -0.454  0.00  0.00    -0.083 Cl
BRANCH  27  31
ATOM     31  C   UNL d   1      -3.389  -3.220  -5.065  0.00  0.00     0.417 C 
ATOM     32  F   UNL d   1      -4.684  -3.465  -4.724  0.00  0.00    -0.166 F 
ATOM     33  F   UNL d   1      -3.435  -2.497  -6.217  0.00  0.00    -0.166 F 
ATOM     34  F   UNL d   1      -2.854  -4.426  -5.396  0.00  0.00    -0.166 F 
ENDBRANCH  27  31
ENDBRANCH   1  23
TORSDOF 6
