REMARK  4 active torsions:
REMARK  status: ('A' for Active; 'I' for Inactive)
REMARK    1  A    between atoms: O_11  and  C_1 
REMARK    2  A    between atoms: O_12  and  C_2 
REMARK    3  A    between atoms: C_13  and  O_11 
REMARK    4  A    between atoms: C_14  and  O_12 
ROOT
ATOM      1  C   UNL d   1       2.395   0.686  -0.152  0.00  0.00     0.111 C 
ATOM      2  C   UNL d   1       2.395  -0.713  -0.084  0.00  0.00     0.111 C 
ATOM      3  C   UNL d   1      -0.036   0.686   0.011  0.00  0.00     0.068 C 
ATOM      4  C   UNL d   1      -0.042  -0.709  -0.061  0.00  0.00     0.068 C 
ATOM      5  N   UNL d   1      -2.229   2.063   0.145  0.00  0.00    -0.191 NA
ATOM      6  N   UNL d   1      -2.233  -2.091  -0.030  0.00  0.00    -0.191 NA
ATOM      7  C   UNL d   1      -1.253   1.439   0.087  0.00  0.00     0.101 C 
ATOM      8  C   UNL d   1      -1.257  -1.464  -0.047  0.00  0.00     0.101 C 
ATOM      9  C   UNL d   1       1.181   1.378  -0.023  0.00  0.00     0.064 C 
ATOM     10  C   UNL d   1       1.172  -1.402  -0.117  0.00  0.00     0.064 C 
ENDROOT
BRANCH   1  11
ATOM     11  O   UNL d   1       3.593   1.351  -0.321  0.00  0.00    -0.308 OA
BRANCH  11  12
ATOM     12  C   UNL d   1       3.611   2.475  -1.131  0.00  0.00     0.076 A 
ATOM     13  C   UNL d   1       4.510   3.484  -0.780  0.00  0.00     0.037 A 
ATOM     14  C   UNL d   1       4.550   4.675  -1.512  0.00  0.00     0.003 A 
ATOM     15  C   UNL d   1       3.692   4.861  -2.596  0.00  0.00     0.000 A 
ATOM     16  C   UNL d   1       2.825   3.840  -2.978  0.00  0.00     0.003 A 
ATOM     17  C   UNL d   1       2.806   2.638  -2.267  0.00  0.00     0.037 A 
ENDBRANCH  11  12
ENDBRANCH   1  11
BRANCH   2  18
ATOM     18  O   UNL d   1       3.604  -1.382  -0.003  0.00  0.00    -0.308 OA
BRANCH  18  19
ATOM     19  C   UNL d   1       3.636  -2.549   0.740  0.00  0.00     0.076 A 
ATOM     20  C   UNL d   1       4.326  -3.633   0.198  0.00  0.00     0.037 A 
ATOM     21  C   UNL d   1       4.311  -4.868   0.854  0.00  0.00     0.003 A 
ATOM     22  C   UNL d   1       3.613  -5.016   2.054  0.00  0.00     0.000 A 
ATOM     23  C   UNL d   1       2.967  -3.921   2.624  0.00  0.00     0.003 A 
ATOM     24  C   UNL d   1       3.003  -2.681   1.984  0.00  0.00     0.037 A 
ENDBRANCH  18  19
ENDBRANCH   2  18
TORSDOF 4
