REMARK  4 active torsions:
REMARK  status: ('A' for Active; 'I' for Inactive)
REMARK    1  A    between atoms: C_2  and  S_1 
REMARK    2  A    between atoms: C_11  and  S_1 
REMARK    3  A    between atoms: N_5  and  C_3 
REMARK       I    between atoms: C_4  and  N_5 
REMARK       I    between atoms: N_12  and  C_4 
REMARK    4  A    between atoms: C_14  and  N_12 
ROOT
ATOM      1  C   UNL d   1      -0.679  -0.271  -0.121  0.00  0.00     0.098 A 
ATOM      2  C   UNL d   1      -0.897   0.258  -1.449  0.00  0.00     0.065 A 
ATOM      3  S   UNL d   1      -1.706  -2.197  -1.496  0.00  0.00    -0.110 SA
ATOM      4  C   UNL d   1      -1.119  -1.580  -0.019  0.00  0.00     0.075 A 
ATOM      5  C   UNL d   1      -1.372  -0.726  -2.296  0.00  0.00     0.080 A 
ENDROOT
BRANCH   2   6
ATOM      6  N   UNL d   1      -0.651   1.538  -1.958  0.00  0.00    -0.307 N 
ATOM      7  C   UNL d   1      -0.961   2.667  -1.227  0.00  0.00     0.325 C 
ATOM      8  N   UNL d   1      -0.442   3.816  -1.782  0.00  0.00    -0.309 N 
ATOM      9  O   UNL d   1      -1.652   2.622  -0.218  0.00  0.00    -0.247 OA
ATOM     10  H   UNL d   1      -0.062   3.749  -2.713  0.00  0.00     0.170 HD
ATOM     11  H   UNL d   1      -0.706   1.644  -2.960  0.00  0.00     0.170 HD
BRANCH   8  12
ATOM     12  C   UNL d   1      -0.390   5.082  -1.159  0.00  0.00     0.036 A 
ATOM     13  C   UNL d   1      -0.642   5.280   0.203  0.00  0.00     0.031 A 
ATOM     14  C   UNL d   1      -0.528   6.551   0.774  0.00  0.00     0.026 A 
ATOM     15  C   UNL d   1      -0.169   7.635  -0.019  0.00  0.00     0.034 A 
ATOM     16  C   UNL d   1       0.083   7.455  -1.377  0.00  0.00     0.026 A 
ATOM     17 CL   UNL d   1      -0.024   9.198   0.682  0.00  0.00    -0.084 Cl
ATOM     18  C   UNL d   1      -0.019   6.180  -1.944  0.00  0.00     0.031 A 
ENDBRANCH   8  12
ENDBRANCH   2   6
BRANCH   1  19
ATOM     19  S   UNL d   1       0.231   0.456   1.179  0.00  0.00     0.209 S 
ATOM     20  O   UNL d   1       1.167   1.349   0.520  0.00  0.00    -0.217 OA
ATOM     21  O   UNL d   1       0.711  -0.681   1.943  0.00  0.00    -0.217 OA
BRANCH  19  22
ATOM     22  C   UNL d   1      -0.772   1.402   2.284  0.00  0.00     0.064 A 
ATOM     23  C   UNL d   1      -2.167   1.360   2.267  0.00  0.00     0.024 A 
ATOM     24  C   UNL d   1      -2.887   2.197   3.126  0.00  0.00     0.002 A 
ATOM     25  C   UNL d   1      -2.218   3.042   4.015  0.00  0.00     0.000 A 
ATOM     26  C   UNL d   1      -0.825   3.058   4.053  0.00  0.00     0.002 A 
ATOM     27  C   UNL d   1      -0.101   2.241   3.185  0.00  0.00     0.024 A 
ENDBRANCH  19  22
ENDBRANCH   1  19
TORSDOF 4
