REMARK  4 active torsions:
REMARK  status: ('A' for Active; 'I' for Inactive)
REMARK    1  A    between atoms: C_2  and  S_1 
REMARK    2  A    between atoms: C_4  and  S_1 
REMARK    3  A    between atoms: C_3  and  C_7 
REMARK    4  A    between atoms: C_10  and  C_4 
ROOT
ATOM      1  C   UNL d   1       0.682   1.543  -0.735  0.00  0.00     0.152 A 
ATOM      2  N   UNL d   1      -0.460   2.168  -0.413  0.00  0.00    -0.333 N 
ATOM      3  HN  UNL d   1      -1.125   1.751   0.237  1.00  0.00     0.168 HD
ATOM      4  C   UNL d   1      -0.698   3.377  -0.984  0.00  0.00     0.119 A 
ATOM      5  N   UNL d   1       1.579   2.015  -1.615  0.00  0.00    -0.346 N 
ATOM      6  HN  UNL d   1       2.419   1.488  -1.856  1.00  0.00     0.167 HD
ATOM      7  C   UNL d   1       0.191   3.945  -1.881  0.00  0.00     0.051 A 
ATOM      8  C   UNL d   1       1.319   3.214  -2.165  0.00  0.00     0.092 A 
ENDROOT
BRANCH   1   9
ATOM      9  S   UNL d   1       0.931  -0.057  -0.026  0.00  0.00    -0.011 SA
BRANCH   9  10
ATOM     10  C   UNL d   1       2.681  -0.089  -0.007  0.00  0.00     0.226 C 
ATOM     11  O   UNL d   1       3.292   0.244   1.002  0.00  0.00    -0.279 OA
BRANCH  10  12
ATOM     12  C   UNL d   1       3.417  -0.596  -1.208  0.00  0.00     0.021 A 
ATOM     13  C   UNL d   1       4.815  -0.706  -1.116  0.00  0.00     0.018 A 
ATOM     14  C   UNL d   1       5.569  -1.165  -2.201  0.00  0.00     0.025 A 
ATOM     15  C   UNL d   1       4.931  -1.515  -3.388  0.00  0.00     0.034 A 
ATOM     16  C   UNL d   1       3.546  -1.409  -3.499  0.00  0.00     0.025 A 
ATOM     17 CL   UNL d   1       5.853  -2.076  -4.726  0.00  0.00    -0.084 Cl
ATOM     18  C   UNL d   1       2.791  -0.955  -2.413  0.00  0.00     0.018 A 
ENDBRANCH  10  12
ENDBRANCH   9  10
ENDBRANCH   1   9
BRANCH   4  19
ATOM     19  C   UNL d   1      -1.974   4.124  -0.636  0.00  0.00     0.432 C 
ATOM     20  F   UNL d   1      -2.785   3.474   0.244  0.00  0.00    -0.165 F 
ATOM     21  F   UNL d   1      -1.725   5.347  -0.084  0.00  0.00    -0.165 F 
ATOM     22  F   UNL d   1      -2.742   4.372  -1.738  0.00  0.00    -0.165 F 
ENDBRANCH   4  19
TORSDOF 4
