REMARK  4 active torsions:
REMARK  status: ('A' for Active; 'I' for Inactive)
REMARK    1  A    between atoms: N_12  and  C_2 
REMARK    2  A    between atoms: N_3  and  C_4 
REMARK       I    between atoms: C_8  and  N_3 
REMARK    3  A    between atoms: C_4  and  N_12 
REMARK    4  A    between atoms: C_18  and  C_8 
ROOT
ATOM      1  N   UNL d   1      -1.315  -2.709   0.133  0.00  0.00    -0.331 N 
ATOM      2  H   UNL d   1      -0.521  -3.328  -0.016  0.00  0.00     0.168 HD
ENDROOT
BRANCH   1   3
ATOM      3  C   UNL d   1      -2.485  -3.385  -0.060  0.00  0.00     0.179 C 
ATOM      4  S   UNL d   1      -2.297  -5.052  -0.165  0.00  0.00    -0.040 SA
BRANCH   3   5
ATOM      5  N   UNL d   1      -3.649  -2.674  -0.247  0.00  0.00    -0.299 N 
ATOM      6  C   UNL d   1      -4.790  -3.137  -0.898  0.00  0.00     0.257 C 
ATOM      7  O   UNL d   1      -4.797  -4.086  -1.681  0.00  0.00    -0.267 OA
ATOM      8  H   UNL d   1      -3.694  -1.752   0.163  0.00  0.00     0.171 HD
BRANCH   6   9
ATOM      9  C   UNL d   1      -6.059  -2.370  -0.765  0.00  0.00     0.032 A 
ATOM     10  C   UNL d   1      -6.962  -2.449  -1.841  0.00  0.00     0.017 A 
ATOM     11  C   UNL d   1      -8.239  -1.900  -1.750  0.00  0.00     0.001 A 
ATOM     12  C   UNL d   1      -8.629  -1.260  -0.576  0.00  0.00     0.000 A 
ATOM     13  C   UNL d   1      -7.732  -1.149   0.490  0.00  0.00     0.001 A 
ATOM     14  C   UNL d   1      -6.445  -1.700   0.400  0.00  0.00     0.017 A 
ENDBRANCH   6   9
ENDBRANCH   3   5
ENDBRANCH   1   3
BRANCH   1  15
ATOM     15  C   UNL d   1      -0.990  -1.386   0.469  0.00  0.00     0.065 A 
ATOM     16  C   UNL d   1      -1.820  -0.405   1.051  0.00  0.00     0.112 A 
ATOM     17  C   UNL d   1      -1.321   0.924   1.397  0.00  0.00     0.087 A 
ATOM     18  N   UNL d   1      -3.111  -0.464   1.414  0.00  0.00    -0.237 N 
ATOM     19  N   UNL d   1      -2.322   1.619   1.949  0.00  0.00    -0.239 N 
ATOM     20  C   UNL d   1       0.007   1.325   1.166  0.00  0.00     0.034 A 
ATOM     21  O   UNL d   1      -3.406   0.764   1.980  0.00  0.00    -0.156 OA
ATOM     22  HN  UNL d   1      -2.291   2.584   2.279  1.00  0.00     0.197 HD
ATOM     23  C   UNL d   1       0.828   0.332   0.607  0.00  0.00     0.005 A 
ATOM     24  C   UNL d   1       0.354  -0.968   0.288  0.00  0.00     0.032 A 
ATOM     25  HN  UNL d   1      -3.746  -1.253   1.295  1.00  0.00     0.197 HD
ENDBRANCH   1  15
TORSDOF 4
