REMARK  3 active torsions:
REMARK  status: ('A' for Active; 'I' for Inactive)
REMARK    1  A    between atoms: C_8  and  N_1 
REMARK    2  A    between atoms: C_9  and  C_2 
REMARK    3  A    between atoms: S_13  and  C_5 
ROOT
ATOM      1  N   UNL d   1      -0.287  -1.339   0.031  0.00  0.00    -0.279 N 
ATOM      2  C   UNL d   1       0.951  -0.730   0.217  0.00  0.00     0.109 A 
ATOM      3  N   UNL d   1       0.795   0.564   0.401  0.00  0.00    -0.286 N 
ATOM      4  HN  UNL d   1       1.532   1.231   0.630  1.00  0.00     0.188 HD
ATOM      5  C   UNL d   1      -1.169  -0.264  -0.006  0.00  0.00     0.167 A 
ATOM      6  N   UNL d   1      -0.527   0.857   0.231  0.00  0.00    -0.278 N 
ATOM      7  HN  UNL d   1      -0.945   1.786   0.280  1.00  0.00     0.189 HD
ENDROOT
BRANCH   1   8
ATOM      8  C   UNL d   1      -0.542  -2.740  -0.033  0.00  0.00     0.044 A 
ATOM      9  C   UNL d   1       0.234  -3.618   0.743  0.00  0.00     0.054 A 
ATOM     10  C   UNL d   1       0.013  -4.994   0.683  0.00  0.00     0.036 A 
ATOM     11 CL   UNL d   1       0.992  -6.054   1.620  0.00  0.00    -0.084 Cl
ATOM     12  C   UNL d   1      -0.989  -5.514  -0.128  0.00  0.00     0.024 A 
ATOM     13  C   UNL d   1      -1.776  -4.649  -0.888  0.00  0.00     0.004 A 
ATOM     14  C   UNL d   1      -1.550  -3.269  -0.848  0.00  0.00     0.030 A 
ENDBRANCH   1   8
BRANCH   2  15
ATOM     15  C   UNL d   1       2.333  -1.380   0.137  0.00  0.00     0.055 A 
ATOM     16  C   UNL d   1       3.314  -1.077   1.250  0.00  0.00     0.013 A 
ATOM     17  C   UNL d   1       3.544  -0.504  -0.107  0.00  0.00     0.013 A 
ENDBRANCH   2  15
BRANCH   5  18
ATOM     18  S   UNL d   1      -2.898  -0.364  -0.142  0.00  0.00    -0.096 SA
ATOM     19  C   UNL d   1      -3.342   1.389  -0.154  0.00  0.00     0.099 C 
ENDBRANCH   5  18
TORSDOF 3
