REMARK  5 active torsions:
REMARK  status: ('A' for Active; 'I' for Inactive)
REMARK    1  A    between atoms: O_6  and  C_1 
REMARK    2  A    between atoms: N_2  and  C_11 
REMARK    3  A    between atoms: C_5  and  C_4 
REMARK    4  A    between atoms: C_12  and  O_6 
REMARK    5  A    between atoms: O_13  and  C_7 
ROOT
ATOM      1  C   UNL d   1       2.386   4.617  -1.115  0.00  0.00     0.032 A 
ATOM      2  C   UNL d   1       1.276   2.200  -0.178  0.00  0.00     0.078 A 
ATOM      3  C   UNL d   1       2.478   4.267   0.232  0.00  0.00     0.032 A 
ATOM      4  C   UNL d   1       1.662   3.778  -1.972  0.00  0.00     0.032 A 
ATOM      5  C   UNL d   1       1.107   2.576  -1.509  0.00  0.00     0.039 A 
ATOM      6  C   UNL d   1       1.923   3.072   0.699  0.00  0.00     0.039 A 
ENDROOT
BRANCH   1   7
ATOM      7  N   UNL d   1       2.980   5.821  -1.533  0.00  0.00    -0.365 N 
ATOM      8  C   UNL d   1       3.653   5.824  -2.642  0.00  0.00     0.102 C 
ATOM      9  HN  UNL d   1       2.884   6.671  -0.977  1.00  0.00     0.165 HD
BRANCH   8  10
ATOM     10  C   UNL d   1       4.322   7.045  -3.134  0.00  0.00     0.012 A 
ATOM     11  C   UNL d   1       4.435   8.201  -2.349  0.00  0.00     0.077 A 
ATOM     12  C   UNL d   1       5.090   9.323  -2.844  0.00  0.00     0.037 A 
ATOM     13  C   UNL d   1       5.628   9.304  -4.133  0.00  0.00     0.003 A 
ATOM     14  C   UNL d   1       5.516   8.159  -4.920  0.00  0.00     0.001 A 
ATOM     15  C   UNL d   1       4.869   7.025  -4.420  0.00  0.00     0.015 A 
BRANCH  11  16
ATOM     16  O   UNL d   1       3.928   8.286  -1.079  0.00  0.00    -0.360 OA
ATOM     17  H   UNL d   1       3.452   7.444  -0.903  0.00  0.00     0.217 HD
ENDBRANCH  11  16
ENDBRANCH   8  10
ENDBRANCH   1   7
BRANCH   2  18
ATOM     18  O   UNL d   1       0.829   1.046   0.390  0.00  0.00    -0.255 OA
BRANCH  18  19
ATOM     19  C   UNL d   1       0.752  -0.119  -0.419  0.00  0.00     0.530 C 
ATOM     20  F   UNL d   1       1.529  -0.065  -1.521  0.00  0.00    -0.144 F 
ATOM     21  F   UNL d   1      -0.528  -0.331  -0.792  0.00  0.00    -0.144 F 
ATOM     22  F   UNL d   1       1.159  -1.177   0.319  0.00  0.00    -0.144 F 
ENDBRANCH  18  19
ENDBRANCH   2  18
TORSDOF 5
