REMARK  2 active torsions:
REMARK  status: ('A' for Active; 'I' for Inactive)
REMARK    1  A    between atoms: C_7  and  C_1 
REMARK    2  A    between atoms: C_8  and  C_3 
ROOT
ATOM      1  C   UNL d   1       1.393   1.074   0.072  0.00  0.00     0.037 C 
ATOM      2  C   UNL d   1       1.348  -0.275  -0.003  0.00  0.00     0.022 C 
ATOM      3  C   UNL d   1       0.127   1.895  -0.033  0.00  0.00     0.158 C 
ATOM      4  C   UNL d   1      -1.090  -0.257  -0.052  0.00  0.00     0.321 C 
ATOM      5  N   UNL d   1       0.117  -0.881  -0.126  0.00  0.00    -0.312 N 
ATOM      6  N   UNL d   1      -1.055   1.081   0.147  0.00  0.00    -0.330 N 
ATOM      7  O   UNL d   1      -2.149  -0.869  -0.124  0.00  0.00    -0.247 OA
ATOM      8  C   UNL d   1       2.495  -1.251   0.010  0.00  0.00     0.069 C 
ATOM      9  H   UNL d   1       0.055  -1.891  -0.201  0.00  0.00     0.170 HD
ATOM     10  H   UNL d   1      -1.962   1.526   0.157  0.00  0.00     0.165 HD
ENDROOT
BRANCH   3  11
ATOM     11  C   UNL d   1       0.030   3.085   0.907  0.00  0.00    -0.031 A 
ATOM     12  C   UNL d   1      -0.177   4.378   0.390  0.00  0.00     0.011 A 
ATOM     13  C   UNL d   1      -0.204   5.485   1.241  0.00  0.00     0.024 A 
ATOM     14  C   UNL d   1      -0.051   5.308   2.614  0.00  0.00     0.034 A 
ATOM     15  C   UNL d   1       0.114   4.031   3.146  0.00  0.00     0.024 A 
ATOM     16 CL   UNL d   1      -0.057   6.677   3.656  0.00  0.00    -0.084 Cl
ATOM     17  C   UNL d   1       0.150   2.923   2.298  0.00  0.00     0.011 A 
ENDBRANCH   3  11
BRANCH   1  18
ATOM     18  C   UNL d   1       2.699   1.798   0.255  0.00  0.00     0.156 C 
ATOM     19  O   UNL d   1       3.602   1.304   0.937  0.00  0.00    -0.293 OA
ATOM     20  C   UNL d   1       2.901   3.155  -0.368  0.00  0.00     0.096 C 
ENDBRANCH   1  18
TORSDOF 2
