REMARK  5 active torsions:
REMARK  status: ('A' for Active; 'I' for Inactive)
REMARK    1  A    between atoms: C_4  and  N_3 
REMARK    2  A    between atoms: N_6  and  C_4 
REMARK    3  A    between atoms: C_8  and  C_5 
REMARK    4  A    between atoms: C_9  and  N_6 
REMARK    5  A    between atoms: O_17  and  C_11 
ROOT
ATOM      1  N   UNL d   1      -1.108  -0.506  -0.093  0.00  0.00    -0.300 N 
ATOM      2  HN  UNL d   1      -2.038  -0.922  -0.045  1.00  0.00     0.187 HD
ATOM      3  N   UNL d   1      -0.980   0.873  -0.097  0.00  0.00    -0.267 N 
ATOM      4  C   UNL d   1      -0.066  -1.280  -0.149  0.00  0.00     0.036 C 
ATOM      5  C   UNL d   1       0.342   1.502  -0.083  0.00  0.00     0.152 C 
ATOM      6  C   UNL d   1       1.346  -0.747  -0.228  0.00  0.00     0.061 C 
ATOM      7  C   UNL d   1       1.410   0.589   0.484  0.00  0.00     0.028 C 
ENDROOT
BRANCH   3   8
ATOM      8  C   UNL d   1      -2.171   1.612  -0.136  0.00  0.00     0.193 C 
ATOM      9  S   UNL d   1      -2.385   3.135   0.546  0.00  0.00    -0.039 SA
BRANCH   8  10
ATOM     10  N   UNL d   1      -3.283   1.016  -0.691  0.00  0.00    -0.332 N 
ATOM     11  H   UNL d   1      -4.168   1.358  -0.343  0.00  0.00     0.168 HD
BRANCH  10  12
ATOM     12  C   UNL d   1      -3.339   0.208  -1.849  0.00  0.00     0.034 A 
ATOM     13  C   UNL d   1      -4.500  -0.530  -2.087  0.00  0.00     0.032 A 
ATOM     14  C   UNL d   1      -4.590  -1.367  -3.207  0.00  0.00     0.039 A 
ATOM     15  C   UNL d   1      -3.531  -1.447  -4.112  0.00  0.00     0.068 A 
ATOM     16  C   UNL d   1      -2.402  -0.656  -3.912  0.00  0.00     0.039 A 
ATOM     17  C   UNL d   1      -2.304   0.165  -2.788  0.00  0.00     0.032 A 
BRANCH  15  18
ATOM     18  O   UNL d   1      -3.486  -2.237  -5.227  0.00  0.00    -0.356 OA
ATOM     19  C   UNL d   1      -4.426  -3.302  -5.283  0.00  0.00     0.210 C 
ENDBRANCH  15  18
ENDBRANCH  10  12
ENDBRANCH   8  10
ENDBRANCH   3   8
BRANCH   4  20
ATOM     20  C   UNL d   1      -0.272  -2.761  -0.155  0.00  0.00    -0.012 A 
ATOM     21  C   UNL d   1       0.684  -3.634  -0.685  0.00  0.00     0.013 A 
ATOM     22  C   UNL d   1       0.463  -5.015  -0.661  0.00  0.00     0.001 A 
ATOM     23  C   UNL d   1      -0.712  -5.528  -0.112  0.00  0.00     0.000 A 
ATOM     24  C   UNL d   1      -1.674  -4.663   0.404  0.00  0.00     0.001 A 
ATOM     25  C   UNL d   1      -1.459  -3.283   0.378  0.00  0.00     0.013 A 
ENDBRANCH   4  20
TORSDOF 5
