REMARK  6 active torsions:
REMARK  status: ('A' for Active; 'I' for Inactive)
REMARK    1  A    between atoms: N_7  and  C_1 
REMARK    2  A    between atoms: N_4  and  C_2 
REMARK    3  A    between atoms: N_5  and  C_3 
REMARK    4  A    between atoms: C_6  and  C_8 
REMARK    5  A    between atoms: N_11  and  N_7 
REMARK    6  A    between atoms: C_18  and  C_13 
ROOT
ATOM      1  C   UNL d   1       1.031  -2.554   0.113  0.00  0.00     0.114 A 
ATOM      2  C   UNL d   1       0.050  -3.385  -0.476  0.00  0.00     0.134 A 
ATOM      3  C   UNL d   1       0.518  -1.437   0.796  0.00  0.00     0.134 A 
ATOM      4  C   UNL d   1      -1.809  -2.059   0.373  0.00  0.00     0.052 A 
ATOM      5  C   UNL d   1      -0.868  -1.192   0.941  0.00  0.00     0.054 A 
ATOM      6  C   UNL d   1      -1.337  -3.158  -0.352  0.00  0.00     0.054 A 
ENDROOT
BRANCH   1   7
ATOM      7  N   UNL d   1       2.404  -2.876  -0.019  0.00  0.00    -0.296 N 
ATOM      8  H   UNL d   1       2.609  -3.793   0.393  0.00  0.00     0.187 HD
BRANCH   7   9
ATOM      9  N   UNL d   1       3.319  -1.887   0.082  0.00  0.00    -0.304 N 
ATOM     10  C   UNL d   1       4.589  -2.169   0.194  0.00  0.00     0.033 C 
ATOM     11  C   UNL d   1       5.178  -3.569   0.215  0.00  0.00     0.070 C 
ATOM     12  HN  UNL d   1       3.015  -0.914   0.070  1.00  0.00     0.186 HD
BRANCH  10  13
ATOM     13  C   UNL d   1       5.558  -1.025   0.296  0.00  0.00     0.003 A 
ATOM     14  C   UNL d   1       6.936  -1.216   0.353  0.00  0.00     0.101 A 
ATOM     15  N   UNL d   1       7.848  -0.214   0.435  0.00  0.00    -0.374 N 
ATOM     16  C   UNL d   1       7.363   1.046   0.462  0.00  0.00     0.087 A 
ATOM     17  HN  UNL d   1       8.849  -0.403   0.474  1.00  0.00     0.164 HD
ATOM     18  C   UNL d   1       6.013   1.347   0.411  0.00  0.00     0.018 A 
ATOM     19  C   UNL d   1       5.101   0.295   0.326  0.00  0.00     0.016 A 
ENDBRANCH  10  13
ENDBRANCH   7   9
ENDBRANCH   1   7
BRANCH   2  20
ATOM     20  N   UNL d   1       0.453  -4.506  -1.316  0.00  0.00    -0.113 N 
ATOM     21  O   UNL d   1       1.253  -5.319  -0.834  0.00  0.00    -0.532 OA
ATOM     22  O   UNL d   1      -0.076  -4.588  -2.434  0.00  0.00    -0.532 OA
ENDBRANCH   2  20
BRANCH   3  23
ATOM     23  N   UNL d   1       1.385  -0.450   1.420  0.00  0.00    -0.113 N 
ATOM     24  O   UNL d   1       2.018  -0.806   2.428  0.00  0.00    -0.532 OA
ATOM     25  O   UNL d   1       1.324   0.701   0.976  0.00  0.00    -0.532 OA
ENDBRANCH   3  23
BRANCH   4  26
ATOM     26  C   UNL d   1      -3.295  -1.816   0.510  0.00  0.00     0.417 C 
ATOM     27  F   UNL d   1      -3.595  -0.702   1.229  0.00  0.00    -0.166 F 
ATOM     28  F   UNL d   1      -3.903  -1.667  -0.696  0.00  0.00    -0.166 F 
ATOM     29  F   UNL d   1      -3.926  -2.849   1.130  0.00  0.00    -0.166 F 
ENDBRANCH   4  26
TORSDOF 6
