REMARK  4 active torsions:
REMARK  status: ('A' for Active; 'I' for Inactive)
REMARK    1  A    between atoms: C_12  and  C_1 
REMARK    2  A    between atoms: C_11  and  C_2 
REMARK    3  A    between atoms: C_3  and  N_17 
REMARK    4  A    between atoms: N_16  and  C_4 
REMARK       I    between atoms: C_13  and  N_16 
REMARK       I    between atoms: N_17  and  C_13 
ROOT
ATOM      1  C   UNL d   1       1.593  -2.757  -0.421  0.00  0.00     0.325 C 
ATOM      2  N   UNL d   1       0.323  -2.291  -0.288  0.00  0.00    -0.304 N 
ATOM      3  N   UNL d   1       2.635  -1.943  -0.048  0.00  0.00    -0.304 N 
ATOM      4  O   UNL d   1       1.706  -3.949  -0.706  0.00  0.00    -0.247 OA
ATOM      5  H   UNL d   1      -0.303  -3.082  -0.138  0.00  0.00     0.171 HD
ATOM      6  H   UNL d   1       2.381  -1.232   0.623  0.00  0.00     0.171 HD
ENDROOT
BRANCH   2   7
ATOM      7  C   UNL d   1      -0.242  -1.054  -0.064  0.00  0.00     0.097 A 
ATOM      8  C   UNL d   1      -1.302  -0.756   0.864  0.00  0.00     0.096 A 
ATOM      9  N   UNL d   1      -1.669   0.531   0.748  0.00  0.00    -0.258 N 
ATOM     10  O   UNL d   1      -0.940   1.054  -0.286  0.00  0.00    -0.240 OA
ATOM     11  HN  UNL d   1      -2.356   1.023   1.320  1.00  0.00     0.195 HD
ATOM     12  C   UNL d   1      -0.113   0.107  -0.804  0.00  0.00     0.101 A 
ATOM     13  C   UNL d   1       0.522   0.515  -2.070  0.00  0.00     0.081 C 
BRANCH   8  14
ATOM     14  C   UNL d   1      -1.902  -1.586   1.921  0.00  0.00     0.017 A 
ATOM     15  C   UNL d   1      -2.289  -2.925   1.774  0.00  0.00     0.046 A 
ATOM     16 CL   UNL d   1      -2.270  -3.770   0.263  0.00  0.00    -0.083 Cl
ATOM     17  C   UNL d   1      -2.792  -3.645   2.867  0.00  0.00     0.025 A 
ATOM     18  C   UNL d   1      -2.960  -3.029   4.106  0.00  0.00     0.002 A 
ATOM     19  C   UNL d   1      -2.640  -1.686   4.253  0.00  0.00     0.001 A 
ATOM     20  C   UNL d   1      -2.111  -0.974   3.177  0.00  0.00     0.015 A 
ENDBRANCH   8  14
ENDBRANCH   2   7
BRANCH   3  21
ATOM     21  C   UNL d   1       3.918  -2.502   0.116  0.00  0.00     0.097 C 
ATOM     22  C   UNL d   1       4.822  -2.383   1.238  0.00  0.00     0.096 C 
ATOM     23  N   UNL d   1       5.989  -2.991   0.961  0.00  0.00    -0.258 N 
ATOM     24  O   UNL d   1       5.824  -3.614  -0.251  0.00  0.00    -0.240 OA
ATOM     25  HN  UNL d   1       6.830  -2.990   1.537  1.00  0.00     0.195 HD
ATOM     26  C   UNL d   1       4.581  -3.360  -0.734  0.00  0.00     0.101 C 
ATOM     27  C   UNL d   1       4.277  -4.066  -2.000  0.00  0.00     0.081 C 
BRANCH  22  28
ATOM     28  C   UNL d   1       4.630  -1.810   2.576  0.00  0.00     0.017 A 
ATOM     29  C   UNL d   1       3.482  -2.023   3.359  0.00  0.00     0.046 A 
ATOM     30 CL   UNL d   1       2.170  -3.049   2.889  0.00  0.00    -0.083 Cl
ATOM     31  C   UNL d   1       3.381  -1.472   4.642  0.00  0.00     0.025 A 
ATOM     32  C   UNL d   1       4.437  -0.747   5.188  0.00  0.00     0.002 A 
ATOM     33  C   UNL d   1       5.607  -0.583   4.456  0.00  0.00     0.001 A 
ATOM     34  C   UNL d   1       5.703  -1.104   3.163  0.00  0.00     0.015 A 
ENDBRANCH  22  28
ENDBRANCH   3  21
TORSDOF 4
