REMARK  6 active torsions:
REMARK  status: ('A' for Active; 'I' for Inactive)
REMARK    1  A    between atoms: N_7  and  C_1 
REMARK    2  A    between atoms: C_8  and  N_2 
REMARK    3  A    between atoms: C_14  and  C_6 
REMARK       I    between atoms: C_11  and  N_7 
REMARK    4  A    between atoms: C_9  and  C_13 
REMARK    5  A    between atoms: C_10  and  C_12 
REMARK    6  A    between atoms: C_23  and  C_11 
ROOT
ATOM      1  C   UNL d   1      -0.477  -1.180  -0.063  0.00  0.00     0.132 C 
ATOM      2  N   UNL d   1       0.840  -0.774   0.152  0.00  0.00    -0.239 N 
ATOM      3  N   UNL d   1       0.919   0.556   0.415  0.00  0.00    -0.289 N 
ATOM      4  HN  UNL d   1       1.736   1.084   0.724  1.00  0.00     0.188 HD
ATOM      5  C   UNL d   1      -1.218  -0.015  -0.101  0.00  0.00     0.084 C 
ATOM      6  C   UNL d   1      -0.312   1.019   0.177  0.00  0.00     0.086 C 
ENDROOT
BRANCH   2   7
ATOM      7  C   UNL d   1       2.050  -1.521   0.003  0.00  0.00     0.060 A 
ATOM      8  C   UNL d   1       2.095  -2.692  -0.766  0.00  0.00     0.047 A 
ATOM      9  C   UNL d   1       3.300  -3.395  -0.939  0.00  0.00     0.051 A 
ATOM     10  C   UNL d   1       4.467  -2.895  -0.344  0.00  0.00     0.032 A 
ATOM     11  C   UNL d   1       4.451  -1.704   0.402  0.00  0.00     0.051 A 
ATOM     12  C   UNL d   1       3.234  -1.023   0.568  0.00  0.00     0.047 A 
BRANCH   9  13
ATOM     13  C   UNL d   1       3.348  -4.653  -1.777  0.00  0.00     0.417 C 
ATOM     14  F   UNL d   1       2.134  -5.002  -2.288  0.00  0.00    -0.166 F 
ATOM     15  F   UNL d   1       4.188  -4.541  -2.839  0.00  0.00    -0.166 F 
ATOM     16  F   UNL d   1       3.773  -5.729  -1.064  0.00  0.00    -0.166 F 
ENDBRANCH   9  13
BRANCH  11  17
ATOM     17  C   UNL d   1       5.731  -1.173   1.003  0.00  0.00     0.417 C 
ATOM     18  F   UNL d   1       5.586   0.018   1.645  0.00  0.00    -0.166 F 
ATOM     19  F   UNL d   1       6.264  -2.031   1.917  0.00  0.00    -0.166 F 
ATOM     20  F   UNL d   1       6.699  -0.979   0.065  0.00  0.00    -0.166 F 
ENDBRANCH  11  17
ENDBRANCH   2   7
BRANCH   1  21
ATOM     21  N   UNL d   1      -0.897  -2.500  -0.202  0.00  0.00    -0.311 N 
ATOM     22  C   UNL d   1      -1.983  -2.828  -0.995  0.00  0.00     0.227 C 
ATOM     23  O   UNL d   1      -2.658  -1.998  -1.618  0.00  0.00    -0.273 OA
ATOM     24  H   UNL d   1      -0.309  -3.244   0.151  0.00  0.00     0.170 HD
BRANCH  22  25
ATOM     25  C   UNL d   1      -2.246  -4.342  -1.126  0.00  0.00     0.078 C 
ATOM     26  C   UNL d   1      -3.743  -4.764  -1.159  0.00  0.00     0.014 C 
ATOM     27  C   UNL d   1      -3.325  -6.062  -0.451  0.00  0.00     0.002 C 
ATOM     28  C   UNL d   1      -2.113  -5.283   0.101  0.00  0.00     0.014 C 
ENDBRANCH  22  25
ENDBRANCH   1  21
BRANCH   6  29
ATOM     29  C   UNL d   1      -0.656   2.469   0.208  0.00  0.00     0.103 A 
ATOM     30  O   UNL d   1      -1.927   2.967   0.104  0.00  0.00    -0.320 OA
ATOM     31  C   UNL d   1      -1.837   4.320   0.158  0.00  0.00     0.142 A 
ATOM     32  C   UNL d   1      -0.524   4.711   0.273  0.00  0.00     0.027 A 
ATOM     33  C   UNL d   1       0.237   3.518   0.316  0.00  0.00     0.041 A 
ENDBRANCH   6  29
TORSDOF 6
