REMARK  7 active torsions:
REMARK  status: ('A' for Active; 'I' for Inactive)
REMARK    1  A    between atoms: C_2  and  S_1 
REMARK    2  A    between atoms: N_3  and  S_1 
REMARK    3  A    between atoms: C_4  and  N_3 
REMARK    4  A    between atoms: C_5  and  C_6 
REMARK    5  A    between atoms: O_12  and  C_7 
REMARK    6  A    between atoms: C_21  and  O_12 
REMARK    7  A    between atoms: O_27  and  C_22 
ROOT
ATOM      1  C   UNL d   1       0.581  -1.485  -2.150  0.00  0.00     0.057 A 
ATOM      2  C   UNL d   1       0.069  -2.575  -4.280  0.00  0.00     0.049 A 
ATOM      3  C   UNL d   1       1.934  -1.355  -2.524  0.00  0.00     0.098 A 
ATOM      4  C   UNL d   1      -0.335  -2.072  -3.036  0.00  0.00     0.043 A 
ATOM      5  C   UNL d   1       1.417  -2.493  -4.628  0.00  0.00     0.019 A 
ATOM      6  C   UNL d   1       2.335  -1.923  -3.750  0.00  0.00     0.040 A 
ENDROOT
BRANCH   1   7
ATOM      7  N   UNL d   1       0.059  -1.220  -0.844  0.00  0.00    -0.178 NA
ATOM      8  H   UNL d   1       0.649  -1.587  -0.095  0.00  0.00     0.146 HD
BRANCH   7   9
ATOM      9  S   UNL d   1      -0.458   0.320  -0.402  0.00  0.00     0.252 S 
ATOM     10  O   UNL d   1      -0.963   0.202   0.945  0.00  0.00    -0.205 OA
ATOM     11  O   UNL d   1       0.611   1.247  -0.710  0.00  0.00    -0.205 OA
BRANCH   9  12
ATOM     12  C   UNL d   1      -1.838   0.914  -1.363  0.00  0.00     0.115 A 
ATOM     13  S   UNL d   1      -3.239  -0.067  -1.440  0.00  0.00    -0.089 SA
ATOM     14  C   UNL d   1      -4.125   1.144  -2.277  0.00  0.00     0.051 A 
ATOM     15  C   UNL d   1      -3.363   2.266  -2.515  0.00  0.00     0.009 A 
ATOM     16  C   UNL d   1      -2.043   2.125  -2.000  0.00  0.00     0.033 A 
ENDBRANCH   9  12
ENDBRANCH   7   9
ENDBRANCH   1   7
BRANCH   3  17
ATOM     17  O   UNL d   1       2.851  -0.742  -1.673  0.00  0.00    -0.309 OA
BRANCH  17  18
ATOM     18  C   UNL d   1       4.075  -0.367  -2.217  0.00  0.00     0.076 C 
ATOM     19  C   UNL d   1       4.164   0.420  -3.374  0.00  0.00     0.040 C 
ATOM     20  C   UNL d   1       5.389   0.567  -4.039  0.00  0.00     0.039 C 
ATOM     21  C   UNL d   1       6.544  -0.006  -3.509  0.00  0.00     0.068 C 
ATOM     22  C   UNL d   1       6.480  -0.651  -2.270  0.00  0.00     0.039 C 
ATOM     23  C   UNL d   1       5.247  -0.844  -1.628  0.00  0.00     0.040 C 
BRANCH  21  24
ATOM     24  O   UNL d   1       7.777   0.046  -4.103  0.00  0.00    -0.356 OA
ATOM     25  C   UNL d   1       7.763  -0.065  -5.527  0.00  0.00     0.210 C 
ENDBRANCH  21  24
ENDBRANCH  17  18
ENDBRANCH   3  17
BRANCH   2  26
ATOM     26  C   UNL d   1      -0.901  -3.257  -5.208  0.00  0.00     0.417 C 
ATOM     27  F   UNL d   1      -2.154  -3.381  -4.693  0.00  0.00    -0.166 F 
ATOM     28  F   UNL d   1      -1.040  -2.597  -6.389  0.00  0.00    -0.166 F 
ATOM     29  F   UNL d   1      -0.501  -4.519  -5.527  0.00  0.00    -0.166 F 
ENDBRANCH   2  26
TORSDOF 7
