REMARK  4 active torsions:
REMARK  status: ('A' for Active; 'I' for Inactive)
REMARK    1  A    between atoms: O_8  and  C_1 
REMARK       I    between atoms: C_7  and  N_9 
REMARK    2  A    between atoms: C_14  and  C_7 
REMARK    3  A    between atoms: C_12  and  O_8 
REMARK    4  A    between atoms: N_9  and  C_10 
ROOT
ATOM      1  C   UNL d   1       3.170  -4.323   1.234  0.00  0.00     0.037 C 
ATOM      2  C   UNL d   1       1.184  -3.791  -0.057  0.00  0.00     0.078 C 
ATOM      3  C   UNL d   1       1.919  -3.721   1.128  0.00  0.00     0.066 C 
ATOM      4  C   UNL d   1       2.802  -5.339  -0.939  0.00  0.00     0.005 C 
ATOM      5  C   UNL d   1       3.593  -5.168   0.206  0.00  0.00     0.029 C 
ATOM      6  C   UNL d   1       1.608  -4.634  -1.082  0.00  0.00     0.037 C 
ENDROOT
BRANCH   2   7
ATOM      7  O   UNL d   1       0.051  -3.033  -0.273  0.00  0.00    -0.304 OA
BRANCH   7   8
ATOM      8  C   UNL d   1       0.030  -1.774   0.296  0.00  0.00     0.159 A 
ATOM      9  C   UNL d   1       1.102  -0.874   0.223  0.00  0.00     0.195 A 
ATOM     10  C   UNL d   1       1.050   0.342   0.896  0.00  0.00     0.199 A 
ATOM     11  F   UNL d   1       2.200  -1.173  -0.488  0.00  0.00    -0.200 F 
ATOM     12  F   UNL d   1       2.098   1.177   0.855  0.00  0.00    -0.199 F 
ATOM     13  C   UNL d   1      -0.091   0.695   1.602  0.00  0.00     0.199 A 
ATOM     14  C   UNL d   1      -1.183  -0.162   1.628  0.00  0.00     0.199 A 
ATOM     15  F   UNL d   1      -0.145   1.870   2.246  0.00  0.00    -0.199 F 
ATOM     16  C   UNL d   1      -1.126  -1.391   0.977  0.00  0.00     0.195 A 
ATOM     17  F   UNL d   1      -2.297   0.195   2.284  0.00  0.00    -0.199 F 
ATOM     18  F   UNL d   1      -2.184  -2.213   1.021  0.00  0.00    -0.200 F 
ENDBRANCH   7   8
ENDBRANCH   2   7
BRANCH   1  19
ATOM     19  N   UNL d   1       4.063  -4.038   2.296  0.00  0.00    -0.323 N 
ATOM     20  C   UNL d   1       3.935  -2.978   3.188  0.00  0.00     0.256 C 
ATOM     21  O   UNL d   1       2.970  -2.222   3.268  0.00  0.00    -0.267 OA
ATOM     22  H   UNL d   1       4.914  -4.578   2.306  0.00  0.00     0.169 HD
BRANCH  20  23
ATOM     23  C   UNL d   1       5.082  -2.713   4.109  0.00  0.00     0.032 A 
ATOM     24  C   UNL d   1       6.387  -3.169   3.878  0.00  0.00     0.017 A 
ATOM     25  C   UNL d   1       7.412  -2.834   4.770  0.00  0.00     0.001 A 
ATOM     26  C   UNL d   1       7.148  -2.037   5.882  0.00  0.00     0.000 A 
ATOM     27  C   UNL d   1       5.859  -1.565   6.110  0.00  0.00     0.001 A 
ATOM     28  C   UNL d   1       4.832  -1.900   5.227  0.00  0.00     0.017 A 
ENDBRANCH  20  23
ENDBRANCH   1  19
TORSDOF 4
