REMARK  8 active torsions:
REMARK  status: ('A' for Active; 'I' for Inactive)
REMARK    1  A    between atoms: C_7  and  S_1 
REMARK    2  A    between atoms: N_9  and  S_1 
REMARK    3  A    between atoms: S_2  and  C_8 
REMARK    4  A    between atoms: N_10  and  S_2 
REMARK    5  A    between atoms: C_22  and  N_9 
REMARK    6  A    between atoms: C_23  and  N_10 
REMARK    7  A    between atoms: C_24  and  C_22 
REMARK    8  A    between atoms: C_25  and  C_23 
ROOT
ATOM      1  C   UNL d   1       0.567   3.703  -1.873  0.00  0.00    -0.041 A 
ATOM      2  C   UNL d   1       0.262   5.668  -3.131  0.00  0.00    -0.041 A 
ATOM      3  C   UNL d   1      -0.196   3.392  -3.021  0.00  0.00    -0.019 A 
ATOM      4  C   UNL d   1      -0.387   4.600  -3.791  0.00  0.00    -0.019 A 
ATOM      5  C   UNL d   1       0.490   1.426  -1.202  0.00  0.00     0.080 A 
ATOM      6  C   UNL d   1      -0.445   7.166  -4.842  0.00  0.00     0.075 A 
ATOM      7  C   UNL d   1       0.908   5.179  -1.849  0.00  0.00     0.078 A 
ATOM      8  C   UNL d   1       0.916   2.734  -0.951  0.00  0.00     0.033 A 
ATOM      9  C   UNL d   1       0.250   6.953  -3.646  0.00  0.00     0.033 A 
ATOM     10  C   UNL d   1      -1.074   4.813  -4.972  0.00  0.00     0.014 A 
ATOM     11  C   UNL d   1      -0.624   2.097  -3.260  0.00  0.00     0.014 A 
ATOM     12  C   UNL d   1      -0.266   1.104  -2.347  0.00  0.00     0.026 A 
ATOM     13  C   UNL d   1      -1.121   6.112  -5.487  0.00  0.00     0.026 A 
ENDROOT
BRANCH   5  14
ATOM     14  S   UNL d   1       0.916   0.138  -0.059  0.00  0.00     0.259 S 
ATOM     15  O   UNL d   1       1.576   0.746   1.075  0.00  0.00    -0.201 OA
ATOM     16  O   UNL d   1       1.515  -0.941  -0.810  0.00  0.00    -0.201 OA
BRANCH  14  17
ATOM     17  N   UNL d   1      -0.593  -0.332   0.494  0.00  0.00    -0.311 N 
ATOM     18  H   UNL d   1      -0.718  -0.166   1.492  0.00  0.00     0.172 HD
BRANCH  17  19
ATOM     19  C   UNL d   1      -1.165  -1.561  -0.049  0.00  0.00     0.170 C 
BRANCH  19  20
ATOM     20  C   UNL d   1      -2.413  -1.941   0.705  0.00  0.00    -0.040 A 
ATOM     21  C   UNL d   1      -3.635  -1.325   0.407  0.00  0.00     0.009 A 
ATOM     22  C   UNL d   1      -4.786  -1.661   1.119  0.00  0.00     0.001 A 
ATOM     23  C   UNL d   1      -4.722  -2.607   2.141  0.00  0.00     0.000 A 
ATOM     24  C   UNL d   1      -3.508  -3.213   2.456  0.00  0.00     0.001 A 
ATOM     25  C   UNL d   1      -2.355  -2.879   1.746  0.00  0.00     0.009 A 
ENDBRANCH  19  20
ENDBRANCH  17  19
ENDBRANCH  14  17
ENDBRANCH   5  14
BRANCH   6  26
ATOM     26  S   UNL d   1      -0.530   8.816  -5.514  0.00  0.00     0.241 S 
ATOM     27  O   UNL d   1      -1.930   9.121  -5.733  0.00  0.00    -0.206 OA
ATOM     28  O   UNL d   1       0.318   9.653  -4.695  0.00  0.00    -0.206 OA
BRANCH  26  29
ATOM     29  N   UNL d   1       0.245   8.675  -7.008  0.00  0.00    -0.211 NA
ATOM     30  H   UNL d   1       1.081   8.092  -6.960  0.00  0.00     0.140 HD
BRANCH  29  31
ATOM     31  C   UNL d   1      -0.618   8.377  -8.159  0.00  0.00     0.143 C 
BRANCH  31  32
ATOM     32  C   UNL d   1       0.155   8.269  -9.449  0.00  0.00    -0.044 A 
ATOM     33  C   UNL d   1       0.177   7.065 -10.171  0.00  0.00     0.008 A 
ATOM     34  C   UNL d   1       0.824   6.993 -11.405  0.00  0.00     0.001 A 
ATOM     35  C   UNL d   1       1.458   8.118 -11.927  0.00  0.00     0.000 A 
ATOM     36  C   UNL d   1       1.460   9.313 -11.209  0.00  0.00     0.001 A 
ATOM     37  C   UNL d   1       0.815   9.388  -9.974  0.00  0.00     0.008 A 
ENDBRANCH  31  32
ENDBRANCH  29  31
ENDBRANCH  26  29
ENDBRANCH   6  26
TORSDOF 8
