REMARK  1 active torsions:
REMARK  status: ('A' for Active; 'I' for Inactive)
REMARK    1  A    between atoms: C_2  and  N_1 
ROOT
ATOM      1  N   UNL d   1       0.753   1.075  -0.443  0.00  0.00    -0.248 N 
ATOM      2  C   UNL d   1       1.057   0.916   0.918  0.00  0.00     0.255 C 
ATOM      3  C   UNL d   1      -0.091   0.191  -1.132  0.00  0.00     0.255 C 
ATOM      4  O   UNL d   1      -0.402  -1.101   0.926  0.00  0.00    -0.373 OA
ATOM      5  O   UNL d   1      -0.662   0.439  -2.195  0.00  0.00    -0.270 OA
ATOM      6  O   UNL d   1       1.642   1.743   1.621  0.00  0.00    -0.270 OA
ATOM      7  C   UNL d   1       0.715  -0.455   1.501  0.00  0.00     0.271 C 
ATOM      8  C   UNL d   1      -0.255  -1.173  -0.476  0.00  0.00     0.271 C 
ENDROOT
BRANCH   1   9
ATOM      9  C   UNL d   1       1.208   2.251  -1.134  0.00  0.00     0.054 A 
ATOM     10  C   UNL d   1       1.060   3.516  -0.546  0.00  0.00     0.073 A 
ATOM     11  C   UNL d   1       1.488   4.660  -1.212  0.00  0.00     0.118 A 
ATOM     12  F   UNL d   1       1.325   5.859  -0.638  0.00  0.00    -0.206 F 
ATOM     13  C   UNL d   1       2.073   4.583  -2.466  0.00  0.00     0.043 A 
ATOM     14  C   UNL d   1       2.248   3.337  -3.059  0.00  0.00     0.012 A 
ATOM     15  C   UNL d   1       1.844   2.159  -2.401  0.00  0.00    -0.034 A 
ATOM     16  C   UNL d   1       2.158   0.858  -3.094  0.00  0.00     0.050 C 
ENDBRANCH   1   9
TORSDOF 1
