REMARK  4 active torsions:
REMARK  status: ('A' for Active; 'I' for Inactive)
REMARK    1  A    between atoms: C_6  and  N_1 
REMARK    2  A    between atoms: N_7  and  C_6 
REMARK    3  A    between atoms: C_10  and  N_7 
REMARK    4  A    between atoms: S_12  and  C_11 
ROOT
ATOM      1  N   UNL d   1       1.888   0.163   0.280  0.00  0.00    -0.263 N 
ATOM      2  C   UNL d   1       1.401  -0.430  -0.846  0.00  0.00     0.263 A 
ATOM      3  C   UNL d   1       0.896   0.504   1.156  0.00  0.00     0.263 A 
ATOM      4  C   UNL d   1      -0.055  -0.422  -0.718  0.00  0.00     0.048 A 
ATOM      5  C   UNL d   1      -0.366   0.158   0.499  0.00  0.00     0.048 A 
ATOM      6  O   UNL d   1       0.965   0.949   2.282  0.00  0.00    -0.267 OA
ATOM      7  O   UNL d   1       2.002  -0.915  -1.784  0.00  0.00    -0.267 OA
ATOM      8  C   UNL d   1      -1.667   0.297   0.936  0.00  0.00     0.018 A 
ATOM      9  C   UNL d   1      -1.034  -0.905  -1.566  0.00  0.00     0.018 A 
ATOM     10  C   UNL d   1      -2.676  -0.176   0.091  0.00  0.00     0.001 A 
ATOM     11  C   UNL d   1      -2.361  -0.775  -1.148  0.00  0.00     0.001 A 
ENDROOT
BRANCH   1  12
ATOM     12  C   UNL d   1       3.283   0.267   0.590  0.00  0.00     0.258 C 
BRANCH  12  13
ATOM     13  N   UNL d   1       3.733   1.582   0.181  0.00  0.00    -0.372 N 
ATOM     14  H   UNL d   1       3.655   1.749  -0.819  0.00  0.00     0.161 HD
BRANCH  13  15
ATOM     15  C   UNL d   1       4.925   2.117   0.690  0.00  0.00     0.046 A 
ATOM     16  C   UNL d   1       5.258   3.476   0.469  0.00  0.00     0.026 A 
ATOM     17  C   UNL d   1       6.415   4.015   1.063  0.00  0.00     0.021 A 
ATOM     18  C   UNL d   1       7.257   3.230   1.850  0.00  0.00     0.002 A 
ATOM     19  C   UNL d   1       6.962   1.889   2.038  0.00  0.00     0.002 A 
ATOM     20  C   UNL d   1       5.807   1.345   1.472  0.00  0.00     0.030 A 
BRANCH  16  21
ATOM     21  S   UNL d   1       4.368   4.612  -0.612  0.00  0.00    -0.132 SA
ATOM     22  C   UNL d   1       2.632   4.321  -0.180  0.00  0.00     0.095 C 
ENDBRANCH  16  21
ENDBRANCH  13  15
ENDBRANCH  12  13
ENDBRANCH   1  12
TORSDOF 4
