REMARK  5 active torsions:
REMARK  status: ('A' for Active; 'I' for Inactive)
REMARK    1  A    between atoms: C_3  and  N_1 
REMARK    2  A    between atoms: S_11  and  C_2 
REMARK    3  A    between atoms: C_16  and  S_11 
REMARK    4  A    between atoms: C_14  and  C_16 
REMARK    5  A    between atoms: C_15  and  C_14 
ROOT
ATOM      1  N   UNL d   1       0.579   0.482  -0.126  0.00  0.00    -0.217 N 
ATOM      2  C   UNL d   1       1.060  -0.821  -0.012  0.00  0.00     0.177 A 
ATOM      3  N   UNL d   1       0.246  -1.518   0.746  0.00  0.00    -0.264 N 
ATOM      4  HN  UNL d   1       0.332  -2.505   0.992  1.00  0.00     0.186 HD
ATOM      5  N   UNL d   1      -0.541   0.550   0.639  0.00  0.00     0.001 NA
ATOM      6  N   UNL d   1      -0.737  -0.659   1.139  0.00  0.00    -0.006 NA
ENDROOT
BRANCH   2   7
ATOM      7  S   UNL d   1       2.577  -1.403  -0.604  0.00  0.00    -0.084 SA
BRANCH   7   8
ATOM      8  C   UNL d   1       2.506  -3.154  -0.086  0.00  0.00     0.166 C 
BRANCH   8   9
ATOM      9  C   UNL d   1       3.761  -3.904  -0.513  0.00  0.00     0.169 C 
ATOM     10  O   UNL d   1       4.665  -3.402  -1.179  0.00  0.00    -0.291 OA
BRANCH   9  11
ATOM     11  C   UNL d   1       3.892  -5.346  -0.141  0.00  0.00     0.011 A 
ATOM     12  C   UNL d   1       4.750  -6.146  -0.912  0.00  0.00     0.017 A 
ATOM     13  C   UNL d   1       4.944  -7.494  -0.598  0.00  0.00     0.025 A 
ATOM     14  C   UNL d   1       4.285  -8.046   0.497  0.00  0.00     0.034 A 
ATOM     15  C   UNL d   1       3.427  -7.265   1.270  0.00  0.00     0.025 A 
ATOM     16 CL   UNL d   1       4.542  -9.697   0.904  0.00  0.00    -0.084 Cl
ATOM     17  C   UNL d   1       3.224  -5.915   0.951  0.00  0.00     0.017 A 
ENDBRANCH   9  11
ENDBRANCH   8   9
ENDBRANCH   7   8
ENDBRANCH   2   7
BRANCH   1  18
ATOM     18  C   UNL d   1       0.960   1.578  -0.954  0.00  0.00     0.080 A 
ATOM     19  C   UNL d   1       1.540   1.330  -2.212  0.00  0.00     0.058 A 
ATOM     20  C   UNL d   1       1.818   2.383  -3.097  0.00  0.00     0.058 A 
ATOM     21 CL   UNL d   1       2.506   1.979  -4.630  0.00  0.00    -0.082 Cl
ATOM     22  C   UNL d   1       1.517   3.695  -2.738  0.00  0.00     0.057 A 
ATOM     23  C   UNL d   1       0.963   3.957  -1.485  0.00  0.00     0.051 A 
ATOM     24 CL   UNL d   1       1.798   5.036  -3.790  0.00  0.00    -0.082 Cl
ATOM     25  C   UNL d   1       0.688   2.911  -0.591  0.00  0.00     0.064 A 
ATOM     26 CL   UNL d   1       0.135   3.404   0.974  0.00  0.00    -0.082 Cl
ENDBRANCH   1  18
TORSDOF 5
