REMARK  1 active torsions:
REMARK  status: ('A' for Active; 'I' for Inactive)
REMARK    1  A    between atoms: O_10  and  N_6 
ROOT
ATOM      1  C   UNL d   1       2.487   0.046   0.001  0.00  0.00     0.156 A 
ATOM      2  C   UNL d   1       1.564   1.258   0.000  0.00  0.00     0.215 A 
ATOM      3  C   UNL d   1       1.611  -1.196   0.001  0.00  0.00     0.215 A 
ATOM      4  C   UNL d   1       0.202   0.701  -0.000  0.00  0.00     0.031 A 
ATOM      5  C   UNL d   1       0.227  -0.697   0.000  0.00  0.00     0.031 A 
ATOM      6  N   UNL d   1       3.782  -0.006   0.002  0.00  0.00    -0.262 N 
ATOM      7  HN  UNL d   1       4.325  -0.869   0.002  1.00  0.00     0.194 HD
ATOM      8  O   UNL d   1       1.846   2.432   0.000  0.00  0.00    -0.285 OA
ATOM      9  O   UNL d   1       1.972  -2.349   0.001  0.00  0.00    -0.285 OA
ATOM     10  C   UNL d   1      -0.988   1.406  -0.001  0.00  0.00     0.016 A 
ATOM     11  C   UNL d   1      -0.940  -1.439   0.000  0.00  0.00     0.016 A 
ATOM     12  C   UNL d   1      -2.151  -0.740  -0.000  0.00  0.00     0.001 A 
ATOM     13  C   UNL d   1      -2.175   0.669  -0.001  0.00  0.00     0.001 A 
ENDROOT
BRANCH   6  14
ATOM     14  O   UNL d   1       4.337   1.276   0.002  0.00  0.00    -0.289 OA
ATOM     15  H   UNL d   1       5.297   1.101   0.002  0.00  0.00     0.244 HD
ENDBRANCH   6  14
TORSDOF 1
