REMARK  6 active torsions:
REMARK  status: ('A' for Active; 'I' for Inactive)
REMARK    1  A    between atoms: N_2  and  C_1 
REMARK    2  A    between atoms: C_3  and  C_1 
REMARK    3  A    between atoms: C_4  and  C_1 
REMARK    4  A    between atoms: N_6  and  C_1 
REMARK       I    between atoms: C_5  and  N_2 
REMARK    5  A    between atoms: C_7  and  C_5 
REMARK    6  A    between atoms: C_10  and  N_6 
ROOT
ATOM      1  C   UNL d   1       0.704  -0.150  -0.185  0.00  0.00     0.306 C 
ENDROOT
BRANCH   1   2
ATOM      2  N   UNL d   1       0.528   1.229  -0.701  0.00  0.00    -0.315 N 
ATOM      3  C   UNL d   1       0.999   2.364  -0.099  0.00  0.00     0.254 C 
ATOM      4  O   UNL d   1       1.524   2.338   1.004  0.00  0.00    -0.268 OA
ATOM      5  H   UNL d   1       0.257   1.284  -1.672  0.00  0.00     0.165 HD
BRANCH   3   6
ATOM      6  C   UNL d   1       0.841   3.641  -0.879  0.00  0.00     0.037 A 
ATOM      7  C   UNL d   1       1.703   4.741  -0.685  0.00  0.00    -0.046 A 
ATOM      8  C   UNL d   1       2.839   4.739   0.302  0.00  0.00     0.049 C 
ATOM      9  C   UNL d   1       1.475   5.924  -1.415  0.00  0.00     0.007 A 
ATOM     10  C   UNL d   1       0.442   6.011  -2.346  0.00  0.00     0.001 A 
ATOM     11  C   UNL d   1      -0.397   4.924  -2.551  0.00  0.00     0.001 A 
ATOM     12  C   UNL d   1      -0.210   3.754  -1.813  0.00  0.00     0.017 A 
ENDBRANCH   3   6
ENDBRANCH   1   2
BRANCH   1  13
ATOM     13  C   UNL d   1      -0.372  -1.103  -0.793  0.00  0.00     0.441 C 
ATOM     14  F   UNL d   1      -0.524  -0.866  -2.127  0.00  0.00    -0.166 F 
ATOM     15  F   UNL d   1      -0.069  -2.413  -0.665  0.00  0.00    -0.166 F 
ATOM     16  F   UNL d   1      -1.598  -0.908  -0.253  0.00  0.00    -0.166 F 
ENDBRANCH   1  13
BRANCH   1  17
ATOM     17  C   UNL d   1       0.440  -0.346   1.351  0.00  0.00     0.441 C 
ATOM     18  F   UNL d   1      -0.639   0.347   1.781  0.00  0.00    -0.166 F 
ATOM     19  F   UNL d   1       0.230  -1.647   1.674  0.00  0.00    -0.166 F 
ATOM     20  F   UNL d   1       1.506   0.039   2.097  0.00  0.00    -0.166 F 
ENDBRANCH   1  17
BRANCH   1  21
ATOM     21  N   UNL d   1       2.117  -0.533  -0.520  0.00  0.00    -0.349 N 
ATOM     22  H   UNL d   1       2.727  -0.316   0.274  0.00  0.00     0.162 HD
BRANCH  21  23
ATOM     23  C   UNL d   1       2.799  -0.515  -1.720  0.00  0.00     0.032 A 
ATOM     24  C   UNL d   1       4.128  -0.981  -1.711  0.00  0.00     0.056 A 
ATOM     25  C   UNL d   1       4.899  -1.029  -2.876  0.00  0.00     0.074 A 
ATOM     26 CL   UNL d   1       6.518  -1.611  -2.801  0.00  0.00    -0.081 Cl
ATOM     27  C   UNL d   1       4.350  -0.613  -4.080  0.00  0.00     0.138 A 
ATOM     28  C   UNL d   1       3.031  -0.187  -4.129  0.00  0.00     0.046 A 
ATOM     29  F   UNL d   1       5.069  -0.627  -5.212  0.00  0.00    -0.204 F 
ATOM     30  C   UNL d   1       2.258  -0.168  -2.961  0.00  0.00     0.032 A 
ENDBRANCH  21  23
ENDBRANCH   1  21
TORSDOF 6
