REMARK  4 active torsions:
REMARK  status: ('A' for Active; 'I' for Inactive)
REMARK    1  A    between atoms: C_4  and  C_1 
REMARK    2  A    between atoms: C_5  and  C_1 
REMARK    3  A    between atoms: N_6  and  N_2 
REMARK    4  A    between atoms: C_7  and  N_6 
ROOT
ATOM      1  N   UNL d   1       1.084  -1.557   1.786  0.00  0.00    -0.300 N 
ATOM      2  H   UNL d   1       2.063  -1.814   1.596  0.00  0.00     0.187 HD
ENDROOT
BRANCH   1   3
ATOM      3  N   UNL d   1       0.411  -0.790   0.889  0.00  0.00    -0.294 N 
ATOM      4  C   UNL d   1       1.110  -0.028   0.088  0.00  0.00     0.139 C 
ATOM      5  HN  UNL d   1      -0.608  -0.808   0.842  1.00  0.00     0.187 HD
BRANCH   4   6
ATOM      6  C   UNL d   1       0.317   0.833  -0.867  0.00  0.00     0.177 C 
ATOM      7  O   UNL d   1       0.843   1.168  -1.923  0.00  0.00    -0.291 OA
ATOM      8  C   UNL d   1      -1.055   1.289  -0.450  0.00  0.00     0.098 C 
ENDBRANCH   4   6
BRANCH   4   9
ATOM      9  C   UNL d   1       2.635  -0.004   0.101  0.00  0.00     0.177 C 
ATOM     10  O   UNL d   1       3.253  -1.035   0.364  0.00  0.00    -0.291 OA
ATOM     11  C   UNL d   1       3.322   1.297  -0.180  0.00  0.00     0.098 C 
ENDBRANCH   4   9
ENDBRANCH   1   3
BRANCH   1  12
ATOM     12  C   UNL d   1       0.375  -2.521   2.530  0.00  0.00     0.051 A 
ATOM     13  C   UNL d   1      -1.009  -2.704   2.410  0.00  0.00     0.054 A 
ATOM     14  C   UNL d   1      -1.678  -3.613   3.230  0.00  0.00     0.037 A 
ATOM     15 CL   UNL d   1      -3.374  -3.845   3.040  0.00  0.00    -0.084 Cl
ATOM     16  C   UNL d   1      -0.993  -4.329   4.206  0.00  0.00     0.048 A 
ATOM     17  C   UNL d   1       0.376  -4.129   4.352  0.00  0.00     0.037 A 
ATOM     18  C   UNL d   1       1.058  -3.235   3.524  0.00  0.00     0.054 A 
ATOM     19 CL   UNL d   1       1.236  -4.978   5.578  0.00  0.00    -0.084 Cl
ENDBRANCH   1  12
TORSDOF 4
