REMARK  3 active torsions:
REMARK  status: ('A' for Active; 'I' for Inactive)
REMARK    1  A    between atoms: C_6  and  N_1 
REMARK    2  A    between atoms: C_14  and  C_13 
REMARK    3  A    between atoms: C_15  and  C_14 
ROOT
ATOM      1  C   UNL d   1       0.053   2.276  -0.017  0.00  0.00     0.045 A 
ATOM      2  C   UNL d   1      -0.673   2.988   0.946  0.00  0.00     0.031 A 
ATOM      3  C   UNL d   1       0.804   3.018  -0.943  0.00  0.00     0.031 A 
ATOM      4  C   UNL d   1      -0.636   4.387   0.999  0.00  0.00     0.009 A 
ATOM      5  C   UNL d   1       0.830   4.417  -0.902  0.00  0.00     0.009 A 
ATOM      6  C   UNL d   1       0.110   5.116   0.070  0.00  0.00    -0.058 A 
ENDROOT
BRANCH   1   7
ATOM      7  N   UNL d   1       0.044   0.856  -0.048  0.00  0.00    -0.245 N 
ATOM      8  C   UNL d   1      -0.907   0.057   0.528  0.00  0.00     0.255 A 
ATOM      9  C   UNL d   1      -0.512  -1.338   0.295  0.00  0.00     0.080 A 
ATOM     10  O   UNL d   1      -1.944   0.327   1.109  0.00  0.00    -0.268 OA
ATOM     11  C   UNL d   1       0.624  -1.329  -0.398  0.00  0.00     0.080 A 
ATOM     12  C   UNL d   1       0.999   0.070  -0.635  0.00  0.00     0.255 A 
ATOM     13  O   UNL d   1       2.030   0.353  -1.219  0.00  0.00    -0.268 OA
ENDBRANCH   1   7
BRANCH   6  14
ATOM     14  C   UNL d   1       0.137   6.623   0.123  0.00  0.00     0.038 C 
BRANCH  14  15
ATOM     15  C   UNL d   1      -0.419   7.302  -1.134  0.00  0.00     0.000 C 
ATOM     16  C   UNL d   1      -1.887   6.986  -1.386  0.00  0.00     0.005 C 
ENDBRANCH  14  15
ENDBRANCH   6  14
TORSDOF 3
