REMARK  4 active torsions:
REMARK  status: ('A' for Active; 'I' for Inactive)
REMARK    1  A    between atoms: C_6  and  C_1 
REMARK    2  A    between atoms: N_8  and  C_2 
REMARK       I    between atoms: C_9  and  N_8 
REMARK       I    between atoms: N_12  and  C_9 
REMARK    3  A    between atoms: C_11  and  C_18 
REMARK    4  A    between atoms: C_18  and  N_12 
ROOT
ATOM      1  C   UNL d   1      -1.505  -0.761  -0.260  0.00  0.00     0.096 C 
ATOM      2  C   UNL d   1      -0.118  -1.078  -0.087  0.00  0.00     0.097 C 
ATOM      3  N   UNL d   1      -1.648   0.559  -0.457  0.00  0.00    -0.258 N 
ATOM      4  HN  UNL d   1      -2.508   1.050  -0.701  1.00  0.00     0.195 HD
ATOM      5  C   UNL d   1       0.505   0.144  -0.004  0.00  0.00     0.101 C 
ATOM      6  O   UNL d   1      -0.404   1.119  -0.266  0.00  0.00    -0.240 OA
ATOM      7  C   UNL d   1       1.826   0.615   0.454  0.00  0.00     0.081 C 
ENDROOT
BRANCH   2   8
ATOM      8  N   UNL d   1       0.424  -2.317   0.174  0.00  0.00    -0.305 N 
ATOM      9  C   UNL d   1       1.465  -2.964  -0.422  0.00  0.00     0.321 C 
ATOM     10  N   UNL d   1       2.033  -2.430  -1.550  0.00  0.00    -0.338 N 
ATOM     11  O   UNL d   1       1.758  -4.082  -0.002  0.00  0.00    -0.247 OA
ATOM     12  H   UNL d   1       1.533  -1.693  -2.026  0.00  0.00     0.164 HD
ATOM     13  H   UNL d   1      -0.169  -2.979   0.660  0.00  0.00     0.171 HD
BRANCH  10  14
ATOM     14  C   UNL d   1       2.750  -3.387  -2.374  0.00  0.00     0.170 C 
BRANCH  14  15
ATOM     15  C   UNL d   1       3.399  -2.876  -3.626  0.00  0.00     0.000 A 
ATOM     16  S   UNL d   1       3.238  -1.283  -4.222  0.00  0.00    -0.105 SA
ATOM     17  C   UNL d   1       4.216  -1.621  -5.590  0.00  0.00     0.050 A 
ATOM     18  C   UNL d   1       4.657  -2.924  -5.606  0.00  0.00     0.008 A 
ATOM     19  C   UNL d   1       4.184  -3.646  -4.472  0.00  0.00     0.017 A 
ENDBRANCH  14  15
ENDBRANCH  10  14
ENDBRANCH   2   8
BRANCH   1  20
ATOM     20  C   UNL d   1      -2.646  -1.677  -0.324  0.00  0.00     0.017 A 
ATOM     21  C   UNL d   1      -3.860  -1.439   0.346  0.00  0.00     0.046 A 
ATOM     22 CL   UNL d   1      -4.114  -0.088   1.399  0.00  0.00    -0.083 Cl
ATOM     23  C   UNL d   1      -4.926  -2.342   0.223  0.00  0.00     0.025 A 
ATOM     24  C   UNL d   1      -4.792  -3.497  -0.545  0.00  0.00     0.002 A 
ATOM     25  C   UNL d   1      -3.589  -3.759  -1.193  0.00  0.00     0.001 A 
ATOM     26  C   UNL d   1      -2.529  -2.854  -1.090  0.00  0.00     0.015 A 
ENDBRANCH   1  20
TORSDOF 4
