REMARK  6 active torsions:
REMARK  status: ('A' for Active; 'I' for Inactive)
REMARK    1  A    between atoms: C_2  and  S_1 
REMARK    2  A    between atoms: N_5  and  S_1 
REMARK    3  A    between atoms: C_6  and  C_4 
REMARK       I    between atoms: N_10  and  C_6 
REMARK    4  A    between atoms: C_8  and  O_13 
REMARK    5  A    between atoms: C_18  and  N_10 
REMARK    6  A    between atoms: O_13  and  C_22 
ROOT
ATOM      1  C   UNL d   1      -2.186  -4.193  -0.403  0.00  0.00     0.280 C 
ATOM      2  N   UNL d   1      -3.321  -3.410  -0.530  0.00  0.00    -0.321 N 
ATOM      3  O   UNL d   1      -2.175  -5.424  -0.455  0.00  0.00    -0.265 OA
ATOM      4  H   UNL d   1      -3.179  -2.408  -0.463  0.00  0.00     0.169 HD
ENDROOT
BRANCH   1   5
ATOM      5  C   UNL d   1      -0.933  -3.476  -0.203  0.00  0.00     0.144 A 
ATOM      6  O   UNL d   1      -0.877  -2.110  -0.136  0.00  0.00    -0.292 OA
ATOM      7  C   UNL d   1       0.461  -1.746   0.002  0.00  0.00     0.185 A 
ATOM      8  C   UNL d   1       1.216  -2.911   0.061  0.00  0.00     0.054 A 
ATOM      9  C   UNL d   1       0.337  -4.000  -0.073  0.00  0.00     0.046 A 
BRANCH   7  10
ATOM     10  S   UNL d   1       1.005  -0.028   0.010  0.00  0.00     0.266 S 
ATOM     11  O   UNL d   1      -0.053   0.695  -0.651  0.00  0.00    -0.204 OA
ATOM     12  O   UNL d   1       2.345  -0.072  -0.534  0.00  0.00    -0.204 OA
BRANCH  10  13
ATOM     13  N   UNL d   1       1.100   0.515   1.623  0.00  0.00    -0.201 NA
ATOM     14  C   UNL d   1       2.160  -0.089   2.491  0.00  0.00     0.134 C 
ATOM     15  C   UNL d   1       3.534   0.560   2.262  0.00  0.00     0.183 C 
ATOM     16  O   UNL d   1       3.475   1.984   2.426  0.00  0.00    -0.389 OA
ATOM     17  C   UNL d   1       2.528   2.566   1.518  0.00  0.00     0.183 C 
ATOM     18  C   UNL d   1       1.124   2.008   1.770  0.00  0.00     0.134 C 
ENDBRANCH  10  13
ENDBRANCH   7  10
ENDBRANCH   1   5
BRANCH   2  19
ATOM     19  C   UNL d   1      -4.641  -3.873  -0.772  0.00  0.00     0.035 A 
ATOM     20  C   UNL d   1      -4.978  -5.222  -0.931  0.00  0.00     0.032 A 
ATOM     21  C   UNL d   1      -6.297  -5.628  -1.201  0.00  0.00     0.039 A 
ATOM     22  C   UNL d   1      -7.316  -4.689  -1.279  0.00  0.00     0.078 A 
ATOM     23  C   UNL d   1      -6.985  -3.338  -1.131  0.00  0.00     0.039 A 
ATOM     24  C   UNL d   1      -5.665  -2.931  -0.879  0.00  0.00     0.032 A 
BRANCH  22  25
ATOM     25  O   UNL d   1      -8.639  -4.925  -1.491  0.00  0.00    -0.255 OA
BRANCH  25  26
ATOM     26  C   UNL d   1      -9.168  -6.240  -1.412  0.00  0.00     0.530 C 
ATOM     27  F   UNL d   1      -8.480  -7.054  -0.585  0.00  0.00    -0.144 F 
ATOM     28  F   UNL d   1     -10.432  -6.157  -0.937  0.00  0.00    -0.144 F 
ATOM     29  F   UNL d   1      -9.220  -6.794  -2.642  0.00  0.00    -0.144 F 
ENDBRANCH  25  26
ENDBRANCH  22  25
ENDBRANCH   2  19
TORSDOF 6
