REMARK  3 active torsions:
REMARK  status: ('A' for Active; 'I' for Inactive)
REMARK    1  A    between atoms: C_2  and  C_1 
REMARK       I    between atoms: N_5  and  C_2 
REMARK    2  A    between atoms: C_14  and  C_3 
REMARK    3  A    between atoms: C_11  and  N_5 
ROOT
ATOM      1  C   UNL d   1       1.026   0.137   0.019  0.00  0.00     0.113 C 
ATOM      2  C   UNL d   1       0.292   0.021   1.147  0.00  0.00     0.039 C 
ATOM      3  C   UNL d   1       0.407   0.289  -1.254  0.00  0.00     0.105 C 
ATOM      4  N   UNL d   1      -0.118   0.436  -2.273  0.00  0.00    -0.191 NA
ENDROOT
BRANCH   1   5
ATOM      5  C   UNL d   1       2.524   0.058   0.185  0.00  0.00     0.266 C 
ATOM      6  N   UNL d   1       3.281  -0.045  -0.974  0.00  0.00    -0.322 N 
ATOM      7  H   UNL d   1       2.823   0.068  -1.871  0.00  0.00     0.169 HD
ATOM      8  O   UNL d   1       2.997   0.072   1.317  0.00  0.00    -0.267 OA
BRANCH   6   9
ATOM      9  C   UNL d   1       4.674  -0.338  -1.040  0.00  0.00     0.036 A 
ATOM     10  C   UNL d   1       5.455  -0.706   0.066  0.00  0.00     0.056 A 
ATOM     11  C   UNL d   1       6.797  -1.072  -0.095  0.00  0.00     0.074 A 
ATOM     12 CL   UNL d   1       7.713  -1.566   1.280  0.00  0.00    -0.081 Cl
ATOM     13  C   UNL d   1       7.377  -1.058  -1.358  0.00  0.00     0.138 A 
ATOM     14  C   UNL d   1       6.631  -0.667  -2.463  0.00  0.00     0.046 A 
ATOM     15  F   UNL d   1       8.653  -1.431  -1.536  0.00  0.00    -0.204 F 
ATOM     16  C   UNL d   1       5.285  -0.310  -2.305  0.00  0.00     0.032 A 
ENDBRANCH   6   9
ENDBRANCH   1   5
BRANCH   2  17
ATOM     17  C   UNL d   1      -1.173  -0.071   1.208  0.00  0.00    -0.035 A 
ATOM     18  C   UNL d   1      -1.748  -1.314   1.501  0.00  0.00     0.013 A 
ATOM     19  C   UNL d   1      -3.139  -1.455   1.573  0.00  0.00     0.023 A 
ATOM     20  C   UNL d   1      -3.969  -0.351   1.355  0.00  0.00     0.044 A 
ATOM     21  C   UNL d   1      -5.396  -0.489   1.448  0.00  0.00     0.099 C 
ATOM     22  C   UNL d   1      -3.395   0.890   1.054  0.00  0.00     0.023 A 
ATOM     23  N   UNL d   1      -6.548  -0.611   1.534  0.00  0.00    -0.191 NA
ATOM     24  C   UNL d   1      -2.003   1.032   0.983  0.00  0.00     0.013 A 
ENDBRANCH   2  17
TORSDOF 3
