REMARK  8 active torsions:
REMARK  status: ('A' for Active; 'I' for Inactive)
REMARK    1  A    between atoms: C_3  and  C_1 
REMARK    2  A    between atoms: N_4  and  C_2 
REMARK    3  A    between atoms: O_12  and  C_3 
REMARK       I    between atoms: C_5  and  N_4 
REMARK    4  A    between atoms: C_16  and  C_5 
REMARK    5  A    between atoms: C_7  and  C_17 
REMARK    6  A    between atoms: O_14  and  C_7 
REMARK    7  A    between atoms: S_11  and  C_16 
REMARK    8  A    between atoms: C_17  and  S_11 
ROOT
ATOM      1  C   UNL d   1      -1.672  -0.147  -0.471  0.00  0.00     0.102 A 
ATOM      2  C   UNL d   1      -1.129  -1.406  -0.130  0.00  0.00     0.054 A 
ATOM      3  C   UNL d   1      -0.843   0.977  -0.419  0.00  0.00     0.135 A 
ATOM      4  F   UNL d   1      -1.312   2.184  -0.773  0.00  0.00    -0.205 F 
ATOM      5  C   UNL d   1       0.205  -1.488   0.298  0.00  0.00     0.031 A 
ATOM      6  C   UNL d   1       1.006  -0.345   0.366  0.00  0.00     0.005 A 
ATOM      7  C   UNL d   1       0.484   0.889  -0.006  0.00  0.00     0.043 A 
ENDROOT
BRANCH   2   8
ATOM      8  N   UNL d   1      -1.934  -2.572  -0.165  0.00  0.00    -0.325 N 
ATOM      9  C   UNL d   1      -1.491  -3.817  -0.566  0.00  0.00     0.231 C 
ATOM     10  O   UNL d   1      -0.398  -4.053  -1.083  0.00  0.00    -0.272 OA
ATOM     11  H   UNL d   1      -2.937  -2.415  -0.319  0.00  0.00     0.169 HD
BRANCH   9  12
ATOM     12  C   UNL d   1      -2.540  -4.908  -0.443  0.00  0.00     0.177 C 
BRANCH  12  13
ATOM     13  S   UNL d   1      -3.721  -4.845  -1.823  0.00  0.00    -0.149 SA
BRANCH  13  14
ATOM     14  C   UNL d   1      -2.604  -4.926  -3.260  0.00  0.00     0.184 C 
BRANCH  14  15
ATOM     15  C   UNL d   1      -1.793  -6.200  -3.298  0.00  0.00     0.149 C 
ATOM     16  O   UNL d   1      -2.200  -7.262  -3.745  0.00  0.00    -0.649 OA
BRANCH  15  17
ATOM     17  O   UNL d   1      -0.551  -6.090  -2.765  0.00  0.00    -0.776 OA
ATOM     18  H   UNL d   1      -0.327  -5.218  -2.359  0.00  0.00     0.167 HD
ENDBRANCH  15  17
ENDBRANCH  14  15
ENDBRANCH  13  14
ENDBRANCH  12  13
ENDBRANCH   9  12
ENDBRANCH   2   8
BRANCH   1  19
ATOM     19  C   UNL d   1      -3.083  -0.039  -0.934  0.00  0.00     0.181 C 
ATOM     20  O   UNL d   1      -3.764  -1.031  -1.152  0.00  0.00    -0.646 OA
BRANCH  19  21
ATOM     21  O   UNL d   1      -3.586   1.204  -1.064  0.00  0.00    -0.773 OA
ATOM     22  H   UNL d   1      -2.966   1.942  -0.892  0.00  0.00     0.167 HD
ENDBRANCH  19  21
ENDBRANCH   1  19
TORSDOF 8
