REMARK  3 active torsions:
REMARK  status: ('A' for Active; 'I' for Inactive)
REMARK    1  A    between atoms: C_12  and  C_3 
REMARK    2  A    between atoms: C_8  and  C_4 
REMARK    3  A    between atoms: C_6  and  C_11 
ROOT
ATOM      1  N   UNL d   1       1.421  -0.599  -0.069  0.00  0.00    -0.349 N 
ATOM      2  HN  UNL d   1       2.304  -1.106  -0.124  1.00  0.00     0.166 HD
ATOM      3  C   UNL d   1       0.228  -1.165  -0.034  0.00  0.00     0.084 A 
ATOM      4  C   UNL d   1       1.303   0.781  -0.020  0.00  0.00     0.050 A 
ATOM      5  S   UNL d   1      -1.093  -0.051  -0.057  0.00  0.00    -0.081 SA
ATOM      6  C   UNL d   1       0.007   1.254  -0.023  0.00  0.00     0.082 A 
ENDROOT
BRANCH   3   7
ATOM      7  C   UNL d   1      -0.016  -2.619  -0.014  0.00  0.00    -0.002 A 
ATOM      8  C   UNL d   1      -1.173  -3.173   0.558  0.00  0.00     0.015 A 
ATOM      9  C   UNL d   1      -1.389  -4.553   0.559  0.00  0.00     0.017 A 
ATOM     10  C   UNL d   1      -0.452  -5.422  -0.010  0.00  0.00     0.048 A 
ATOM     11  C   UNL d   1       0.717  -4.880  -0.565  0.00  0.00     0.017 A 
ATOM     12  C   UNL d   1       0.933  -3.496  -0.562  0.00  0.00     0.015 A 
BRANCH  10  13
ATOM     13  C   UNL d   1      -0.695  -6.911  -0.031  0.00  0.00     0.417 C 
ATOM     14  F   UNL d   1      -1.877  -7.277   0.538  0.00  0.00    -0.166 F 
ATOM     15  F   UNL d   1      -0.722  -7.415  -1.297  0.00  0.00    -0.166 F 
ATOM     16  F   UNL d   1       0.269  -7.609   0.630  0.00  0.00    -0.166 F 
ENDBRANCH  10  13
ENDBRANCH   3   7
BRANCH   4  17
ATOM     17  C   UNL d   1       2.475   1.647   0.001  0.00  0.00    -0.006 A 
ATOM     18  C   UNL d   1       3.659   1.226  -0.621  0.00  0.00     0.059 A 
ATOM     19  C   UNL d   1       4.772   2.061  -0.627  0.00  0.00     0.155 A 
ATOM     20  F   UNL d   1       5.893   1.656  -1.243  0.00  0.00    -0.203 F 
ATOM     21  C   UNL d   1       4.727   3.306  -0.012  0.00  0.00     0.154 A 
ATOM     22  C   UNL d   1       3.570   3.732   0.626  0.00  0.00     0.046 A 
ATOM     23  F   UNL d   1       5.801   4.108  -0.027  0.00  0.00    -0.203 F 
ATOM     24  C   UNL d   1       2.445   2.902   0.636  0.00  0.00     0.017 A 
ENDBRANCH   4  17
TORSDOF 3
