REMARK  4 active torsions:
REMARK  status: ('A' for Active; 'I' for Inactive)
REMARK    1  A    between atoms: S_2  and  C_1 
REMARK    2  A    between atoms: N_6  and  S_2 
REMARK    3  A    between atoms: C_14  and  N_6 
REMARK    4  A    between atoms: C_15  and  N_6 
ROOT
ATOM      1  C   UNL d   1      -1.438   0.284  -0.077  0.00  0.00     0.053 C 
ATOM      2  C   UNL d   1      -0.778   1.014   1.112  0.00  0.00     0.029 C 
ATOM      3  C   UNL d   1      -0.756   0.662  -1.406  0.00  0.00     0.029 C 
ATOM      4  C   UNL d   1      -1.164  -1.247   0.128  0.00  0.00     0.029 C 
ATOM      5  C   UNL d   1       0.742   0.731   1.139  0.00  0.00    -0.012 C 
ATOM      6  C   UNL d   1       0.757   0.395  -1.359  0.00  0.00    -0.012 C 
ATOM      7  C   UNL d   1       0.347  -1.551   0.150  0.00  0.00    -0.012 C 
ATOM      8  C   UNL d   1       1.365   1.189  -0.190  0.00  0.00     0.009 C 
ATOM      9  C   UNL d   1       0.997  -0.777   1.307  0.00  0.00     0.009 C 
ATOM     10  C   UNL d   1       0.985  -1.101  -1.172  0.00  0.00     0.009 C 
ENDROOT
BRANCH   1  11
ATOM     11  S   UNL d   1      -3.280   0.497  -0.056  0.00  0.00     0.101 S 
ATOM     12  O   UNL d   1      -3.878  -0.393  -1.106  0.00  0.00    -0.240 OA
BRANCH  11  13
ATOM     13  N   UNL d   1      -3.579   2.148  -0.321  0.00  0.00    -0.233 NA
BRANCH  13  14
ATOM     14  C   UNL d   1      -3.099   2.850  -1.536  0.00  0.00     0.100 C 
ATOM     15  C   UNL d   1      -3.446   2.200  -2.873  0.00  0.00     0.021 C 
ENDBRANCH  13  14
BRANCH  13  16
ATOM     16  C   UNL d   1      -5.011   2.547  -0.176  0.00  0.00     0.100 C 
ATOM     17  C   UNL d   1      -5.598   2.371   1.217  0.00  0.00     0.021 C 
ENDBRANCH  13  16
ENDBRANCH  11  13
ENDBRANCH   1  11
TORSDOF 4
