REMARK  7 active torsions:
REMARK  status: ('A' for Active; 'I' for Inactive)
REMARK    1  A    between atoms: N_19  and  C_4 
REMARK    2  A    between atoms: N_10  and  C_22 
REMARK    3  A    between atoms: O_20  and  C_11 
REMARK    4  A    between atoms: O_21  and  C_12 
REMARK    5  A    between atoms: C_24  and  N_19 
REMARK    6  A    between atoms: C_22  and  C_23 
REMARK    7  A    between atoms: C_23  and  C_24 
ROOT
ATOM      1  C   UNL d   1       0.141   0.682  -0.041  0.00  0.00     0.032 A 
ATOM      2  C   UNL d   1       0.076  -0.703  -0.049  0.00  0.00     0.049 A 
ATOM      3  C   UNL d   1       1.408   1.305  -0.029  0.00  0.00     0.056 A 
ATOM      4  C   UNL d   1      -1.090   1.359   0.009  0.00  0.00     0.093 A 
ATOM      5  C   UNL d   1       1.282  -1.393  -0.047  0.00  0.00     0.070 A 
ATOM      6  N   UNL d   1      -2.262   0.707   0.045  0.00  0.00    -0.342 N 
ATOM      7  HN  UNL d   1      -3.152   1.203   0.097  1.00  0.00     0.167 HD
ATOM      8  C   UNL d   1       2.635   0.604  -0.019  0.00  0.00     0.102 A 
ATOM      9  C   UNL d   1       2.570  -0.787  -0.026  0.00  0.00     0.103 A 
ATOM     10  N   UNL d   1      -1.085  -1.368  -0.040  0.00  0.00    -0.351 N 
ATOM     11  HN  UNL d   1      -1.119  -2.387  -0.069  1.00  0.00     0.166 HD
ATOM     12  C   UNL d   1      -2.200  -0.629   0.010  0.00  0.00     0.182 A 
ENDROOT
BRANCH   4  13
ATOM     13  N   UNL d   1      -1.086   2.767   0.045  0.00  0.00    -0.278 NA
ATOM     14  H   UNL d   1      -0.722   3.117  -0.839  0.00  0.00     0.129 HD
BRANCH  13  15
ATOM     15  C   UNL d   1      -2.312   3.427   0.475  0.00  0.00     0.095 C 
BRANCH  15  16
ATOM     16  C   UNL d   1      -2.477   3.314   1.994  0.00  0.00     0.035 C 
BRANCH  16  17
ATOM     17  C   UNL d   1      -1.237   3.823   2.729  0.00  0.00     0.130 C 
BRANCH  17  18
ATOM     18  N   UNL d   1      -1.338   3.676   4.165  0.00  0.00    -0.352 N 
ATOM     19  C   UNL d   1      -0.925   2.589   4.883  0.00  0.00     0.182 A 
ATOM     20  N   UNL d   1      -1.087   2.780   6.173  0.00  0.00    -0.361 N 
ATOM     21  C   UNL d   1      -1.618   4.040   6.287  0.00  0.00     0.106 A 
ATOM     22  HN  UNL d   1      -0.864   2.131   6.928  1.00  0.00     0.166 HD
ATOM     23  C   UNL d   1      -1.782   4.616   5.049  0.00  0.00     0.108 A 
ENDBRANCH  17  18
ENDBRANCH  16  17
ENDBRANCH  15  16
ENDBRANCH  13  15
ENDBRANCH   4  13
BRANCH   8  24
ATOM     24  O   UNL d   1       3.611   1.545   0.013  0.00  0.00    -0.353 OA
ATOM     25  C   UNL d   1       4.998   1.343   0.013  0.00  0.00     0.210 C 
ENDBRANCH   8  24
BRANCH   9  26
ATOM     26  O   UNL d   1       3.482  -1.795  -0.005  0.00  0.00    -0.353 OA
ATOM     27  C   UNL d   1       4.873  -1.628   0.002  0.00  0.00     0.210 C 
ENDBRANCH   9  26
TORSDOF 7
