REMARK  1 active torsions:
REMARK  status: ('A' for Active; 'I' for Inactive)
REMARK    1  A    between atoms: C_7  and  C_3 
ROOT
ATOM      1  C   UNL d   1       1.284   0.332  -0.016  0.00  0.00     0.058 C 
ATOM      2  C   UNL d   1      -1.274   0.344  -0.033  0.00  0.00     0.058 C 
ATOM      3  C   UNL d   1       0.010   1.165  -0.209  0.00  0.00     0.117 C 
ATOM      4  N   UNL d   1      -0.004  -1.660  -0.061  0.00  0.00    -0.361 N 
ATOM      5  C   UNL d   1      -1.225  -1.008  -0.009  0.00  0.00     0.023 C 
ATOM      6  C   UNL d   1       1.221  -1.020   0.013  0.00  0.00     0.023 C 
ATOM      7  C   UNL d   1      -2.510   1.051   0.069  0.00  0.00     0.098 C 
ATOM      8  C   UNL d   1       2.527   1.026   0.089  0.00  0.00     0.098 C 
ATOM      9  N   UNL d   1       3.542   1.580   0.181  0.00  0.00    -0.192 NA
ATOM     10  N   UNL d   1      -3.520   1.614   0.166  0.00  0.00    -0.192 NA
ATOM     11  C   UNL d   1      -2.460  -1.872   0.057  0.00  0.00     0.069 C 
ATOM     12  C   UNL d   1       2.448  -1.894   0.109  0.00  0.00     0.069 C 
ATOM     13  H   UNL d   1      -0.009  -2.676   0.007  0.00  0.00     0.165 HD
ENDROOT
BRANCH   3  14
ATOM     14  C   UNL d   1       0.027   1.858  -1.568  0.00  0.00    -0.003 A 
ATOM     15  S   UNL d   1       0.105   3.564  -1.687  0.00  0.00    -0.105 SA
ATOM     16  C   UNL d   1       0.108   3.505  -3.396  0.00  0.00     0.050 A 
ATOM     17  C   UNL d   1       0.043   2.215  -3.872  0.00  0.00     0.008 A 
ATOM     18  C   UNL d   1      -0.005   1.263  -2.817  0.00  0.00     0.016 A 
ENDBRANCH   3  14
TORSDOF 1
