REMARK  6 active torsions:
REMARK  status: ('A' for Active; 'I' for Inactive)
REMARK    1  A    between atoms: C_6  and  C_1 
REMARK    2  A    between atoms: C_7  and  C_2 
REMARK    3  A    between atoms: C_9  and  C_5 
REMARK       I    between atoms: N_8  and  C_6 
REMARK    4  A    between atoms: C_17  and  N_8 
REMARK    5  A    between atoms: O_14  and  C_18 
REMARK    6  A    between atoms: C_19  and  O_14 
ROOT
ATOM      1  C   UNL d   1       2.349   1.434   0.112  0.00  0.00     0.259 C 
ATOM      2  N   UNL d   1       3.559   0.773   0.217  0.00  0.00    -0.323 N 
ATOM      3  O   UNL d   1       1.289   0.906  -0.215  0.00  0.00    -0.267 OA
ATOM      4  H   UNL d   1       4.331   1.246   0.665  0.00  0.00     0.169 HD
ENDROOT
BRANCH   1   5
ATOM      5  C   UNL d   1       2.361   2.868   0.380  0.00  0.00     0.073 A 
ATOM      6  C   UNL d   1       3.195   3.654   1.161  0.00  0.00     0.175 A 
ATOM      7  O   UNL d   1       2.822   4.971   1.057  0.00  0.00    -0.304 OA
ATOM      8  C   UNL d   1       1.723   5.040   0.253  0.00  0.00     0.087 A 
ATOM      9  C   UNL d   1       1.382   3.769  -0.144  0.00  0.00     0.058 A 
BRANCH   6  10
ATOM     10  C   UNL d   1       4.339   3.395   2.068  0.00  0.00     0.440 C 
ATOM     11  F   UNL d   1       4.579   2.064   2.215  0.00  0.00    -0.164 F 
ATOM     12  F   UNL d   1       5.492   3.929   1.592  0.00  0.00    -0.164 F 
ATOM     13  F   UNL d   1       4.146   3.896   3.314  0.00  0.00    -0.164 F 
ENDBRANCH   6  10
BRANCH   8  14
ATOM     14  C   UNL d   1       1.167   6.364  -0.006  0.00  0.00    -0.002 A 
ATOM     15  C   UNL d   1      -0.011   6.500  -0.759  0.00  0.00     0.016 A 
ATOM     16  C   UNL d   1      -0.552   7.760  -1.028  0.00  0.00     0.024 A 
ATOM     17  C   UNL d   1       0.083   8.901  -0.546  0.00  0.00     0.034 A 
ATOM     18  C   UNL d   1       1.254   8.790   0.198  0.00  0.00     0.024 A 
ATOM     19 CL   UNL d   1      -0.584  10.452  -0.871  0.00  0.00    -0.084 Cl
ATOM     20  C   UNL d   1       1.793   7.527   0.466  0.00  0.00     0.016 A 
ENDBRANCH   8  14
ENDBRANCH   1   5
BRANCH   2  21
ATOM     21  C   UNL d   1       3.766  -0.598  -0.047  0.00  0.00     0.035 C 
ATOM     22  C   UNL d   1       2.880  -1.372  -0.803  0.00  0.00     0.032 C 
ATOM     23  C   UNL d   1       3.068  -2.750  -0.915  0.00  0.00     0.039 C 
ATOM     24  C   UNL d   1       4.109  -3.370  -0.226  0.00  0.00     0.076 C 
ATOM     25  C   UNL d   1       5.068  -2.589   0.420  0.00  0.00     0.039 C 
ATOM     26  C   UNL d   1       4.904  -1.203   0.497  0.00  0.00     0.032 C 
BRANCH  24  27
ATOM     27  O   UNL d   1       4.269  -4.733  -0.168  0.00  0.00    -0.311 OA
BRANCH  27  28
ATOM     28  C   UNL d   1       3.159  -5.533   0.012  0.00  0.00     0.076 A 
ATOM     29  C   UNL d   1       3.283  -6.846  -0.455  0.00  0.00     0.039 A 
ATOM     30  C   UNL d   1       2.209  -7.734  -0.350  0.00  0.00     0.026 A 
ATOM     31  C   UNL d   1       1.012  -7.311   0.221  0.00  0.00     0.034 A 
ATOM     32  C   UNL d   1       0.891  -6.018   0.726  0.00  0.00     0.026 A 
ATOM     33 CL   UNL d   1      -0.324  -8.391   0.311  0.00  0.00    -0.084 Cl
ATOM     34  C   UNL d   1       1.974  -5.138   0.647  0.00  0.00     0.039 A 
ENDBRANCH  27  28
ENDBRANCH  24  27
ENDBRANCH   2  21
TORSDOF 6
