REMARK  1 active torsions:
REMARK  status: ('A' for Active; 'I' for Inactive)
REMARK    1  A    between atoms: C_4  and  N_1 
ROOT
ATOM      1  N   UNL d   1       2.622  -0.004   0.174  0.00  0.00    -0.249 N 
ATOM      2  C   UNL d   1       2.024   1.119  -0.386  0.00  0.00     0.232 C 
ATOM      3  C   UNL d   1       1.931  -1.185   0.413  0.00  0.00     0.232 C 
ATOM      4  C   UNL d   1       0.610   1.385   0.058  0.00  0.00     0.113 C 
ATOM      5  C   UNL d   1       0.526  -0.961   0.934  0.00  0.00     0.113 C 
ATOM      6  C   UNL d   1      -0.255   0.134   0.197  0.00  0.00    -0.024 C 
ATOM      7  O   UNL d   1       2.402  -2.317   0.354  0.00  0.00    -0.273 OA
ATOM      8  O   UNL d   1       2.599   1.901  -1.146  0.00  0.00    -0.273 OA
ATOM      9  C   UNL d   1      -0.768  -0.377  -1.168  0.00  0.00     0.010 C 
ATOM     10  C   UNL d   1      -1.542   0.484   0.995  0.00  0.00     0.010 C 
ATOM     11  C   UNL d   1      -2.203  -0.816  -0.900  0.00  0.00     0.001 C 
ATOM     12  C   UNL d   1      -2.711   0.251   0.050  0.00  0.00     0.001 C 
ENDROOT
BRANCH   1  13
ATOM     13  C   UNL d   1       4.009   0.079   0.468  0.00  0.00     0.084 A 
ATOM     14  C   UNL d   1       4.417   1.097   1.349  0.00  0.00     0.144 A 
ATOM     15  C   UNL d   1       5.719   1.182   1.816  0.00  0.00     0.062 A 
ATOM     16  F   UNL d   1       3.503   1.944   1.855  0.00  0.00    -0.204 F 
ATOM     17  C   UNL d   1       6.652   0.253   1.374  0.00  0.00     0.009 A 
ATOM     18  C   UNL d   1       6.279  -0.754   0.477  0.00  0.00     0.020 A 
ATOM     19  I   UNL d   1       8.602   0.345   2.084  0.00  0.00    -0.044 I 
ATOM     20  C   UNL d   1       4.951  -0.857   0.042  0.00  0.00     0.034 A 
ENDBRANCH   1  13
TORSDOF 1
