REMARK  3 active torsions:
REMARK  status: ('A' for Active; 'I' for Inactive)
REMARK    1  A    between atoms: S_9  and  C_5 
REMARK    2  A    between atoms: N_10  and  C_6 
REMARK    3  A    between atoms: O_11  and  C_7 
ROOT
ATOM      1  N   UNL d   1      -0.669   1.163   0.042  0.00  0.00    -0.328 N 
ATOM      2  HN  UNL d   1      -1.203   2.032   0.065  1.00  0.00     0.169 HD
ATOM      3  N   UNL d   1      -0.641  -1.212  -0.082  0.00  0.00    -0.318 N 
ATOM      4  HN  UNL d   1      -1.144  -2.095  -0.161  1.00  0.00     0.170 HD
ATOM      5  C   UNL d   1      -1.276  -0.034  -0.043  0.00  0.00     0.146 A 
ATOM      6  C   UNL d   1       0.666   1.159   0.094  0.00  0.00     0.083 A 
ATOM      7  C   UNL d   1       0.689  -1.157  -0.012  0.00  0.00     0.144 A 
ATOM      8  C   UNL d   1       1.409   0.004   0.082  0.00  0.00     0.097 A 
ENDROOT
BRANCH   6   9
ATOM      9  N   UNL d   1       1.295   2.398   0.220  0.00  0.00    -0.288 NA
ATOM     10  H   UNL d   1       0.575   3.116   0.165  0.00  0.00     0.125 HD
ATOM     11  H   UNL d   1       2.017   2.541  -0.477  0.00  0.00     0.125 HD
ENDBRANCH   6   9
BRANCH   5  12
ATOM     12  S   UNL d   1      -3.053  -0.021  -0.107  0.00  0.00    -0.098 SA
ATOM     13  C   UNL d   1      -3.378  -1.802  -0.127  0.00  0.00     0.099 C 
ENDBRANCH   5  12
BRANCH   7  14
ATOM     14  O   UNL d   1       1.305  -2.375  -0.038  0.00  0.00    -0.346 OA
ATOM     15  H   UNL d   1       2.258  -2.242   0.071  0.00  0.00     0.219 HD
ENDBRANCH   7  14
TORSDOF 3
