REMARK  3 active torsions:
REMARK  status: ('A' for Active; 'I' for Inactive)
REMARK    1  A    between atoms: C_8  and  N_1 
REMARK    2  A    between atoms: C_7  and  O_12 
REMARK    3  A    between atoms: O_12  and  C_19 
ROOT
ATOM      1  N   UNL d   1       2.456  -0.598  -0.018  0.00  0.00    -0.254 N 
ATOM      2  C   UNL d   1       2.419   0.805  -0.001  0.00  0.00     0.186 A 
ATOM      3  C   UNL d   1       1.298  -1.398   0.006  0.00  0.00     0.267 A 
ATOM      4  C   UNL d   1      -0.003  -0.705   0.025  0.00  0.00     0.060 A 
ATOM      5  N   UNL d   1       1.179   1.388   0.038  0.00  0.00    -0.332 N 
ATOM      6  C   UNL d   1      -0.022   0.680   0.030  0.00  0.00     0.050 A 
ATOM      7  S   UNL d   1       3.714   1.875  -0.096  0.00  0.00    -0.040 SA
ATOM      8  O   UNL d   1       1.280  -2.630   0.027  0.00  0.00    -0.267 OA
ATOM      9  C   UNL d   1      -1.206  -1.427   0.034  0.00  0.00     0.026 A 
ATOM     10  C   UNL d   1      -1.234   1.367   0.015  0.00  0.00     0.031 A 
ATOM     11  C   UNL d   1      -2.430  -0.750   0.023  0.00  0.00    -0.061 A 
ATOM     12  C   UNL d   1      -2.434   0.649   0.002  0.00  0.00     0.009 A 
ATOM     13  C   UNL d   1      -3.724  -1.510   0.003  0.00  0.00     0.048 C 
ATOM     14  H   UNL d   1       1.160   2.404   0.027  0.00  0.00     0.168 HD
ENDROOT
BRANCH   1  15
ATOM     15  C   UNL d   1       3.695  -1.311  -0.070  0.00  0.00     0.045 A 
ATOM     16  C   UNL d   1       3.952  -2.178  -1.138  0.00  0.00     0.033 A 
ATOM     17  C   UNL d   1       5.133  -2.920  -1.173  0.00  0.00     0.039 A 
ATOM     18  C   UNL d   1       6.073  -2.819  -0.143  0.00  0.00     0.078 A 
ATOM     19  C   UNL d   1       5.801  -1.989   0.943  0.00  0.00     0.039 A 
ATOM     20  C   UNL d   1       4.627  -1.221   0.970  0.00  0.00     0.033 A 
BRANCH  18  21
ATOM     21  O   UNL d   1       7.158  -3.623  -0.302  0.00  0.00    -0.255 OA
BRANCH  21  22
ATOM     22  C   UNL d   1       8.395  -3.287   0.304  0.00  0.00     0.530 C 
ATOM     23  F   UNL d   1       8.443  -2.040   0.817  0.00  0.00    -0.144 F 
ATOM     24  F   UNL d   1       8.671  -4.174   1.284  0.00  0.00    -0.144 F 
ATOM     25  F   UNL d   1       9.365  -3.383  -0.634  0.00  0.00    -0.144 F 
ENDBRANCH  21  22
ENDBRANCH  18  21
ENDBRANCH   1  15
TORSDOF 3
