REMARK  1 active torsions:
REMARK  status: ('A' for Active; 'I' for Inactive)
REMARK    1  A    between atoms: C_10  and  C_13 
ROOT
ATOM      1  C   UNL d   1      -0.082   1.149   0.001  0.00  0.00     0.112 A 
ATOM      2  C   UNL d   1      -0.373  -0.205  -0.000  0.00  0.00     0.075 A 
ATOM      3  N   UNL d   1       1.157   1.666   0.001  0.00  0.00    -0.349 N 
ATOM      4  HN  UNL d   1       1.345   2.668   0.001  1.00  0.00     0.166 HD
ATOM      5  N   UNL d   1       0.575  -1.156  -0.002  0.00  0.00    -0.352 N 
ATOM      6  HN  UNL d   1       0.359  -2.153  -0.003  1.00  0.00     0.166 HD
ATOM      7  C   UNL d   1      -1.367   1.884   0.001  0.00  0.00     0.211 A 
ATOM      8  C   UNL d   1      -1.798  -0.409  -0.000  0.00  0.00     0.007 A 
ATOM      9  C   UNL d   1      -2.430   0.846   0.000  0.00  0.00     0.029 A 
ATOM     10  C   UNL d   1       1.842  -0.679  -0.001  0.00  0.00     0.060 A 
ATOM     11  C   UNL d   1       2.131   0.729  -0.000  0.00  0.00     0.059 A 
ATOM     12  C   UNL d   1       4.240  -1.159   0.001  0.00  0.00     0.050 A 
ATOM     13  C   UNL d   1       2.900  -1.580  -0.001  0.00  0.00     0.048 A 
ATOM     14  O   UNL d   1      -1.554   3.084   0.001  0.00  0.00    -0.285 OA
ATOM     15  C   UNL d   1       4.509   0.213   0.000  0.00  0.00     0.018 A 
ATOM     16  C   UNL d   1       3.458   1.136  -0.000  0.00  0.00     0.032 A 
ATOM     17  C   UNL d   1      -2.555  -1.567  -0.001  0.00  0.00     0.015 A 
ATOM     18  C   UNL d   1      -3.805   0.992   0.000  0.00  0.00     0.016 A 
ATOM     19  C   UNL d   1      -4.569  -0.178  -0.000  0.00  0.00     0.001 A 
ATOM     20  C   UNL d   1      -3.950  -1.444  -0.001  0.00  0.00     0.001 A 
ENDROOT
BRANCH  12  21
ATOM     21  C   UNL d   1       5.363  -2.170  -0.003  0.00  0.00     0.417 C 
ATOM     22  F   UNL d   1       4.920  -3.457  -0.003  0.00  0.00    -0.166 F 
ATOM     23  F   UNL d   1       6.168  -2.051  -1.093  0.00  0.00    -0.166 F 
ATOM     24  F   UNL d   1       6.179  -2.056   1.081  0.00  0.00    -0.166 F 
ENDBRANCH  12  21
TORSDOF 1
