REMARK  3 active torsions:
REMARK  status: ('A' for Active; 'I' for Inactive)
REMARK    1  A    between atoms: C_5  and  C_12 
REMARK    2  A    between atoms: N_7  and  C_6 
REMARK    3  A    between atoms: C_12  and  N_7 
ROOT
ATOM      1  C   UNL d   1       1.523   1.012   0.602  0.00  0.00     0.109 A 
ATOM      2  C   UNL d   1       2.282   1.821   1.512  0.00  0.00     0.105 C 
ATOM      3  N   UNL d   1       2.902   2.483   2.237  0.00  0.00    -0.191 NA
ATOM      4  C   UNL d   1       0.348   1.501  -0.010  0.00  0.00     0.052 A 
ATOM      5  C   UNL d   1       1.951  -0.296   0.358  0.00  0.00     0.139 A 
ATOM      6  F   UNL d   1       3.048  -0.776   0.961  0.00  0.00    -0.204 F 
ATOM      7  C   UNL d   1       0.103  -0.663  -1.127  0.00  0.00     0.005 A 
ATOM      8  C   UNL d   1      -0.342   0.639  -0.882  0.00  0.00     0.031 A 
ATOM      9  C   UNL d   1       1.248  -1.135  -0.497  0.00  0.00     0.044 A 
ENDROOT
BRANCH   4  10
ATOM     10  N   UNL d   1      -0.112   2.788   0.279  0.00  0.00    -0.384 N 
ATOM     11  H   UNL d   1       0.552   3.521   0.030  0.00  0.00     0.160 HD
BRANCH  10  12
ATOM     12  C   UNL d   1      -1.498   3.180   0.030  0.00  0.00     0.166 C 
BRANCH  12  13
ATOM     13  C   UNL d   1      -1.914   4.407   0.794  0.00  0.00    -0.000 A 
ATOM     14  S   UNL d   1      -3.213   5.372   0.228  0.00  0.00    -0.105 SA
ATOM     15  C   UNL d   1      -3.094   6.430   1.567  0.00  0.00     0.050 A 
ATOM     16  C   UNL d   1      -2.087   6.062   2.429  0.00  0.00     0.008 A 
ATOM     17  C   UNL d   1      -1.408   4.892   1.985  0.00  0.00     0.017 A 
ENDBRANCH  12  13
ENDBRANCH  10  12
ENDBRANCH   4  10
TORSDOF 3
