REMARK  6 active torsions:
REMARK  status: ('A' for Active; 'I' for Inactive)
REMARK    1  A    between atoms: N_2  and  C_1 
REMARK    2  A    between atoms: C_3  and  C_8 
REMARK    3  A    between atoms: C_4  and  C_9 
REMARK    4  A    between atoms: C_5  and  C_10 
REMARK    5  A    between atoms: O_13  and  C_7 
REMARK    6  A    between atoms: C_11  and  O_13 
ROOT
ATOM      1  C   UNL d   1       4.896   0.842  -1.542  0.00  0.00     0.051 A 
ATOM      2  C   UNL d   1       5.311   2.217   0.435  0.00  0.00     0.051 A 
ATOM      3  C   UNL d   1       3.044   1.952  -0.412  0.00  0.00     0.077 A 
ATOM      4  C   UNL d   1       5.783   1.416  -0.619  0.00  0.00     0.032 A 
ATOM      5  C   UNL d   1       3.935   2.485   0.522  0.00  0.00     0.053 A 
ATOM      6  C   UNL d   1       3.521   1.100  -1.415  0.00  0.00     0.053 A 
ENDROOT
BRANCH   3   7
ATOM      7  O   UNL d   1       1.714   2.271  -0.233  0.00  0.00    -0.308 OA
BRANCH   7   8
ATOM      8  C   UNL d   1       0.897   2.377  -1.336  0.00  0.00     0.109 A 
ATOM      9  C   UNL d   1      -0.405   1.872  -1.291  0.00  0.00     0.137 A 
ATOM     10  C   UNL d   1      -1.235   1.869  -2.424  0.00  0.00     0.055 A 
ATOM     11  C   UNL d   1      -0.767   2.423  -3.626  0.00  0.00     0.050 A 
ATOM     12  C   UNL d   1       0.507   3.010  -3.648  0.00  0.00     0.019 A 
ATOM     13  C   UNL d   1       1.323   3.005  -2.513  0.00  0.00     0.040 A 
BRANCH   9  14
ATOM     14  N   UNL d   1      -0.944   1.347  -0.049  0.00  0.00    -0.113 N 
ATOM     15  O   UNL d   1      -1.458   0.220  -0.094  0.00  0.00    -0.532 OA
ATOM     16  O   UNL d   1      -0.907   2.081   0.947  0.00  0.00    -0.532 OA
ENDBRANCH   9  14
BRANCH  11  17
ATOM     17  C   UNL d   1      -1.601   2.397  -4.887  0.00  0.00     0.417 C 
ATOM     18  F   UNL d   1      -2.829   1.841  -4.714  0.00  0.00    -0.166 F 
ATOM     19  F   UNL d   1      -1.816   3.643  -5.389  0.00  0.00    -0.166 F 
ATOM     20  F   UNL d   1      -1.001   1.688  -5.881  0.00  0.00    -0.166 F 
ENDBRANCH  11  17
ENDBRANCH   7   8
ENDBRANCH   3   7
BRANCH   2  21
ATOM     21  C   UNL d   1       6.257   2.775   1.473  0.00  0.00     0.417 C 
ATOM     22  F   UNL d   1       7.540   2.342   1.322  0.00  0.00    -0.166 F 
ATOM     23  F   UNL d   1       6.314   4.133   1.449  0.00  0.00    -0.166 F 
ATOM     24  F   UNL d   1       5.896   2.433   2.740  0.00  0.00    -0.166 F 
ENDBRANCH   2  21
BRANCH   1  25
ATOM     25  C   UNL d   1       5.395  -0.041  -2.663  0.00  0.00     0.417 C 
ATOM     26  F   UNL d   1       6.725  -0.316  -2.587  0.00  0.00    -0.166 F 
ATOM     27  F   UNL d   1       4.762  -1.245  -2.695  0.00  0.00    -0.166 F 
ATOM     28  F   UNL d   1       5.196   0.521  -3.887  0.00  0.00    -0.166 F 
ENDBRANCH   1  25
TORSDOF 6
