REMARK  5 active torsions:
REMARK  status: ('A' for Active; 'I' for Inactive)
REMARK    1  A    between atoms: N_7  and  C_1 
REMARK    2  A    between atoms: C_2  and  N_6 
REMARK    3  A    between atoms: N_9  and  C_2 
REMARK    4  A    between atoms: C_5  and  C_8 
REMARK    5  A    between atoms: C_15  and  N_9 
ROOT
ATOM      1  N   UNL d   1       1.070   5.329   0.101  0.00  0.00    -0.355 N 
ATOM      2  N   UNL d   1       0.134   2.636  -0.054  0.00  0.00    -0.214 N 
ATOM      3  C   UNL d   1      -0.274   4.989   0.600  0.00  0.00     0.145 C 
ATOM      4  C   UNL d   1       1.521   4.460  -0.987  0.00  0.00     0.145 C 
ATOM      5  C   UNL d   1       1.476   2.988  -0.548  0.00  0.00     0.161 C 
ATOM      6  C   UNL d   1      -0.402   3.508   1.005  0.00  0.00     0.161 C 
ENDROOT
BRANCH   1   7
ATOM      7  C   UNL d   1       1.506   6.633   0.222  0.00  0.00     0.174 C 
ATOM      8  S   UNL d   1       1.649   7.712  -1.046  0.00  0.00    -0.041 SA
BRANCH   7   9
ATOM      9  N   UNL d   1       1.752   7.070   1.501  0.00  0.00    -0.333 N 
ATOM     10  H   UNL d   1       1.748   8.081   1.609  0.00  0.00     0.168 HD
BRANCH   9  11
ATOM     11  C   UNL d   1       2.078   6.298   2.636  0.00  0.00     0.036 A 
ATOM     12  C   UNL d   1       1.844   6.845   3.898  0.00  0.00     0.056 A 
ATOM     13  C   UNL d   1       2.065   6.069   5.040  0.00  0.00     0.074 A 
ATOM     14 CL   UNL d   1       1.695   6.726   6.590  0.00  0.00    -0.081 Cl
ATOM     15  C   UNL d   1       2.555   4.768   4.922  0.00  0.00     0.138 A 
ATOM     16  C   UNL d   1       2.867   4.244   3.675  0.00  0.00     0.046 A 
ATOM     17  F   UNL d   1       2.740   4.000   6.007  0.00  0.00    -0.204 F 
ATOM     18  C   UNL d   1       2.639   5.019   2.538  0.00  0.00     0.032 A 
ENDBRANCH   9  11
ENDBRANCH   7   9
ENDBRANCH   1   7
BRANCH   2  19
ATOM     19  C   UNL d   1      -0.073   1.272   0.115  0.00  0.00     0.680 A 
ATOM     20  N   UNL d   1       0.717   0.430  -0.560  0.00  0.00    -0.186 N 
ATOM     21  C   UNL d   1       0.481  -0.900  -0.490  0.00  0.00     0.133 A 
ATOM     22  HN  UNL d   1       1.489   0.787  -1.123  1.00  0.00     0.184 HD
ATOM     23  C   UNL d   1      -0.550  -1.413   0.268  0.00  0.00     0.052 A 
ATOM     24  C   UNL d   1      -1.300  -0.486   0.951  0.00  0.00     0.108 A 
ATOM     25  N   UNL d   1      -1.080   0.840   0.895  0.00  0.00    -0.202 N 
ATOM     26  HN  UNL d   1      -1.655   1.493   1.426  1.00  0.00     0.183 HD
BRANCH  21  27
ATOM     27  C   UNL d   1       1.364  -1.833  -1.295  0.00  0.00     0.433 C 
ATOM     28  F   UNL d   1       2.398  -1.214  -1.933  0.00  0.00    -0.165 F 
ATOM     29  F   UNL d   1       1.936  -2.804  -0.522  0.00  0.00    -0.165 F 
ATOM     30  F   UNL d   1       0.673  -2.500  -2.265  0.00  0.00    -0.165 F 
ENDBRANCH  21  27
ENDBRANCH   2  19
TORSDOF 5
