REMARK  4 active torsions:
REMARK  status: ('A' for Active; 'I' for Inactive)
REMARK    1  A    between atoms: N_3  and  C_1 
REMARK    2  A    between atoms: C_7  and  C_2 
REMARK    3  A    between atoms: O_13  and  C_7 
REMARK    4  A    between atoms: C_18  and  O_13 
ROOT
ATOM      1  C   UNL d   1      -2.098  -0.933   0.014  0.00  0.00     0.098 C 
ATOM      2  C   UNL d   1      -0.981  -1.748  -0.125  0.00  0.00     0.081 C 
ATOM      3  S   UNL d   1      -1.689   0.705   0.255  0.00  0.00    -0.075 SA
ATOM      4  C   UNL d   1       0.239  -0.962   0.008  0.00  0.00    -0.026 C 
ATOM      5  C   UNL d   1      -0.036   0.390   0.090  0.00  0.00    -0.008 C 
ATOM      6  C   UNL d   1       1.659  -1.459  -0.051  0.00  0.00     0.041 C 
ATOM      7  C   UNL d   1       0.979   1.491   0.090  0.00  0.00     0.047 C 
ATOM      8  C   UNL d   1       2.659  -0.382   0.398  0.00  0.00     0.005 C 
ATOM      9  C   UNL d   1       2.370   0.958  -0.283  0.00  0.00     0.005 C 
ENDROOT
BRANCH   1  10
ATOM     10  N   UNL d   1      -3.469  -1.280   0.081  0.00  0.00    -0.313 N 
ATOM     11  C   UNL d   1      -4.554  -0.563  -0.457  0.00  0.00     0.013 A 
ATOM     12  C   UNL d   1      -5.730  -1.191  -0.101  0.00  0.00     0.027 A 
ATOM     13  C   UNL d   1      -4.468   0.642  -1.338  0.00  0.00     0.068 C 
ATOM     14  C   UNL d   1      -5.400  -2.335   0.630  0.00  0.00     0.027 A 
ATOM     15  C   UNL d   1      -4.024  -2.384   0.752  0.00  0.00     0.013 A 
ATOM     16  C   UNL d   1      -3.289  -3.402   1.556  0.00  0.00     0.068 C 
ENDBRANCH   1  10
BRANCH   2  17
ATOM     17  C   UNL d   1      -1.020  -3.168  -0.468  0.00  0.00     0.296 C 
ATOM     18  O   UNL d   1      -1.815  -3.657  -1.251  0.00  0.00    -0.259 OA
BRANCH  17  19
ATOM     19  O   UNL d   1      -0.018  -3.862   0.149  0.00  0.00    -0.318 OA
BRANCH  19  20
ATOM     20  C   UNL d   1       0.275  -5.148  -0.407  0.00  0.00     0.174 C 
ATOM     21  C   UNL d   1       1.155  -4.949  -1.629  0.00  0.00     0.034 C 
ENDBRANCH  19  20
ENDBRANCH  17  19
ENDBRANCH   2  17
TORSDOF 4
