REMARK  4 active torsions:
REMARK  status: ('A' for Active; 'I' for Inactive)
REMARK    1  A    between atoms: N_7  and  C_1 
REMARK    2  A    between atoms: N_8  and  C_2 
REMARK    3  A    between atoms: C_9  and  N_7 
REMARK    4  A    between atoms: C_12  and  C_9 
ROOT
ATOM      1  C   UNL d   1       0.150   1.585   0.952  0.00  0.00     0.142 C 
ATOM      2  C   UNL d   1      -1.068   1.016   0.783  0.00  0.00     0.125 C 
ATOM      3  C   UNL d   1       0.957   1.234   2.089  0.00  0.00     0.120 C 
ATOM      4  C   UNL d   1      -1.577   0.044   1.717  0.00  0.00     0.114 C 
ATOM      5  N   UNL d   1       1.631   0.976   3.000  0.00  0.00    -0.190 NA
ATOM      6  N   UNL d   1      -2.006  -0.763   2.430  0.00  0.00    -0.190 NA
ENDROOT
BRANCH   1   7
ATOM      7  N   UNL d   1       0.699   2.532   0.084  0.00  0.00    -0.375 N 
ATOM      8  H   UNL d   1       0.073   2.891  -0.631  0.00  0.00     0.160 HD
BRANCH   7   9
ATOM      9  C   UNL d   1       1.996   3.185   0.162  0.00  0.00     0.159 C 
BRANCH   9  10
ATOM     10  C   UNL d   1       1.839   4.687   0.183  0.00  0.00    -0.039 A 
ATOM     11  C   UNL d   1       2.421   5.474  -0.823  0.00  0.00     0.032 A 
ATOM     12  C   UNL d   1       2.321   6.865  -0.776  0.00  0.00     0.034 A 
ATOM     13 CL   UNL d   1       3.057   7.812  -2.010  0.00  0.00    -0.084 Cl
ATOM     14  C   UNL d   1       1.641   7.492   0.264  0.00  0.00     0.024 A 
ATOM     15  C   UNL d   1       1.061   6.721   1.272  0.00  0.00     0.002 A 
ATOM     16  C   UNL d   1       1.163   5.328   1.234  0.00  0.00     0.009 A 
ENDBRANCH   9  10
ENDBRANCH   7   9
ENDBRANCH   1   7
BRANCH   2  17
ATOM     17  N   UNL d   1      -1.927   1.272  -0.287  0.00  0.00    -0.291 NA
ATOM     18  H   UNL d   1      -1.442   1.557  -1.133  0.00  0.00     0.125 HD
ATOM     19  H   UNL d   1      -2.585   0.511  -0.466  0.00  0.00     0.125 HD
ENDBRANCH   2  17
TORSDOF 4
