REMARK  3 active torsions:
REMARK  status: ('A' for Active; 'I' for Inactive)
REMARK    1  A    between atoms: C_7  and  C_3 
REMARK    2  A    between atoms: C_8  and  C_4 
REMARK    3  A    between atoms: C_9  and  C_10 
ROOT
ATOM      1  N   UNL d   1      -0.274  -0.693  -1.194  0.00  0.00    -0.348 N 
ATOM      2  HN  UNL d   1      -0.115  -1.116  -2.109  1.00  0.00     0.166 HD
ATOM      3  C   UNL d   1      -0.652   0.554  -1.005  0.00  0.00     0.085 A 
ATOM      4  C   UNL d   1      -0.121  -1.358   0.020  0.00  0.00     0.056 A 
ATOM      5  S   UNL d   1      -0.799   1.011   0.646  0.00  0.00    -0.074 SA
ATOM      6  C   UNL d   1      -0.407  -0.587   1.140  0.00  0.00     0.008 A 
ATOM      7  C   UNL d   1      -0.443  -0.894   2.597  0.00  0.00     0.059 C 
ENDROOT
BRANCH   4   8
ATOM      8  C   UNL d   1       0.256  -2.770   0.041  0.00  0.00    -0.008 A 
ATOM      9  C   UNL d   1       1.091  -3.300   1.025  0.00  0.00     0.014 A 
ATOM     10  C   UNL d   1       1.372  -4.672   1.070  0.00  0.00     0.013 A 
ATOM     11  C   UNL d   1       0.884  -5.564   0.101  0.00  0.00    -0.023 A 
ATOM     12  C   UNL d   1       0.095  -5.006  -0.923  0.00  0.00     0.013 A 
ATOM     13  C   UNL d   1      -0.218  -3.637  -0.951  0.00  0.00     0.014 A 
BRANCH  11  14
ATOM     14  C   UNL d   1       1.178  -7.018   0.171  0.00  0.00     0.013 A 
ATOM     15  C   UNL d   1       2.386  -7.518   0.695  0.00  0.00     0.127 A 
ATOM     16  F   UNL d   1       3.351  -6.683   1.115  0.00  0.00    -0.205 F 
ATOM     17  C   UNL d   1       2.647  -8.886   0.799  0.00  0.00     0.043 A 
ATOM     18  C   UNL d   1       1.703  -9.807   0.360  0.00  0.00     0.003 A 
ATOM     19  C   UNL d   1       0.503  -9.353  -0.176  0.00  0.00     0.001 A 
ATOM     20  C   UNL d   1       0.242  -7.978  -0.264  0.00  0.00     0.015 A 
ENDBRANCH  11  14
ENDBRANCH   4   8
BRANCH   3  21
ATOM     21  C   UNL d   1      -0.895   1.535  -2.079  0.00  0.00    -0.002 A 
ATOM     22  C   UNL d   1      -1.816   2.590  -1.943  0.00  0.00     0.016 A 
ATOM     23  C   UNL d   1      -2.007   3.516  -2.973  0.00  0.00     0.024 A 
ATOM     24  C   UNL d   1      -1.284   3.396  -4.156  0.00  0.00     0.034 A 
ATOM     25  C   UNL d   1      -0.381   2.349  -4.321  0.00  0.00     0.024 A 
ATOM     26 CL   UNL d   1      -1.510   4.544  -5.415  0.00  0.00    -0.084 Cl
ATOM     27  C   UNL d   1      -0.192   1.421  -3.290  0.00  0.00     0.016 A 
ENDBRANCH   3  21
TORSDOF 3
