REMARK  4 active torsions:
REMARK  status: ('A' for Active; 'I' for Inactive)
REMARK    1  A    between atoms: C_2  and  C_1 
REMARK       I    between atoms: N_3  and  C_2 
REMARK    2  A    between atoms: C_7  and  N_3 
REMARK    3  A    between atoms: C_4  and  C_7 
REMARK    4  A    between atoms: C_6  and  C_4 
ROOT
ATOM      1  C   UNL d   1       0.934  -2.990   0.795  0.00  0.00     0.255 C 
ATOM      2  N   UNL d   1       0.167  -3.674  -0.122  0.00  0.00    -0.349 N 
ATOM      3  O   UNL d   1       0.468  -2.562   1.846  0.00  0.00    -0.268 OA
ATOM      4  H   UNL d   1       0.585  -4.046  -0.970  0.00  0.00     0.163 HD
ENDROOT
BRANCH   2   5
ATOM      5  C   UNL d   1      -1.258  -3.869   0.071  0.00  0.00     0.206 C 
BRANCH   5   6
ATOM      6  C   UNL d   1      -1.619  -5.344   0.022  0.00  0.00     0.177 C 
ATOM      7  O   UNL d   1      -1.674  -5.970  -1.035  0.00  0.00    -0.291 OA
BRANCH   6   8
ATOM      8  C   UNL d   1      -1.864  -6.059   1.302  0.00  0.00     0.011 A 
ATOM      9  C   UNL d   1      -2.834  -7.069   1.338  0.00  0.00     0.016 A 
ATOM     10  C   UNL d   1      -3.059  -7.780   2.519  0.00  0.00     0.020 A 
ATOM     11  C   UNL d   1      -2.302  -7.493   3.655  0.00  0.00     0.011 A 
ATOM     12  C   UNL d   1      -1.329  -6.496   3.623  0.00  0.00     0.020 A 
ATOM     13 BR   UNL d   1      -2.585  -8.473   5.246  0.00  0.00    -0.051 Br
ATOM     14  C   UNL d   1      -1.111  -5.775   2.447  0.00  0.00     0.016 A 
ENDBRANCH   6   8
ENDBRANCH   5   6
ENDBRANCH   2   5
BRANCH   1  15
ATOM     15  C   UNL d   1       2.373  -2.773   0.487  0.00  0.00     0.070 A 
ATOM     16  C   UNL d   1       3.001  -3.280  -0.650  0.00  0.00     0.132 A 
ATOM     17  F   UNL d   1       2.319  -4.011  -1.546  0.00  0.00    -0.205 F 
ATOM     18  C   UNL d   1       4.353  -3.043  -0.895  0.00  0.00     0.043 A 
ATOM     19  C   UNL d   1       5.100  -2.286   0.008  0.00  0.00     0.003 A 
ATOM     20  C   UNL d   1       4.491  -1.771   1.150  0.00  0.00     0.001 A 
ATOM     21  C   UNL d   1       3.137  -2.013   1.391  0.00  0.00     0.020 A 
ENDBRANCH   1  15
TORSDOF 4
