REMARK  7 active torsions:
REMARK  status: ('A' for Active; 'I' for Inactive)
REMARK    1  A    between atoms: C_4  and  S_1 
REMARK    2  A    between atoms: N_7  and  S_1 
REMARK    3  A    between atoms: N_2  and  C_10 
REMARK    4  A    between atoms: O_6  and  C_3 
REMARK    5  A    between atoms: C_5  and  C_16 
REMARK    6  A    between atoms: C_14  and  O_6 
REMARK    7  A    between atoms: C_21  and  N_7 
ROOT
ATOM      1  C   UNL d   1      -0.104   2.341  -3.620  0.00  0.00     0.119 A 
ATOM      2  C   UNL d   1       0.574   0.865  -1.345  0.00  0.00     0.083 A 
ATOM      3  C   UNL d   1      -0.115   0.936  -3.650  0.00  0.00     0.071 A 
ATOM      4  C   UNL d   1       0.156   2.994  -2.401  0.00  0.00     0.071 A 
ATOM      5  C   UNL d   1       0.219   0.194  -2.515  0.00  0.00     0.052 A 
ATOM      6  C   UNL d   1       0.521   2.258  -1.273  0.00  0.00     0.052 A 
ATOM      7 CL   UNL d   1      -0.523   0.073  -5.090  0.00  0.00    -0.081 Cl
ATOM      8 CL   UNL d   1       0.013   4.705  -2.197  0.00  0.00    -0.081 Cl
ENDROOT
BRANCH   2   9
ATOM      9  S   UNL d   1       1.071  -0.060   0.086  0.00  0.00     0.263 S 
ATOM     10  O   UNL d   1       0.301  -1.284   0.091  0.00  0.00    -0.200 OA
ATOM     11  O   UNL d   1       1.081   0.830   1.226  0.00  0.00    -0.200 OA
BRANCH   9  12
ATOM     12  N   UNL d   1       2.641  -0.486  -0.305  0.00  0.00    -0.281 N 
ATOM     13  H   UNL d   1       2.875  -1.472  -0.199  0.00  0.00     0.179 HD
BRANCH  12  14
ATOM     14  C   UNL d   1       3.670   0.483  -0.358  0.00  0.00     0.043 A 
ATOM     15  C   UNL d   1       4.131   0.883  -1.611  0.00  0.00     0.046 A 
ATOM     16  C   UNL d   1       5.196   1.790  -1.722  0.00  0.00     0.050 A 
ATOM     17  C   UNL d   1       5.803   2.268  -0.549  0.00  0.00     0.016 A 
ATOM     18  C   UNL d   1       5.343   1.855   0.704  0.00  0.00     0.003 A 
ATOM     19  C   UNL d   1       4.275   0.961   0.801  0.00  0.00     0.030 A 
BRANCH  16  20
ATOM     20  C   UNL d   1       5.694   2.233  -3.074  0.00  0.00     0.417 C 
ATOM     21  F   UNL d   1       4.958   1.731  -4.106  0.00  0.00    -0.166 F 
ATOM     22  F   UNL d   1       5.656   3.586  -3.225  0.00  0.00    -0.166 F 
ATOM     23  F   UNL d   1       6.979   1.858  -3.310  0.00  0.00    -0.166 F 
ENDBRANCH  16  20
ENDBRANCH  12  14
ENDBRANCH   9  12
ENDBRANCH   2   9
BRANCH   1  24
ATOM     24  O   UNL d   1      -0.417   3.000  -4.791  0.00  0.00    -0.306 OA
BRANCH  24  25
ATOM     25  C   UNL d   1       0.424   4.001  -5.237  0.00  0.00     0.098 A 
ATOM     26  C   UNL d   1      -0.161   5.089  -5.903  0.00  0.00     0.070 A 
ATOM     27  C   UNL d   1       0.616   6.177  -6.304  0.00  0.00     0.062 A 
ATOM     28 CL   UNL d   1      -1.859   5.138  -6.218  0.00  0.00    -0.081 Cl
ATOM     29  C   UNL d   1       1.991   6.168  -6.041  0.00  0.00     0.104 A 
ATOM     30  C   UNL d   1       2.596   5.064  -5.425  0.00  0.00     0.039 A 
ATOM     31  C   UNL d   1       1.813   3.970  -5.046  0.00  0.00     0.041 A 
BRANCH  29  32
ATOM     32  N   UNL d   1       2.806   7.332  -6.408  0.00  0.00    -0.116 N 
ATOM     33  O   UNL d   1       2.258   8.239  -7.051  0.00  0.00    -0.532 OA
ATOM     34  O   UNL d   1       3.992   7.340  -6.050  0.00  0.00    -0.532 OA
ENDBRANCH  29  32
ENDBRANCH  24  25
ENDBRANCH   1  24
TORSDOF 7
