REMARK  7 active torsions:
REMARK  status: ('A' for Active; 'I' for Inactive)
REMARK    1  A    between atoms: C_11  and  C_3 
REMARK    2  A    between atoms: C_12  and  N_4 
REMARK    3  A    between atoms: N_8  and  C_10 
REMARK       I    between atoms: C_9  and  N_8 
REMARK    4  A    between atoms: C_13  and  C_9 
REMARK    5  A    between atoms: C_10  and  N_17 
REMARK    6  A    between atoms: C_14  and  C_12 
REMARK       I    between atoms: N_18  and  C_14 
REMARK    7  A    between atoms: N_17  and  N_18 
ROOT
ATOM      1  C   UNL d   1      -2.147   0.290   0.235  0.00  0.00     0.271 C 
ENDROOT
BRANCH   1   2
ATOM      2  N   UNL d   1      -0.802   0.140  -0.264  0.00  0.00    -0.207 N 
ATOM      3  N   UNL d   1      -0.520   0.081  -1.577  0.00  0.00    -0.268 N 
ATOM      4  C   UNL d   1       0.818  -0.049  -1.535  0.00  0.00     0.144 A 
ATOM      5  HN  UNL d   1      -1.146   0.123  -2.381  1.00  0.00     0.190 HD
ATOM      6  N   UNL d   1       1.302  -0.046  -0.247  0.00  0.00    -0.266 N 
ATOM      7  N   UNL d   1       0.257   0.077   0.559  0.00  0.00    -0.002 NA
ATOM      8  HN  UNL d   1       2.280  -0.123   0.035  1.00  0.00     0.186 HD
BRANCH   4   9
ATOM      9  C   UNL d   1       1.660  -0.245  -2.708  0.00  0.00     0.014 A 
ATOM     10  C   UNL d   1       1.084  -0.325  -3.986  0.00  0.00     0.039 A 
ATOM     11  C   UNL d   1       1.876  -0.594  -5.102  0.00  0.00     0.036 A 
ATOM     12 CL   UNL d   1       1.143  -0.724  -6.653  0.00  0.00    -0.084 Cl
ATOM     13  C   UNL d   1       3.248  -0.777  -4.970  0.00  0.00     0.047 A 
ATOM     14  C   UNL d   1       3.828  -0.674  -3.708  0.00  0.00     0.036 A 
ATOM     15  C   UNL d   1       3.047  -0.407  -2.580  0.00  0.00     0.039 A 
ATOM     16 CL   UNL d   1       5.525  -0.899  -3.535  0.00  0.00    -0.084 Cl
ENDBRANCH   4   9
ENDBRANCH   1   2
BRANCH   1  17
ATOM     17  C   UNL d   1      -2.766  -0.985   0.755  0.00  0.00     0.257 C 
ATOM     18  N   UNL d   1      -1.936  -1.993   1.202  0.00  0.00    -0.266 N 
ATOM     19  H   UNL d   1      -0.915  -1.964   1.154  0.00  0.00     0.190 HD
ATOM     20  O   UNL d   1      -3.996  -1.087   0.832  0.00  0.00    -0.270 OA
BRANCH  18  21
ATOM     21  N   UNL d   1      -2.516  -3.231   1.543  0.00  0.00    -0.273 N 
ATOM     22  H   UNL d   1      -3.538  -3.223   1.701  0.00  0.00     0.189 HD
BRANCH  21  23
ATOM     23  C   UNL d   1      -1.897  -4.416   1.235  0.00  0.00     0.193 C 
ATOM     24  S   UNL d   1      -0.300  -4.555   0.739  0.00  0.00    -0.039 SA
BRANCH  23  25
ATOM     25  N   UNL d   1      -2.636  -5.571   1.360  0.00  0.00    -0.302 N 
ATOM     26  C   UNL d   1      -3.966  -5.716   1.708  0.00  0.00     0.228 C 
ATOM     27  O   UNL d   1      -4.682  -4.795   2.078  0.00  0.00    -0.273 OA
ATOM     28  H   UNL d   1      -2.125  -6.400   1.114  0.00  0.00     0.171 HD
BRANCH  26  29
ATOM     29  C   UNL d   1      -4.540  -7.094   1.624  0.00  0.00     0.078 A 
ATOM     30  C   UNL d   1      -4.041  -8.190   2.538  0.00  0.00     0.015 A 
ATOM     31  C   UNL d   1      -3.839  -8.306   1.056  0.00  0.00     0.015 A 
ENDBRANCH  26  29
ENDBRANCH  23  25
ENDBRANCH  21  23
ENDBRANCH  18  21
ENDBRANCH   1  17
TORSDOF 7
