REMARK  4 active torsions:
REMARK  status: ('A' for Active; 'I' for Inactive)
REMARK    1  A    between atoms: C_2  and  S_1 
REMARK    2  A    between atoms: C_7  and  S_1 
REMARK    3  A    between atoms: N_10  and  N_3 
REMARK    4  A    between atoms: C_11  and  N_10 
ROOT
ATOM      1  C   UNL d   1       0.431   0.602   1.593  0.00  0.00     0.229 C 
ATOM      2  N   UNL d   1      -0.284   1.692   1.583  0.00  0.00    -0.281 N 
ATOM      3  HN  UNL d   1      -0.612   2.094   2.462  1.00  0.00     0.188 HD
ATOM      4  C   UNL d   1       0.885   0.023   0.362  0.00  0.00     0.132 C 
ATOM      5  N   UNL d   1       1.199  -0.403  -0.672  0.00  0.00    -0.189 NA
ENDROOT
BRANCH   1   6
ATOM      6  S   UNL d   1       0.875  -0.223   3.066  0.00  0.00     0.233 S 
ATOM      7  O   UNL d   1       2.320  -0.134   3.177  0.00  0.00    -0.215 OA
ATOM      8  O   UNL d   1       0.202  -1.510   3.036  0.00  0.00    -0.215 OA
BRANCH   6   9
ATOM      9  C   UNL d   1       0.173   0.720   4.399  0.00  0.00     0.066 A 
ATOM     10  C   UNL d   1      -1.095   0.387   4.887  0.00  0.00     0.025 A 
ATOM     11  C   UNL d   1      -1.641   1.125   5.940  0.00  0.00     0.025 A 
ATOM     12  C   UNL d   1      -0.914   2.173   6.506  0.00  0.00     0.034 A 
ATOM     13  C   UNL d   1       0.363   2.484   6.037  0.00  0.00     0.025 A 
ATOM     14 CL   UNL d   1      -1.598   3.087   7.792  0.00  0.00    -0.084 Cl
ATOM     15  C   UNL d   1       0.916   1.752   4.984  0.00  0.00     0.025 A 
ENDBRANCH   6   9
ENDBRANCH   1   6
BRANCH   2  16
ATOM     16  N   UNL d   1      -0.596   2.296   0.398  0.00  0.00    -0.299 N 
ATOM     17  H   UNL d   1      -0.642   1.779  -0.484  0.00  0.00     0.187 HD
BRANCH  16  18
ATOM     18  C   UNL d   1      -1.414   3.448   0.428  0.00  0.00     0.051 A 
ATOM     19  C   UNL d   1      -1.744   4.095   1.627  0.00  0.00     0.054 A 
ATOM     20  C   UNL d   1      -2.488   5.275   1.619  0.00  0.00     0.037 A 
ATOM     21 CL   UNL d   1      -2.884   6.039   3.110  0.00  0.00    -0.084 Cl
ATOM     22  C   UNL d   1      -2.907   5.843   0.421  0.00  0.00     0.048 A 
ATOM     23  C   UNL d   1      -2.571   5.216  -0.774  0.00  0.00     0.037 A 
ATOM     24  C   UNL d   1      -1.823   4.036  -0.778  0.00  0.00     0.054 A 
ATOM     25 CL   UNL d   1      -3.079   5.907  -2.268  0.00  0.00    -0.084 Cl
ENDBRANCH  16  18
ENDBRANCH   2  16
TORSDOF 4
