REMARK  6 active torsions:
REMARK  status: ('A' for Active; 'I' for Inactive)
REMARK    1  A    between atoms: N_2  and  C_1 
REMARK    2  A    between atoms: N_6  and  C_3 
REMARK    3  A    between atoms: N_4  and  C_12 
REMARK    4  A    between atoms: C_5  and  C_10 
REMARK    5  A    between atoms: N_9  and  N_6 
REMARK       I    between atoms: C_8  and  N_9 
REMARK    6  A    between atoms: C_15  and  C_8 
ROOT
ATOM      1  N   UNL d   1       0.927  -2.478  -0.266  0.00  0.00    -0.196 NA
ATOM      2  C   UNL d   1       2.226  -3.143  -0.530  0.00  0.00     0.143 C 
ENDROOT
BRANCH   1   3
ATOM      3  C   UNL d   1       1.007  -1.315   0.560  0.00  0.00     0.063 C 
ATOM      4  C   UNL d   1      -0.024  -0.829   1.382  0.00  0.00     0.126 C 
ATOM      5  C   UNL d   1       0.208   0.015   2.484  0.00  0.00     0.054 C 
ATOM      6  C   UNL d   1       1.487   0.530   2.694  0.00  0.00     0.050 C 
ATOM      7  C   UNL d   1       2.445   0.321   1.699  0.00  0.00     0.018 C 
ATOM      8  C   UNL d   1       2.202  -0.578   0.651  0.00  0.00     0.029 C 
BRANCH   4   9
ATOM      9  N   UNL d   1      -1.411  -1.062   1.048  0.00  0.00    -0.114 N 
ATOM     10  O   UNL d   1      -1.878  -0.430   0.095  0.00  0.00    -0.532 OA
ATOM     11  O   UNL d   1      -2.047  -1.806   1.812  0.00  0.00    -0.532 OA
ENDBRANCH   4   9
BRANCH   6  12
ATOM     12  C   UNL d   1       1.847   1.304   3.936  0.00  0.00     0.417 C 
ATOM     13  F   UNL d   1       0.852   1.328   4.865  0.00  0.00    -0.166 F 
ATOM     14  F   UNL d   1       2.933   0.779   4.567  0.00  0.00    -0.166 F 
ATOM     15  F   UNL d   1       2.151   2.602   3.664  0.00  0.00    -0.166 F 
ENDBRANCH   6  12
ENDBRANCH   1   3
BRANCH   1  16
ATOM     16  N   UNL d   1      -0.070  -3.422   0.146  0.00  0.00    -0.281 N 
ATOM     17  C   UNL d   1      -0.542  -4.359  -0.773  0.00  0.00     0.266 C 
ATOM     18  O   UNL d   1      -0.183  -4.435  -1.944  0.00  0.00    -0.266 OA
ATOM     19  H   UNL d   1      -0.135  -3.609   1.141  0.00  0.00     0.184 HD
BRANCH  17  20
ATOM     20  C   UNL d   1      -1.527  -5.360  -0.254  0.00  0.00     0.033 A 
ATOM     21  C   UNL d   1      -2.370  -5.083   0.831  0.00  0.00     0.019 A 
ATOM     22  C   UNL d   1      -3.370  -5.987   1.209  0.00  0.00     0.037 A 
ATOM     23  C   UNL d   1      -3.527  -7.184   0.502  0.00  0.00     0.102 A 
ATOM     24  C   UNL d   1      -2.663  -7.495  -0.560  0.00  0.00     0.037 A 
ATOM     25  C   UNL d   1      -1.671  -6.583  -0.932  0.00  0.00     0.019 A 
BRANCH  23  26
ATOM     26  N   UNL d   1      -4.625  -8.095   0.851  0.00  0.00    -0.116 N 
ATOM     27  O   UNL d   1      -5.391  -7.752   1.762  0.00  0.00    -0.532 OA
ATOM     28  O   UNL d   1      -4.723  -9.151   0.210  0.00  0.00    -0.532 OA
ENDBRANCH  23  26
ENDBRANCH  17  20
ENDBRANCH   1  16
TORSDOF 6
