REMARK  5 active torsions:
REMARK  status: ('A' for Active; 'I' for Inactive)
REMARK    1  A    between atoms: C_2  and  N_1 
REMARK       I    between atoms: C_4  and  N_1 
REMARK    2  A    between atoms: C_12  and  C_4 
REMARK    3  A    between atoms: C_6  and  C_13 
REMARK    4  A    between atoms: O_14  and  C_6 
REMARK    5  A    between atoms: C_13  and  C_12 
ROOT
ATOM      1  N   UNL d   1       1.160   0.014  -0.189  0.00  0.00    -0.325 N 
ATOM      2  C   UNL d   1       2.539  -0.078  -0.158  0.00  0.00     0.222 C 
ATOM      3  O   UNL d   1       3.339   0.814  -0.420  0.00  0.00    -0.273 OA
ATOM      4  H   UNL d   1       0.662  -0.618   0.438  0.00  0.00     0.169 HD
ENDROOT
BRANCH   1   5
ATOM      5  C   UNL d   1       0.412   1.086  -0.724  0.00  0.00     0.073 A 
ATOM      6  C   UNL d   1       0.876   1.960  -1.720  0.00  0.00     0.145 A 
ATOM      7  C   UNL d   1       0.087   3.011  -2.180  0.00  0.00     0.086 A 
ATOM      8  F   UNL d   1       2.054   1.768  -2.328  0.00  0.00    -0.204 F 
ATOM      9  C   UNL d   1      -1.186   3.181  -1.660  0.00  0.00     0.119 A 
ATOM     10  C   UNL d   1      -1.689   2.307  -0.703  0.00  0.00     0.044 A 
ATOM     11  F   UNL d   1      -1.950   4.190  -2.098  0.00  0.00    -0.206 F 
ATOM     12  C   UNL d   1      -0.894   1.255  -0.240  0.00  0.00     0.036 A 
ENDBRANCH   1   5
BRANCH   2  13
ATOM     13  C   UNL d   1       3.035  -1.399   0.397  0.00  0.00     0.113 C 
BRANCH  13  14
ATOM     14  C   UNL d   1       3.332  -1.262   1.886  0.00  0.00     0.119 C 
BRANCH  14  15
ATOM     15  C   UNL d   1       2.064  -1.047   2.674  0.00  0.00     0.139 C 
ATOM     16  O   UNL d   1       0.944  -1.326   2.265  0.00  0.00    -0.650 OA
BRANCH  15  17
ATOM     17  O   UNL d   1       2.278  -0.514   3.895  0.00  0.00    -0.776 OA
ATOM     18  H   UNL d   1       3.213  -0.305   4.084  0.00  0.00     0.167 HD
ENDBRANCH  15  17
ENDBRANCH  14  15
ENDBRANCH  13  14
ENDBRANCH   2  13
TORSDOF 5
