REMARK  5 active torsions:
REMARK  status: ('A' for Active; 'I' for Inactive)
REMARK    1  A    between atoms: C_3  and  C_1 
REMARK    2  A    between atoms: O_10  and  C_1 
REMARK    3  A    between atoms: C_18  and  C_4 
REMARK    4  A    between atoms: C_12  and  O_10 
REMARK    5  A    between atoms: C_21  and  C_18 
ROOT
ATOM      1  C   UNL d   1      -3.243   1.018  -0.057  0.00  0.00     0.092 A 
ATOM      2  C   UNL d   1      -5.440   0.623  -1.118  0.00  0.00    -0.039 A 
ATOM      3  O   UNL d   1      -3.892   1.427   1.127  0.00  0.00    -0.275 OA
ATOM      4  C   UNL d   1      -5.268   1.379   1.240  0.00  0.00     0.288 A 
ATOM      5  C   UNL d   1      -3.969   0.594  -1.176  0.00  0.00     0.004 A 
ATOM      6  C   UNL d   1      -6.018   0.995   0.035  0.00  0.00     0.090 A 
ATOM      7  C   UNL d   1      -1.844   1.032  -0.022  0.00  0.00     0.075 A 
ATOM      8  C   UNL d   1      -3.238   0.156  -2.288  0.00  0.00     0.017 A 
ATOM      9  C   UNL d   1      -1.146   0.599  -1.142  0.00  0.00     0.082 A 
ATOM     10  O   UNL d   1      -5.856   1.656   2.279  0.00  0.00    -0.260 OA
ATOM     11  C   UNL d   1      -1.836   0.151  -2.269  0.00  0.00     0.038 A 
ENDROOT
BRANCH   9  12
ATOM     12  O   UNL d   1       0.263   0.478  -1.205  0.00  0.00    -0.275 OA
BRANCH  12  13
ATOM     13  C   UNL d   1       1.132   1.188  -0.393  0.00  0.00     0.300 C 
ATOM     14  O   UNL d   1       0.853   2.130   0.333  0.00  0.00    -0.259 OA
BRANCH  13  15
ATOM     15  C   UNL d   1       2.532   0.745  -0.616  0.00  0.00     0.061 A 
ATOM     16  C   UNL d   1       2.928  -0.584  -0.823  0.00  0.00     0.050 A 
ATOM     17 CL   UNL d   1       1.841  -1.927  -0.802  0.00  0.00    -0.083 Cl
ATOM     18  C   UNL d   1       4.287  -0.883  -1.004  0.00  0.00     0.025 A 
ATOM     19  C   UNL d   1       5.254   0.123  -0.965  0.00  0.00     0.002 A 
ATOM     20  C   UNL d   1       4.867   1.440  -0.735  0.00  0.00     0.001 A 
ATOM     21  C   UNL d   1       3.516   1.750  -0.560  0.00  0.00     0.019 A 
ENDBRANCH  13  15
ENDBRANCH  12  13
ENDBRANCH   9  12
BRANCH   2  22
ATOM     22  C   UNL d   1      -6.287   0.297  -2.326  0.00  0.00     0.039 C 
BRANCH  22  23
ATOM     23  C   UNL d   1      -6.596  -1.198  -2.451  0.00  0.00     0.000 C 
ATOM     24  C   UNL d   1      -7.429  -1.487  -3.692  0.00  0.00     0.005 C 
ENDBRANCH  22  23
ENDBRANCH   2  22
TORSDOF 5
