REMARK  8 active torsions:
REMARK  status: ('A' for Active; 'I' for Inactive)
REMARK    1  A    between atoms: O_14  and  C_1 
REMARK    2  A    between atoms: O_16  and  C_2 
REMARK    3  A    between atoms: O_17  and  C_3 
REMARK    4  A    between atoms: O_19  and  C_4 
REMARK    5  A    between atoms: C_21  and  N_5 
REMARK    6  A    between atoms: C_12  and  C_9 
REMARK    7  A    between atoms: O_20  and  C_10 
REMARK    8  A    between atoms: C_15  and  C_21 
ROOT
ATOM      1  N   UNL d   1      -3.612  -0.624  -0.251  0.00  0.00    -0.394 N 
ATOM      2  HN  UNL d   1      -3.280  -1.584  -0.159  1.00  0.00     0.159 HD
ATOM      3  C   UNL d   1      -2.812   0.381  -0.152  0.00  0.00     0.094 C 
ENDROOT
BRANCH   1   4
ATOM      4  C   UNL d   1      -5.016  -0.321  -0.499  0.00  0.00     0.157 C 
BRANCH   4   5
ATOM      5  C   UNL d   1      -5.686  -1.399  -1.329  0.00  0.00    -0.038 A 
ATOM      6  C   UNL d   1      -6.806  -1.089  -2.118  0.00  0.00     0.048 A 
ATOM      7  C   UNL d   1      -7.469  -2.075  -2.867  0.00  0.00     0.102 A 
ATOM      8  C   UNL d   1      -6.984  -3.395  -2.833  0.00  0.00     0.101 A 
ATOM      9  C   UNL d   1      -5.889  -3.713  -2.022  0.00  0.00     0.040 A 
ATOM     10  C   UNL d   1      -5.248  -2.727  -1.277  0.00  0.00     0.012 A 
BRANCH   7  11
ATOM     11  O   UNL d   1      -8.593  -1.831  -3.613  0.00  0.00    -0.353 OA
ATOM     12  C   UNL d   1      -9.133  -0.518  -3.603  0.00  0.00     0.210 C 
ENDBRANCH   7  11
BRANCH   8  13
ATOM     13  O   UNL d   1      -7.516  -4.483  -3.479  0.00  0.00    -0.353 OA
ATOM     14  C   UNL d   1      -8.038  -4.245  -4.780  0.00  0.00     0.210 C 
ENDBRANCH   8  13
ENDBRANCH   4   5
ENDBRANCH   1   4
BRANCH   3  15
ATOM     15  C   UNL d   1      -1.366   0.183   0.054  0.00  0.00    -0.016 A 
ATOM     16  C   UNL d   1      -0.811  -1.091   0.038  0.00  0.00     0.052 A 
ATOM     17  C   UNL d   1       0.565  -1.259   0.217  0.00  0.00     0.105 A 
ATOM     18  C   UNL d   1       1.417  -0.140   0.363  0.00  0.00     0.135 A 
ATOM     19  C   UNL d   1       0.841   1.152   0.367  0.00  0.00     0.105 A 
ATOM     20  C   UNL d   1      -0.552   1.297   0.233  0.00  0.00     0.052 A 
BRANCH  17  21
ATOM     21  O   UNL d   1       0.960  -2.575   0.135  0.00  0.00    -0.353 OA
ATOM     22  C   UNL d   1       1.961  -2.985   1.061  0.00  0.00     0.210 C 
ENDBRANCH  17  21
BRANCH  18  23
ATOM     23  O   UNL d   1       2.753  -0.439   0.360  0.00  0.00    -0.351 OA
ATOM     24  C   UNL d   1       3.718   0.466   0.867  0.00  0.00     0.210 C 
ENDBRANCH  18  23
BRANCH  19  25
ATOM     25  O   UNL d   1       1.654   2.252   0.495  0.00  0.00    -0.353 OA
ATOM     26  C   UNL d   1       1.158   3.483  -0.031  0.00  0.00     0.210 C 
ENDBRANCH  19  25
ENDBRANCH   3  15
TORSDOF 8
