REMARK  4 active torsions:
REMARK  status: ('A' for Active; 'I' for Inactive)
REMARK    1  A    between atoms: C_7  and  C_3 
REMARK    2  A    between atoms: C_18  and  C_4 
REMARK    3  A    between atoms: O_12  and  C_18 
REMARK    4  A    between atoms: C_14  and  O_12 
ROOT
ATOM      1  N   UNL d   1       1.497  -0.568   0.010  0.00  0.00    -0.351 N 
ATOM      2  HN  UNL d   1       2.390  -1.051  -0.084  1.00  0.00     0.166 HD
ATOM      3  C   UNL d   1       1.343   0.810   0.072  0.00  0.00     0.049 A 
ATOM      4  C   UNL d   1       0.323  -1.162   0.089  0.00  0.00     0.075 A 
ATOM      5  S   UNL d   1      -1.030  -0.100   0.198  0.00  0.00    -0.084 SA
ATOM      6  C   UNL d   1       0.032   1.241   0.135  0.00  0.00     0.082 A 
ENDROOT
BRANCH   3   7
ATOM      7  C   UNL d   1       2.493   1.707   0.041  0.00  0.00    -0.006 A 
ATOM      8  C   UNL d   1       3.679   1.299  -0.587  0.00  0.00     0.053 A 
ATOM      9  C   UNL d   1       4.803   2.132  -0.610  0.00  0.00     0.102 A 
ATOM     10  O   UNL d   1       5.911   1.597  -1.220  0.00  0.00    -0.348 OA
ATOM     11  C   UNL d   1       4.734   3.412  -0.043  0.00  0.00     0.102 A 
ATOM     12  C   UNL d   1       7.135   1.958  -0.578  0.00  0.00     0.178 C 
ATOM     13  C   UNL d   1       7.655   3.288  -1.098  0.00  0.00     0.053 C 
ATOM     14  C   UNL d   1       6.546   4.319  -1.222  0.00  0.00     0.178 C 
ATOM     15  O   UNL d   1       5.738   4.347  -0.046  0.00  0.00    -0.348 OA
ATOM     16  C   UNL d   1       3.568   3.811   0.612  0.00  0.00     0.040 A 
ATOM     17  C   UNL d   1       2.455   2.968   0.652  0.00  0.00     0.017 A 
ENDBRANCH   3   7
BRANCH   4  18
ATOM     18  C   UNL d   1       0.094  -2.644   0.009  0.00  0.00     0.240 C 
BRANCH  18  19
ATOM     19  O   UNL d   1      -0.089  -3.134   1.342  0.00  0.00    -0.343 OA
BRANCH  19  20
ATOM     20  C   UNL d   1      -0.386  -4.471   1.435  0.00  0.00     0.090 A 
ATOM     21  C   UNL d   1       0.173  -5.207   2.490  0.00  0.00     0.067 A 
ATOM     22 CL   UNL d   1       1.276  -4.489   3.610  0.00  0.00    -0.081 Cl
ATOM     23  C   UNL d   1      -0.142  -6.561   2.659  0.00  0.00     0.026 A 
ATOM     24  C   UNL d   1      -1.031  -7.187   1.782  0.00  0.00     0.002 A 
ATOM     25  C   UNL d   1      -1.605  -6.458   0.747  0.00  0.00     0.003 A 
ATOM     26  C   UNL d   1      -1.293  -5.106   0.579  0.00  0.00     0.038 A 
ENDBRANCH  19  20
ENDBRANCH  18  19
ENDBRANCH   4  18
TORSDOF 4
