REMARK  5 active torsions:
REMARK  status: ('A' for Active; 'I' for Inactive)
REMARK    1  A    between atoms: S_5  and  C_2 
REMARK    2  A    between atoms: N_19  and  C_3 
REMARK    3  A    between atoms: C_14  and  S_5 
REMARK    4  A    between atoms: S_20  and  C_10 
REMARK    5  A    between atoms: C_13  and  C_12 
ROOT
ATOM      1  N   UNL d   1      -0.229  -0.705   0.077  0.00  0.00    -0.227 N 
ATOM      2  C   UNL d   1       2.150  -0.891   0.029  0.00  0.00     0.137 A 
ATOM      3  C   UNL d   1       0.940  -1.507   0.053  0.00  0.00     0.127 A 
ATOM      4  C   UNL d   1      -0.162   0.681   0.076  0.00  0.00     0.131 A 
ATOM      5  N   UNL d   1       1.025   1.337   0.104  0.00  0.00    -0.334 N 
ATOM      6  HN  UNL d   1       1.067   2.355   0.137  1.00  0.00     0.168 HD
ATOM      7  N   UNL d   1      -1.518  -1.143   0.046  0.00  0.00    -0.295 N 
ATOM      8  HN  UNL d   1      -1.851  -2.107   0.038  1.00  0.00     0.187 HD
ATOM      9  C   UNL d   1       2.109   0.616   0.089  0.00  0.00     0.096 A 
ATOM     10  C   UNL d   1      -1.458   1.136   0.041  0.00  0.00     0.077 A 
ATOM     11  C   UNL d   1      -2.244  -0.025   0.030  0.00  0.00     0.034 A 
ENDROOT
BRANCH   2  12
ATOM     12  S   UNL d   1       3.571  -1.867  -0.108  0.00  0.00     0.212 S 
ATOM     13  O   UNL d   1       3.251  -3.127  -0.772  0.00  0.00    -0.217 OA
ATOM     14  O   UNL d   1       4.707  -1.125  -0.611  0.00  0.00    -0.217 OA
BRANCH  12  15
ATOM     15  C   UNL d   1       3.957  -2.306   1.590  0.00  0.00     0.064 A 
ATOM     16  C   UNL d   1       3.314  -3.394   2.195  0.00  0.00     0.025 A 
ATOM     17  C   UNL d   1       3.653  -3.766   3.499  0.00  0.00     0.025 A 
ATOM     18  C   UNL d   1       4.645  -3.065   4.184  0.00  0.00     0.034 A 
ATOM     19  C   UNL d   1       5.312  -2.004   3.570  0.00  0.00     0.025 A 
ATOM     20 CL   UNL d   1       5.057  -3.517   5.792  0.00  0.00    -0.084 Cl
ATOM     21  C   UNL d   1       4.974  -1.624   2.267  0.00  0.00     0.025 A 
ENDBRANCH  12  15
ENDBRANCH   2  12
BRANCH   3  22
ATOM     22  N   UNL d   1       0.692  -2.886   0.024  0.00  0.00    -0.286 NA
ATOM     23  H   UNL d   1       1.346  -3.406  -0.575  0.00  0.00     0.125 HD
ATOM     24  H   UNL d   1      -0.285  -3.078  -0.228  0.00  0.00     0.125 HD
ENDBRANCH   3  22
BRANCH   9  25
ATOM     25  S   UNL d   1       3.610   1.523   0.197  0.00  0.00    -0.115 SA
ATOM     26  C   UNL d   1       3.007   3.235   0.151  0.00  0.00     0.097 C 
ENDBRANCH   9  25
BRANCH  11  27
ATOM     27  C   UNL d   1      -3.764  -0.003  -0.009  0.00  0.00     0.037 A 
ATOM     28  C   UNL d   1      -4.532  -1.097   0.705  0.00  0.00     0.011 A 
ATOM     29  C   UNL d   1      -4.480  -1.090  -0.784  0.00  0.00     0.011 A 
ENDBRANCH  11  27
TORSDOF 5
