REMARK  1 active torsions:
REMARK  status: ('A' for Active; 'I' for Inactive)
REMARK    1  A    between atoms: C_11  and  C_5 
ROOT
ATOM      1  C   UNL d   1      -0.290   0.685   0.019  0.00  0.00     0.688 A 
ATOM      2  N   UNL d   1      -1.548   1.076   0.015  0.00  0.00    -0.189 N 
ATOM      3  HN  UNL d   1      -1.888   2.038   0.004  1.00  0.00     0.184 HD
ATOM      4  N   UNL d   1      -0.223  -0.705   0.036  0.00  0.00    -0.166 N 
ATOM      5  C   UNL d   1      -2.314  -0.070   0.029  0.00  0.00     0.076 A 
ATOM      6  C   UNL d   1      -1.505  -1.186   0.049  0.00  0.00     0.145 A 
ATOM      7  N   UNL d   1       0.849   1.439   0.002  0.00  0.00    -0.201 N 
ATOM      8  HN  UNL d   1       0.823   2.459  -0.008  1.00  0.00     0.183 HD
ATOM      9  C   UNL d   1       0.981  -1.394   0.033  0.00  0.00     0.116 A 
ATOM     10  C   UNL d   1       2.128  -0.702   0.012  0.00  0.00     0.036 A 
ATOM     11  C   UNL d   1       1.967   0.780  -0.002  0.00  0.00     0.107 A 
ENDROOT
BRANCH   5  12
ATOM     12  C   UNL d   1      -3.771  -0.054   0.009  0.00  0.00    -0.007 A 
ATOM     13  C   UNL d   1      -4.446   1.172  -0.071  0.00  0.00     0.014 A 
ATOM     14  C   UNL d   1      -5.843   1.222  -0.110  0.00  0.00     0.001 A 
ATOM     15  C   UNL d   1      -6.583   0.043  -0.066  0.00  0.00     0.000 A 
ATOM     16  C   UNL d   1      -5.928  -1.183   0.019  0.00  0.00     0.001 A 
ATOM     17  C   UNL d   1      -4.531  -1.232   0.058  0.00  0.00     0.014 A 
ENDBRANCH   5  12
TORSDOF 1
