REMARK  6 active torsions:
REMARK  status: ('A' for Active; 'I' for Inactive)
REMARK    1  A    between atoms: O_10  and  C_1 
REMARK    2  A    between atoms: C_8  and  N_2 
REMARK    3  A    between atoms: C_7  and  C_3 
REMARK    4  A    between atoms: S_11  and  C_7 
REMARK    5  A    between atoms: C_15  and  S_11 
REMARK    6  A    between atoms: C_16  and  C_15 
ROOT
ATOM      1  C   UNL d   1      -0.366  -1.183  -0.021  0.00  0.00     0.176 C 
ATOM      2  N   UNL d   1       0.906  -0.628   0.107  0.00  0.00    -0.233 N 
ATOM      3  C   UNL d   1      -1.276  -0.124   0.007  0.00  0.00     0.068 C 
ATOM      4  N   UNL d   1       0.840   0.686   0.394  0.00  0.00    -0.295 N 
ATOM      5  HN  UNL d   1       1.605   1.295   0.683  1.00  0.00     0.187 HD
ATOM      6  C   UNL d   1      -0.441   1.022   0.217  0.00  0.00     0.039 C 
ATOM      7  C   UNL d   1      -0.781   2.469   0.299  0.00  0.00     0.071 C 
ENDROOT
BRANCH   2   8
ATOM      8  C   UNL d   1       2.174  -1.264  -0.013  0.00  0.00     0.059 A 
ATOM      9  C   UNL d   1       2.344  -2.422  -0.783  0.00  0.00     0.031 A 
ATOM     10  C   UNL d   1       3.603  -3.026  -0.869  0.00  0.00     0.002 A 
ATOM     11  C   UNL d   1       4.691  -2.475  -0.193  0.00  0.00     0.000 A 
ATOM     12  C   UNL d   1       4.533  -1.310   0.554  0.00  0.00     0.002 A 
ATOM     13  C   UNL d   1       3.282  -0.696   0.635  0.00  0.00     0.031 A 
ENDBRANCH   2   8
BRANCH   1  14
ATOM     14  O   UNL d   1      -0.609  -2.490  -0.120  0.00  0.00    -0.344 OA
ATOM     15  H   UNL d   1       0.133  -2.990   0.271  0.00  0.00     0.219 HD
ENDBRANCH   1  14
BRANCH   3  16
ATOM     16  C   UNL d   1      -2.721  -0.242  -0.131  0.00  0.00     0.084 C 
ATOM     17  S   UNL d   1      -3.544   0.888  -1.051  0.00  0.00    -0.071 SA
BRANCH  16  18
ATOM     18  S   UNL d   1      -3.553  -1.625   0.564  0.00  0.00    -0.117 SA
BRANCH  18  19
ATOM     19  C   UNL d   1      -3.043  -1.534   2.305  0.00  0.00     0.080 C 
BRANCH  19  20
ATOM     20  C   UNL d   1      -3.656  -2.711   3.067  0.00  0.00     0.006 C 
ATOM     21  C   UNL d   1      -3.253  -2.703   4.535  0.00  0.00     0.006 C 
ENDBRANCH  19  20
ENDBRANCH  18  19
ENDBRANCH  16  18
ENDBRANCH   3  16
TORSDOF 6
