REMARK  3 active torsions:
REMARK  status: ('A' for Active; 'I' for Inactive)
REMARK    1  A    between atoms: C_4  and  N_1 
REMARK    2  A    between atoms: C_5  and  C_2 
REMARK       I    between atoms: N_12  and  C_5 
REMARK    3  A    between atoms: N_14  and  N_12 
ROOT
ATOM      1  C   UNL d   1      -1.383  -3.413  -1.335  0.00  0.00     0.055 A 
ATOM      2  C   UNL d   1      -0.215  -3.580  -0.570  0.00  0.00     0.052 A 
ATOM      3  C   UNL d   1       0.125  -1.174  -0.508  0.00  0.00     0.104 A 
ATOM      4  C   UNL d   1       0.534  -2.465  -0.158  0.00  0.00     0.060 A 
ATOM      5  C   UNL d   1      -1.762  -2.099  -1.689  0.00  0.00     0.021 A 
ATOM      6  C   UNL d   1      -1.020  -0.984  -1.283  0.00  0.00     0.037 A 
ATOM      7 CL   UNL d   1       0.409  -5.110  -0.057  0.00  0.00    -0.083 Cl
ENDROOT
BRANCH   1   8
ATOM      8  C   UNL d   1      -2.313  -4.497  -1.800  0.00  0.00     0.267 C 
ATOM      9  O   UNL d   1      -3.352  -4.200  -2.389  0.00  0.00    -0.266 OA
ATOM     10  N   UNL d   1      -1.986  -5.819  -1.542  0.00  0.00    -0.290 N 
ATOM     11  H   UNL d   1      -1.093  -6.075  -1.123  0.00  0.00     0.183 HD
BRANCH  10  12
ATOM     12  N   UNL d   1      -2.845  -6.846  -1.985  0.00  0.00    -0.247 NA
ATOM     13  H   UNL d   1      -3.546  -6.402  -2.595  0.00  0.00     0.143 HD
ATOM     14  H   UNL d   1      -3.388  -7.172  -1.181  0.00  0.00     0.143 HD
ENDBRANCH  10  12
ENDBRANCH   1   8
BRANCH   3  15
ATOM     15  N   UNL d   1       0.899  -0.014  -0.048  0.00  0.00    -0.116 N 
ATOM     16  O   UNL d   1       1.897  -0.233   0.652  0.00  0.00    -0.532 OA
ATOM     17  O   UNL d   1       0.503   1.110  -0.383  0.00  0.00    -0.532 OA
ENDBRANCH   3  15
TORSDOF 3
