REMARK  2 active torsions:
REMARK  status: ('A' for Active; 'I' for Inactive)
REMARK    1  A    between atoms: C_7  and  C_1 
REMARK       I    between atoms: N_9  and  C_7 
REMARK    2  A    between atoms: N_10  and  N_9 
ROOT
ATOM      1  C   UNL d   1      -1.732  -0.473  -0.042  0.00  0.00     0.119 A 
ATOM      2  N   UNL d   1      -1.264   0.791  -0.015  0.00  0.00    -0.294 N 
ATOM      3  HN  UNL d   1      -1.800   1.659  -0.013  1.00  0.00     0.187 HD
ATOM      4  N   UNL d   1       0.078   0.646   0.007  0.00  0.00    -0.301 N 
ATOM      5  C   UNL d   1      -0.667  -1.407  -0.022  0.00  0.00     0.063 A 
ATOM      6  C   UNL d   1       0.490  -0.661   0.001  0.00  0.00     0.026 A 
ATOM      7  C   UNL d   1       0.922   1.820   0.023  0.00  0.00     0.177 C 
ATOM      8  C   UNL d   1       1.911  -1.081   0.009  0.00  0.00     0.070 C 
ENDROOT
BRANCH   1   9
ATOM      9  C   UNL d   1      -3.166  -0.786  -0.095  0.00  0.00     0.283 C 
ATOM     10  O   UNL d   1      -3.608  -1.935  -0.150  0.00  0.00    -0.265 OA
ATOM     11  N   UNL d   1      -3.985   0.338  -0.085  0.00  0.00    -0.288 N 
ATOM     12  H   UNL d   1      -3.529   1.242   0.049  0.00  0.00     0.183 HD
BRANCH  11  13
ATOM     13  N   UNL d   1      -5.394   0.211  -0.057  0.00  0.00    -0.247 NA
ATOM     14  H   UNL d   1      -5.599  -0.786   0.099  0.00  0.00     0.143 HD
ATOM     15  H   UNL d   1      -5.741   0.392  -1.002  0.00  0.00     0.143 HD
ENDBRANCH  11  13
ENDBRANCH   1   9
TORSDOF 2
