REMARK  10 active torsions:
REMARK  status: ('A' for Active; 'I' for Inactive)
REMARK       I    between atoms: N_2  and  C_1 
REMARK    1  A    between atoms: C_9  and  C_1 
REMARK    2  A    between atoms: N_3  and  C_12 
REMARK    3  A    between atoms: O_25  and  C_4 
REMARK    4  A    between atoms: C_5  and  C_8 
REMARK    5  A    between atoms: O_27  and  C_6 
REMARK    6  A    between atoms: O_26  and  C_7 
REMARK    7  A    between atoms: C_8  and  C_9 
REMARK    8  A    between atoms: C_18  and  C_8 
REMARK    9  A    between atoms: C_13  and  C_18 
REMARK   10  A    between atoms: O_28  and  C_13 
ROOT
ATOM      1  C   UNL d   1      -1.332   1.064  -0.233  0.00  0.00     0.037 C 
ENDROOT
BRANCH   1   2
ATOM      2  C   UNL d   1      -1.558   1.246   1.273  0.00  0.00    -0.048 C 
ATOM      3  C   UNL d   1      -0.482   1.448   2.143  0.00  0.00     0.047 C 
ATOM      4  C   UNL d   1      -0.605   1.406   3.536  0.00  0.00     0.104 C 
ATOM      5  C   UNL d   1      -1.881   1.311   4.114  0.00  0.00     0.135 C 
ATOM      6  C   UNL d   1      -2.993   1.163   3.254  0.00  0.00     0.104 C 
ATOM      7  C   UNL d   1      -2.825   1.123   1.853  0.00  0.00     0.047 C 
BRANCH   4   8
ATOM      8  O   UNL d   1       0.498   1.425   4.352  0.00  0.00    -0.353 OA
ATOM      9  C   UNL d   1       1.782   1.436   3.749  0.00  0.00     0.210 C 
ENDBRANCH   4   8
BRANCH   5  10
ATOM     10  O   UNL d   1      -2.145   1.367   5.460  0.00  0.00    -0.351 OA
ATOM     11  C   UNL d   1      -1.109   1.749   6.356  0.00  0.00     0.210 C 
ENDBRANCH   5  10
BRANCH   6  12
ATOM     12  O   UNL d   1      -4.315   1.086   3.630  0.00  0.00    -0.353 OA
ATOM     13  C   UNL d   1      -4.589   0.388   4.841  0.00  0.00     0.210 C 
ENDBRANCH   6  12
ENDBRANCH   1   2
BRANCH   1  14
ATOM     14  C   UNL d   1       0.164   1.046  -0.683  0.00  0.00     0.113 C 
BRANCH  14  15
ATOM     15  C   UNL d   1       0.962  -0.129  -0.110  0.00  0.00     0.220 C 
ATOM     16  N   UNL d   1       2.299   0.074   0.253  0.00  0.00    -0.352 N 
ATOM     17  C   UNL d   1       3.045  -1.058   0.803  0.00  0.00     0.127 C 
ATOM     18  C   UNL d   1       3.020   1.347   0.325  0.00  0.00     0.127 C 
ATOM     19  C   UNL d   1       4.345  -1.260   0.038  0.00  0.00     0.045 C 
ATOM     20  C   UNL d   1       5.182   0.022  -0.096  0.00  0.00     0.091 C 
ATOM     21  C   UNL d   1       4.359   1.286  -0.392  0.00  0.00     0.045 C 
ATOM     22  O   UNL d   1       0.427  -1.231  -0.019  0.00  0.00    -0.273 OA
BRANCH  20  23
ATOM     23  N   UNL d   1       6.137   0.175   1.003  0.00  0.00    -0.362 N 
ATOM     24  C   UNL d   1       5.870   0.489   2.309  0.00  0.00     0.091 A 
ATOM     25  C   UNL d   1       7.054   0.463   3.011  0.00  0.00     0.019 A 
ATOM     26  C   UNL d   1       8.081   0.126   2.097  0.00  0.00     0.019 A 
ATOM     27  C   UNL d   1       7.489  -0.040   0.867  0.00  0.00     0.091 A 
ENDBRANCH  20  23
ENDBRANCH  14  15
ENDBRANCH   1  14
BRANCH   1  28
ATOM     28  C   UNL d   1      -2.130   2.068  -1.084  0.00  0.00     0.119 C 
BRANCH  28  29
ATOM     29  C   UNL d   1      -1.797   3.512  -0.781  0.00  0.00     0.140 C 
ATOM     30  O   UNL d   1      -0.694   4.006  -0.956  0.00  0.00    -0.650 OA
BRANCH  29  31
ATOM     31  O   UNL d   1      -2.842   4.237  -0.322  0.00  0.00    -0.776 OA
ATOM     32  H   UNL d   1      -3.669   3.731  -0.195  0.00  0.00     0.167 HD
ENDBRANCH  29  31
ENDBRANCH  28  29
ENDBRANCH   1  28
TORSDOF 10
