REMARK  4 active torsions:
REMARK  status: ('A' for Active; 'I' for Inactive)
REMARK    1  A    between atoms: S_14  and  C_2 
REMARK    2  A    between atoms: C_18  and  C_7 
REMARK    3  A    between atoms: C_8  and  C_15 
REMARK    4  A    between atoms: C_15  and  S_14 
ROOT
ATOM      1  N   UNL d   1      -3.854  -0.633  -1.214  0.00  0.00    -0.197 NA
ATOM      2  C   UNL d   1      -2.892  -1.254  -1.058  0.00  0.00     0.066 C 
ATOM      3  C   UNL d   1      -1.623  -1.997  -0.922  0.00  0.00     0.201 C 
ENDROOT
BRANCH   3   4
ATOM      4  C   UNL d   1      -0.497  -1.027  -0.798  0.00  0.00     0.113 C 
ATOM      5  N   UNL d   1       0.296  -0.900   0.249  0.00  0.00    -0.286 N 
ATOM      6  N   UNL d   1       0.999   0.271   0.109  0.00  0.00    -0.278 N 
ATOM      7  HN  UNL d   1       0.372  -1.557   1.026  1.00  0.00     0.188 HD
ATOM      8  C   UNL d   1       0.650   0.822  -1.032  0.00  0.00     0.162 C 
ATOM      9  HN  UNL d   1       1.675   0.647   0.774  1.00  0.00     0.189 HD
ATOM     10  N   UNL d   1      -0.177  -0.036  -1.708  0.00  0.00    -0.319 N 
ATOM     11  C   UNL d   1      -0.653   0.068  -3.063  0.00  0.00     0.159 C 
BRANCH   8  12
ATOM     12  S   UNL d   1       1.076   2.418  -1.573  0.00  0.00    -0.088 SA
BRANCH  12  13
ATOM     13  C   UNL d   1       2.059   2.978  -0.137  0.00  0.00     0.122 C 
BRANCH  13  14
ATOM     14  C   UNL d   1       2.553   4.428  -0.181  0.00  0.00    -0.035 C 
ATOM     15  C   UNL d   1       1.626   5.507  -0.071  0.00  0.00    -0.048 C 
ATOM     16  C   UNL d   1       2.072   6.859  -0.160  0.00  0.00    -0.049 C 
ATOM     17  C   UNL d   1       0.151   5.250   0.166  0.00  0.00     0.049 C 
ATOM     18  C   UNL d   1       1.082   8.011  -0.173  0.00  0.00     0.049 C 
ATOM     19  C   UNL d   1       3.460   7.161  -0.194  0.00  0.00    -0.049 C 
ATOM     20  C   UNL d   1       4.396   6.102  -0.183  0.00  0.00    -0.049 C 
ATOM     21  C   UNL d   1       3.872   8.620  -0.196  0.00  0.00     0.049 C 
ATOM     22  C   UNL d   1       3.946   4.738  -0.217  0.00  0.00    -0.048 C 
ATOM     23  C   UNL d   1       5.891   6.358  -0.118  0.00  0.00     0.049 C 
ATOM     24  C   UNL d   1       5.022   3.668  -0.253  0.00  0.00     0.049 C 
ENDBRANCH  13  14
ENDBRANCH  12  13
ENDBRANCH   8  12
ENDBRANCH   3   4
TORSDOF 4
