REMARK  8 active torsions:
REMARK  status: ('A' for Active; 'I' for Inactive)
REMARK    1  A    between atoms: S_2  and  C_1 
REMARK    2  A    between atoms: N_8  and  S_2 
REMARK    3  A    between atoms: C_9  and  C_3 
REMARK    4  A    between atoms: C_12  and  C_4 
REMARK    5  A    between atoms: C_7  and  C_13 
REMARK    6  A    between atoms: C_18  and  N_8 
REMARK    7  A    between atoms: O_23  and  C_9 
REMARK    8  A    between atoms: C_30  and  O_23 
ROOT
ATOM      1  C   UNL d   1      -1.684  -0.719  -0.040  0.00  0.00     0.128 A 
ATOM      2  C   UNL d   1      -0.348  -1.261  -0.091  0.00  0.00     0.094 A 
ATOM      3  C   UNL d   1      -1.561   0.664   0.057  0.00  0.00     0.110 A 
ATOM      4  O   UNL d   1      -0.223   0.971   0.112  0.00  0.00    -0.312 OA
ATOM      5  C   UNL d   1       0.497  -0.176   0.033  0.00  0.00     0.068 A 
ATOM      6  C   UNL d   1       1.966   0.003   0.044  0.00  0.00     0.078 C 
ENDROOT
BRANCH   1   7
ATOM      7  S   UNL d   1      -3.109  -1.690  -0.062  0.00  0.00     0.249 S 
ATOM      8  O   UNL d   1      -2.739  -2.903   0.635  0.00  0.00    -0.205 OA
ATOM      9  O   UNL d   1      -4.181  -0.879   0.468  0.00  0.00    -0.205 OA
BRANCH   7  10
ATOM     10  N   UNL d   1      -3.517  -2.142  -1.656  0.00  0.00    -0.181 NA
ATOM     11  H   UNL d   1      -4.287  -2.810  -1.586  0.00  0.00     0.146 HD
BRANCH  10  12
ATOM     12  C   UNL d   1      -3.772  -1.088  -2.588  0.00  0.00     0.022 A 
ATOM     13  C   UNL d   1      -2.702  -0.545  -3.298  0.00  0.00     0.025 A 
ATOM     14  C   UNL d   1      -2.893   0.576  -4.110  0.00  0.00     0.018 A 
ATOM     15  C   UNL d   1      -4.159   1.174  -4.217  0.00  0.00     0.048 A 
ATOM     16  C   UNL d   1      -5.236   0.602  -3.519  0.00  0.00     0.018 A 
ATOM     17  C   UNL d   1      -5.045  -0.528  -2.712  0.00  0.00     0.025 A 
BRANCH  15  18
ATOM     18  C   UNL d   1      -4.357   2.439  -5.022  0.00  0.00     0.417 C 
ATOM     19  F   UNL d   1      -3.280   2.772  -5.787  0.00  0.00    -0.166 F 
ATOM     20  F   UNL d   1      -5.411   2.353  -5.880  0.00  0.00    -0.166 F 
ATOM     21  F   UNL d   1      -4.606   3.522  -4.234  0.00  0.00    -0.166 F 
ENDBRANCH  15  18
ENDBRANCH  10  12
ENDBRANCH   7  10
ENDBRANCH   1   7
BRANCH   2  22
ATOM     22  C   UNL d   1       0.124  -2.625  -0.254  0.00  0.00     0.297 C 
ATOM     23  O   UNL d   1       1.172  -3.030   0.228  0.00  0.00    -0.259 OA
BRANCH  22  24
ATOM     24  O   UNL d   1      -0.657  -3.341  -1.109  0.00  0.00    -0.318 OA
BRANCH  24  25
ATOM     25  C   UNL d   1      -0.169  -4.643  -1.461  0.00  0.00     0.174 C 
ATOM     26  C   UNL d   1       0.562  -4.537  -2.786  0.00  0.00     0.034 C 
ENDBRANCH  24  25
ENDBRANCH  22  24
ENDBRANCH   2  22
BRANCH   3  27
ATOM     27  C   UNL d   1      -2.409   1.867   0.069  0.00  0.00    -0.001 A 
ATOM     28  C   UNL d   1      -1.922   3.092   0.555  0.00  0.00     0.015 A 
ATOM     29  C   UNL d   1      -2.680   4.270   0.472  0.00  0.00     0.007 A 
ATOM     30  C   UNL d   1      -3.950   4.258  -0.109  0.00  0.00    -0.062 A 
ATOM     31  C   UNL d   1      -4.459   3.047  -0.564  0.00  0.00     0.007 A 
ATOM     32  C   UNL d   1      -4.761   5.512  -0.229  0.00  0.00     0.048 C 
ATOM     33  C   UNL d   1      -3.693   1.881  -0.472  0.00  0.00     0.015 A 
ENDBRANCH   3  27
TORSDOF 8
