REMARK  5 active torsions:
REMARK  status: ('A' for Active; 'I' for Inactive)
REMARK    1  A    between atoms: C_5  and  C_1 
REMARK    2  A    between atoms: C_7  and  C_2 
REMARK    3  A    between atoms: O_11  and  C_7 
REMARK       I    between atoms: C_9  and  N_10 
REMARK    4  A    between atoms: C_14  and  C_9 
REMARK    5  A    between atoms: N_10  and  O_11 
ROOT
ATOM      1  C   UNL d   1      -1.359  -0.706   0.013  0.00  0.00     0.087 A 
ATOM      2  C   UNL d   1      -0.061  -1.319   0.060  0.00  0.00     0.102 A 
ATOM      3  N   UNL d   1      -1.231   0.606  -0.255  0.00  0.00    -0.259 N 
ATOM      4  HN  UNL d   1      -1.991   1.270  -0.402  1.00  0.00     0.195 HD
ATOM      5  O   UNL d   1       0.109   0.881  -0.292  0.00  0.00    -0.241 OA
ATOM      6  C   UNL d   1       0.815  -0.259  -0.106  0.00  0.00     0.091 A 
ATOM      7  C   UNL d   1       2.282  -0.077  -0.100  0.00  0.00     0.080 C 
ENDROOT
BRANCH   2   8
ATOM      8  C   UNL d   1       0.316  -2.704   0.238  0.00  0.00     0.320 C 
ATOM      9  O   UNL d   1      -0.328  -3.527   0.885  0.00  0.00    -0.257 OA
BRANCH   8  10
ATOM     10  O   UNL d   1       1.472  -3.007  -0.432  0.00  0.00    -0.192 OA
BRANCH  10  11
ATOM     11  N   UNL d   1       1.885  -4.356  -0.314  0.00  0.00    -0.221 N 
ATOM     12  C   UNL d   1       2.850  -4.719  -1.227  0.00  0.00     0.275 C 
ATOM     13  O   UNL d   1       3.336  -3.947  -2.052  0.00  0.00    -0.265 OA
ATOM     14  H   UNL d   1       1.268  -4.989   0.187  0.00  0.00     0.198 HD
BRANCH  12  15
ATOM     15  C   UNL d   1       3.324  -6.132  -1.183  0.00  0.00     0.034 A 
ATOM     16  C   UNL d   1       3.931  -6.668  -2.332  0.00  0.00     0.020 A 
ATOM     17  C   UNL d   1       4.458  -7.963  -2.316  0.00  0.00     0.043 A 
ATOM     18  C   UNL d   1       4.388  -8.715  -1.149  0.00  0.00     0.116 A 
ATOM     19  C   UNL d   1       3.794  -8.198  -0.001  0.00  0.00     0.043 A 
ATOM     20  F   UNL d   1       4.910  -9.947  -1.123  0.00  0.00    -0.206 F 
ATOM     21  C   UNL d   1       3.260  -6.905  -0.014  0.00  0.00     0.020 A 
ENDBRANCH  12  15
ENDBRANCH  10  11
ENDBRANCH   8  10
ENDBRANCH   2   8
BRANCH   1  22
ATOM     22  C   UNL d   1      -2.710  -1.266   0.144  0.00  0.00     0.037 A 
ATOM     23  C   UNL d   1      -3.659  -0.657   1.001  0.00  0.00     0.048 A 
ATOM     24 CL   UNL d   1      -3.275   0.653   2.073  0.00  0.00    -0.083 Cl
ATOM     25  C   UNL d   1      -4.990  -1.100   1.045  0.00  0.00     0.025 A 
ATOM     26  C   UNL d   1      -5.396  -2.182   0.275  0.00  0.00     0.003 A 
ATOM     27  C   UNL d   1      -4.475  -2.814  -0.553  0.00  0.00     0.025 A 
ATOM     28  C   UNL d   1      -3.152  -2.350  -0.639  0.00  0.00     0.048 A 
ATOM     29 CL   UNL d   1      -2.157  -3.137  -1.822  0.00  0.00    -0.083 Cl
ENDBRANCH   1  22
TORSDOF 5
