REMARK  5 active torsions:
REMARK  status: ('A' for Active; 'I' for Inactive)
REMARK    1  A    between atoms: C_2  and  N_1 
REMARK    2  A    between atoms: N_8  and  C_3 
REMARK       I    between atoms: C_5  and  N_8 
REMARK       I    between atoms: N_14  and  C_5 
REMARK    3  A    between atoms: O_18  and  C_12 
REMARK    4  A    between atoms: O_19  and  C_13 
REMARK    5  A    between atoms: C_16  and  N_14 
ROOT
ATOM      1  C   UNL d   1       1.812  -1.871  -0.420  0.00  0.00     0.069 A 
ATOM      2  C   UNL d   1       1.964  -2.741  -1.509  0.00  0.00     0.066 A 
ATOM      3  C   UNL d   1       2.756  -1.865   0.614  0.00  0.00     0.072 A 
ATOM      4  C   UNL d   1       3.086  -3.585  -1.561  0.00  0.00     0.071 A 
ATOM      5  C   UNL d   1       3.894  -2.666   0.525  0.00  0.00     0.103 A 
ATOM      6  C   UNL d   1       4.064  -3.549  -0.555  0.00  0.00     0.103 A 
ENDROOT
BRANCH   2   7
ATOM      7  N   UNL d   1       1.152  -2.694  -2.659  0.00  0.00    -0.306 N 
ATOM      8  C   UNL d   1      -0.101  -3.225  -2.811  0.00  0.00     0.325 C 
ATOM      9  N   UNL d   1      -0.386  -4.379  -2.135  0.00  0.00    -0.309 N 
ATOM     10  O   UNL d   1      -0.842  -2.636  -3.596  0.00  0.00    -0.247 OA
ATOM     11  H   UNL d   1       0.287  -4.674  -1.443  0.00  0.00     0.170 HD
ATOM     12  H   UNL d   1       1.068  -1.770  -3.066  0.00  0.00     0.170 HD
BRANCH   9  13
ATOM     13  C   UNL d   1      -1.549  -5.174  -2.290  0.00  0.00     0.036 A 
ATOM     14  C   UNL d   1      -2.539  -4.924  -3.252  0.00  0.00     0.031 A 
ATOM     15  C   UNL d   1      -3.652  -5.762  -3.381  0.00  0.00     0.026 A 
ATOM     16  C   UNL d   1      -3.786  -6.864  -2.547  0.00  0.00     0.034 A 
ATOM     17  C   UNL d   1      -2.816  -7.131  -1.583  0.00  0.00     0.026 A 
ATOM     18 CL   UNL d   1      -5.147  -7.904  -2.713  0.00  0.00    -0.084 Cl
ATOM     19  C   UNL d   1      -1.702  -6.288  -1.457  0.00  0.00     0.031 A 
ENDBRANCH   9  13
ENDBRANCH   2   7
BRANCH   1  20
ATOM     20  N   UNL d   1       0.740  -0.949  -0.319  0.00  0.00    -0.318 N 
ATOM     21  C   UNL d   1       0.535   0.159  -1.134  0.00  0.00     0.013 A 
ATOM     22  C   UNL d   1      -0.558   0.848  -0.643  0.00  0.00     0.027 A 
ATOM     23  C   UNL d   1       1.404   0.564  -2.275  0.00  0.00     0.068 C 
ATOM     24  C   UNL d   1      -0.998   0.192   0.520  0.00  0.00     0.027 A 
ATOM     25  C   UNL d   1      -0.184  -0.906   0.720  0.00  0.00     0.013 A 
ATOM     26  C   UNL d   1      -0.284  -1.915   1.814  0.00  0.00     0.068 C 
ENDBRANCH   1  20
BRANCH   6  27
ATOM     27  O   UNL d   1       5.197  -4.317  -0.542  0.00  0.00    -0.353 OA
ATOM     28  C   UNL d   1       5.457  -5.142  -1.669  0.00  0.00     0.210 C 
ENDBRANCH   6  27
BRANCH   5  29
ATOM     29  O   UNL d   1       4.780  -2.535   1.565  0.00  0.00    -0.353 OA
ATOM     30  C   UNL d   1       6.096  -2.183   1.139  0.00  0.00     0.210 C 
ENDBRANCH   5  29
TORSDOF 5
