REMARK  6 active torsions:
REMARK  status: ('A' for Active; 'I' for Inactive)
REMARK    1  A    between atoms: C_17  and  C_3 
REMARK    2  A    between atoms: C_16  and  C_6 
REMARK    3  A    between atoms: C_10  and  O_14 
REMARK    4  A    between atoms: C_11  and  S_15 
REMARK    5  A    between atoms: O_14  and  C_16 
REMARK    6  A    between atoms: S_15  and  C_17 
ROOT
ATOM      1  N   UNL d   1       1.371   0.139   0.249  0.00  0.00    -0.324 N 
ATOM      2  HN  UNL d   1       2.378   0.227   0.383  1.00  0.00     0.169 HD
ATOM      3  C   UNL d   1       0.433   1.132   0.072  0.00  0.00     0.113 A 
ATOM      4  N   UNL d   1      -0.829   0.690  -0.032  0.00  0.00    -0.246 N 
ATOM      5  HN  UNL d   1      -1.683   1.237  -0.143  1.00  0.00     0.196 HD
ATOM      6  C   UNL d   1       0.638  -0.950   0.202  0.00  0.00     0.172 A 
ATOM      7  O   UNL d   1      -0.695  -0.697   0.047  0.00  0.00    -0.221 OA
ENDROOT
BRANCH   6   8
ATOM      8  C   UNL d   1       1.056  -2.369   0.130  0.00  0.00     0.262 C 
BRANCH   8   9
ATOM      9  O   UNL d   1       0.546  -3.045   1.280  0.00  0.00    -0.342 OA
BRANCH   9  10
ATOM     10  C   UNL d   1       0.812  -4.391   1.345  0.00  0.00     0.091 A 
ATOM     11  C   UNL d   1       0.964  -4.968   2.617  0.00  0.00     0.069 A 
ATOM     12  C   UNL d   1       1.192  -6.339   2.758  0.00  0.00     0.050 A 
ATOM     13 CL   UNL d   1       0.894  -4.007   4.053  0.00  0.00    -0.081 Cl
ATOM     14  C   UNL d   1       1.252  -7.144   1.625  0.00  0.00     0.035 A 
ATOM     15  C   UNL d   1       1.090  -6.590   0.358  0.00  0.00     0.026 A 
ATOM     16 CL   UNL d   1       1.519  -8.835   1.784  0.00  0.00    -0.084 Cl
ATOM     17  C   UNL d   1       0.866  -5.218   0.218  0.00  0.00     0.040 A 
ENDBRANCH   9  10
ENDBRANCH   8   9
ENDBRANCH   6   8
BRANCH   3  18
ATOM     18  C   UNL d   1       0.772   2.581  -0.005  0.00  0.00     0.159 C 
BRANCH  18  19
ATOM     19  S   UNL d   1       2.337   2.864  -0.906  0.00  0.00    -0.105 SA
BRANCH  19  20
ATOM     20  C   UNL d   1       2.463   4.632  -0.764  0.00  0.00     0.069 A 
ATOM     21  N   UNL d   1       1.447   5.306  -0.182  0.00  0.00    -0.361 N 
ATOM     22  C   UNL d   1       1.563   6.650  -0.104  0.00  0.00     0.089 A 
ATOM     23  HN  UNL d   1       0.628   4.821   0.183  1.00  0.00     0.165 HD
ATOM     24  C   UNL d   1       2.650   7.360  -0.583  0.00  0.00     0.017 A 
ATOM     25  C   UNL d   1       3.686   6.650  -1.176  0.00  0.00     0.004 A 
ATOM     26  C   UNL d   1       3.594   5.264  -1.268  0.00  0.00     0.037 A 
ENDBRANCH  19  20
ENDBRANCH  18  19
ENDBRANCH   3  18
TORSDOF 6
