REMARK  7 active torsions:
REMARK  status: ('A' for Active; 'I' for Inactive)
REMARK    1  A    between atoms: N_2  and  C_1 
REMARK    2  A    between atoms: N_7  and  C_1 
REMARK    3  A    between atoms: C_9  and  N_2 
REMARK    4  A    between atoms: N_3  and  N_7 
REMARK    5  A    between atoms: O_17  and  C_5 
REMARK    6  A    between atoms: O_19  and  C_8 
REMARK    7  A    between atoms: C_14  and  C_13 
ROOT
ATOM      1  N   UNL d   1       3.225   1.165  -0.640  0.00  0.00    -0.309 N 
ATOM      2  HN  UNL d   1       2.769   2.046  -0.879  1.00  0.00     0.186 HD
ATOM      3  C   UNL d   1       4.454   0.901  -0.960  0.00  0.00     0.118 C 
ENDROOT
BRANCH   1   4
ATOM      4  N   UNL d   1       2.594   0.164   0.042  0.00  0.00    -0.276 N 
ATOM      5  H   UNL d   1       3.083  -0.701   0.256  0.00  0.00     0.189 HD
BRANCH   4   6
ATOM      6  C   UNL d   1       1.230   0.176   0.254  0.00  0.00     0.191 C 
ATOM      7  S   UNL d   1       0.536  -1.186   0.929  0.00  0.00    -0.039 SA
BRANCH   6   8
ATOM      8  N   UNL d   1       0.630   1.362  -0.095  0.00  0.00    -0.332 N 
ATOM      9  H   UNL d   1       1.294   2.130  -0.108  0.00  0.00     0.168 HD
BRANCH   8  10
ATOM     10  C   UNL d   1      -0.723   1.661  -0.343  0.00  0.00     0.037 A 
ATOM     11  C   UNL d   1      -1.619   0.722  -0.859  0.00  0.00     0.071 A 
ATOM     12  C   UNL d   1      -2.927   1.097  -1.145  0.00  0.00     0.118 A 
ATOM     13  F   UNL d   1      -3.768   0.197  -1.673  0.00  0.00    -0.206 F 
ATOM     14  C   UNL d   1      -3.369   2.393  -0.919  0.00  0.00     0.042 A 
ATOM     15  C   UNL d   1      -2.482   3.339  -0.414  0.00  0.00     0.005 A 
ATOM     16  C   UNL d   1      -1.157   2.978  -0.147  0.00  0.00     0.029 A 
ENDBRANCH   8  10
ENDBRANCH   6   8
ENDBRANCH   4   6
ENDBRANCH   1   4
BRANCH   3  17
ATOM     17  C   UNL d   1       5.283   1.844  -1.738  0.00  0.00    -0.017 A 
ATOM     18  C   UNL d   1       6.616   1.506  -2.013  0.00  0.00     0.052 A 
ATOM     19  C   UNL d   1       7.420   2.386  -2.742  0.00  0.00     0.102 A 
ATOM     20  C   UNL d   1       6.868   3.597  -3.190  0.00  0.00     0.099 A 
ATOM     21  C   UNL d   1       5.538   3.927  -2.929  0.00  0.00     0.040 A 
ATOM     22  C   UNL d   1       4.743   3.047  -2.199  0.00  0.00     0.016 A 
BRANCH  19  23
ATOM     23  O   UNL d   1       8.736   2.173  -3.062  0.00  0.00    -0.353 OA
ATOM     24  C   UNL d   1       9.330   0.950  -2.656  0.00  0.00     0.210 C 
ENDBRANCH  19  23
BRANCH  20  25
ATOM     25  O   UNL d   1       7.655   4.466  -3.899  0.00  0.00    -0.358 OA
ATOM     26  H   UNL d   1       7.146   5.266  -4.102  0.00  0.00     0.217 HD
ENDBRANCH  20  25
ENDBRANCH   3  17
TORSDOF 7
