REMARK  0 active torsions:
REMARK  status: ('A' for Active; 'I' for Inactive)
ROOT
ATOM      1  C   UNL d   1      -0.871  -0.364  -0.023  0.00  0.00     0.118 A 
ATOM      2  C   UNL d   1       0.571  -0.363  -0.017  0.00  0.00     0.020 A 
ATOM      3  C   UNL d   1      -1.747   0.688  -0.003  0.00  0.00     0.006 A 
ATOM      4  N   UNL d   1      -2.914  -1.269  -0.046  0.00  0.00    -0.271 N 
ATOM      5  HN  UNL d   1      -3.678  -1.945  -0.061  1.00  0.00     0.194 HD
ATOM      6  S   UNL d   1       0.405   2.483  -0.075  0.00  0.00    -0.124 SA
ATOM      7  O   UNL d   1      -1.550  -1.538  -0.049  0.00  0.00    -0.237 OA
ATOM      8  C   UNL d   1       1.233   0.883  -0.024  0.00  0.00     0.014 A 
ATOM      9  C   UNL d   1      -1.391   2.114   0.041  0.00  0.00     0.122 A 
ATOM     10  C   UNL d   1      -3.010   0.064  -0.018  0.00  0.00     0.125 A 
ATOM     11  C   UNL d   1       1.315  -1.550  -0.004  0.00  0.00     0.058 A 
ATOM     12  C   UNL d   1       2.637   0.911  -0.013  0.00  0.00     0.022 A 
ATOM     13  C   UNL d   1       2.704  -1.493   0.005  0.00  0.00     0.117 A 
ATOM     14  C   UNL d   1       3.371  -0.276   0.002  0.00  0.00     0.043 A 
ATOM     15  F   UNL d   1       3.410  -2.631   0.014  0.00  0.00    -0.206 F 
ENDROOT
TORSDOF 0
