REMARK  2 active torsions:
REMARK  status: ('A' for Active; 'I' for Inactive)
REMARK    1  A    between atoms: C_8  and  C_4 
REMARK    2  A    between atoms: C_11  and  C_12 
ROOT
ATOM      1  C   UNL d   1       1.122  -1.148  -0.801  0.00  0.00     0.305 A 
ATOM      2  N   UNL d   1       1.248   1.240   0.652  0.00  0.00    -0.335 N 
ATOM      3  HN  UNL d   1       1.349   2.084   1.216  1.00  0.00     0.168 HD
ATOM      4  C   UNL d   1       2.237   0.753  -0.023  0.00  0.00     0.162 A 
ATOM      5  O   UNL d   1       2.238  -0.385  -0.748  0.00  0.00    -0.256 OA
ATOM      6  C   UNL d   1      -0.074  -0.634  -0.132  0.00  0.00     0.105 A 
ATOM      7  C   UNL d   1       0.039   0.556   0.572  0.00  0.00     0.053 A 
ATOM      8  O   UNL d   1       1.122  -2.212  -1.410  0.00  0.00    -0.259 OA
ATOM      9  C   UNL d   1      -1.304  -1.282  -0.212  0.00  0.00     0.135 A 
ATOM     10  F   UNL d   1      -1.444  -2.436  -0.878  0.00  0.00    -0.205 F 
ATOM     11  C   UNL d   1      -1.091   1.104   1.187  0.00  0.00     0.031 A 
ATOM     12  C   UNL d   1      -2.329   0.467   1.090  0.00  0.00     0.005 A 
ATOM     13  C   UNL d   1      -2.433  -0.734   0.392  0.00  0.00     0.043 A 
ENDROOT
BRANCH   4  14
ATOM     14  C   UNL d   1       3.567   1.386  -0.079  0.00  0.00     0.015 A 
ATOM     15  C   UNL d   1       4.374   1.289  -1.215  0.00  0.00     0.016 A 
ATOM     16  C   UNL d   1       5.609   1.945  -1.257  0.00  0.00     0.009 A 
ATOM     17  C   UNL d   1       6.071   2.703  -0.163  0.00  0.00    -0.051 A 
ATOM     18  C   UNL d   1       5.245   2.763   0.975  0.00  0.00     0.009 A 
ATOM     19  C   UNL d   1       4.004   2.125   1.016  0.00  0.00     0.016 A 
BRANCH  17  20
ATOM     20  C   UNL d   1       7.425   3.433  -0.228  0.00  0.00    -0.024 C 
ATOM     21  C   UNL d   1       7.740   4.213   1.068  0.00  0.00     0.019 C 
ATOM     22  C   UNL d   1       8.564   2.417  -0.455  0.00  0.00     0.019 C 
ATOM     23  C   UNL d   1       7.435   4.453  -1.386  0.00  0.00     0.019 C 
ENDBRANCH  17  20
ENDBRANCH   4  14
TORSDOF 2
