REMARK  9 active torsions:
REMARK  status: ('A' for Active; 'I' for Inactive)
REMARK    1  A    between atoms: C_2  and  N_1 
REMARK    2  A    between atoms: C_9  and  C_3 
REMARK    3  A    between atoms: O_23  and  C_8 
REMARK    4  A    between atoms: O_24  and  C_9 
REMARK    5  A    between atoms: C_10  and  C_11 
REMARK    6  A    between atoms: O_26  and  C_12 
REMARK    7  A    between atoms: O_25  and  C_13 
REMARK    8  A    between atoms: O_27  and  C_16 
REMARK    9  A    between atoms: O_28  and  C_17 
ROOT
ATOM      1  N   UNL d   1       0.002  -0.959   0.014  0.00  0.00    -0.251 N 
ATOM      2  C   UNL d   1      -1.236  -0.360   0.311  0.00  0.00     0.231 C 
ATOM      3  C   UNL d   1       1.235  -0.307  -0.044  0.00  0.00     0.231 C 
ATOM      4  C   UNL d   1      -0.079   1.821  -0.147  0.00  0.00     0.036 C 
ATOM      5  C   UNL d   1       1.240   1.167   0.231  0.00  0.00     0.113 C 
ATOM      6  C   UNL d   1      -1.218   1.129   0.581  0.00  0.00     0.113 C 
ATOM      7  O   UNL d   1      -2.281  -0.985   0.453  0.00  0.00    -0.273 OA
ATOM      8  O   UNL d   1       2.311  -0.869  -0.276  0.00  0.00    -0.273 OA
ENDROOT
BRANCH   1   9
ATOM      9  C   UNL d   1      -0.003  -2.360  -0.282  0.00  0.00     0.064 A 
ATOM     10  C   UNL d   1      -0.735  -2.909  -1.345  0.00  0.00     0.069 A 
ATOM     11  C   UNL d   1      -0.664  -4.291  -1.596  0.00  0.00     0.059 A 
ATOM     12  C   UNL d   1       0.110  -5.144  -0.796  0.00  0.00     0.102 A 
ATOM     13  C   UNL d   1       0.843  -4.592   0.265  0.00  0.00     0.103 A 
ATOM     14  C   UNL d   1       0.775  -3.217   0.515  0.00  0.00     0.071 A 
BRANCH  10  15
ATOM     15  C   UNL d   1      -1.490  -2.040  -2.296  0.00  0.00     0.295 C 
ATOM     16  O   UNL d   1      -1.219  -0.874  -2.530  0.00  0.00    -0.259 OA
BRANCH  15  17
ATOM     17  O   UNL d   1      -2.505  -2.752  -2.850  0.00  0.00    -0.322 OA
ATOM     18  C   UNL d   1      -3.313  -2.025  -3.776  0.00  0.00     0.213 C 
ENDBRANCH  15  17
ENDBRANCH  10  15
BRANCH  12  19
ATOM     19  O   UNL d   1       0.176  -6.498  -0.986  0.00  0.00    -0.353 OA
ATOM     20  C   UNL d   1      -0.564  -7.061  -2.062  0.00  0.00     0.210 C 
ENDBRANCH  12  19
BRANCH  13  21
ATOM     21  O   UNL d   1       1.620  -5.267   1.173  0.00  0.00    -0.353 OA
ATOM     22  C   UNL d   1       2.333  -6.398   0.686  0.00  0.00     0.210 C 
ENDBRANCH  13  21
ENDBRANCH   1   9
BRANCH   4  23
ATOM     23  C   UNL d   1      -0.023   3.303   0.166  0.00  0.00    -0.048 A 
ATOM     24  C   UNL d   1      -0.153   4.244  -0.852  0.00  0.00     0.047 A 
ATOM     25  C   UNL d   1      -0.016   5.622  -0.599  0.00  0.00     0.104 A 
ATOM     26  C   UNL d   1       0.281   6.086   0.708  0.00  0.00     0.135 A 
ATOM     27  C   UNL d   1       0.431   5.131   1.734  0.00  0.00     0.104 A 
ATOM     28  C   UNL d   1       0.249   3.768   1.452  0.00  0.00     0.047 A 
BRANCH  25  29
ATOM     29  O   UNL d   1      -0.061   6.508  -1.653  0.00  0.00    -0.353 OA
ATOM     30  C   UNL d   1      -1.008   6.188  -2.676  0.00  0.00     0.210 C 
ENDBRANCH  25  29
BRANCH  26  31
ATOM     31  O   UNL d   1       0.468   7.389   1.073  0.00  0.00    -0.351 OA
ATOM     32  C   UNL d   1       0.063   8.462   0.239  0.00  0.00     0.210 C 
ENDBRANCH  26  31
BRANCH  27  33
ATOM     33  O   UNL d   1       0.799   5.279   3.045  0.00  0.00    -0.353 OA
ATOM     34  C   UNL d   1       0.905   6.538   3.678  0.00  0.00     0.210 C 
ENDBRANCH  27  33
ENDBRANCH   4  23
TORSDOF 9
