REMARK  2 active torsions:
REMARK  status: ('A' for Active; 'I' for Inactive)
REMARK    1  A    between atoms: C_8  and  C_4 
REMARK    2  A    between atoms: N_6  and  C_9 
ROOT
ATOM      1  C   UNL d   1      -3.282  -1.934   0.043  0.00  0.00    -0.009 A 
ATOM      2  C   UNL d   1      -3.864  -1.342  -1.113  0.00  0.00     0.040 A 
ATOM      3  C   UNL d   1      -4.083  -2.538   1.024  0.00  0.00     0.014 A 
ATOM      4  C   UNL d   1      -5.268  -1.383  -1.211  0.00  0.00     0.030 A 
ATOM      5  C   UNL d   1      -5.468  -2.560   0.888  0.00  0.00     0.001 A 
ATOM      6  C   UNL d   1      -6.061  -1.984  -0.229  0.00  0.00     0.002 A 
ENDROOT
BRANCH   1   7
ATOM      7  C   UNL d   1      -1.835  -1.908   0.307  0.00  0.00     0.031 C 
ATOM      8  C   UNL d   1      -1.160  -0.930   0.926  0.00  0.00     0.045 A 
ATOM      9  C   UNL d   1       0.343  -0.872   0.791  0.00  0.00     0.257 A 
ATOM     10  C   UNL d   1      -1.583   0.308   1.578  0.00  0.00     0.006 A 
ATOM     11  N   UNL d   1       0.695   0.376   1.267  0.00  0.00    -0.322 N 
ATOM     12  O   UNL d   1       1.069  -1.705   0.293  0.00  0.00    -0.267 OA
ATOM     13  C   UNL d   1      -0.424   1.079   1.710  0.00  0.00     0.046 A 
ATOM     14  H   UNL d   1       1.638   0.724   1.228  0.00  0.00     0.169 HD
ATOM     15  C   UNL d   1      -0.451   2.380   2.162  0.00  0.00     0.030 A 
ATOM     16  C   UNL d   1      -1.695   2.908   2.510  0.00  0.00     0.002 A 
ATOM     17  C   UNL d   1      -2.857   2.118   2.442  0.00  0.00     0.001 A 
ATOM     18  C   UNL d   1      -2.804   0.798   1.986  0.00  0.00     0.015 A 
ENDBRANCH   1   7
BRANCH   2  19
ATOM     19  N   UNL d   1      -3.100  -0.696  -2.079  0.00  0.00    -0.377 N 
ATOM     20  C   UNL d   1      -3.640   0.403  -2.890  0.00  0.00     0.153 C 
ATOM     21  C   UNL d   1      -2.495   1.399  -3.203  0.00  0.00     0.291 C 
ATOM     22  N   UNL d   1      -1.303   0.787  -3.841  0.00  0.00     0.087 N 
ATOM     23  C   UNL d   1      -0.858  -0.388  -3.048  0.00  0.00     0.291 C 
ATOM     24  C   UNL d   1      -0.221   1.774  -3.897  0.00  0.00     0.310 C 
ATOM     25  C   UNL d   1      -1.991  -1.397  -2.749  0.00  0.00     0.153 C 
ENDBRANCH   2  19
TORSDOF 2
