REMARK  4 active torsions:
REMARK  status: ('A' for Active; 'I' for Inactive)
REMARK    1  A    between atoms: C_10  and  C_4 
REMARK    2  A    between atoms: C_20  and  C_6 
REMARK    3  A    between atoms: O_15  and  C_20 
REMARK    4  A    between atoms: C_16  and  O_15 
ROOT
ATOM      1  N   UNL d   1       0.141   1.162   0.733  0.00  0.00    -0.351 N 
ATOM      2  HN  UNL d   1       0.016   2.053   1.212  1.00  0.00     0.166 HD
ATOM      3  C   UNL d   1       1.310   0.753   0.107  0.00  0.00     0.049 A 
ATOM      4  C   UNL d   1      -0.785   0.230   0.619  0.00  0.00     0.075 A 
ATOM      5  S   UNL d   1      -0.289  -1.202  -0.202  0.00  0.00    -0.084 SA
ATOM      6  C   UNL d   1       1.268  -0.526  -0.416  0.00  0.00     0.082 A 
ENDROOT
BRANCH   3   7
ATOM      7  C   UNL d   1       2.478   1.622   0.035  0.00  0.00    -0.008 A 
ATOM      8  C   UNL d   1       3.409   1.509  -1.005  0.00  0.00     0.022 A 
ATOM      9  C   UNL d   1       4.537   2.355  -1.114  0.00  0.00    -0.042 A 
ATOM     10  C   UNL d   1       5.505   2.147  -2.284  0.00  0.00    -0.020 C 
ATOM     11  C   UNL d   1       4.695   3.392  -0.169  0.00  0.00    -0.043 A 
ATOM     12  C   UNL d   1       6.819   2.931  -2.079  0.00  0.00     0.015 C 
ATOM     13  C   UNL d   1       4.807   2.598  -3.586  0.00  0.00     0.020 C 
ATOM     14  C   UNL d   1       5.906   0.659  -2.434  0.00  0.00     0.020 C 
ATOM     15  C   UNL d   1       6.572   4.355  -1.612  0.00  0.00     0.015 C 
ATOM     16  C   UNL d   1       5.837   4.413  -0.252  0.00  0.00    -0.020 C 
ATOM     17  C   UNL d   1       6.834   4.144   0.896  0.00  0.00     0.020 C 
ATOM     18  C   UNL d   1       5.304   5.859  -0.111  0.00  0.00     0.020 C 
ATOM     19  C   UNL d   1       3.769   3.477   0.894  0.00  0.00     0.009 A 
ATOM     20  C   UNL d   1       2.677   2.611   0.993  0.00  0.00     0.014 A 
ENDBRANCH   3   7
BRANCH   4  21
ATOM     21  C   UNL d   1      -2.159   0.301   1.212  0.00  0.00     0.240 C 
BRANCH  21  22
ATOM     22  O   UNL d   1      -3.075   0.647   0.168  0.00  0.00    -0.343 OA
BRANCH  22  23
ATOM     23  C   UNL d   1      -4.398   0.673   0.539  0.00  0.00     0.090 A 
ATOM     24  C   UNL d   1      -5.227   1.663  -0.005  0.00  0.00     0.067 A 
ATOM     25 CL   UNL d   1      -4.607   2.881  -1.063  0.00  0.00    -0.081 Cl
ATOM     26  C   UNL d   1      -6.593   1.697   0.308  0.00  0.00     0.026 A 
ATOM     27  C   UNL d   1      -7.138   0.735   1.156  0.00  0.00     0.002 A 
ATOM     28  C   UNL d   1      -6.324  -0.264   1.685  0.00  0.00     0.003 A 
ATOM     29  C   UNL d   1      -4.967  -0.302   1.371  0.00  0.00     0.038 A 
ENDBRANCH  22  23
ENDBRANCH  21  22
ENDBRANCH   4  21
TORSDOF 4
