REMARK  5 active torsions:
REMARK  status: ('A' for Active; 'I' for Inactive)
REMARK    1  A    between atoms: N_10  and  C_1 
REMARK    2  A    between atoms: C_14  and  N_4 
REMARK    3  A    between atoms: C_6  and  C_5 
REMARK    4  A    between atoms: C_15  and  C_9 
REMARK       I    between atoms: C_13  and  N_10 
REMARK    5  A    between atoms: C_17  and  C_13 
ROOT
ATOM      1  C   UNL d   1      -0.513   1.232  -0.097  0.00  0.00     0.132 C 
ATOM      2  N   UNL d   1       0.903  -0.450  -0.672  0.00  0.00    -0.291 N 
ATOM      3  HN  UNL d   1       1.661  -0.940  -1.146  1.00  0.00     0.187 HD
ATOM      4  N   UNL d   1       0.796   0.879  -0.409  0.00  0.00    -0.240 N 
ATOM      5  C   UNL d   1      -0.223  -0.964  -0.162  0.00  0.00     0.065 C 
ATOM      6  C   UNL d   1      -1.164   0.039   0.139  0.00  0.00     0.082 C 
ENDROOT
BRANCH   5   7
ATOM      7  C   UNL d   1      -0.415  -2.389   0.097  0.00  0.00     0.024 A 
ATOM      8  C   UNL d   1      -1.215  -2.917   1.147  0.00  0.00     0.049 A 
ATOM      9  C   UNL d   1      -1.050  -4.289   1.127  0.00  0.00     0.061 A 
ATOM     10  O   UNL d   1      -0.223  -4.627   0.093  0.00  0.00    -0.318 OA
ATOM     11  C   UNL d   1       0.170  -3.473  -0.522  0.00  0.00     0.062 A 
ATOM     12  C   UNL d   1       1.095  -3.643  -1.660  0.00  0.00     0.077 C 
BRANCH   9  13
ATOM     13  C   UNL d   1      -1.557  -5.427   1.979  0.00  0.00    -0.002 C 
ATOM     14  C   UNL d   1      -2.477  -4.913   3.102  0.00  0.00     0.021 C 
ATOM     15  C   UNL d   1      -2.352  -6.414   1.107  0.00  0.00     0.021 C 
ATOM     16  C   UNL d   1      -0.370  -6.164   2.628  0.00  0.00     0.021 C 
ENDBRANCH   9  13
ENDBRANCH   5   7
BRANCH   1  17
ATOM     17  N   UNL d   1      -0.970   2.542   0.000  0.00  0.00    -0.311 N 
ATOM     18  C   UNL d   1      -1.807   2.906   1.046  0.00  0.00     0.227 C 
ATOM     19  O   UNL d   1      -2.194   2.100   1.908  0.00  0.00    -0.273 OA
ATOM     20  H   UNL d   1      -0.456   3.267  -0.486  0.00  0.00     0.170 HD
BRANCH  18  21
ATOM     21  C   UNL d   1      -2.183   4.391   1.148  0.00  0.00     0.078 C 
ATOM     22  C   UNL d   1      -1.855   5.448   0.062  0.00  0.00     0.014 C 
ATOM     23  C   UNL d   1      -1.756   6.473   1.216  0.00  0.00     0.002 C 
ATOM     24  C   UNL d   1      -1.343   5.285   2.109  0.00  0.00     0.014 C 
ENDBRANCH  18  21
ENDBRANCH   1  17
BRANCH   4  25
ATOM     25  C   UNL d   1       1.978   1.663  -0.259  0.00  0.00     0.058 A 
ATOM     26  C   UNL d   1       3.159   1.266  -0.894  0.00  0.00     0.033 A 
ATOM     27  C   UNL d   1       4.345   1.982  -0.679  0.00  0.00     0.020 A 
ATOM     28  C   UNL d   1       4.351   3.076   0.187  0.00  0.00     0.006 A 
ATOM     29  C   UNL d   1       3.185   3.466   0.835  0.00  0.00     0.020 A 
ATOM     30  I   UNL d   1       6.122   4.100   0.554  0.00  0.00    -0.045 I 
ATOM     31  C   UNL d   1       2.001   2.761   0.615  0.00  0.00     0.033 A 
ENDBRANCH   4  25
TORSDOF 5
