REMARK  2 active torsions:
REMARK  status: ('A' for Active; 'I' for Inactive)
REMARK    1  A    between atoms: C_4  and  C_1 
REMARK    2  A    between atoms: C_11  and  C_6 
ROOT
ATOM      1  C   UNL d   1      -3.332  -1.330  -0.105  0.00  0.00     0.079 C 
ATOM      2  C   UNL d   1      -3.474  -2.673  -0.081  0.00  0.00     0.037 C 
ATOM      3  C   UNL d   1      -2.031  -0.738  -0.110  0.00  0.00     0.102 C 
ATOM      4  N   UNL d   1      -0.978  -0.250  -0.115  0.00  0.00    -0.191 NA
ENDROOT
BRANCH   1   5
ATOM      5  C   UNL d   1      -4.522  -0.517  -0.111  0.00  0.00     0.096 A 
ATOM      6  N   UNL d   1      -5.769  -0.962  -0.094  0.00  0.00    -0.348 N 
ATOM      7  C   UNL d   1      -6.685   0.080  -0.081  0.00  0.00     0.050 A 
ATOM      8  HN  UNL d   1      -6.025  -1.950  -0.091  1.00  0.00     0.166 HD
ATOM      9  C   UNL d   1      -8.089  -0.046  -0.052  0.00  0.00     0.031 A 
ATOM     10  C   UNL d   1      -6.130   1.356  -0.094  0.00  0.00     0.033 A 
ATOM     11  C   UNL d   1      -8.892   1.101  -0.035  0.00  0.00     0.002 A 
ATOM     12  C   UNL d   1      -8.313   2.365  -0.048  0.00  0.00     0.002 A 
ATOM     13  C   UNL d   1      -6.924   2.515  -0.079  0.00  0.00     0.021 A 
ATOM     14  S   UNL d   1      -4.421   1.220  -0.129  0.00  0.00    -0.069 SA
ENDBRANCH   1   5
BRANCH   2  15
ATOM     15  C   UNL d   1      -2.372  -3.643  -0.034  0.00  0.00    -0.035 A 
ATOM     16  C   UNL d   1      -1.879  -4.080   1.202  0.00  0.00     0.013 A 
ATOM     17  C   UNL d   1      -0.858  -5.033   1.256  0.00  0.00     0.024 A 
ATOM     18  C   UNL d   1      -0.328  -5.548   0.074  0.00  0.00     0.034 A 
ATOM     19  C   UNL d   1      -0.798  -5.105  -1.161  0.00  0.00     0.024 A 
ATOM     20 CL   UNL d   1       0.905  -6.746   0.141  0.00  0.00    -0.084 Cl
ATOM     21  C   UNL d   1      -1.819  -4.150  -1.216  0.00  0.00     0.013 A 
ENDBRANCH   2  15
TORSDOF 2
