REMARK  4 active torsions:
REMARK  status: ('A' for Active; 'I' for Inactive)
REMARK       I    between atoms: N_2  and  C_1 
REMARK       I    between atoms: N_8  and  C_1 
REMARK    1  A    between atoms: C_5  and  N_4 
REMARK    2  A    between atoms: C_6  and  O_16 
REMARK    3  A    between atoms: C_19  and  N_8 
REMARK    4  A    between atoms: O_16  and  C_25 
ROOT
ATOM      1  C   UNL d   1       1.087   0.047  -0.026  0.00  0.00     0.323 C 
ATOM      2  N   UNL d   1       0.448   0.761   0.970  0.00  0.00    -0.331 N 
ATOM      3  N   UNL d   1      -0.136   2.047   3.463  0.00  0.00    -0.377 N 
ATOM      4  N   UNL d   1       0.681  -1.258  -0.194  0.00  0.00    -0.309 N 
ATOM      5  O   UNL d   1       1.968   0.586  -0.695  0.00  0.00    -0.247 OA
ATOM      6  C   UNL d   1       0.854   2.160   1.189  0.00  0.00     0.147 C 
ATOM      7  C   UNL d   1      -0.742   0.376   1.733  0.00  0.00     0.147 C 
ATOM      8  C   UNL d   1      -0.558   0.657   3.228  0.00  0.00     0.143 C 
ATOM      9  C   UNL d   1       1.037   2.484   2.683  0.00  0.00     0.143 C 
ATOM     10  H   UNL d   1      -0.043  -1.612   0.402  0.00  0.00     0.170 HD
ENDROOT
BRANCH   4  11
ATOM     11  C   UNL d   1       1.127  -2.158  -1.189  0.00  0.00     0.036 A 
ATOM     12  C   UNL d   1       2.168  -1.880  -2.068  0.00  0.00     0.032 A 
ATOM     13  C   UNL d   1       2.512  -2.775  -3.085  0.00  0.00     0.039 A 
ATOM     14  C   UNL d   1       1.788  -3.947  -3.255  0.00  0.00     0.078 A 
ATOM     15  C   UNL d   1       0.805  -4.280  -2.320  0.00  0.00     0.039 A 
ATOM     16  C   UNL d   1       0.475  -3.394  -1.288  0.00  0.00     0.032 A 
BRANCH  14  17
ATOM     17  O   UNL d   1       1.990  -4.850  -4.252  0.00  0.00    -0.255 OA
BRANCH  17  18
ATOM     18  C   UNL d   1       2.341  -4.364  -5.544  0.00  0.00     0.530 C 
ATOM     19  F   UNL d   1       2.354  -3.019  -5.659  0.00  0.00    -0.144 F 
ATOM     20  F   UNL d   1       3.562  -4.836  -5.877  0.00  0.00    -0.144 F 
ATOM     21  F   UNL d   1       1.447  -4.840  -6.440  0.00  0.00    -0.144 F 
ENDBRANCH  17  18
ENDBRANCH  14  17
ENDBRANCH   4  11
BRANCH   3  22
ATOM     22  C   UNL d   1      -0.784   2.879   4.367  0.00  0.00     0.044 A 
ATOM     23  C   UNL d   1      -1.326   2.433   5.613  0.00  0.00     0.017 A 
ATOM     24  C   UNL d   1      -2.110   3.342   6.365  0.00  0.00     0.046 A 
ATOM     25  C   UNL d   1      -1.115   1.144   6.171  0.00  0.00     0.018 A 
ATOM     26  C   UNL d   1      -2.724   2.917   7.535  0.00  0.00     0.054 A 
ATOM     27  N   UNL d   1      -2.298   4.618   6.005  0.00  0.00    -0.365 N 
ATOM     28  C   UNL d   1      -2.574   1.616   8.004  0.00  0.00     0.036 A 
ATOM     29  C   UNL d   1      -1.758   0.725   7.332  0.00  0.00     0.025 A 
ATOM     30 CL   UNL d   1      -3.381   1.115   9.437  0.00  0.00    -0.084 Cl
ATOM     31  C   UNL d   1      -1.720   5.041   4.868  0.00  0.00     0.090 A 
ATOM     32  HN  UNL d   1      -2.862   5.248   6.575  1.00  0.00     0.165 HD
ATOM     33  C   UNL d   1      -0.982   4.226   4.032  0.00  0.00     0.047 A 
ENDBRANCH   3  22
TORSDOF 4
