REMARK  1 active torsions:
REMARK  status: ('A' for Active; 'I' for Inactive)
REMARK    1  A    between atoms: C_3  and  N_1 
ROOT
ATOM      1  C   UNL d   1       0.265  -2.460  -0.104  0.00  0.00     0.104 A 
ATOM      2  C   UNL d   1      -0.365  -3.154  -1.150  0.00  0.00     0.064 A 
ATOM      3  C   UNL d   1       0.776  -3.201   0.970  0.00  0.00     0.145 A 
ATOM      4 CL   UNL d   1      -0.936  -2.350  -2.572  0.00  0.00    -0.082 Cl
ATOM      5  F   UNL d   1       1.329  -2.572   2.018  0.00  0.00    -0.204 F 
ATOM      6  C   UNL d   1       0.057  -5.268  -0.036  0.00  0.00     0.005 A 
ATOM      7  C   UNL d   1      -0.467  -4.550  -1.112  0.00  0.00     0.026 A 
ATOM      8  C   UNL d   1       0.683  -4.590   1.007  0.00  0.00     0.045 A 
ENDROOT
BRANCH   1   9
ATOM      9  N   UNL d   1       0.364  -1.039  -0.091  0.00  0.00    -0.262 N 
ATOM     10  C   UNL d   1       1.566  -0.357  -0.062  0.00  0.00     0.148 C 
ATOM     11  S   UNL d   1       1.273   1.368   0.106  0.00  0.00    -0.090 SA
ATOM     12  S   UNL d   1       3.117  -0.952  -0.257  0.00  0.00    -0.052 SA
ATOM     13  C   UNL d   1      -0.512   1.192  -0.034  0.00  0.00     0.185 C 
ATOM     14  C   UNL d   1      -0.798  -0.283  -0.019  0.00  0.00     0.239 C 
ATOM     15  O   UNL d   1      -1.942  -0.723   0.074  0.00  0.00    -0.272 OA
ENDBRANCH   1   9
TORSDOF 1
