REMARK  2 active torsions:
REMARK  status: ('A' for Active; 'I' for Inactive)
REMARK    1  A    between atoms: C_2  and  C_1 
REMARK    2  A    between atoms: N_3  and  C_2 
ROOT
ATOM      1  C   UNL d   1      -0.099   0.693  -0.388  0.00  0.00     0.019 A 
ATOM      2  C   UNL d   1       0.293  -0.235   0.593  0.00  0.00     0.044 A 
ATOM      3  C   UNL d   1      -0.596   0.184  -1.593  0.00  0.00     0.126 A 
ATOM      4 CL   UNL d   1       1.063   0.232   2.068  0.00  0.00    -0.084 Cl
ATOM      5  F   UNL d   1      -0.917   1.019  -2.590  0.00  0.00    -0.205 F 
ATOM      6  C   UNL d   1      -0.465  -2.082  -0.785  0.00  0.00     0.005 A 
ATOM      7  C   UNL d   1       0.090  -1.609   0.404  0.00  0.00     0.024 A 
ATOM      8  C   UNL d   1      -0.785  -1.183  -1.794  0.00  0.00     0.043 A 
ENDROOT
BRANCH   1   9
ATOM      9  C   UNL d   1      -0.013   2.189  -0.204  0.00  0.00     0.160 C 
BRANCH   9  10
ATOM     10  N   UNL d   1      -1.204   2.887   0.296  0.00  0.00    -0.404 N 
ATOM     11  C   UNL d   1      -1.737   2.459   1.592  0.00  0.00     0.143 C 
ATOM     12  C   UNL d   1      -2.835   1.389   1.494  0.00  0.00     0.187 C 
ATOM     13  O   UNL d   1      -3.914   1.852   0.678  0.00  0.00    -0.388 OA
ATOM     14  C   UNL d   1      -3.452   2.133  -0.649  0.00  0.00     0.187 C 
ATOM     15  C   UNL d   1      -2.283   3.137  -0.668  0.00  0.00     0.143 C 
ENDBRANCH   9  10
ENDBRANCH   1   9
TORSDOF 2
