REMARK  6 active torsions:
REMARK  status: ('A' for Active; 'I' for Inactive)
REMARK       I    between atoms: N_2  and  C_1 
REMARK    1  A    between atoms: C_14  and  C_1 
REMARK    2  A    between atoms: C_6  and  N_2 
REMARK    3  A    between atoms: C_3  and  C_15 
REMARK    4  A    between atoms: O_8  and  C_3 
REMARK    5  A    between atoms: C_16  and  C_14 
REMARK    6  A    between atoms: C_15  and  C_16 
ROOT
ATOM      1  C   UNL d   1       1.041   0.041  -0.156  0.00  0.00     0.222 C 
ATOM      2  N   UNL d   1       0.402  -1.060   0.389  0.00  0.00    -0.327 N 
ATOM      3  O   UNL d   1       0.503   0.979  -0.735  0.00  0.00    -0.273 OA
ATOM      4  H   UNL d   1       0.971  -1.693   0.939  0.00  0.00     0.169 HD
ENDROOT
BRANCH   1   5
ATOM      5  C   UNL d   1       2.548  -0.021   0.035  0.00  0.00     0.103 C 
BRANCH   5   6
ATOM      6  C   UNL d   1       3.279   1.216  -0.502  0.00  0.00     0.019 C 
BRANCH   6   7
ATOM      7  C   UNL d   1       3.003   2.503   0.282  0.00  0.00     0.110 C 
BRANCH   7   8
ATOM      8  C   UNL d   1       3.481   2.427   1.712  0.00  0.00     0.139 C 
ATOM      9  O   UNL d   1       4.378   1.699   2.110  0.00  0.00    -0.650 OA
BRANCH   8  10
ATOM     10  O   UNL d   1       2.822   3.275   2.533  0.00  0.00    -0.776 OA
ATOM     11  H   UNL d   1       2.127   3.797   2.088  0.00  0.00     0.167 HD
ENDBRANCH   8  10
ENDBRANCH   7   8
ENDBRANCH   6   7
ENDBRANCH   5   6
ENDBRANCH   1   5
BRANCH   2  12
ATOM     12  C   UNL d   1      -0.967  -1.384   0.280  0.00  0.00     0.034 A 
ATOM     13  C   UNL d   1      -1.871  -0.672  -0.515  0.00  0.00     0.032 A 
ATOM     14  C   UNL d   1      -3.206  -1.075  -0.610  0.00  0.00     0.044 A 
ATOM     15  C   UNL d   1      -3.639  -2.188   0.095  0.00  0.00     0.116 A 
ATOM     16  C   UNL d   1      -2.761  -2.906   0.896  0.00  0.00     0.044 A 
ATOM     17  F   UNL d   1      -4.916  -2.579  -0.003  0.00  0.00    -0.206 F 
ATOM     18  C   UNL d   1      -1.424  -2.506   0.988  0.00  0.00     0.032 A 
ENDBRANCH   2  12
TORSDOF 6
