REMARK  6 active torsions:
REMARK  status: ('A' for Active; 'I' for Inactive)
REMARK    1  A    between atoms: C_9  and  C_3 
REMARK    2  A    between atoms: N_5  and  C_4 
REMARK    3  A    between atoms: C_15  and  C_6 
REMARK    4  A    between atoms: C_11  and  C_14 
REMARK    5  A    between atoms: C_13  and  O_17 
REMARK    6  A    between atoms: O_17  and  C_27 
ROOT
ATOM      1  C   UNL d   1       0.528   2.500  -0.040  0.00  0.00     0.010 A 
ATOM      2  C   UNL d   1       1.430   3.071  -0.950  0.00  0.00     0.018 A 
ATOM      3  C   UNL d   1      -0.155   3.341   0.851  0.00  0.00     0.018 A 
ATOM      4  C   UNL d   1       1.022   5.266  -0.013  0.00  0.00     0.076 A 
ATOM      5  C   UNL d   1       0.066   4.716   0.844  0.00  0.00     0.038 A 
ATOM      6  C   UNL d   1       1.676   4.450  -0.936  0.00  0.00     0.038 A 
ENDROOT
BRANCH   1   7
ATOM      7  C   UNL d   1       0.291   1.061  -0.009  0.00  0.00     0.138 A 
ATOM      8  N   UNL d   1       0.908   0.178  -0.869  0.00  0.00    -0.318 N 
ATOM      9  C   UNL d   1       0.407  -0.981  -0.496  0.00  0.00     0.185 A 
ATOM     10  HN  UNL d   1       1.583   0.373  -1.608  1.00  0.00     0.169 HD
ATOM     11  O   UNL d   1      -0.468  -0.871   0.545  0.00  0.00    -0.217 OA
ATOM     12  N   UNL d   1      -0.540   0.476   0.868  0.00  0.00    -0.242 N 
ATOM     13  HN  UNL d   1      -1.096   0.918   1.600  1.00  0.00     0.196 HD
BRANCH   9  14
ATOM     14  C   UNL d   1       0.655  -2.316  -1.013  0.00  0.00     0.056 A 
ATOM     15  C   UNL d   1      -0.010  -3.448  -0.530  0.00  0.00     0.131 A 
ATOM     16  F   UNL d   1      -0.928  -3.347   0.443  0.00  0.00    -0.205 F 
ATOM     17  C   UNL d   1       0.253  -4.720  -1.038  0.00  0.00     0.043 A 
ATOM     18  C   UNL d   1       1.196  -4.882  -2.049  0.00  0.00     0.003 A 
ATOM     19  C   UNL d   1       1.869  -3.770  -2.551  0.00  0.00     0.001 A 
ATOM     20  C   UNL d   1       1.601  -2.497  -2.039  0.00  0.00     0.019 A 
ENDBRANCH   9  14
ENDBRANCH   1   7
BRANCH   4  21
ATOM     21  O   UNL d   1       1.365   6.603  -0.007  0.00  0.00    -0.308 OA
BRANCH  21  22
ATOM     22  C   UNL d   1       1.353   7.274   1.198  0.00  0.00     0.109 A 
ATOM     23  C   UNL d   1       0.849   8.578   1.298  0.00  0.00     0.137 A 
ATOM     24  C   UNL d   1       0.821   9.227   2.553  0.00  0.00     0.055 A 
ATOM     25  C   UNL d   1       1.302   8.585   3.707  0.00  0.00     0.050 A 
ATOM     26  C   UNL d   1       1.837   7.297   3.588  0.00  0.00     0.019 A 
ATOM     27  C   UNL d   1       1.891   6.665   2.346  0.00  0.00     0.040 A 
BRANCH  23  28
ATOM     28  N   UNL d   1       0.332   9.311   0.130  0.00  0.00    -0.113 N 
ATOM     29  O   UNL d   1      -0.030  10.484   0.314  0.00  0.00    -0.532 OA
ATOM     30  O   UNL d   1       0.279   8.742  -0.967  0.00  0.00    -0.532 OA
ENDBRANCH  23  28
BRANCH  25  31
ATOM     31  C   UNL d   1       1.263   9.252   5.062  0.00  0.00     0.417 C 
ATOM     32  F   UNL d   1       0.831  10.540   5.020  0.00  0.00    -0.166 F 
ATOM     33  F   UNL d   1       0.435   8.605   5.930  0.00  0.00    -0.166 F 
ATOM     34  F   UNL d   1       2.485   9.282   5.658  0.00  0.00    -0.166 F 
ENDBRANCH  25  31
ENDBRANCH  21  22
ENDBRANCH   4  21
TORSDOF 6
