REMARK  7 active torsions:
REMARK  status: ('A' for Active; 'I' for Inactive)
REMARK    1  A    between atoms: N_2  and  C_1 
REMARK    2  A    between atoms: N_7  and  C_3 
REMARK    3  A    between atoms: C_4  and  N_8 
REMARK    4  A    between atoms: N_10  and  C_4 
REMARK    5  A    between atoms: C_5  and  C_11 
REMARK    6  A    between atoms: N_8  and  N_7 
REMARK    7  A    between atoms: C_9  and  N_10 
ROOT
ATOM      1  N   UNL d   1       0.713  -2.847  -0.176  0.00  0.00    -0.292 N 
ATOM      2  C   UNL d   1       2.085  -3.314  -0.445  0.00  0.00     0.178 C 
ENDROOT
BRANCH   1   3
ATOM      3  C   UNL d   1       0.451  -1.453  -0.167  0.00  0.00     0.083 A 
ATOM      4  C   UNL d   1       1.307  -0.455   0.348  0.00  0.00     0.131 A 
ATOM      5  C   UNL d   1       1.042   0.931   0.220  0.00  0.00     0.054 A 
ATOM      6  C   UNL d   1      -0.136   1.374  -0.386  0.00  0.00     0.050 A 
ATOM      7  C   UNL d   1      -1.046   0.412  -0.826  0.00  0.00     0.019 A 
ATOM      8  C   UNL d   1      -0.757  -0.956  -0.705  0.00  0.00     0.034 A 
BRANCH   4   9
ATOM      9  N   UNL d   1       2.510  -0.783   1.091  0.00  0.00    -0.113 N 
ATOM     10  O   UNL d   1       2.392  -1.480   2.109  0.00  0.00    -0.532 OA
ATOM     11  O   UNL d   1       3.573  -0.300   0.675  0.00  0.00    -0.532 OA
ENDBRANCH   4   9
BRANCH   6  12
ATOM     12  C   UNL d   1      -0.414   2.841  -0.602  0.00  0.00     0.417 C 
ATOM     13  F   UNL d   1       0.246   3.645   0.275  0.00  0.00    -0.166 F 
ATOM     14  F   UNL d   1      -0.042   3.251  -1.844  0.00  0.00    -0.166 F 
ATOM     15  F   UNL d   1      -1.733   3.155  -0.481  0.00  0.00    -0.166 F 
ENDBRANCH   6  12
ENDBRANCH   1   3
BRANCH   1  16
ATOM     16  N   UNL d   1      -0.307  -3.666  -0.746  0.00  0.00    -0.274 N 
ATOM     17  H   UNL d   1      -0.377  -3.591  -1.757  0.00  0.00     0.189 HD
BRANCH  16  18
ATOM     18  C   UNL d   1      -0.630  -4.895  -0.198  0.00  0.00     0.191 C 
ATOM     19  S   UNL d   1      -0.049  -5.544   1.232  0.00  0.00    -0.039 SA
BRANCH  18  20
ATOM     20  N   UNL d   1      -1.458  -5.689  -0.957  0.00  0.00    -0.331 N 
ATOM     21  H   UNL d   1      -1.383  -6.680  -0.742  0.00  0.00     0.168 HD
BRANCH  20  22
ATOM     22  C   UNL d   1      -2.530  -5.349  -1.817  0.00  0.00     0.057 A 
ATOM     23  C   UNL d   1      -3.141  -4.094  -1.785  0.00  0.00     0.055 A 
ATOM     24  C   UNL d   1      -4.250  -3.824  -2.592  0.00  0.00     0.036 A 
ATOM     25 CL   UNL d   1      -4.992  -2.273  -2.523  0.00  0.00    -0.084 Cl
ATOM     26  C   UNL d   1      -4.775  -4.804  -3.430  0.00  0.00     0.026 A 
ATOM     27  C   UNL d   1      -4.190  -6.069  -3.457  0.00  0.00     0.028 A 
ATOM     28  C   UNL d   1      -3.081  -6.343  -2.650  0.00  0.00     0.060 A 
ATOM     29 CL   UNL d   1      -2.402  -7.932  -2.712  0.00  0.00    -0.082 Cl
ENDBRANCH  20  22
ENDBRANCH  18  20
ENDBRANCH  16  18
ENDBRANCH   1  16
TORSDOF 7
