REMARK  6 active torsions:
REMARK  status: ('A' for Active; 'I' for Inactive)
REMARK    1  A    between atoms: C_18  and  C_2 
REMARK    2  A    between atoms: C_19  and  C_2 
REMARK    3  A    between atoms: N_15  and  C_8 
REMARK    4  A    between atoms: C_11  and  C_13 
REMARK    5  A    between atoms: C_12  and  C_14 
REMARK    6  A    between atoms: C_16  and  N_15 
ROOT
ATOM      1  C   UNL d   1      -0.018  -0.720   0.120  0.00  0.00     0.148 A 
ATOM      2  C   UNL d   1      -2.338   0.615  -0.469  0.00  0.00     0.236 C 
ATOM      3  C   UNL d   1      -0.049   0.617   0.090  0.00  0.00     0.100 A 
ATOM      4  O   UNL d   1      -2.401  -0.645   0.223  0.00  0.00    -0.269 OA
ATOM      5  C   UNL d   1      -1.298  -1.427   0.202  0.00  0.00     0.305 C 
ATOM      6  C   UNL d   1       1.283  -1.415   0.112  0.00  0.00     0.308 A 
ATOM      7  O   UNL d   1      -1.191   1.370  -0.022  0.00  0.00    -0.303 OA
ATOM      8  C   UNL d   1       2.348   0.784   0.081  0.00  0.00     0.154 A 
ATOM      9  C   UNL d   1       1.153   1.394   0.112  0.00  0.00     0.094 A 
ATOM     10  O   UNL d   1       2.407  -0.629   0.114  0.00  0.00    -0.257 OA
ATOM     11  O   UNL d   1      -1.401  -2.639   0.324  0.00  0.00    -0.259 OA
ATOM     12  O   UNL d   1       1.388  -2.635   0.085  0.00  0.00    -0.258 OA
ENDROOT
BRANCH   8  13
ATOM     13  N   UNL d   1       3.576   1.406   0.059  0.00  0.00    -0.337 N 
ATOM     14  H   UNL d   1       4.315   0.749   0.309  0.00  0.00     0.168 HD
BRANCH  13  15
ATOM     15  C   UNL d   1       4.031   2.313  -0.930  0.00  0.00     0.035 A 
ATOM     16  C   UNL d   1       3.221   2.800  -1.963  0.00  0.00     0.045 A 
ATOM     17  C   UNL d   1       3.694   3.735  -2.899  0.00  0.00     0.050 A 
ATOM     18  C   UNL d   1       5.013   4.192  -2.794  0.00  0.00     0.032 A 
ATOM     19  C   UNL d   1       5.849   3.735  -1.764  0.00  0.00     0.050 A 
ATOM     20  C   UNL d   1       5.341   2.810  -0.834  0.00  0.00     0.045 A 
BRANCH  17  21
ATOM     21  C   UNL d   1       2.773   4.220  -3.992  0.00  0.00     0.417 C 
ATOM     22  F   UNL d   1       3.345   5.135  -4.821  0.00  0.00    -0.166 F 
ATOM     23  F   UNL d   1       2.337   3.207  -4.790  0.00  0.00    -0.166 F 
ATOM     24  F   UNL d   1       1.651   4.811  -3.496  0.00  0.00    -0.166 F 
ENDBRANCH  17  21
BRANCH  19  25
ATOM     25  C   UNL d   1       7.275   4.222  -1.651  0.00  0.00     0.417 C 
ATOM     26  F   UNL d   1       7.629   5.091  -2.638  0.00  0.00    -0.166 F 
ATOM     27  F   UNL d   1       7.512   4.871  -0.478  0.00  0.00    -0.166 F 
ATOM     28  F   UNL d   1       8.177   3.205  -1.708  0.00  0.00    -0.166 F 
ENDBRANCH  19  25
ENDBRANCH  13  15
ENDBRANCH   8  13
BRANCH   2  29
ATOM     29  C   UNL d   1      -2.283   0.354  -1.991  0.00  0.00     0.009 A 
ATOM     30  C   UNL d   1      -2.934  -0.769  -2.541  0.00  0.00     0.013 A 
ATOM     31  C   UNL d   1      -2.790  -1.097  -3.889  0.00  0.00     0.001 A 
ATOM     32  C   UNL d   1      -2.008  -0.300  -4.719  0.00  0.00     0.000 A 
ATOM     33  C   UNL d   1      -1.387   0.837  -4.207  0.00  0.00     0.001 A 
ATOM     34  C   UNL d   1      -1.532   1.170  -2.857  0.00  0.00     0.013 A 
ENDBRANCH   2  29
BRANCH   2  35
ATOM     35  C   UNL d   1      -3.594   1.413  -0.079  0.00  0.00     0.009 A 
ATOM     36  C   UNL d   1      -3.596   2.821  -0.061  0.00  0.00     0.013 A 
ATOM     37  C   UNL d   1      -4.724   3.536   0.357  0.00  0.00     0.001 A 
ATOM     38  C   UNL d   1      -5.876   2.860   0.752  0.00  0.00     0.000 A 
ATOM     39  C   UNL d   1      -5.911   1.470   0.707  0.00  0.00     0.001 A 
ATOM     40  C   UNL d   1      -4.786   0.754   0.288  0.00  0.00     0.013 A 
ENDBRANCH   2  35
TORSDOF 6
