REMARK  4 active torsions:
REMARK  status: ('A' for Active; 'I' for Inactive)
REMARK    1  A    between atoms: N_7  and  C_5 
REMARK    2  A    between atoms: C_8  and  C_6 
REMARK    3  A    between atoms: C_11  and  N_7 
REMARK    4  A    between atoms: C_12  and  C_11 
ROOT
ATOM      1  N   UNL d   1      -1.106  -0.584  -0.091  0.00  0.00    -0.298 N 
ATOM      2  HN  UNL d   1      -2.037  -0.999  -0.117  1.00  0.00     0.187 HD
ATOM      3  N   UNL d   1      -0.966   0.791  -0.170  0.00  0.00    -0.285 N 
ATOM      4  HN  UNL d   1      -1.796   1.376  -0.275  1.00  0.00     0.188 HD
ATOM      5  C   UNL d   1       0.247   1.368  -0.111  0.00  0.00     0.116 A 
ATOM      6  C   UNL d   1      -0.022  -1.382   0.021  0.00  0.00     0.058 A 
ATOM      7  C   UNL d   1       1.243  -0.814   0.068  0.00  0.00     0.035 A 
ATOM      8  C   UNL d   1       1.373   0.572   0.018  0.00  0.00     0.052 A 
ENDROOT
BRANCH   5   9
ATOM      9  N   UNL d   1       0.439   2.733  -0.289  0.00  0.00    -0.371 N 
ATOM     10  H   UNL d   1       0.998   3.165   0.436  0.00  0.00     0.161 HD
BRANCH   9  11
ATOM     11  C   UNL d   1      -0.676   3.539  -0.752  0.00  0.00     0.160 C 
BRANCH  11  12
ATOM     12  C   UNL d   1      -0.153   4.454  -1.838  0.00  0.00    -0.041 A 
ATOM     13  C   UNL d   1       0.498   3.904  -2.957  0.00  0.00     0.009 A 
ATOM     14  C   UNL d   1       0.996   4.722  -3.968  0.00  0.00     0.001 A 
ATOM     15  C   UNL d   1       0.835   6.102  -3.883  0.00  0.00     0.000 A 
ATOM     16  C   UNL d   1       0.180   6.661  -2.785  0.00  0.00     0.001 A 
ATOM     17  C   UNL d   1      -0.314   5.843  -1.766  0.00  0.00     0.009 A 
ENDBRANCH  11  12
ENDBRANCH   9  11
ENDBRANCH   5   9
BRANCH   6  18
ATOM     18  C   UNL d   1      -0.262  -2.836   0.071  0.00  0.00    -0.008 A 
ATOM     19  C   UNL d   1      -1.389  -3.409  -0.547  0.00  0.00     0.014 A 
ATOM     20  C   UNL d   1      -1.619  -4.788  -0.513  0.00  0.00     0.001 A 
ATOM     21  C   UNL d   1      -0.725  -5.626   0.147  0.00  0.00     0.000 A 
ATOM     22  C   UNL d   1       0.392  -5.089   0.773  0.00  0.00     0.001 A 
ATOM     23  C   UNL d   1       0.619  -3.710   0.738  0.00  0.00     0.014 A 
ENDBRANCH   6  18
TORSDOF 4
