REMARK  7 active torsions:
REMARK  status: ('A' for Active; 'I' for Inactive)
REMARK    1  A    between atoms: N_2  and  S_1 
REMARK    2  A    between atoms: C_9  and  S_1 
REMARK    3  A    between atoms: C_3  and  N_2 
REMARK    4  A    between atoms: C_7  and  N_13 
REMARK    5  A    between atoms: N_15  and  C_7 
REMARK    6  A    between atoms: N_13  and  C_18 
REMARK    7  A    between atoms: C_22  and  N_15 
ROOT
ATOM      1  C   UNL d   1       0.376  -0.186   1.575  0.00  0.00     0.075 A 
ATOM      2  C   UNL d   1       0.385  -1.522   1.983  0.00  0.00     0.027 A 
ATOM      3  C   UNL d   1       0.035   0.827   2.471  0.00  0.00     0.027 A 
ATOM      4  C   UNL d   1      -0.391  -0.852   4.178  0.00  0.00     0.034 A 
ATOM      5  C   UNL d   1      -0.335   0.491   3.779  0.00  0.00     0.031 A 
ATOM      6  C   UNL d   1      -0.010  -1.852   3.281  0.00  0.00     0.031 A 
ENDROOT
BRANCH   1   7
ATOM      7  S   UNL d   1       0.943   0.204  -0.062  0.00  0.00     0.247 S 
ATOM      8  O   UNL d   1       1.314   1.609  -0.074  0.00  0.00    -0.205 OA
ATOM      9  O   UNL d   1       1.887  -0.815  -0.459  0.00  0.00    -0.205 OA
BRANCH   7  10
ATOM     10  N   UNL d   1      -0.472   0.091  -0.985  0.00  0.00    -0.165 NA
ATOM     11  H   UNL d   1      -0.413   0.842  -1.678  0.00  0.00     0.147 HD
BRANCH  10  12
ATOM     12  C   UNL d   1      -0.772  -1.139  -1.556  0.00  0.00     0.117 A 
ATOM     13  N   UNL d   1      -0.421  -1.450  -2.804  0.00  0.00    -0.249 N 
ATOM     14  O   UNL d   1      -0.902  -2.733  -3.015  0.00  0.00    -0.241 OA
ATOM     15  HN  UNL d   1       0.093  -0.867  -3.464  1.00  0.00     0.196 HD
ATOM     16  C   UNL d   1      -1.605  -3.135  -1.921  0.00  0.00     0.075 A 
ATOM     17  C   UNL d   1      -1.567  -2.145  -0.971  0.00  0.00     0.079 A 
ATOM     18  C   UNL d   1      -2.234  -4.466  -1.994  0.00  0.00     0.079 C 
ENDBRANCH  10  12
ENDBRANCH   7  10
ENDBRANCH   1   7
BRANCH   4  19
ATOM     19  N   UNL d   1      -0.721  -1.139   5.515  0.00  0.00    -0.333 N 
ATOM     20  H   UNL d   1      -0.699  -0.362   6.163  0.00  0.00     0.168 HD
BRANCH  19  21
ATOM     21  C   UNL d   1      -1.310  -2.268   6.033  0.00  0.00     0.172 C 
ATOM     22  S   UNL d   1      -2.401  -3.281   5.277  0.00  0.00    -0.041 SA
BRANCH  21  23
ATOM     23  N   UNL d   1      -0.975  -2.530   7.339  0.00  0.00    -0.367 N 
ATOM     24  H   UNL d   1      -1.464  -3.323   7.745  0.00  0.00     0.161 HD
BRANCH  23  25
ATOM     25  C   UNL d   1       0.269  -2.103   7.955  0.00  0.00     0.117 C 
ATOM     26  C   UNL d   1       0.729  -3.046   9.051  0.00  0.00     0.026 C 
ENDBRANCH  23  25
ENDBRANCH  21  23
ENDBRANCH  19  21
ENDBRANCH   4  19
TORSDOF 7
