REMARK  6 active torsions:
REMARK  status: ('A' for Active; 'I' for Inactive)
REMARK    1  A    between atoms: N_3  and  C_1 
REMARK    2  A    between atoms: N_5  and  C_1 
REMARK       I    between atoms: C_2  and  N_4 
REMARK    3  A    between atoms: O_8  and  C_2 
REMARK    4  A    between atoms: N_4  and  N_3 
REMARK    5  A    between atoms: C_9  and  N_5 
REMARK    6  A    between atoms: C_10  and  O_8 
ROOT
ATOM      1  C   UNL d   1       1.026  -0.022  -0.289  0.00  0.00     0.186 C 
ATOM      2  S   UNL d   1       2.503   0.548  -0.821  0.00  0.00    -0.040 SA
ENDROOT
BRANCH   1   3
ATOM      3  N   UNL d   1       0.373  -1.129  -0.765  0.00  0.00    -0.272 N 
ATOM      4  H   UNL d   1       0.006  -1.742  -0.044  0.00  0.00     0.189 HD
BRANCH   3   5
ATOM      5  N   UNL d   1       0.868  -1.832  -1.869  0.00  0.00    -0.243 N 
ATOM      6  C   UNL d   1       1.108  -3.175  -1.767  0.00  0.00     0.379 C 
ATOM      7  O   UNL d   1       0.832  -3.860  -0.793  0.00  0.00    -0.237 OA
ATOM      8  H   UNL d   1       1.313  -1.311  -2.611  0.00  0.00     0.192 HD
BRANCH   6   9
ATOM      9  O   UNL d   1       1.704  -3.602  -2.902  0.00  0.00    -0.303 OA
BRANCH   9  10
ATOM     10  C   UNL d   1       2.185  -4.952  -2.897  0.00  0.00     0.176 C 
ATOM     11  C   UNL d   1       3.647  -4.927  -2.495  0.00  0.00     0.034 C 
ENDBRANCH   9  10
ENDBRANCH   6   9
ENDBRANCH   3   5
ENDBRANCH   1   3
BRANCH   1  12
ATOM     12  N   UNL d   1       0.371   0.679   0.688  0.00  0.00    -0.361 N 
ATOM     13  H   UNL d   1       0.920   1.497   0.948  0.00  0.00     0.162 HD
BRANCH  12  14
ATOM     14  C   UNL d   1      -1.088   0.874   0.791  0.00  0.00     0.083 C 
ATOM     15  C   UNL d   1      -1.384   1.948   1.852  0.00  0.00     0.025 C 
ATOM     16  C   UNL d   1      -1.059   1.462   3.267  0.00  0.00     0.002 C 
ATOM     17  C   UNL d   1      -1.736   0.132   3.599  0.00  0.00     0.000 C 
ATOM     18  C   UNL d   1      -1.516  -0.923   2.518  0.00  0.00     0.002 C 
ATOM     19  C   UNL d   1      -1.899  -0.381   1.145  0.00  0.00     0.025 C 
ENDBRANCH  12  14
ENDBRANCH   1  12
TORSDOF 6
