REMARK  4 active torsions:
REMARK  status: ('A' for Active; 'I' for Inactive)
REMARK    1  A    between atoms: C_5  and  C_1 
REMARK       I    between atoms: C_2  and  N_8 
REMARK    2  A    between atoms: C_3  and  C_2 
REMARK    3  A    between atoms: N_8  and  N_6 
REMARK    4  A    between atoms: C_18  and  C_19 
ROOT
ATOM      1  N   UNL d   1      -0.632  -2.746  -5.547  0.00  0.00    -0.308 N 
ATOM      2  HN  UNL d   1      -0.210  -3.425  -4.914  1.00  0.00     0.186 HD
ATOM      3  C   UNL d   1      -0.818  -1.514  -5.196  0.00  0.00     0.118 C 
ENDROOT
BRANCH   1   4
ATOM      4  N   UNL d   1      -1.031  -3.092  -6.806  0.00  0.00    -0.265 N 
ATOM      5  C   UNL d   1      -0.907  -4.373  -7.342  0.00  0.00     0.286 C 
ATOM      6  O   UNL d   1      -1.299  -4.570  -8.492  0.00  0.00    -0.264 OA
ATOM      7  H   UNL d   1      -1.445  -2.404  -7.425  0.00  0.00     0.190 HD
BRANCH   5   8
ATOM      8  C   UNL d   1      -0.319  -5.416  -6.516  0.00  0.00     0.102 A 
ATOM      9  N   UNL d   1       0.119  -5.232  -5.226  0.00  0.00    -0.361 N 
ATOM     10  C   UNL d   1       0.632  -6.384  -4.707  0.00  0.00     0.088 A 
ATOM     11  H   UNL d   1       0.049  -4.331  -4.770  0.00  0.00     0.165 HD
ATOM     12  C   UNL d   1       0.522  -7.353  -5.676  0.00  0.00     0.019 A 
ATOM     13  C   UNL d   1      -0.078  -6.747  -6.811  0.00  0.00     0.036 A 
ENDBRANCH   5   8
ENDBRANCH   1   4
BRANCH   3  14
ATOM     14  C   UNL d   1      -0.417  -1.054  -3.848  0.00  0.00    -0.019 A 
ATOM     15  C   UNL d   1       0.184  -1.939  -2.946  0.00  0.00     0.013 A 
ATOM     16  C   UNL d   1       0.556  -1.506  -1.675  0.00  0.00     0.017 A 
ATOM     17  C   UNL d   1       0.335  -0.179  -1.285  0.00  0.00     0.048 A 
ATOM     18  C   UNL d   1      -0.267   0.705  -2.197  0.00  0.00     0.017 A 
ATOM     19  C   UNL d   1      -0.642   0.271  -3.475  0.00  0.00     0.013 A 
BRANCH  17  20
ATOM     20  C   UNL d   1       0.746   0.265   0.099  0.00  0.00     0.417 C 
ATOM     21  F   UNL d   1       0.481   1.576   0.351  0.00  0.00    -0.166 F 
ATOM     22  F   UNL d   1       2.079   0.101   0.320  0.00  0.00    -0.166 F 
ATOM     23  F   UNL d   1       0.114  -0.442   1.077  0.00  0.00    -0.166 F 
ENDBRANCH  17  20
ENDBRANCH   3  14
TORSDOF 4
