REMARK  4 active torsions:
REMARK  status: ('A' for Active; 'I' for Inactive)
REMARK    1  A    between atoms: N_7  and  C_1 
REMARK    2  A    between atoms: C_12  and  N_4 
REMARK    3  A    between atoms: C_9  and  C_6 
REMARK       I    between atoms: C_8  and  N_7 
REMARK       I    between atoms: N_10  and  C_8 
REMARK    4  A    between atoms: C_15  and  N_10 
ROOT
ATOM      1  N   UNL d   1       1.418  -3.206   4.908  0.00  0.00    -0.191 NA
ATOM      2  C   UNL d   1       0.367  -3.677   4.752  0.00  0.00     0.102 C 
ATOM      3  C   UNL d   1      -1.718  -3.858   3.426  0.00  0.00     0.057 A 
ATOM      4  C   UNL d   1      -0.929  -4.243   4.523  0.00  0.00     0.071 A 
ATOM      5  C   UNL d   1      -1.373  -5.264   5.381  0.00  0.00     0.025 A 
ATOM      6  C   UNL d   1      -2.971  -4.465   3.249  0.00  0.00     0.031 A 
ATOM      7  C   UNL d   1      -2.608  -5.878   5.173  0.00  0.00     0.002 A 
ATOM      8  C   UNL d   1      -3.410  -5.468   4.114  0.00  0.00     0.002 A 
ENDROOT
BRANCH   3   9
ATOM      9  N   UNL d   1      -1.253  -2.895   2.479  0.00  0.00    -0.307 N 
ATOM     10  C   UNL d   1      -1.423  -3.077   1.124  0.00  0.00     0.326 C 
ATOM     11  N   UNL d   1      -0.685  -2.265   0.306  0.00  0.00    -0.293 N 
ATOM     12  O   UNL d   1      -2.023  -4.015   0.600  0.00  0.00    -0.247 OA
ATOM     13  H   UNL d   1      -0.501  -2.677  -0.604  0.00  0.00     0.172 HD
ATOM     14  H   UNL d   1      -0.416  -2.375   2.718  0.00  0.00     0.170 HD
BRANCH  11  15
ATOM     15  C   UNL d   1      -0.103  -1.053   0.609  0.00  0.00     0.133 C 
ATOM     16  N   UNL d   1       1.200  -0.698   0.266  0.00  0.00    -0.239 N 
ATOM     17  N   UNL d   1       1.352   0.651   0.290  0.00  0.00    -0.291 N 
ATOM     18  C   UNL d   1       0.210   1.124   0.801  0.00  0.00     0.069 C 
ATOM     19  HN  UNL d   1       2.163   1.188  -0.015  1.00  0.00     0.187 HD
ATOM     20  C   UNL d   1      -0.687   0.081   1.131  0.00  0.00     0.083 C 
BRANCH  16  21
ATOM     21  C   UNL d   1       2.332  -1.542   0.022  0.00  0.00     0.058 A 
ATOM     22  C   UNL d   1       3.580  -0.950  -0.235  0.00  0.00     0.033 A 
ATOM     23  C   UNL d   1       4.726  -1.739  -0.385  0.00  0.00     0.020 A 
ATOM     24  C   UNL d   1       4.633  -3.124  -0.293  0.00  0.00     0.006 A 
ATOM     25  C   UNL d   1       3.403  -3.728  -0.052  0.00  0.00     0.020 A 
ATOM     26  I   UNL d   1       6.335  -4.299  -0.484  0.00  0.00    -0.045 I 
ATOM     27  C   UNL d   1       2.259  -2.939   0.116  0.00  0.00     0.033 A 
ENDBRANCH  16  21
BRANCH  18  28
ATOM     28  C   UNL d   1      -0.040   2.604   0.903  0.00  0.00     0.033 A 
ATOM     29  S   UNL d   1      -1.469   3.311   1.515  0.00  0.00    -0.100 SA
ATOM     30  C   UNL d   1      -0.896   4.896   1.209  0.00  0.00     0.050 A 
ATOM     31  C   UNL d   1       0.361   4.890   0.647  0.00  0.00     0.008 A 
ATOM     32  C   UNL d   1       0.856   3.564   0.470  0.00  0.00     0.021 A 
ENDBRANCH  18  28
ENDBRANCH  11  15
ENDBRANCH   3   9
TORSDOF 4
