REMARK  3 active torsions:
REMARK  status: ('A' for Active; 'I' for Inactive)
REMARK    1  A    between atoms: N_7  and  C_1 
REMARK    2  A    between atoms: N_5  and  C_4 
REMARK    3  A    between atoms: N_8  and  C_6 
ROOT
ATOM      1  C   UNL d   1      -0.747   1.227   0.032  0.00  0.00     0.117 A 
ATOM      2  N   UNL d   1      -1.383   0.024   0.062  0.00  0.00    -0.331 N 
ATOM      3  HN  UNL d   1      -2.403  -0.000   0.069  1.00  0.00     0.168 HD
ATOM      4  C   UNL d   1       0.644   1.245   0.030  0.00  0.00     0.141 A 
ATOM      5  C   UNL d   1      -0.693  -1.146   0.082  0.00  0.00     0.104 A 
ATOM      6  C   UNL d   1       1.386   0.067   0.013  0.00  0.00     0.043 A 
ATOM      7  C   UNL d   1       0.700  -1.139   0.029  0.00  0.00     0.051 A 
ENDROOT
BRANCH   1   8
ATOM      8  N   UNL d   1      -1.520   2.391   0.005  0.00  0.00    -0.267 NA
ATOM      9  C   UNL d   1      -2.938   2.293   0.385  0.00  0.00     0.097 C 
ATOM     10  C   UNL d   1      -3.702   2.985  -0.742  0.00  0.00     0.016 C 
ATOM     11  C   UNL d   1      -2.702   3.995  -1.269  0.00  0.00     0.016 C 
ATOM     12  C   UNL d   1      -1.389   3.224  -1.202  0.00  0.00     0.097 C 
ENDBRANCH   1   8
BRANCH   4  13
ATOM     13  N   UNL d   1       1.371   2.484   0.095  0.00  0.00    -0.112 N 
ATOM     14  O   UNL d   1       1.342   3.117   1.159  0.00  0.00    -0.532 OA
ATOM     15  O   UNL d   1       2.038   2.791  -0.905  0.00  0.00    -0.532 OA
ENDBRANCH   4  13
BRANCH   5  16
ATOM     16  N   UNL d   1      -1.387  -2.344   0.127  0.00  0.00    -0.367 N 
ATOM     17  C   UNL d   1      -2.842  -2.330   0.291  0.00  0.00     0.124 C 
ATOM     18  C   UNL d   1      -3.110  -3.412   1.337  0.00  0.00     0.021 C 
ATOM     19  C   UNL d   1      -1.995  -4.414   1.094  0.00  0.00     0.021 C 
ATOM     20  C   UNL d   1      -0.800  -3.517   0.778  0.00  0.00     0.124 C 
ENDBRANCH   5  16
TORSDOF 3
