REMARK  2 active torsions:
REMARK  status: ('A' for Active; 'I' for Inactive)
REMARK    1  A    between atoms: C_5  and  C_3 
REMARK    2  A    between atoms: C_8  and  C_4 
ROOT
ATOM      1  N   UNL d   1       1.156   0.107   0.322  0.00  0.00    -0.318 N 
ATOM      2  HN  UNL d   1       2.080   0.201   0.744  1.00  0.00     0.169 HD
ATOM      3  C   UNL d   1       0.522  -0.998  -0.011  0.00  0.00     0.186 A 
ATOM      4  C   UNL d   1       0.277   1.105  -0.035  0.00  0.00     0.141 A 
ATOM      5  N   UNL d   1      -0.886   0.637  -0.516  0.00  0.00    -0.242 N 
ATOM      6  HN  UNL d   1      -1.692   1.173  -0.837  1.00  0.00     0.196 HD
ATOM      7  O   UNL d   1      -0.739  -0.741  -0.476  0.00  0.00    -0.217 OA
ENDROOT
BRANCH   3   8
ATOM      8  C   UNL d   1       1.108  -2.354   0.049  0.00  0.00     0.073 A 
ATOM      9  C   UNL d   1       2.395  -2.674   0.410  0.00  0.00     0.089 A 
ATOM     10  O   UNL d   1       2.556  -4.022   0.303  0.00  0.00    -0.242 OA
ATOM     11  C   UNL d   1       3.577  -1.905   0.839  0.00  0.00     0.080 C 
ATOM     12  N   UNL d   1       1.376  -4.598  -0.133  0.00  0.00    -0.265 N 
ATOM     13  C   UNL d   1       0.510  -3.588  -0.289  0.00  0.00     0.045 A 
ATOM     14  HN  UNL d   1       1.202  -5.589  -0.301  1.00  0.00     0.194 HD
ATOM     15  C   UNL d   1      -0.866  -3.858  -0.767  0.00  0.00     0.071 C 
ENDBRANCH   3   8
BRANCH   4  16
ATOM     16  C   UNL d   1       0.620   2.522   0.022  0.00  0.00     0.053 A 
ATOM     17  C   UNL d   1       1.898   2.975  -0.373  0.00  0.00     0.049 A 
ATOM     18 CL   UNL d   1       3.156   1.924  -0.943  0.00  0.00    -0.083 Cl
ATOM     19  C   UNL d   1       2.216   4.341  -0.365  0.00  0.00     0.025 A 
ATOM     20  C   UNL d   1       1.270   5.285   0.017  0.00  0.00     0.003 A 
ATOM     21  C   UNL d   1       0.007   4.862   0.416  0.00  0.00     0.025 A 
ATOM     22  C   UNL d   1      -0.317   3.495   0.430  0.00  0.00     0.049 A 
ATOM     23 CL   UNL d   1      -1.903   3.111   1.016  0.00  0.00    -0.083 Cl
ENDBRANCH   4  16
TORSDOF 2
