REMARK  7 active torsions:
REMARK  status: ('A' for Active; 'I' for Inactive)
REMARK    1  A    between atoms: N_3  and  C_1 
REMARK    2  A    between atoms: N_8  and  C_1 
REMARK    3  A    between atoms: O_12  and  C_2 
REMARK    4  A    between atoms: C_10  and  N_3 
REMARK    5  A    between atoms: N_4  and  N_8 
REMARK    6  A    between atoms: C_6  and  C_11 
REMARK    7  A    between atoms: O_13  and  C_9 
ROOT
ATOM      1  N   UNL d   1       3.174  -0.762   0.861  0.00  0.00    -0.309 N 
ATOM      2  HN  UNL d   1       2.657  -1.329   1.533  1.00  0.00     0.186 HD
ATOM      3  C   UNL d   1       4.472  -0.751   0.786  0.00  0.00     0.121 C 
ENDROOT
BRANCH   1   4
ATOM      4  N   UNL d   1       2.571   0.061  -0.047  0.00  0.00    -0.277 N 
ATOM      5  H   UNL d   1       3.127   0.678  -0.639  0.00  0.00     0.189 HD
BRANCH   4   6
ATOM      6  C   UNL d   1       1.199   0.166  -0.181  0.00  0.00     0.187 C 
ATOM      7  S   UNL d   1       0.606   1.274  -1.272  0.00  0.00    -0.040 SA
BRANCH   6   8
ATOM      8  N   UNL d   1       0.508  -0.709   0.611  0.00  0.00    -0.358 N 
ATOM      9  H   UNL d   1       1.142  -1.232   1.201  0.00  0.00     0.162 HD
BRANCH   8  10
ATOM     10  C   UNL d   1      -0.910  -1.127   0.616  0.00  0.00     0.021 C 
ATOM     11  C   UNL d   1      -1.334  -1.643  -0.769  0.00  0.00     0.037 C 
ATOM     12  C   UNL d   1      -1.048  -2.294   1.617  0.00  0.00     0.037 C 
ATOM     13  C   UNL d   1      -1.845   0.000   1.082  0.00  0.00     0.037 C 
ENDBRANCH   8  10
ENDBRANCH   6   8
ENDBRANCH   4   6
ENDBRANCH   1   4
BRANCH   3  14
ATOM     14  C   UNL d   1       5.315  -1.476   1.759  0.00  0.00     0.017 A 
ATOM     15  C   UNL d   1       4.766  -2.223   2.804  0.00  0.00     0.110 A 
ATOM     16  C   UNL d   1       5.606  -2.796   3.756  0.00  0.00     0.099 A 
ATOM     17  C   UNL d   1       6.984  -2.649   3.679  0.00  0.00     0.039 A 
ATOM     18  C   UNL d   1       7.537  -1.927   2.620  0.00  0.00     0.004 A 
ATOM     19  C   UNL d   1       6.706  -1.340   1.659  0.00  0.00     0.016 A 
BRANCH  15  20
ATOM     20  O   UNL d   1       3.420  -2.424   2.966  0.00  0.00    -0.357 OA
ATOM     21  H   UNL d   1       2.980  -1.935   2.237  0.00  0.00     0.217 HD
ENDBRANCH  15  20
BRANCH  16  22
ATOM     22  O   UNL d   1       5.071  -3.500   4.798  0.00  0.00    -0.358 OA
ATOM     23  H   UNL d   1       4.103  -3.454   4.655  0.00  0.00     0.217 HD
ENDBRANCH  16  22
ENDBRANCH   3  14
TORSDOF 7
