REMARK  5 active torsions:
REMARK  status: ('A' for Active; 'I' for Inactive)
REMARK    1  A    between atoms: S_2  and  C_1 
REMARK    2  A    between atoms: C_10  and  S_2 
REMARK    3  A    between atoms: C_7  and  C_3 
REMARK    4  A    between atoms: N_11  and  C_4 
REMARK    5  A    between atoms: O_13  and  C_7 
ROOT
ATOM      1  C   UNL d   1      -0.713  -1.218   0.110  0.00  0.00     0.093 A 
ATOM      2  C   UNL d   1       0.385   0.763  -0.481  0.00  0.00     0.100 A 
ATOM      3  C   UNL d   1      -0.224  -0.389  -0.949  0.00  0.00     0.052 A 
ATOM      4  S   UNL d   1       0.410   0.797   1.236  0.00  0.00    -0.092 SA
ATOM      5  C   UNL d   1      -0.424  -0.686   1.350  0.00  0.00     0.076 A 
ENDROOT
BRANCH   1   6
ATOM      6  S   UNL d   1      -1.516  -2.744  -0.079  0.00  0.00     0.209 S 
ATOM      7  O   UNL d   1      -1.100  -3.217  -1.387  0.00  0.00    -0.217 OA
ATOM      8  O   UNL d   1      -1.227  -3.478   1.133  0.00  0.00    -0.217 OA
BRANCH   6   9
ATOM      9  C   UNL d   1      -3.247  -2.381  -0.135  0.00  0.00     0.064 A 
ATOM     10  C   UNL d   1      -3.891  -2.284  -1.372  0.00  0.00     0.024 A 
ATOM     11  C   UNL d   1      -5.269  -2.070  -1.415  0.00  0.00     0.002 A 
ATOM     12  C   UNL d   1      -5.995  -1.965  -0.229  0.00  0.00     0.000 A 
ATOM     13  C   UNL d   1      -5.350  -2.075   1.004  0.00  0.00     0.002 A 
ATOM     14  C   UNL d   1      -3.972  -2.290   1.056  0.00  0.00     0.024 A 
ENDBRANCH   6   9
ENDBRANCH   1   6
BRANCH   3  15
ATOM     15  N   UNL d   1      -0.311  -0.686  -2.283  0.00  0.00    -0.300 NA
ATOM     16  H   UNL d   1       0.585  -0.738  -2.784  0.00  0.00     0.124 HD
ATOM     17  H   UNL d   1      -0.762  -1.588  -2.504  0.00  0.00     0.124 HD
ENDBRANCH   3  15
BRANCH   2  18
ATOM     18  C   UNL d   1       0.967   1.884  -1.202  0.00  0.00     0.185 C 
ATOM     19  O   UNL d   1       1.699   2.751  -0.742  0.00  0.00    -0.646 OA
BRANCH  18  20
ATOM     20  O   UNL d   1       0.601   1.894  -2.514  0.00  0.00    -0.772 OA
ATOM     21  H   UNL d   1      -0.046   1.178  -2.706  0.00  0.00     0.167 HD
ENDBRANCH  18  20
ENDBRANCH   2  18
TORSDOF 5
