REMARK  6 active torsions:
REMARK  status: ('A' for Active; 'I' for Inactive)
REMARK       I    between atoms: N_2  and  C_1 
REMARK    1  A    between atoms: C_10  and  C_1 
REMARK    2  A    between atoms: C_3  and  N_2 
REMARK    3  A    between atoms: C_5  and  C_11 
REMARK    4  A    between atoms: O_14  and  C_5 
REMARK    5  A    between atoms: C_13  and  C_10 
REMARK    6  A    between atoms: C_11  and  C_13 
ROOT
ATOM      1  C   UNL d   1       0.787   0.003  -0.083  0.00  0.00     0.222 C 
ATOM      2  N   UNL d   1       0.367   0.875  -1.073  0.00  0.00    -0.327 N 
ATOM      3  O   UNL d   1       0.062  -0.733   0.578  0.00  0.00    -0.273 OA
ATOM      4  H   UNL d   1       1.079   1.211  -1.707  0.00  0.00     0.169 HD
ENDROOT
BRANCH   1   5
ATOM      5  C   UNL d   1       2.293   0.061   0.127  0.00  0.00     0.108 C 
BRANCH   5   6
ATOM      6  C   UNL d   1       2.852  -1.164   0.873  0.00  0.00    -0.000 C 
ATOM      7  C   UNL d   1       4.246  -0.872   1.434  0.00  0.00     0.011 C 
BRANCH   6   8
ATOM      8  C   UNL d   1       2.833  -2.463   0.041  0.00  0.00     0.114 C 
BRANCH   8   9
ATOM      9  C   UNL d   1       3.673  -2.457  -1.223  0.00  0.00     0.139 C 
ATOM     10  O   UNL d   1       4.208  -1.482  -1.720  0.00  0.00    -0.650 OA
BRANCH   9  11
ATOM     11  O   UNL d   1       3.750  -3.682  -1.793  0.00  0.00    -0.776 OA
ATOM     12  H   UNL d   1       3.258  -4.373  -1.310  0.00  0.00     0.167 HD
ENDBRANCH   9  11
ENDBRANCH   8   9
ENDBRANCH   6   8
ENDBRANCH   5   6
ENDBRANCH   1   5
BRANCH   2  13
ATOM     13  C   UNL d   1      -0.970   1.209  -1.373  0.00  0.00     0.040 A 
ATOM     14  C   UNL d   1      -1.313   1.653  -2.666  0.00  0.00    -0.034 A 
ATOM     15  C   UNL d   1      -2.635   2.076  -2.915  0.00  0.00     0.032 A 
ATOM     16  C   UNL d   1      -0.371   1.644  -3.840  0.00  0.00     0.050 C 
ATOM     17  C   UNL d   1      -3.595   2.051  -1.906  0.00  0.00     0.034 A 
ATOM     18  C   UNL d   1      -3.262   1.598  -0.637  0.00  0.00     0.026 A 
ATOM     19 CL   UNL d   1      -5.198   2.581  -2.236  0.00  0.00    -0.084 Cl
ATOM     20  C   UNL d   1      -1.956   1.175  -0.375  0.00  0.00     0.032 A 
ENDBRANCH   2  13
TORSDOF 6
