REMARK  5 active torsions:
REMARK  status: ('A' for Active; 'I' for Inactive)
REMARK    1  A    between atoms: C_3  and  C_1 
REMARK    2  A    between atoms: O_11  and  C_1 
REMARK    3  A    between atoms: C_10  and  C_3 
REMARK    4  A    between atoms: C_8  and  S_9 
REMARK    5  A    between atoms: S_9  and  C_10 
ROOT
ATOM      1  C   UNL d   1       2.080   7.027   3.100  0.00  0.00    -0.025 A 
ATOM      2  C   UNL d   1       1.193   6.056   2.600  0.00  0.00     0.030 A 
ATOM      3  C   UNL d   1       3.292   6.614   3.698  0.00  0.00    -0.026 A 
ATOM      4  C   UNL d   1       3.583   5.242   3.771  0.00  0.00     0.013 A 
ATOM      5  C   UNL d   1       1.477   4.689   2.702  0.00  0.00     0.001 A 
ATOM      6  C   UNL d   1       2.684   4.288   3.277  0.00  0.00     0.019 A 
ATOM      7  C   UNL d   1       1.788   8.399   3.022  0.00  0.00     0.012 A 
ATOM      8  C   UNL d   1       4.175   7.584   4.202  0.00  0.00     0.012 A 
ATOM      9  C   UNL d   1       2.671   9.351   3.534  0.00  0.00     0.001 A 
ATOM     10  C   UNL d   1       3.864   8.944   4.124  0.00  0.00     0.001 A 
ENDROOT
BRANCH   5  11
ATOM     11  S   UNL d   1       0.323   3.511   2.017  0.00  0.00    -0.130 SA
BRANCH  11  12
ATOM     12  C   UNL d   1      -0.076   2.501   3.494  0.00  0.00     0.090 C 
BRANCH  12  13
ATOM     13  C   UNL d   1      -1.134   1.469   3.108  0.00  0.00     0.120 C 
BRANCH  13  14
ATOM     14  C   UNL d   1      -1.493   0.584   4.273  0.00  0.00     0.140 C 
ATOM     15  O   UNL d   1      -1.010   0.665   5.393  0.00  0.00    -0.650 OA
BRANCH  14  16
ATOM     16  O   UNL d   1      -2.428  -0.342   3.957  0.00  0.00    -0.776 OA
ATOM     17  H   UNL d   1      -2.736  -0.305   3.030  0.00  0.00     0.167 HD
ENDBRANCH  14  16
ENDBRANCH  13  14
ENDBRANCH  12  13
ENDBRANCH  11  12
ENDBRANCH   5  11
TORSDOF 5
