REMARK  4 active torsions:
REMARK  status: ('A' for Active; 'I' for Inactive)
REMARK    1  A    between atoms: O_14  and  C_2 
REMARK    2  A    between atoms: C_10  and  C_5 
REMARK    3  A    between atoms: C_11  and  C_6 
REMARK    4  A    between atoms: O_18  and  C_15 
ROOT
ATOM      1  C   UNL d   1      -0.782   1.188  -0.132  0.00  0.00     0.106 A 
ATOM      2  C   UNL d   1      -1.371  -0.076  -0.106  0.00  0.00     0.162 A 
ATOM      3  N   UNL d   1      -0.679  -1.227  -0.038  0.00  0.00    -0.335 N 
ATOM      4  HN  UNL d   1      -1.161  -2.126  -0.031  1.00  0.00     0.168 HD
ATOM      5  C   UNL d   1       0.621   1.279  -0.027  0.00  0.00     0.001 A 
ATOM      6  C   UNL d   1       0.669  -1.164   0.020  0.00  0.00     0.045 A 
ATOM      7  C   UNL d   1       1.331   0.064   0.057  0.00  0.00     0.044 A 
ATOM      8  C   UNL d   1      -1.619   2.333  -0.291  0.00  0.00     0.104 C 
ATOM      9  N   UNL d   1      -2.369   3.216  -0.386  0.00  0.00    -0.191 NA
ENDROOT
BRANCH   2  10
ATOM     10  O   UNL d   1      -2.723  -0.282  -0.147  0.00  0.00    -0.345 OA
ATOM     11  H   UNL d   1      -3.211   0.555  -0.098  0.00  0.00     0.219 HD
ENDBRANCH   2  10
BRANCH   5  12
ATOM     12  C   UNL d   1       1.378   2.561  -0.016  0.00  0.00    -0.024 A 
ATOM     13  C   UNL d   1       0.943   3.685   0.708  0.00  0.00     0.015 A 
ATOM     14  C   UNL d   1       1.640   4.901   0.674  0.00  0.00     0.037 A 
ATOM     15  C   UNL d   1       2.822   5.016  -0.048  0.00  0.00     0.068 A 
ATOM     16  C   UNL d   1       3.302   3.900  -0.731  0.00  0.00     0.037 A 
ATOM     17  C   UNL d   1       2.585   2.696  -0.727  0.00  0.00     0.015 A 
BRANCH  15  18
ATOM     18  O   UNL d   1       3.596   6.137  -0.152  0.00  0.00    -0.356 OA
ATOM     19  C   UNL d   1       3.062   7.332   0.406  0.00  0.00     0.210 C 
ENDBRANCH  15  18
ENDBRANCH   5  12
BRANCH   6  20
ATOM     20  C   UNL d   1       1.378  -2.461   0.048  0.00  0.00    -0.009 A 
ATOM     21  C   UNL d   1       0.777  -3.596   0.622  0.00  0.00     0.013 A 
ATOM     22  C   UNL d   1       1.440  -4.826   0.675  0.00  0.00     0.001 A 
ATOM     23  C   UNL d   1       2.720  -4.951   0.145  0.00  0.00     0.000 A 
ATOM     24  C   UNL d   1       3.331  -3.851  -0.449  0.00  0.00     0.001 A 
ATOM     25  C   UNL d   1       2.665  -2.622  -0.501  0.00  0.00     0.013 A 
ENDBRANCH   6  20
TORSDOF 4
