REMARK  4 active torsions:
REMARK  status: ('A' for Active; 'I' for Inactive)
REMARK    1  A    between atoms: C_3  and  C_1 
REMARK       I    between atoms: N_6  and  C_1 
REMARK    2  A    between atoms: N_2  and  C_10 
REMARK    3  A    between atoms: N_8  and  C_4 
REMARK    4  A    between atoms: C_5  and  N_9 
ROOT
ATOM      1  C   UNL d   1       1.032  -0.081  -0.107  0.00  0.00     0.260 C 
ATOM      2  N   UNL d   1       0.419  -1.228   0.398  0.00  0.00    -0.345 N 
ATOM      3  N   UNL d   1      -0.702  -3.603   1.555  0.00  0.00    -0.376 N 
ATOM      4  O   UNL d   1       2.010   0.431   0.439  0.00  0.00    -0.267 OA
ATOM      5  C   UNL d   1       0.935  -1.743   1.680  0.00  0.00     0.146 C 
ATOM      6  C   UNL d   1      -0.945  -1.685   0.069  0.00  0.00     0.146 C 
ATOM      7  C   UNL d   1       0.706  -3.259   1.873  0.00  0.00     0.143 C 
ATOM      8  C   UNL d   1      -1.075  -3.218   0.184  0.00  0.00     0.143 C 
ENDROOT
BRANCH   3   9
ATOM      9  C   UNL d   1      -1.252  -4.726   2.162  0.00  0.00     0.058 A 
ATOM     10  C   UNL d   1      -1.471  -4.813   3.563  0.00  0.00     0.067 A 
ATOM     11  C   UNL d   1      -1.987  -5.984   4.151  0.00  0.00     0.068 A 
ATOM     12  C   UNL d   1      -2.328  -7.071   3.343  0.00  0.00     0.105 A 
ATOM     13  C   UNL d   1      -2.131  -7.016   1.964  0.00  0.00     0.038 A 
ATOM     14  C   UNL d   1      -1.596  -5.855   1.392  0.00  0.00     0.034 A 
BRANCH  10  15
ATOM     15  N   UNL d   1      -1.236  -3.705   4.437  0.00  0.00    -0.331 N 
ATOM     16  C   UNL d   1      -1.419  -2.365   4.154  0.00  0.00     0.097 C 
ATOM     17  C   UNL d   1      -0.956  -1.609   5.204  0.00  0.00     0.019 C 
ATOM     18  C   UNL d   1      -0.554  -2.508   6.215  0.00  0.00     0.019 C 
ATOM     19  C   UNL d   1      -0.785  -3.783   5.745  0.00  0.00     0.097 C 
ENDBRANCH  10  15
BRANCH  12  20
ATOM     20  N   UNL d   1      -2.929  -8.266   3.953  0.00  0.00    -0.116 N 
ATOM     21  O   UNL d   1      -3.089  -8.273   5.179  0.00  0.00    -0.532 OA
ATOM     22  O   UNL d   1      -3.242  -9.200   3.196  0.00  0.00    -0.532 OA
ENDBRANCH  12  20
ENDBRANCH   3   9
BRANCH   1  23
ATOM     23  C   UNL d   1       0.554   0.555  -1.347  0.00  0.00     0.109 A 
ATOM     24  C   UNL d   1       0.474   1.950  -1.414  0.00  0.00     0.135 A 
ATOM     25  F   UNL d   1       0.727   2.711  -0.339  0.00  0.00    -0.205 F 
ATOM     26  C   UNL d   1       0.114   2.592  -2.599  0.00  0.00     0.043 A 
ATOM     27  C   UNL d   1      -0.181   1.842  -3.736  0.00  0.00     0.006 A 
ATOM     28  C   UNL d   1      -0.092   0.452  -3.686  0.00  0.00     0.043 A 
ATOM     29  C   UNL d   1       0.301  -0.178  -2.504  0.00  0.00     0.135 A 
ATOM     30  F   UNL d   1       0.424  -1.514  -2.517  0.00  0.00    -0.205 F 
ENDBRANCH   1  23
TORSDOF 4
