REMARK  2 active torsions:
REMARK  status: ('A' for Active; 'I' for Inactive)
REMARK    1  A    between atoms: C_2  and  C_1 
REMARK    2  A    between atoms: N_9  and  C_2 
ROOT
ATOM      1  C   UNL d   1      -0.021   2.540  -0.026  0.00  0.00     0.004 A 
ATOM      2  C   UNL d   1      -1.226   1.820   0.003  0.00  0.00     0.033 A 
ATOM      3  C   UNL d   1       1.193   1.838  -0.031  0.00  0.00     0.033 A 
ATOM      4  C   UNL d   1       1.194   0.442  -0.019  0.00  0.00     0.013 A 
ATOM      5  C   UNL d   1      -1.205   0.425   0.022  0.00  0.00     0.013 A 
ATOM      6  C   UNL d   1      -0.001  -0.272   0.009  0.00  0.00     0.038 A 
ATOM      7 BR   UNL d   1      -2.835  -0.533   0.071  0.00  0.00    -0.051 Br
ATOM      8 BR   UNL d   1       2.840  -0.490  -0.033  0.00  0.00    -0.051 Br
ENDROOT
BRANCH   1   9
ATOM      9  C   UNL d   1      -0.020   4.032  -0.037  0.00  0.00     0.104 C 
ATOM     10  S   UNL d   1      -1.173   5.009   0.679  0.00  0.00    -0.060 SA
BRANCH   9  11
ATOM     11  N   UNL d   1       1.015   4.646  -0.696  0.00  0.00    -0.390 N 
ATOM     12  H   UNL d   1       1.708   4.160  -1.249  0.00  0.00     0.157 HD
ATOM     13  H   UNL d   1       1.016   5.660  -0.746  0.00  0.00     0.157 HD
ENDBRANCH   9  11
ENDBRANCH   1   9
TORSDOF 2
