REMARK  5 active torsions:
REMARK  status: ('A' for Active; 'I' for Inactive)
REMARK    1  A    between atoms: N_2  and  C_1 
REMARK    2  A    between atoms: C_3  and  C_14 
REMARK    3  A    between atoms: C_5  and  C_10 
REMARK    4  A    between atoms: N_17  and  C_11 
REMARK    5  A    between atoms: N_12  and  N_17 
ROOT
ATOM      1  C   UNL d   1      -0.197   0.952   0.076  0.00  0.00     0.131 A 
ATOM      2  C   UNL d   1      -0.945  -0.245  -0.004  0.00  0.00     0.054 A 
ATOM      3  C   UNL d   1      -0.557  -1.276  -0.873  0.00  0.00     0.050 A 
ATOM      4  C   UNL d   1       0.982   1.120  -0.682  0.00  0.00     0.081 A 
ATOM      5  C   UNL d   1       1.309   0.099  -1.593  0.00  0.00     0.034 A 
ATOM      6  C   UNL d   1       0.561  -1.078  -1.689  0.00  0.00     0.018 A 
ENDROOT
BRANCH   4   7
ATOM      7  N   UNL d   1       1.821   2.263  -0.611  0.00  0.00    -0.299 N 
ATOM      8  H   UNL d   1       1.565   2.906   0.151  0.00  0.00     0.187 HD
BRANCH   7   9
ATOM      9  N   UNL d   1       3.151   2.035  -0.840  0.00  0.00    -0.309 N 
ATOM     10  C   UNL d   1       3.936   3.041  -0.592  0.00  0.00     0.137 C 
ATOM     11  HN  UNL d   1       3.502   1.140  -1.180  1.00  0.00     0.186 HD
BRANCH  10  12
ATOM     12  C   UNL d   1       5.362   2.896  -0.754  0.00  0.00     0.055 A 
ATOM     13  N   UNL d   1       5.960   1.727  -1.175  0.00  0.00    -0.358 N 
ATOM     14  C   UNL d   1       7.323   1.867  -1.211  0.00  0.00     0.006 A 
ATOM     15  H   UNL d   1       5.441   0.888  -1.404  0.00  0.00     0.166 HD
ATOM     16  C   UNL d   1       8.234   0.761  -1.598  0.00  0.00     0.068 C 
ATOM     17  C   UNL d   1       7.607   3.159  -0.826  0.00  0.00     0.033 A 
ATOM     18  C   UNL d   1       6.379   3.816  -0.525  0.00  0.00    -0.032 A 
ATOM     19  C   UNL d   1       6.263   5.218  -0.047  0.00  0.00     0.050 C 
ENDBRANCH  10  12
ENDBRANCH   7   9
ENDBRANCH   4   7
BRANCH   1  20
ATOM     20  N   UNL d   1      -0.675   1.996   0.995  0.00  0.00    -0.113 N 
ATOM     21  O   UNL d   1      -1.770   1.820   1.549  0.00  0.00    -0.532 OA
ATOM     22  O   UNL d   1       0.038   2.998   1.170  0.00  0.00    -0.532 OA
ENDBRANCH   1  20
BRANCH   3  23
ATOM     23  C   UNL d   1      -1.307  -2.586  -0.936  0.00  0.00     0.417 C 
ATOM     24  F   UNL d   1      -2.333  -2.666  -0.046  0.00  0.00    -0.166 F 
ATOM     25  F   UNL d   1      -1.851  -2.815  -2.162  0.00  0.00    -0.166 F 
ATOM     26  F   UNL d   1      -0.502  -3.653  -0.676  0.00  0.00    -0.166 F 
ENDBRANCH   3  23
TORSDOF 5
