REMARK  3 active torsions:
REMARK  status: ('A' for Active; 'I' for Inactive)
REMARK    1  A    between atoms: C_4  and  N_1 
REMARK    2  A    between atoms: C_5  and  O_9 
REMARK    3  A    between atoms: O_9  and  C_8 
ROOT
ATOM      1  C   UNL d   1       0.084   2.175  -0.038  0.00  0.00     0.079 A 
ATOM      2  C   UNL d   1      -0.797   2.868   0.817  0.00  0.00     0.105 A 
ATOM      3  C   UNL d   1       1.026   2.928  -0.757  0.00  0.00     0.033 A 
ATOM      4  C   UNL d   1      -0.790   4.266   0.873  0.00  0.00     0.039 A 
ATOM      5  C   UNL d   1       1.043   4.325  -0.686  0.00  0.00     0.002 A 
ATOM      6  C   UNL d   1       0.128   4.994   0.121  0.00  0.00     0.003 A 
ENDROOT
BRANCH   1   7
ATOM      7  N   UNL d   1       0.043   0.766  -0.195  0.00  0.00    -0.242 N 
ATOM      8  C   UNL d   1       1.129  -0.031  -0.421  0.00  0.00     0.255 A 
ATOM      9  C   UNL d   1       0.642  -1.411  -0.528  0.00  0.00     0.080 A 
ATOM     10  O   UNL d   1       2.315   0.241  -0.498  0.00  0.00    -0.268 OA
ATOM     11  C   UNL d   1      -0.684  -1.386  -0.422  0.00  0.00     0.080 A 
ATOM     12  C   UNL d   1      -1.097   0.012  -0.250  0.00  0.00     0.255 A 
ATOM     13  O   UNL d   1      -2.269   0.338  -0.245  0.00  0.00    -0.268 OA
ENDBRANCH   1   7
BRANCH   2  14
ATOM     14  O   UNL d   1      -1.695   2.252   1.645  0.00  0.00    -0.253 OA
BRANCH  14  15
ATOM     15  C   UNL d   1      -1.094   1.536   2.720  0.00  0.00     0.530 C 
ATOM     16  F   UNL d   1       0.258   1.521   2.674  0.00  0.00    -0.144 F 
ATOM     17  F   UNL d   1      -1.471   2.093   3.890  0.00  0.00    -0.144 F 
ATOM     18  F   UNL d   1      -1.524   0.254   2.701  0.00  0.00    -0.144 F 
ENDBRANCH  14  15
ENDBRANCH   2  14
TORSDOF 3
