REMARK  5 active torsions:
REMARK  status: ('A' for Active; 'I' for Inactive)
REMARK    1  A    between atoms: C_10  and  N_1 
REMARK    2  A    between atoms: S_9  and  C_2 
REMARK    3  A    between atoms: C_8  and  C_11 
REMARK    4  A    between atoms: C_11  and  S_9 
REMARK    5  A    between atoms: C_12  and  C_10 
ROOT
ATOM      1  N   UNL d   1       1.999  -0.627   0.513  0.00  0.00    -0.293 N 
ATOM      2  C   UNL d   1       2.067   0.764   0.548  0.00  0.00     0.150 A 
ATOM      3  C   UNL d   1       0.759  -1.262   0.429  0.00  0.00     0.262 A 
ATOM      4  N   UNL d   1       1.047   1.541   0.393  0.00  0.00    -0.336 N 
ATOM      5  HN  UNL d   1       1.162   2.554   0.409  1.00  0.00     0.168 HD
ATOM      6  C   UNL d   1      -0.420  -0.401   0.233  0.00  0.00     0.059 A 
ATOM      7  C   UNL d   1      -0.217   0.973   0.201  0.00  0.00     0.049 A 
ATOM      8  O   UNL d   1       0.584  -2.473   0.524  0.00  0.00    -0.267 OA
ATOM      9  C   UNL d   1      -1.701  -0.946   0.080  0.00  0.00     0.019 A 
ATOM     10  C   UNL d   1      -1.315   1.810  -0.012  0.00  0.00     0.030 A 
ATOM     11  C   UNL d   1      -2.792  -0.102  -0.125  0.00  0.00     0.001 A 
ATOM     12  C   UNL d   1      -2.597   1.277  -0.179  0.00  0.00     0.002 A 
ENDROOT
BRANCH   2  13
ATOM     13  S   UNL d   1       3.640   1.509   0.808  0.00  0.00    -0.089 SA
BRANCH  13  14
ATOM     14  C   UNL d   1       3.251   3.266   0.804  0.00  0.00     0.124 C 
BRANCH  14  15
ATOM     15  C   UNL d   1       3.045   4.070   2.081  0.00  0.00    -0.005 A 
ATOM     16  C   UNL d   1       2.776   3.585   3.376  0.00  0.00     0.042 A 
ATOM     17 CL   UNL d   1       2.565   1.919   3.792  0.00  0.00    -0.084 Cl
ATOM     18  C   UNL d   1       2.621   4.464   4.467  0.00  0.00     0.024 A 
ATOM     19  C   UNL d   1       2.704   5.842   4.302  0.00  0.00     0.003 A 
ATOM     20  C   UNL d   1       2.929   6.353   3.038  0.00  0.00     0.024 A 
ATOM     21  C   UNL d   1       3.092   5.487   1.948  0.00  0.00     0.042 A 
ATOM     22 CL   UNL d   1       3.332   6.266   0.411  0.00  0.00    -0.084 Cl
ENDBRANCH  14  15
ENDBRANCH  13  14
ENDBRANCH   2  13
BRANCH   1  23
ATOM     23  C   UNL d   1       3.153  -1.508   0.728  0.00  0.00     0.139 C 
BRANCH  23  24
ATOM     24  C   UNL d   1       4.130  -1.499  -0.429  0.00  0.00     0.004 A 
ATOM     25  C   UNL d   1       4.980  -2.718  -0.711  0.00  0.00     0.007 A 
ATOM     26  C   UNL d   1       5.615  -1.490  -0.133  0.00  0.00     0.007 A 
ENDBRANCH  23  24
ENDBRANCH   1  23
TORSDOF 5
