REMARK  5 active torsions:
REMARK  status: ('A' for Active; 'I' for Inactive)
REMARK    1  A    between atoms: C_9  and  C_1 
REMARK    2  A    between atoms: C_14  and  C_4 
REMARK    3  A    between atoms: C_5  and  C_10 
REMARK    4  A    between atoms: C_6  and  C_11 
REMARK    5  A    between atoms: C_12  and  C_9 
ROOT
ATOM      1  C   UNL d   1      -5.515  -2.088   0.446  0.00  0.00     0.086 A 
ATOM      2  O   UNL d   1      -4.266  -2.262   0.958  0.00  0.00    -0.310 OA
ATOM      3  C   UNL d   1      -3.333  -1.912   0.009  0.00  0.00     0.077 A 
ATOM      4  C   UNL d   1      -5.411  -1.588  -0.832  0.00  0.00     0.041 A 
ATOM      5  C   UNL d   1      -4.029  -1.453  -1.102  0.00  0.00     0.040 A 
ENDROOT
BRANCH   1   6
ATOM      6  C   UNL d   1      -6.634  -2.407   1.333  0.00  0.00    -0.001 A 
ATOM      7  C   UNL d   1      -6.445  -2.976   2.603  0.00  0.00     0.030 A 
ATOM      8  C   UNL d   1      -7.527  -3.180   3.482  0.00  0.00     0.049 A 
ATOM      9  C   UNL d   1      -8.820  -2.830   3.061  0.00  0.00     0.032 A 
ATOM     10  C   UNL d   1      -9.035  -2.272   1.795  0.00  0.00     0.049 A 
ATOM     11  C   UNL d   1      -7.939  -2.084   0.938  0.00  0.00     0.030 A 
BRANCH   8  12
ATOM     12  C   UNL d   1      -7.286  -3.715   4.875  0.00  0.00     0.417 C 
ATOM     13  F   UNL d   1      -8.413  -3.741   5.643  0.00  0.00    -0.166 F 
ATOM     14  F   UNL d   1      -6.806  -4.987   4.877  0.00  0.00    -0.166 F 
ATOM     15  F   UNL d   1      -6.385  -2.968   5.571  0.00  0.00    -0.166 F 
ENDBRANCH   8  12
BRANCH  10  16
ATOM     16  C   UNL d   1     -10.403  -1.811   1.352  0.00  0.00     0.417 C 
ATOM     17  F   UNL d   1     -11.367  -1.980   2.296  0.00  0.00    -0.166 F 
ATOM     18  F   UNL d   1     -10.416  -0.487   1.035  0.00  0.00    -0.166 F 
ATOM     19  F   UNL d   1     -10.840  -2.466   0.242  0.00  0.00    -0.166 F 
ENDBRANCH  10  16
ENDBRANCH   1   6
BRANCH   3  20
ATOM     20  C   UNL d   1      -1.932  -1.964   0.212  0.00  0.00     0.055 C 
BRANCH  20  21
ATOM     21  C   UNL d   1      -1.309  -2.916   0.923  0.00  0.00     0.047 A 
ATOM     22  C   UNL d   1       0.166  -2.767   1.197  0.00  0.00     0.257 A 
ATOM     23  N   UNL d   1       0.475  -3.809   2.057  0.00  0.00    -0.322 N 
ATOM     24  O   UNL d   1       0.916  -1.911   0.774  0.00  0.00    -0.267 OA
ATOM     25  C   UNL d   1      -0.636  -4.612   2.301  0.00  0.00     0.046 A 
ATOM     26  H   UNL d   1       1.402  -3.958   2.423  0.00  0.00     0.169 HD
ATOM     27  C   UNL d   1      -1.753  -4.138   1.605  0.00  0.00     0.006 A 
ATOM     28  C   UNL d   1      -0.676  -5.745   3.088  0.00  0.00     0.030 A 
ATOM     29  C   UNL d   1      -2.934  -4.859   1.633  0.00  0.00     0.015 A 
ATOM     30  C   UNL d   1      -3.006  -6.000   2.435  0.00  0.00     0.001 A 
ATOM     31  C   UNL d   1      -1.887  -6.436   3.164  0.00  0.00     0.002 A 
ENDBRANCH  20  21
ENDBRANCH   3  20
TORSDOF 5
