REMARK  7 active torsions:
REMARK  status: ('A' for Active; 'I' for Inactive)
REMARK    1  A    between atoms: C_2  and  S_1 
REMARK    2  A    between atoms: N_10  and  S_1 
REMARK    3  A    between atoms: C_11  and  N_10 
REMARK    4  A    between atoms: C_18  and  C_11 
REMARK    5  A    between atoms: N_12  and  C_18 
REMARK    6  A    between atoms: C_19  and  N_12 
REMARK    7  A    between atoms: C_20  and  N_12 
ROOT
ATOM      1  S   UNL d   1       0.907   0.086  -0.141  0.00  0.00     0.259 S 
ATOM      2  O   UNL d   1       2.354   0.080  -0.084  0.00  0.00    -0.201 OA
ATOM      3  O   UNL d   1       0.175   1.121   0.539  0.00  0.00    -0.201 OA
ENDROOT
BRANCH   1   4
ATOM      4  C   UNL d   1       0.332  -1.583   0.340  0.00  0.00     0.092 A 
ATOM      5  C   UNL d   1       0.971  -2.708  -0.278  0.00  0.00    -0.032 A 
ATOM      6  C   UNL d   1       0.616  -4.026   0.122  0.00  0.00    -0.048 A 
ATOM      7  C   UNL d   1       2.025  -2.588  -1.359  0.00  0.00     0.050 C 
ATOM      8  C   UNL d   1       1.273  -5.248  -0.498  0.00  0.00     0.049 C 
ATOM      9  C   UNL d   1      -0.365  -4.233   1.122  0.00  0.00    -0.049 A 
ATOM     10  C   UNL d   1      -1.023  -3.124   1.709  0.00  0.00    -0.048 A 
ATOM     11  C   UNL d   1      -0.679  -5.656   1.547  0.00  0.00     0.049 C 
ATOM     12  C   UNL d   1      -0.700  -1.787   1.309  0.00  0.00    -0.032 A 
ATOM     13  C   UNL d   1      -2.077  -3.402   2.770  0.00  0.00     0.049 C 
ATOM     14  C   UNL d   1      -1.487  -0.684   1.981  0.00  0.00     0.050 C 
ENDBRANCH   1   4
BRANCH   1  15
ATOM     15  N   UNL d   1       0.463   0.187  -1.759  0.00  0.00    -0.314 N 
ATOM     16  H   UNL d   1       1.186  -0.033  -2.448  0.00  0.00     0.172 HD
BRANCH  15  17
ATOM     17  C   UNL d   1      -0.924  -0.092  -2.122  0.00  0.00     0.162 C 
BRANCH  17  18
ATOM     18  C   UNL d   1      -1.140   0.032  -3.644  0.00  0.00     0.292 C 
BRANCH  18  19
ATOM     19  N   UNL d   1      -0.304  -0.833  -4.520  0.00  0.00     0.089 N 
BRANCH  19  20
ATOM     20  C   UNL d   1      -0.377  -2.263  -4.182  0.00  0.00     0.268 C 
ATOM     21  C   UNL d   1      -1.714  -2.969  -4.381  0.00  0.00     0.037 C 
ENDBRANCH  19  20
BRANCH  19  22
ATOM     22  C   UNL d   1      -0.645  -0.550  -5.930  0.00  0.00     0.268 C 
ATOM     23  C   UNL d   1       0.183  -1.313  -6.959  0.00  0.00     0.037 C 
ENDBRANCH  19  22
ENDBRANCH  18  19
ENDBRANCH  17  18
ENDBRANCH  15  17
ENDBRANCH   1  15
TORSDOF 7
