REMARK  4 active torsions:
REMARK  status: ('A' for Active; 'I' for Inactive)
REMARK    1  A    between atoms: C_2  and  S_1 
REMARK    2  A    between atoms: O_3  and  S_1 
REMARK    3  A    between atoms: C_16  and  O_3 
REMARK    4  A    between atoms: C_5  and  C_11 
ROOT
ATOM      1  O   UNL d   1       0.454   0.171   1.540  0.00  0.00    -0.229 OA
ENDROOT
BRANCH   1   2
ATOM      2  S   UNL d   1      -0.934   1.023   1.632  0.00  0.00     0.304 S 
ATOM      3  O   UNL d   1      -1.979   0.237   0.999  0.00  0.00    -0.193 OA
ATOM      4  O   UNL d   1      -1.122   1.548   2.971  0.00  0.00    -0.193 OA
BRANCH   2   5
ATOM      5  C   UNL d   1      -0.646   2.429   0.592  0.00  0.00     0.110 A 
ATOM      6  C   UNL d   1      -1.577   2.711  -0.420  0.00  0.00     0.051 A 
ATOM      7  C   UNL d   1      -1.389   3.825  -1.235  0.00  0.00     0.035 A 
ATOM      8 CL   UNL d   1      -2.529   4.180  -2.472  0.00  0.00    -0.084 Cl
ATOM      9  C   UNL d   1      -0.287   4.654  -1.051  0.00  0.00     0.025 A 
ATOM     10  C   UNL d   1       0.638   4.367  -0.044  0.00  0.00     0.027 A 
ATOM     11  C   UNL d   1       0.465   3.252   0.784  0.00  0.00     0.058 A 
ATOM     12 CL   UNL d   1       1.661   2.995   2.000  0.00  0.00    -0.083 Cl
ENDBRANCH   2   5
ENDBRANCH   1   2
BRANCH   1  13
ATOM     13  C   UNL d   1       0.767  -0.801   2.454  0.00  0.00     0.089 A 
ATOM     14  C   UNL d   1      -0.155  -1.452   3.269  0.00  0.00     0.039 A 
ATOM     15  C   UNL d   1       0.276  -2.425   4.176  0.00  0.00     0.012 A 
ATOM     16  C   UNL d   1       1.632  -2.777   4.272  0.00  0.00    -0.035 A 
ATOM     17  C   UNL d   1       2.547  -2.122   3.430  0.00  0.00     0.012 A 
ATOM     18  C   UNL d   1       2.117  -1.146   2.528  0.00  0.00     0.039 A 
BRANCH  16  19
ATOM     19  C   UNL d   1       2.055  -3.860   5.244  0.00  0.00     0.141 C 
ATOM     20  S   UNL d   1       3.302  -3.285   6.442  0.00  0.00    -0.148 SA
ATOM     21  C   UNL d   1       4.314  -4.784   6.419  0.00  0.00     0.085 C 
ATOM     22  C   UNL d   1       4.355  -5.287   4.991  0.00  0.00     0.085 C 
ATOM     23  S   UNL d   1       2.654  -5.352   4.379  0.00  0.00    -0.148 SA
ENDBRANCH  16  19
ENDBRANCH   1  13
TORSDOF 4
