REMARK  2 active torsions:
REMARK  status: ('A' for Active; 'I' for Inactive)
REMARK    1  A    between atoms: C_5  and  C_2 
REMARK    2  A    between atoms: O_18  and  C_7 
ROOT
ATOM      1  C   UNL d   1      -0.688  -0.767  -0.098  0.00  0.00     0.058 C 
ATOM      2  C   UNL d   1      -1.668  -1.677  -0.200  0.00  0.00     0.041 C 
ATOM      3  C   UNL d   1      -0.892   0.744  -0.010  0.00  0.00     0.174 C 
ATOM      4  N   UNL d   1       0.695  -1.085  -0.054  0.00  0.00    -0.280 NA
ATOM      5  C   UNL d   1       0.456   1.460  -0.028  0.00  0.00     0.064 C 
ATOM      6  C   UNL d   1       1.437  -0.543  -1.228  0.00  0.00     0.096 C 
ATOM      7  C   UNL d   1       1.356  -0.562   1.186  0.00  0.00     0.096 C 
ATOM      8  O   UNL d   1      -1.960   1.324   0.086  0.00  0.00    -0.291 OA
ATOM      9  C   UNL d   1       1.213   0.976   1.220  0.00  0.00     0.027 C 
ATOM     10  C   UNL d   1       1.198   0.981  -1.295  0.00  0.00     0.027 C 
ENDROOT
BRANCH   2  11
ATOM     11  C   UNL d   1      -3.102  -1.382  -0.149  0.00  0.00     0.000 A 
ATOM     12  C   UNL d   1      -3.893  -1.464   1.012  0.00  0.00     0.078 A 
ATOM     13  C   UNL d   1      -5.238  -1.067   0.943  0.00  0.00     0.039 A 
ATOM     14  C   UNL d   1      -5.804  -0.603  -0.244  0.00  0.00     0.022 A 
ATOM     15  C   UNL d   1      -5.024  -0.546  -1.391  0.00  0.00     0.011 A 
ATOM     16  C   UNL d   1      -3.688  -0.938  -1.352  0.00  0.00     0.033 A 
ATOM     17 BR   UNL d   1      -5.775   0.086  -3.006  0.00  0.00    -0.051 Br
BRANCH  12  18
ATOM     18  O   UNL d   1      -3.561  -1.881   2.273  0.00  0.00    -0.355 OA
ATOM     19  C   UNL d   1      -2.247  -2.321   2.564  0.00  0.00     0.210 C 
ENDBRANCH  12  18
ENDBRANCH   2  11
TORSDOF 2
