REMARK  3 active torsions:
REMARK  status: ('A' for Active; 'I' for Inactive)
REMARK    1  A    between atoms: C_2  and  S_1 
REMARK    2  A    between atoms: C_5  and  S_1 
REMARK    3  A    between atoms: O_12  and  N_6 
ROOT
ATOM      1  C   UNL d   1       2.697  -0.320   0.031  0.00  0.00     0.234 C 
ATOM      2  C   UNL d   1       3.355  -0.721  -1.183  0.00  0.00     0.132 C 
ATOM      3  N   UNL d   1       3.882  -1.045  -2.169  0.00  0.00    -0.189 NA
ATOM      4  N   UNL d   1       3.356  -0.266   1.157  0.00  0.00    -0.248 N 
ATOM      5  HN  UNL d   1       2.935   0.010   2.045  1.00  0.00     0.195 HD
ENDROOT
BRANCH   1   6
ATOM      6  S   UNL d   1       1.002   0.078  -0.090  0.00  0.00     0.234 S 
ATOM      7  O   UNL d   1       0.304  -1.157  -0.400  0.00  0.00    -0.215 OA
ATOM      8  O   UNL d   1       0.906   1.234  -0.965  0.00  0.00    -0.215 OA
BRANCH   6   9
ATOM      9  C   UNL d   1       0.495   0.592   1.532  0.00  0.00     0.066 A 
ATOM     10  C   UNL d   1       0.565   1.943   1.879  0.00  0.00     0.024 A 
ATOM     11  C   UNL d   1       0.143   2.349   3.146  0.00  0.00     0.008 A 
ATOM     12  C   UNL d   1      -0.359   1.416   4.063  0.00  0.00    -0.062 A 
ATOM     13  C   UNL d   1      -0.448   0.068   3.691  0.00  0.00     0.008 A 
ATOM     14  C   UNL d   1      -0.804   1.873   5.422  0.00  0.00     0.048 C 
ATOM     15  C   UNL d   1      -0.028  -0.347   2.425  0.00  0.00     0.024 A 
ENDBRANCH   6   9
ENDBRANCH   1   6
BRANCH   4  16
ATOM     16  O   UNL d   1       4.704  -0.629   1.017  0.00  0.00    -0.288 OA
ATOM     17  H   UNL d   1       5.056  -0.552   1.927  0.00  0.00     0.244 HD
ENDBRANCH   4  16
TORSDOF 3
