REMARK  2 active torsions:
REMARK  status: ('A' for Active; 'I' for Inactive)
REMARK       I    between atoms: N_3  and  C_1 
REMARK       I    between atoms: N_5  and  C_1 
REMARK    1  A    between atoms: N_2  and  C_4 
REMARK    2  A    between atoms: C_7  and  N_6 
ROOT
ATOM      1  C   UNL d   1       0.667   0.066   0.080  0.00  0.00     0.320 C 
ATOM      2  N   UNL d   1       0.104   1.049  -0.713  0.00  0.00    -0.333 N 
ATOM      3  N   UNL d   1       0.123  -0.250   1.311  0.00  0.00    -0.330 N 
ATOM      4  N   UNL d   1      -2.154   1.891  -2.471  0.00  0.00    -0.366 N 
ATOM      5  O   UNL d   1       1.686  -0.518  -0.300  0.00  0.00    -0.247 OA
ATOM      6  C   UNL d   1      -0.940   2.004  -0.341  0.00  0.00     0.147 C 
ATOM      7  C   UNL d   1      -2.262   1.653  -1.032  0.00  0.00     0.144 C 
ATOM      8  O   UNL d   1      -1.002  -1.947   3.349  0.00  0.00    -0.388 OA
ATOM      9  C   UNL d   1      -0.091   0.677  -3.225  0.00  0.00     0.040 C 
ATOM     10  C   UNL d   1       0.668   1.300  -2.048  0.00  0.00     0.129 C 
ATOM     11  C   UNL d   1      -1.619   0.790  -3.272  0.00  0.00     0.126 C 
ATOM     12  C   UNL d   1       0.970  -0.963   2.282  0.00  0.00     0.153 C 
ATOM     13  C   UNL d   1      -1.248  -0.076   1.803  0.00  0.00     0.153 C 
ATOM     14  C   UNL d   1       0.294  -2.236   2.802  0.00  0.00     0.187 C 
ATOM     15  C   UNL d   1      -1.840  -1.380   2.340  0.00  0.00     0.187 C 
ENDROOT
BRANCH   4  16
ATOM     16  C   UNL d   1      -2.622   3.052  -3.042  0.00  0.00     0.103 A 
ATOM     17  N   UNL d   1      -2.909   3.070  -4.360  0.00  0.00    -0.350 N 
ATOM     18  C   UNL d   1      -3.439   4.202  -4.906  0.00  0.00     0.125 A 
ATOM     19  HN  UNL d   1      -2.733   2.249  -4.940  1.00  0.00     0.166 HD
ATOM     20  C   UNL d   1      -3.676   5.355  -4.182  0.00  0.00     0.118 A 
ATOM     21  C   UNL d   1      -3.352   5.371  -2.836  0.00  0.00     0.041 A 
ATOM     22  C   UNL d   1      -2.828   4.205  -2.270  0.00  0.00     0.051 A 
BRANCH  20  23
ATOM     23  N   UNL d   1      -4.250   6.527  -4.818  0.00  0.00    -0.114 N 
ATOM     24  O   UNL d   1      -4.540   6.447  -6.020  0.00  0.00    -0.532 OA
ATOM     25  O   UNL d   1      -4.417   7.537  -4.119  0.00  0.00    -0.532 OA
ENDBRANCH  20  23
ENDBRANCH   4  16
TORSDOF 2
