REMARK  7 active torsions:
REMARK  status: ('A' for Active; 'I' for Inactive)
REMARK    1  A    between atoms: C_2  and  S_1 
REMARK    2  A    between atoms: N_3  and  S_1 
REMARK       I    between atoms: C_5  and  N_4 
REMARK    3  A    between atoms: C_24  and  C_5 
REMARK    4  A    between atoms: C_16  and  C_25 
REMARK    5  A    between atoms: O_23  and  C_16 
REMARK    6  A    between atoms: S_20  and  C_24 
REMARK    7  A    between atoms: C_25  and  S_20 
ROOT
ATOM      1  N   UNL d   1       0.418   0.519  -1.451  0.00  0.00    -0.304 N 
ATOM      2  N   UNL d   1      -1.907   2.254  -1.240  0.00  0.00    -0.348 N 
ATOM      3  C   UNL d   1      -3.084   3.002  -1.148  0.00  0.00     0.229 C 
ATOM      4  C   UNL d   1       0.538   1.966  -1.792  0.00  0.00     0.155 C 
ATOM      5  C   UNL d   1      -0.956   0.004  -1.717  0.00  0.00     0.155 C 
ATOM      6  C   UNL d   1      -2.009   0.815  -0.958  0.00  0.00     0.146 C 
ATOM      7  C   UNL d   1      -0.552   2.819  -1.102  0.00  0.00     0.146 C 
ATOM      8  O   UNL d   1      -4.174   2.449  -0.979  0.00  0.00    -0.273 OA
ENDROOT
BRANCH   1   9
ATOM      9  S   UNL d   1       1.168  -0.008  -0.024  0.00  0.00     0.261 S 
ATOM     10  O   UNL d   1       1.383   1.145   0.822  0.00  0.00    -0.200 OA
ATOM     11  O   UNL d   1       0.491  -1.192   0.457  0.00  0.00    -0.200 OA
BRANCH   9  12
ATOM     12  C   UNL d   1       2.754  -0.564  -0.603  0.00  0.00     0.083 A 
ATOM     13  C   UNL d   1       3.926  -0.062  -0.031  0.00  0.00     0.049 A 
ATOM     14  C   UNL d   1       5.153  -0.608  -0.407  0.00  0.00     0.037 A 
ATOM     15 CL   UNL d   1       6.599  -0.038   0.330  0.00  0.00    -0.084 Cl
ATOM     16  C   UNL d   1       5.221  -1.630  -1.353  0.00  0.00     0.047 A 
ATOM     17  C   UNL d   1       4.046  -2.107  -1.931  0.00  0.00     0.037 A 
ATOM     18  C   UNL d   1       2.806  -1.583  -1.560  0.00  0.00     0.049 A 
ATOM     19 CL   UNL d   1       4.123  -3.373  -3.094  0.00  0.00    -0.084 Cl
ENDBRANCH   9  12
ENDBRANCH   1   9
BRANCH   3  20
ATOM     20  C   UNL d   1      -2.963   4.516  -1.321  0.00  0.00     0.177 C 
BRANCH  20  21
ATOM     21  S   UNL d   1      -4.548   5.417  -1.099  0.00  0.00    -0.149 SA
BRANCH  21  22
ATOM     22  C   UNL d   1      -4.884   5.025   0.653  0.00  0.00     0.184 C 
BRANCH  22  23
ATOM     23  C   UNL d   1      -3.821   5.630   1.541  0.00  0.00     0.149 C 
ATOM     24  O   UNL d   1      -3.102   4.986   2.290  0.00  0.00    -0.649 OA
BRANCH  23  25
ATOM     25  O   UNL d   1      -3.713   6.975   1.411  0.00  0.00    -0.776 OA
ATOM     26  H   UNL d   1      -4.308   7.321   0.713  0.00  0.00     0.167 HD
ENDBRANCH  23  25
ENDBRANCH  22  23
ENDBRANCH  21  22
ENDBRANCH  20  21
ENDBRANCH   3  20
TORSDOF 7
