REMARK  7 active torsions:
REMARK  status: ('A' for Active; 'I' for Inactive)
REMARK    1  A    between atoms: C_10  and  N_1 
REMARK    2  A    between atoms: S_11  and  C_2 
REMARK    3  A    between atoms: C_9  and  C_8 
REMARK    4  A    between atoms: C_12  and  C_10 
REMARK    5  A    between atoms: C_22  and  S_11 
REMARK    6  A    between atoms: C_13  and  C_21 
REMARK    7  A    between atoms: C_25  and  C_22 
ROOT
ATOM      1  N   UNL d   1       2.193  -0.749  -0.156  0.00  0.00    -0.288 N 
ATOM      2  C   UNL d   1       2.673   0.247  -0.986  0.00  0.00     0.150 C 
ATOM      3  C   UNL d   1       1.675  -1.919  -0.706  0.00  0.00     0.262 C 
ATOM      4  N   UNL d   1       2.537   0.261  -2.273  0.00  0.00    -0.336 N 
ATOM      5  HN  UNL d   1       2.854   1.059  -2.824  1.00  0.00     0.168 HD
ATOM      6  C   UNL d   1       1.605  -1.988  -2.176  0.00  0.00     0.059 A 
ATOM      7  C   UNL d   1       1.946  -0.845  -2.890  0.00  0.00     0.049 A 
ATOM      8  O   UNL d   1       1.310  -2.889  -0.045  0.00  0.00    -0.267 OA
ATOM      9  C   UNL d   1       1.236  -3.168  -2.835  0.00  0.00     0.019 A 
ATOM     10  C   UNL d   1       1.823  -0.859  -4.282  0.00  0.00     0.030 A 
ATOM     11  C   UNL d   1       1.177  -3.189  -4.228  0.00  0.00     0.001 A 
ATOM     12  C   UNL d   1       1.443  -2.026  -4.950  0.00  0.00     0.002 A 
ENDROOT
BRANCH   2  13
ATOM     13  S   UNL d   1       3.705   1.506  -0.318  0.00  0.00    -0.089 SA
BRANCH  13  14
ATOM     14  C   UNL d   1       5.253   0.559  -0.452  0.00  0.00     0.121 C 
BRANCH  14  15
ATOM     15  C   UNL d   1       6.580   1.287  -0.420  0.00  0.00    -0.048 A 
ATOM     16  C   UNL d   1       6.742   2.668  -0.285  0.00  0.00     0.009 A 
ATOM     17  C   UNL d   1       8.013   3.254  -0.408  0.00  0.00     0.012 A 
ATOM     18  C   UNL d   1       9.148   2.478  -0.678  0.00  0.00    -0.036 A 
ATOM     19  C   UNL d   1       9.007   1.091  -0.720  0.00  0.00     0.012 A 
ATOM     20  C   UNL d   1       7.741   0.506  -0.596  0.00  0.00     0.009 A 
BRANCH  18  21
ATOM     21  C   UNL d   1      10.417   3.162  -0.977  0.00  0.00     0.012 C 
ATOM     22  C   UNL d   1      11.196   2.803  -2.010  0.00  0.00     0.017 C 
BRANCH  22  23
ATOM     23  C   UNL d   1      12.295   3.651  -2.495  0.00  0.00     0.024 A 
ATOM     24  C   UNL d   1      12.022   4.510  -3.569  0.00  0.00     0.128 A 
ATOM     25  F   UNL d   1      10.797   4.528  -4.123  0.00  0.00    -0.205 F 
ATOM     26  C   UNL d   1      12.990   5.359  -4.101  0.00  0.00     0.043 A 
ATOM     27  C   UNL d   1      14.272   5.366  -3.564  0.00  0.00     0.005 A 
ATOM     28  C   UNL d   1      14.573   4.513  -2.496  0.00  0.00     0.025 A 
ATOM     29  C   UNL d   1      13.594   3.661  -1.967  0.00  0.00     0.047 A 
ATOM     30 CL   UNL d   1      14.053   2.615  -0.668  0.00  0.00    -0.083 Cl
ENDBRANCH  22  23
ENDBRANCH  18  21
ENDBRANCH  14  15
ENDBRANCH  13  14
ENDBRANCH   2  13
BRANCH   1  31
ATOM     31  C   UNL d   1       2.155  -0.655   1.303  0.00  0.00     0.199 C 
BRANCH  31  32
ATOM     32  C   UNL d   1       0.812  -0.205   1.780  0.00  0.00     0.070 A 
ATOM     33  O   UNL d   1       0.183   0.783   1.079  0.00  0.00    -0.325 OA
ATOM     34  C   UNL d   1      -1.006   1.014   1.693  0.00  0.00     0.142 A 
ATOM     35  C   UNL d   1      -1.147   0.200   2.793  0.00  0.00     0.027 A 
ATOM     36  C   UNL d   1       0.031  -0.583   2.855  0.00  0.00     0.036 A 
ENDBRANCH  31  32
ENDBRANCH   1  31
TORSDOF 7
