REMARK  3 active torsions:
REMARK  status: ('A' for Active; 'I' for Inactive)
REMARK       I    between atoms: N_2  and  C_1 
REMARK    1  A    between atoms: C_4  and  C_1 
REMARK    2  A    between atoms: S_9  and  C_5 
REMARK    3  A    between atoms: S_10  and  C_5 
ROOT
ATOM      1  C   UNL d   1       0.909  -0.037   0.296  0.00  0.00     0.260 C 
ATOM      2  N   UNL d   1       0.426  -0.648  -0.823  0.00  0.00    -0.312 N 
ATOM      3  HN  UNL d   1      -0.584  -0.770  -0.895  1.00  0.00     0.170 HD
ATOM      4  C   UNL d   1       1.148  -1.082  -1.795  0.00  0.00     0.109 C 
ATOM      5  O   UNL d   1       1.986  -0.227   0.831  0.00  0.00    -0.267 OA
ENDROOT
BRANCH   1   6
ATOM      6  C   UNL d   1      -0.091   0.862   0.923  0.00  0.00     0.075 A 
ATOM      7  C   UNL d   1      -0.725   1.861   0.163  0.00  0.00     0.051 A 
ATOM      8 CL   UNL d   1      -0.244   2.284  -1.445  0.00  0.00    -0.083 Cl
ATOM      9  C   UNL d   1      -1.783   2.596   0.708  0.00  0.00     0.025 A 
ATOM     10  C   UNL d   1      -2.202   2.359   2.014  0.00  0.00     0.003 A 
ATOM     11  C   UNL d   1      -1.545   1.404   2.787  0.00  0.00     0.025 A 
ATOM     12  C   UNL d   1      -0.492   0.654   2.248  0.00  0.00     0.051 A 
ATOM     13 CL   UNL d   1       0.206  -0.547   3.277  0.00  0.00    -0.083 Cl
ENDBRANCH   1   6
BRANCH   4  14
ATOM     14  S   UNL d   1       2.870  -1.069  -2.062  0.00  0.00    -0.110 SA
ATOM     15  C   UNL d   1       3.372   0.606  -1.635  0.00  0.00     0.097 C 
ENDBRANCH   4  14
BRANCH   4  16
ATOM     16  S   UNL d   1       0.277  -1.852  -3.135  0.00  0.00    -0.110 SA
ATOM     17  C   UNL d   1      -1.394  -1.971  -2.450  0.00  0.00     0.097 C 
ENDBRANCH   4  16
TORSDOF 3
