REMARK  5 active torsions:
REMARK  status: ('A' for Active; 'I' for Inactive)
REMARK    1  A    between atoms: N_2  and  C_1 
REMARK    2  A    between atoms: N_4  and  C_1 
REMARK    3  A    between atoms: C_3  and  C_5 
REMARK    4  A    between atoms: C_9  and  N_4 
REMARK    5  A    between atoms: O_17  and  C_16 
ROOT
ATOM      1  N   UNL d   1       0.171   0.862  -0.594  0.00  0.00    -0.333 N 
ATOM      2  H   UNL d   1      -0.449   0.440  -1.274  0.00  0.00     0.168 HD
ENDROOT
BRANCH   1   3
ATOM      3  C   UNL d   1       0.958  -0.057   0.085  0.00  0.00     0.174 C 
ATOM      4  S   UNL d   1       2.622   0.114   0.265  0.00  0.00    -0.041 SA
BRANCH   3   5
ATOM      5  N   UNL d   1       0.223  -1.185   0.502  0.00  0.00    -0.358 N 
ATOM      6  C   UNL d   1       0.856  -2.409   1.012  0.00  0.00     0.127 C 
ATOM      7  C   UNL d   1       0.158  -3.652   0.463  0.00  0.00     0.051 C 
ATOM      8  C   UNL d   1      -1.360  -3.611   0.637  0.00  0.00     0.121 C 
ATOM      9  C   UNL d   1      -1.965  -2.272   0.219  0.00  0.00     0.051 C 
ATOM     10  C   UNL d   1      -1.209  -1.097   0.820  0.00  0.00     0.127 C 
BRANCH   8  11
ATOM     11  O   UNL d   1      -1.724  -3.916   1.982  0.00  0.00    -0.395 OA
ATOM     12  H   UNL d   1      -1.226  -3.346   2.589  0.00  0.00     0.210 HD
ENDBRANCH   8  11
ENDBRANCH   3   5
ENDBRANCH   1   3
BRANCH   1  13
ATOM     13  C   UNL d   1       0.295   2.265  -0.651  0.00  0.00     0.035 A 
ATOM     14  C   UNL d   1       0.853   3.006   0.397  0.00  0.00     0.045 A 
ATOM     15  C   UNL d   1       0.881   4.408   0.351  0.00  0.00     0.050 A 
ATOM     16  C   UNL d   1       0.358   5.063  -0.773  0.00  0.00     0.016 A 
ATOM     17  C   UNL d   1      -0.208   4.330  -1.816  0.00  0.00     0.003 A 
ATOM     18  C   UNL d   1      -0.255   2.936  -1.746  0.00  0.00     0.029 A 
BRANCH  15  19
ATOM     19  C   UNL d   1       1.433   5.206   1.505  0.00  0.00     0.417 C 
ATOM     20  F   UNL d   1       1.874   4.442   2.544  0.00  0.00    -0.166 F 
ATOM     21  F   UNL d   1       2.485   5.992   1.145  0.00  0.00    -0.166 F 
ATOM     22  F   UNL d   1       0.503   6.049   2.037  0.00  0.00    -0.166 F 
ENDBRANCH  15  19
ENDBRANCH   1  13
TORSDOF 5
