REMARK  6 active torsions:
REMARK  status: ('A' for Active; 'I' for Inactive)
REMARK    1  A    between atoms: N_2  and  C_1 
REMARK    2  A    between atoms: N_10  and  C_1 
REMARK    3  A    between atoms: C_3  and  C_8 
REMARK    4  A    between atoms: C_5  and  C_3 
REMARK    5  A    between atoms: C_18  and  N_10 
REMARK    6  A    between atoms: C_20  and  C_18 
ROOT
ATOM      1  N   UNL d   1       0.072   0.490  -1.014  0.00  0.00    -0.358 N 
ATOM      2  C   UNL d   1       0.539   1.105  -2.254  0.00  0.00     0.126 C 
ATOM      3  C   UNL d   1      -0.987   1.251  -0.346  0.00  0.00     0.126 C 
ATOM      4  C   UNL d   1      -1.757   2.130  -2.642  0.00  0.00     0.064 C 
ATOM      5  C   UNL d   1      -2.162   1.566  -1.270  0.00  0.00     0.032 C 
ATOM      6  C   UNL d   1      -0.605   1.319  -3.240  0.00  0.00     0.032 C 
ENDROOT
BRANCH   4   7
ATOM      7  C   UNL d   1      -1.437   3.633  -2.609  0.00  0.00     0.163 C 
ATOM      8  O   UNL d   1      -1.025   4.181  -1.585  0.00  0.00    -0.292 OA
BRANCH   7   9
ATOM      9  C   UNL d   1      -1.632   4.465  -3.852  0.00  0.00     0.010 A 
ATOM     10  C   UNL d   1      -2.009   3.909  -5.080  0.00  0.00     0.015 A 
ATOM     11  C   UNL d   1      -2.193   4.720  -6.207  0.00  0.00     0.007 A 
ATOM     12  C   UNL d   1      -2.003   6.103  -6.133  0.00  0.00    -0.062 A 
ATOM     13  C   UNL d   1      -1.625   6.665  -4.910  0.00  0.00     0.007 A 
ATOM     14  C   UNL d   1      -2.220   6.950  -7.355  0.00  0.00     0.048 C 
ATOM     15  C   UNL d   1      -1.439   5.853  -3.781  0.00  0.00     0.015 A 
ENDBRANCH   7   9
ENDBRANCH   4   7
BRANCH   1  16
ATOM     16  C   UNL d   1       1.005  -0.103  -0.168  0.00  0.00     0.169 C 
ATOM     17  S   UNL d   1       2.591   0.385   0.059  0.00  0.00    -0.041 SA
BRANCH  16  18
ATOM     18  N   UNL d   1       0.578  -1.194   0.538  0.00  0.00    -0.367 N 
ATOM     19  H   UNL d   1       1.321  -1.599   1.097  0.00  0.00     0.161 HD
BRANCH  18  20
ATOM     20  C   UNL d   1      -0.470  -2.112   0.119  0.00  0.00     0.121 C 
BRANCH  20  21
ATOM     21  C   UNL d   1      -1.102  -2.826   1.308  0.00  0.00     0.015 C 
ATOM     22  C   UNL d   1      -1.823  -1.861   2.237  0.00  0.00     0.006 C 
ENDBRANCH  20  21
ENDBRANCH  18  20
ENDBRANCH  16  18
ENDBRANCH   1  16
TORSDOF 6
