REMARK  10 active torsions:
REMARK  status: ('A' for Active; 'I' for Inactive)
REMARK       I    between atoms: N_4  and  C_1 
REMARK    1  A    between atoms: C_18  and  C_1 
REMARK       I    between atoms: C_2  and  N_5 
REMARK    2  A    between atoms: C_13  and  C_2 
REMARK    3  A    between atoms: O_19  and  C_3 
REMARK    4  A    between atoms: N_5  and  N_4 
REMARK    5  A    between atoms: C_6  and  C_21 
REMARK    6  A    between atoms: O_17  and  C_6 
REMARK    7  A    between atoms: O_20  and  C_7 
REMARK    8  A    between atoms: C_10  and  C_13 
REMARK    9  A    between atoms: S_15  and  C_18 
REMARK   10  A    between atoms: C_21  and  S_15 
ROOT
ATOM      1  C   UNL d   1      -0.009   0.065   3.709  0.00  0.00     0.240 C 
ATOM      2  N   UNL d   1      -0.279   1.374   3.342  0.00  0.00    -0.267 N 
ATOM      3  O   UNL d   1      -0.368  -0.905   3.043  0.00  0.00    -0.272 OA
ATOM      4  H   UNL d   1      -0.232   2.127   4.026  0.00  0.00     0.190 HD
ENDROOT
BRANCH   1   5
ATOM      5  C   UNL d   1       0.809  -0.060   4.986  0.00  0.00     0.143 C 
BRANCH   5   6
ATOM      6  C   UNL d   1      -0.027   0.027   6.240  0.00  0.00    -0.047 A 
ATOM      7  C   UNL d   1       0.164   1.079   7.153  0.00  0.00     0.047 A 
ATOM      8  C   UNL d   1      -0.627   1.201   8.307  0.00  0.00     0.102 A 
ATOM      9  C   UNL d   1      -1.638   0.253   8.538  0.00  0.00     0.101 A 
ATOM     10  C   UNL d   1      -1.788  -0.829   7.661  0.00  0.00     0.040 A 
ATOM     11  C   UNL d   1      -0.992  -0.943   6.521  0.00  0.00     0.010 A 
BRANCH   8  12
ATOM     12  O   UNL d   1      -0.453   2.187   9.241  0.00  0.00    -0.353 OA
ATOM     13  C   UNL d   1       0.598   3.123   9.043  0.00  0.00     0.210 C 
ENDBRANCH   8  12
BRANCH   9  14
ATOM     14  O   UNL d   1      -2.509   0.220   9.599  0.00  0.00    -0.353 OA
ATOM     15  C   UNL d   1      -2.962   1.482  10.079  0.00  0.00     0.210 C 
ENDBRANCH   9  14
ENDBRANCH   5   6
ENDBRANCH   1   5
BRANCH   2  16
ATOM     16  N   UNL d   1      -1.086   1.608   2.216  0.00  0.00    -0.267 N 
ATOM     17  C   UNL d   1      -1.761   2.809   2.115  0.00  0.00     0.245 C 
ATOM     18  O   UNL d   1      -1.692   3.696   2.973  0.00  0.00    -0.271 OA
ATOM     19  H   UNL d   1      -1.137   0.856   1.527  0.00  0.00     0.190 HD
BRANCH  17  20
ATOM     20  C   UNL d   1      -2.571   2.995   0.844  0.00  0.00     0.178 C 
BRANCH  20  21
ATOM     21  S   UNL d   1      -4.362   3.081   1.173  0.00  0.00    -0.149 SA
BRANCH  21  22
ATOM     22  C   UNL d   1      -4.506   4.556   2.239  0.00  0.00     0.184 C 
BRANCH  22  23
ATOM     23  C   UNL d   1      -3.928   5.805   1.611  0.00  0.00     0.149 C 
ATOM     24  O   UNL d   1      -4.534   6.540   0.850  0.00  0.00    -0.649 OA
BRANCH  23  25
ATOM     25  O   UNL d   1      -2.635   6.035   1.955  0.00  0.00    -0.776 OA
ATOM     26  H   UNL d   1      -2.254   5.359   2.566  0.00  0.00     0.167 HD
ENDBRANCH  23  25
ENDBRANCH  22  23
ENDBRANCH  21  22
ENDBRANCH  20  21
ENDBRANCH  17  20
ENDBRANCH   2  16
TORSDOF 10
