REMARK  4 active torsions:
REMARK  status: ('A' for Active; 'I' for Inactive)
REMARK    1  A    between atoms: C_2  and  C_1 
REMARK    2  A    between atoms: O_6  and  C_2 
REMARK    3  A    between atoms: C_9  and  C_3 
REMARK    4  A    between atoms: C_8  and  O_6 
ROOT
ATOM      1  C   UNL d   1       0.974   0.154  -0.143  0.00  0.00     0.120 C 
ATOM      2  C   UNL d   1       0.092  -0.619   0.528  0.00  0.00     0.040 C 
ATOM      3  C   UNL d   1       0.567   1.174  -1.048  0.00  0.00     0.105 C 
ATOM      4  N   UNL d   1       0.222   2.000  -1.785  0.00  0.00    -0.191 NA
ENDROOT
BRANCH   1   5
ATOM      5  C   UNL d   1       2.424  -0.122   0.063  0.00  0.00     0.304 C 
ATOM      6  O   UNL d   1       2.845  -1.054   0.730  0.00  0.00    -0.258 OA
BRANCH   5   7
ATOM      7  O   UNL d   1       3.191   0.784  -0.598  0.00  0.00    -0.307 OA
BRANCH   7   8
ATOM      8  C   UNL d   1       4.644   0.673  -0.622  0.00  0.00     0.060 C 
ATOM      9  C   UNL d   1       5.090  -0.635  -1.287  0.00  0.00     0.046 C 
ATOM     10  C   UNL d   1       5.123   1.858  -1.479  0.00  0.00     0.046 C 
ATOM     11  C   UNL d   1       5.249   0.819   0.779  0.00  0.00     0.046 C 
ENDBRANCH   7   8
ENDBRANCH   5   7
ENDBRANCH   1   5
BRANCH   2  12
ATOM     12  C   UNL d   1      -1.373  -0.545   0.425  0.00  0.00    -0.034 A 
ATOM     13  C   UNL d   1      -2.052  -1.404  -0.450  0.00  0.00     0.014 A 
ATOM     14  C   UNL d   1      -3.447  -1.365  -0.538  0.00  0.00     0.043 A 
ATOM     15  C   UNL d   1      -4.159  -0.468   0.249  0.00  0.00     0.116 A 
ATOM     16  C   UNL d   1      -3.502   0.389   1.124  0.00  0.00     0.043 A 
ATOM     17  F   UNL d   1      -5.495  -0.435   0.169  0.00  0.00    -0.206 F 
ATOM     18  C   UNL d   1      -2.105   0.352   1.214  0.00  0.00     0.014 A 
ENDBRANCH   2  12
TORSDOF 4
